MODEL 1
REMARK VINA RESULT:     -10.7      0.000      0.000
REMARK SMILES C[C@H](C(=O)OCCOC(=O)c1ccc(-c2c3nc(c(-c4c(F)cc(S(=O)(=O)[O-])cc4F)c4ccc([nH]4)c(-c4c(F)cc(S(=O)(=O)[O-])cc4F)c4nc(c(-c5c(F)cc(S(=O)(=O)[O-])cc5F)c5ccc2[nH]5)C=C4)C=C3)cc1)[N@@H+]1CCc2ccccc2C1
REMARK SMILES IDX 7 1 6 2 5 3 3 4 4 5 2 6 1 7 77 8 78 9 86 10 79 12 85 13
REMARK SMILES IDX 80 14 84 15 81 16 83 17 82 18 8 19 9 20 10 21 11 22 12 23
REMARK SMILES IDX 76 24 13 25 75 26 14 27 15 28 16 29 69 30 17 31 74 32 68 33
REMARK SMILES IDX 70 34 18 35 73 36 67 37 66 38 19 40 53 41 32 42 52 43 33 44
REMARK SMILES IDX 36 45 51 46 71 47 34 48 35 49 50 51 72 52 37 53 20 54 21 55
REMARK SMILES IDX 30 56 22 57 23 58 29 59 31 60 24 61 25 62 26 63 27 64 28 65
REMARK SMILES IDX 54 66 55 67 64 68 56 69 57 70 63 71 65 72 58 73 59 74 60 75
REMARK SMILES IDX 61 76 62 77 38 78 39 79 48 80 40 81 41 82 47 83 49 84 42 85
REMARK SMILES IDX 43 86 44 87 45 88 46 89
REMARK H PARENT 77 11 70 39 36 50
REMARK Flexibility Score: inf
ROOT
ATOM      1  C   UNL A   1      40.610  19.729  26.097  1.00  0.00     0.275 C 
ENDROOT
BRANCH   1   2
ATOM      2  C   UNL A   1      42.044  19.223  26.303  1.00  0.00     0.274 C 
BRANCH   2   3
ATOM      3  O   UNL A   1      42.764  19.141  25.047  1.00  0.00    -0.458 OA
BRANCH   3   4
ATOM      4  C   UNL A   1      44.135  19.115  25.126  1.00  0.00     0.364 C 
ATOM      5  O   UNL A   1      44.761  18.089  25.375  1.00  0.00    -0.245 OA
BRANCH   4   6
ATOM      6  C   UNL A   1      44.772  20.542  25.094  1.00  0.00     0.292 C 
ATOM      7  C   UNL A   1      46.245  20.382  24.675  1.00  0.00     0.088 C 
BRANCH   6   8
ATOM      8  N   UNL A   1      44.056  21.675  24.398  1.00  0.00    -0.319 N 
ATOM      9  C   UNL A   1      44.940  22.582  23.648  1.00  0.00     0.268 C 
ATOM     10  C   UNL A   1      43.135  22.507  25.222  1.00  0.00     0.300 C 
ATOM     11  H   UNL A   1      43.477  21.135  23.755  1.00  0.00     0.349 HD
ATOM     12  C   UNL A   1      45.571  23.702  24.502  1.00  0.00     0.097 C 
ATOM     13  C   UNL A   1      43.897  23.234  26.296  1.00  0.00     0.010 A 
ATOM     14  C   UNL A   1      45.199  23.605  25.962  1.00  0.00    -0.034 A 
ATOM     15  C   UNL A   1      43.446  23.326  27.617  1.00  0.00     0.010 A 
ATOM     16  C   UNL A   1      46.110  23.712  26.998  1.00  0.00     0.004 A 
ATOM     17  C   UNL A   1      44.355  23.603  28.635  1.00  0.00     0.001 A 
ATOM     18  C   UNL A   1      45.703  23.723  28.330  1.00  0.00     0.000 A 
ENDBRANCH   6   8
ENDBRANCH   4   6
ENDBRANCH   3   4
ENDBRANCH   2   3
ENDBRANCH   1   2
BRANCH   1  19
ATOM     19  O   UNL A   1      40.479  21.039  26.680  1.00  0.00    -0.458 OA
BRANCH  19  20
ATOM     20  C   UNL A   1      39.469  21.833  26.228  1.00  0.00     0.338 C 
ATOM     21  O   UNL A   1      38.548  21.477  25.505  1.00  0.00    -0.246 OA
BRANCH  20  22
ATOM     22  C   UNL A   1      39.571  23.175  26.873  1.00  0.00     0.060 A 
ATOM     23  C   UNL A   1      39.138  24.300  26.194  1.00  0.00     0.016 A 
ATOM     24  C   UNL A   1      40.238  23.364  28.083  1.00  0.00     0.016 A 
ATOM     25  C   UNL A   1      39.633  25.561  26.546  1.00  0.00     0.010 A 
ATOM     26  C   UNL A   1      40.552  24.670  28.530  1.00  0.00     0.010 A 
ATOM     27  C   UNL A   1      40.346  25.807  27.721  1.00  0.00    -0.014 A 
BRANCH  27  28
ATOM     28  C   UNL A   1      40.905  27.182  28.063  1.00  0.00     0.031 A 
ATOM     29  C   UNL A   1      42.382  27.480  27.846  1.00  0.00     0.074 A 
ATOM     30  C   UNL A   1      40.167  28.229  28.517  1.00  0.00     0.049 A 
ATOM     31  N   UNL A   1      43.158  28.335  28.467  1.00  0.00    -0.248 NA
ATOM     32  C   UNL A   1      43.082  26.699  26.814  1.00  0.00     0.031 C 
ATOM     33  C   UNL A   1      38.716  28.277  28.699  1.00  0.00     0.029 A 
ATOM     34  N   UNL A   1      40.563  29.497  28.913  1.00  0.00    -0.354 N 
ATOM     35  C   UNL A   1      44.451  28.091  28.009  1.00  0.00     0.074 A 
ATOM     36  C   UNL A   1      44.349  27.038  27.022  1.00  0.00     0.031 C 
ATOM     37  C   UNL A   1      38.338  29.510  29.055  1.00  0.00     0.029 A 
ATOM     38  C   UNL A   1      39.526  30.291  29.356  1.00  0.00     0.049 A 
ATOM     39  H   UNL A   1      41.498  29.803  28.881  1.00  0.00     0.167 HD
ATOM     40  C   UNL A   1      45.613  28.678  28.394  1.00  0.00     0.037 A 
ATOM     41  C   UNL A   1      39.493  31.452  30.041  1.00  0.00     0.037 A 
ATOM     42  C   UNL A   1      45.694  29.840  29.245  1.00  0.00     0.049 A 
ATOM     43  C   UNL A   1      40.772  32.080  30.503  1.00  0.00     0.074 A 
ATOM     44  C   UNL A   1      46.824  30.509  29.690  1.00  0.00     0.029 A 
ATOM     45  N   UNL A   1      44.603  30.546  29.728  1.00  0.00    -0.354 N 
ATOM     46  N   UNL A   1      42.003  31.693  30.280  1.00  0.00    -0.248 NA
ATOM     47  C   UNL A   1      40.656  33.268  31.360  1.00  0.00     0.031 C 
ATOM     48  C   UNL A   1      46.417  31.606  30.457  1.00  0.00     0.029 A 
ATOM     49  C   UNL A   1      45.033  31.642  30.459  1.00  0.00     0.049 A 
ATOM     50  H   UNL A   1      43.662  30.304  29.573  1.00  0.00     0.167 HD
ATOM     51  C   UNL A   1      42.809  32.589  30.972  1.00  0.00     0.074 A 
ATOM     52  C   UNL A   1      41.929  33.550  31.602  1.00  0.00     0.031 C 
ATOM     53  C   UNL A   1      44.160  32.601  31.083  1.00  0.00     0.037 A 
BRANCH  40  54
ATOM     54  C   UNL A   1      46.909  28.048  27.957  1.00  0.00     0.058 A 
ATOM     55  C   UNL A   1      47.509  26.979  28.636  1.00  0.00     0.135 A 
ATOM     56  C   UNL A   1      47.523  28.494  26.771  1.00  0.00     0.135 A 
ATOM     57  F   UNL A   1      46.975  26.519  29.779  1.00  0.00    -0.206 F 
ATOM     58  C   UNL A   1      48.681  26.387  28.169  1.00  0.00     0.059 A 
ATOM     59  C   UNL A   1      48.678  27.900  26.271  1.00  0.00     0.059 A 
ATOM     60  F   UNL A   1      46.988  29.510  26.076  1.00  0.00    -0.206 F 
ATOM     61  C   UNL A   1      49.258  26.854  26.985  1.00  0.00     0.060 A 
BRANCH  61  62
ATOM     62  S   UNL A   1      50.767  26.069  26.380  1.00  0.00     0.124 S 
ATOM     63  O   UNL A   1      51.781  27.034  26.791  1.00  0.00    -0.237 OA
ATOM     64  O   UNL A   1      50.772  24.799  27.098  1.00  0.00    -0.237 OA
ATOM     65  O   UNL A   1      50.545  25.968  24.940  1.00  0.00    -0.744 OA
ENDBRANCH  61  62
ENDBRANCH  40  54
BRANCH  41  66
ATOM     66  C   UNL A   1      38.179  32.020  30.464  1.00  0.00     0.058 A 
ATOM     67  C   UNL A   1      37.585  31.654  31.679  1.00  0.00     0.135 A 
ATOM     68  C   UNL A   1      37.513  32.971  29.672  1.00  0.00     0.135 A 
ATOM     69  F   UNL A   1      38.165  30.728  32.458  1.00  0.00    -0.206 F 
ATOM     70  C   UNL A   1      36.386  32.221  32.103  1.00  0.00     0.059 A 
ATOM     71  C   UNL A   1      36.336  33.579  30.091  1.00  0.00     0.059 A 
ATOM     72  F   UNL A   1      38.039  33.357  28.499  1.00  0.00    -0.206 F 
ATOM     73  C   UNL A   1      35.777  33.194  31.307  1.00  0.00     0.060 A 
BRANCH  73  74
ATOM     74  S   UNL A   1      34.279  34.006  31.905  1.00  0.00     0.124 S 
ATOM     75  O   UNL A   1      34.833  35.097  32.697  1.00  0.00    -0.237 OA
ATOM     76  O   UNL A   1      33.616  34.390  30.662  1.00  0.00    -0.237 OA
ATOM     77  O   UNL A   1      33.609  32.951  32.661  1.00  0.00    -0.744 OA
ENDBRANCH  73  74
ENDBRANCH  41  66
BRANCH  53  78
ATOM     78  C   UNL A   1      44.772  33.712  31.885  1.00  0.00     0.058 A 
ATOM     79  C   UNL A   1      45.092  34.948  31.304  1.00  0.00     0.135 A 
ATOM     80  C   UNL A   1      45.027  33.543  33.255  1.00  0.00     0.135 A 
ATOM     81  F   UNL A   1      44.877  35.155  29.994  1.00  0.00    -0.206 F 
ATOM     82  C   UNL A   1      45.668  35.972  32.048  1.00  0.00     0.059 A 
ATOM     83  C   UNL A   1      45.583  34.560  34.023  1.00  0.00     0.059 A 
ATOM     84  F   UNL A   1      44.735  32.379  33.859  1.00  0.00    -0.206 F 
ATOM     85  C   UNL A   1      45.912  35.767  33.407  1.00  0.00     0.060 A 
BRANCH  85  86
ATOM     86  S   UNL A   1      46.646  37.108  34.368  1.00  0.00     0.124 S 
ATOM     87  O   UNL A   1      45.904  38.263  33.877  1.00  0.00    -0.237 OA
ATOM     88  O   UNL A   1      46.356  36.706  35.741  1.00  0.00    -0.237 OA
ATOM     89  O   UNL A   1      48.056  37.061  33.993  1.00  0.00    -0.744 OA
ENDBRANCH  85  86
ENDBRANCH  53  78
ENDBRANCH  27  28
ENDBRANCH  20  22
ENDBRANCH  19  20
ENDBRANCH   1  19
TORSDOF 15
ENDMDL
MODEL 2
REMARK VINA RESULT:     -10.7      3.530     11.763
REMARK SMILES C[C@H](C(=O)OCCOC(=O)c1ccc(-c2c3nc(c(-c4c(F)cc(S(=O)(=O)[O-])cc4F)c4ccc([nH]4)c(-c4c(F)cc(S(=O)(=O)[O-])cc4F)c4nc(c(-c5c(F)cc(S(=O)(=O)[O-])cc5F)c5ccc2[nH]5)C=C4)C=C3)cc1)[N@@H+]1CCc2ccccc2C1
REMARK SMILES IDX 7 1 6 2 5 3 3 4 4 5 2 6 1 7 77 8 78 9 86 10 79 12 85 13
REMARK SMILES IDX 80 14 84 15 81 16 83 17 82 18 8 19 9 20 10 21 11 22 12 23
REMARK SMILES IDX 76 24 13 25 75 26 14 27 15 28 16 29 69 30 17 31 74 32 68 33
REMARK SMILES IDX 70 34 18 35 73 36 67 37 66 38 19 40 53 41 32 42 52 43 33 44
REMARK SMILES IDX 36 45 51 46 71 47 34 48 35 49 50 51 72 52 37 53 20 54 21 55
REMARK SMILES IDX 30 56 22 57 23 58 29 59 31 60 24 61 25 62 26 63 27 64 28 65
REMARK SMILES IDX 54 66 55 67 64 68 56 69 57 70 63 71 65 72 58 73 59 74 60 75
REMARK SMILES IDX 61 76 62 77 38 78 39 79 48 80 40 81 41 82 47 83 49 84 42 85
REMARK SMILES IDX 43 86 44 87 45 88 46 89
REMARK H PARENT 77 11 70 39 36 50
REMARK Flexibility Score: inf
ROOT
ATOM      1  C   UNL A   1      33.323  33.528  27.890  1.00  0.00     0.275 C 
ENDROOT
BRANCH   1   2
ATOM      2  C   UNL A   1      33.608  34.757  28.764  1.00  0.00     0.274 C 
BRANCH   2   3
ATOM      3  O   UNL A   1      32.641  34.882  29.837  1.00  0.00    -0.458 OA
BRANCH   3   4
ATOM      4  C   UNL A   1      32.962  35.748  30.854  1.00  0.00     0.364 C 
ATOM      5  O   UNL A   1      32.518  36.891  30.911  1.00  0.00    -0.245 OA
BRANCH   4   6
ATOM      6  C   UNL A   1      34.104  35.206  31.775  1.00  0.00     0.292 C 
ATOM      7  C   UNL A   1      34.301  36.224  32.914  1.00  0.00     0.088 C 
BRANCH   6   8
ATOM      8  N   UNL A   1      34.088  33.768  32.234  1.00  0.00    -0.319 N 
ATOM      9  C   UNL A   1      34.525  33.570  33.625  1.00  0.00     0.268 C 
ATOM     10  C   UNL A   1      34.799  32.774  31.381  1.00  0.00     0.300 C 
ATOM     11  H   UNL A   1      33.091  33.577  32.147  1.00  0.00     0.349 HD
ATOM     12  C   UNL A   1      36.055  33.453  33.799  1.00  0.00     0.097 C 
ATOM     13  C   UNL A   1      36.273  33.072  31.340  1.00  0.00     0.010 A 
ATOM     14  C   UNL A   1      36.806  33.630  32.501  1.00  0.00    -0.034 A 
ATOM     15  C   UNL A   1      37.023  33.029  30.159  1.00  0.00     0.010 A 
ATOM     16  C   UNL A   1      37.917  34.443  32.358  1.00  0.00     0.004 A 
ATOM     17  C   UNL A   1      38.230  33.721  30.088  1.00  0.00     0.001 A 
ATOM     18  C   UNL A   1      38.640  34.489  31.169  1.00  0.00     0.000 A 
ENDBRANCH   6   8
ENDBRANCH   4   6
ENDBRANCH   3   4
ENDBRANCH   2   3
ENDBRANCH   1   2
BRANCH   1  19
ATOM     19  O   UNL A   1      34.391  32.576  28.043  1.00  0.00    -0.458 OA
BRANCH  19  20
ATOM     20  C   UNL A   1      34.113  31.268  27.786  1.00  0.00     0.338 C 
ATOM     21  O   UNL A   1      33.084  30.842  27.278  1.00  0.00    -0.246 OA
BRANCH  20  22
ATOM     22  C   UNL A   1      35.321  30.442  28.079  1.00  0.00     0.060 A 
ATOM     23  C   UNL A   1      35.376  29.692  29.241  1.00  0.00     0.016 A 
ATOM     24  C   UNL A   1      36.474  30.516  27.300  1.00  0.00     0.016 A 
ATOM     25  C   UNL A   1      36.615  29.306  29.763  1.00  0.00     0.010 A 
ATOM     26  C   UNL A   1      37.683  29.934  27.753  1.00  0.00     0.010 A 
ATOM     27  C   UNL A   1      37.813  29.397  29.050  1.00  0.00    -0.014 A 
BRANCH  27  28
ATOM     28  C   UNL A   1      39.154  29.002  29.656  1.00  0.00     0.031 A 
ATOM     29  C   UNL A   1      39.679  29.730  30.886  1.00  0.00     0.074 A 
ATOM     30  C   UNL A   1      39.938  27.985  29.210  1.00  0.00     0.049 A 
ATOM     31  N   UNL A   1      40.917  29.917  31.276  1.00  0.00    -0.248 NA
ATOM     32  C   UNL A   1      38.685  30.346  31.779  1.00  0.00     0.031 C 
ATOM     33  C   UNL A   1      39.635  27.038  28.137  1.00  0.00     0.029 A 
ATOM     34  N   UNL A   1      41.190  27.569  29.635  1.00  0.00    -0.354 N 
ATOM     35  C   UNL A   1      40.854  30.788  32.362  1.00  0.00     0.074 A 
ATOM     36  C   UNL A   1      39.451  31.054  32.599  1.00  0.00     0.031 C 
ATOM     37  C   UNL A   1      40.594  26.109  28.059  1.00  0.00     0.029 A 
ATOM     38  C   UNL A   1      41.699  26.510  28.913  1.00  0.00     0.049 A 
ATOM     39  H   UNL A   1      41.672  27.990  30.383  1.00  0.00     0.167 HD
ATOM     40  C   UNL A   1      41.873  31.326  33.078  1.00  0.00     0.037 A 
ATOM     41  C   UNL A   1      42.934  25.975  28.823  1.00  0.00     0.037 A 
ATOM     42  C   UNL A   1      43.254  30.927  32.954  1.00  0.00     0.049 A 
ATOM     43  C   UNL A   1      44.069  26.595  29.579  1.00  0.00     0.074 A 
ATOM     44  C   UNL A   1      44.359  31.412  33.636  1.00  0.00     0.029 A 
ATOM     45  N   UNL A   1      43.713  29.903  32.141  1.00  0.00    -0.354 N 
ATOM     46  N   UNL A   1      44.045  27.598  30.420  1.00  0.00    -0.248 NA
ATOM     47  C   UNL A   1      45.410  26.047  29.329  1.00  0.00     0.031 C 
ATOM     48  C   UNL A   1      45.487  30.696  33.220  1.00  0.00     0.029 A 
ATOM     49  C   UNL A   1      45.078  29.739  32.308  1.00  0.00     0.049 A 
ATOM     50  H   UNL A   1      43.150  29.369  31.534  1.00  0.00     0.167 HD
ATOM     51  C   UNL A   1      45.366  27.804  30.798  1.00  0.00     0.074 A 
ATOM     52  C   UNL A   1      46.162  26.808  30.112  1.00  0.00     0.031 C 
ATOM     53  C   UNL A   1      45.871  28.747  31.629  1.00  0.00     0.037 A 
BRANCH  40  54
ATOM     54  C   UNL A   1      41.562  32.456  34.024  1.00  0.00     0.058 A 
ATOM     55  C   UNL A   1      41.490  33.796  33.620  1.00  0.00     0.135 A 
ATOM     56  C   UNL A   1      41.254  32.163  35.366  1.00  0.00     0.135 A 
ATOM     57  F   UNL A   1      41.785  34.137  32.355  1.00  0.00    -0.206 F 
ATOM     58  C   UNL A   1      41.145  34.807  34.514  1.00  0.00     0.059 A 
ATOM     59  C   UNL A   1      40.880  33.152  36.270  1.00  0.00     0.059 A 
ATOM     60  F   UNL A   1      41.300  30.895  35.806  1.00  0.00    -0.206 F 
ATOM     61  C   UNL A   1      40.841  34.475  35.838  1.00  0.00     0.060 A 
BRANCH  61  62
ATOM     62  S   UNL A   1      40.378  35.792  36.984  1.00  0.00     0.124 S 
ATOM     63  O   UNL A   1      39.540  35.068  37.934  1.00  0.00    -0.237 OA
ATOM     64  O   UNL A   1      41.672  36.237  37.491  1.00  0.00    -0.237 OA
ATOM     65  O   UNL A   1      39.678  36.752  36.135  1.00  0.00    -0.744 OA
ENDBRANCH  61  62
ENDBRANCH  40  54
BRANCH  41  66
ATOM     66  C   UNL A   1      43.189  24.869  27.854  1.00  0.00     0.058 A 
ATOM     67  C   UNL A   1      43.607  25.131  26.543  1.00  0.00     0.135 A 
ATOM     68  C   UNL A   1      43.051  23.524  28.239  1.00  0.00     0.135 A 
ATOM     69  F   UNL A   1      43.724  26.399  26.116  1.00  0.00    -0.206 F 
ATOM     70  C   UNL A   1      43.897  24.102  25.652  1.00  0.00     0.059 A 
ATOM     71  C   UNL A   1      43.372  22.480  27.381  1.00  0.00     0.059 A 
ATOM     72  F   UNL A   1      42.654  23.218  29.484  1.00  0.00    -0.206 F 
ATOM     73  C   UNL A   1      43.790  22.778  26.086  1.00  0.00     0.060 A 
BRANCH  73  74
ATOM     74  S   UNL A   1      44.267  21.445  24.965  1.00  0.00     0.124 S 
ATOM     75  O   UNL A   1      43.234  20.452  25.235  1.00  0.00    -0.237 OA
ATOM     76  O   UNL A   1      44.204  22.096  23.661  1.00  0.00    -0.237 OA
ATOM     77  O   UNL A   1      45.612  21.098  25.417  1.00  0.00    -0.744 OA
ENDBRANCH  73  74
ENDBRANCH  41  66
BRANCH  53  78
ATOM     78  C   UNL A   1      47.351  28.722  31.875  1.00  0.00     0.058 A 
ATOM     79  C   UNL A   1      48.239  29.478  31.095  1.00  0.00     0.135 A 
ATOM     80  C   UNL A   1      47.886  27.944  32.915  1.00  0.00     0.135 A 
ATOM     81  F   UNL A   1      47.778  30.228  30.082  1.00  0.00    -0.206 F 
ATOM     82  C   UNL A   1      49.612  29.445  31.321  1.00  0.00     0.059 A 
ATOM     83  C   UNL A   1      49.252  27.912  33.172  1.00  0.00     0.059 A 
ATOM     84  F   UNL A   1      47.076  27.206  33.692  1.00  0.00    -0.206 F 
ATOM     85  C   UNL A   1      50.108  28.656  32.361  1.00  0.00     0.060 A 
BRANCH  85  86
ATOM     86  S   UNL A   1      51.890  28.631  32.655  1.00  0.00     0.124 S 
ATOM     87  O   UNL A   1      52.009  27.565  33.644  1.00  0.00    -0.237 OA
ATOM     88  O   UNL A   1      52.423  28.328  31.330  1.00  0.00    -0.237 OA
ATOM     89  O   UNL A   1      52.171  29.976  33.145  1.00  0.00    -0.744 OA
ENDBRANCH  85  86
ENDBRANCH  53  78
ENDBRANCH  27  28
ENDBRANCH  20  22
ENDBRANCH  19  20
ENDBRANCH   1  19
TORSDOF 15
ENDMDL
MODEL 3
REMARK VINA RESULT:     -10.7      2.657     11.751
REMARK SMILES C[C@H](C(=O)OCCOC(=O)c1ccc(-c2c3nc(c(-c4c(F)cc(S(=O)(=O)[O-])cc4F)c4ccc([nH]4)c(-c4c(F)cc(S(=O)(=O)[O-])cc4F)c4nc(c(-c5c(F)cc(S(=O)(=O)[O-])cc5F)c5ccc2[nH]5)C=C4)C=C3)cc1)[N@@H+]1CCc2ccccc2C1
REMARK SMILES IDX 7 1 6 2 5 3 3 4 4 5 2 6 1 7 77 8 78 9 86 10 79 12 85 13
REMARK SMILES IDX 80 14 84 15 81 16 83 17 82 18 8 19 9 20 10 21 11 22 12 23
REMARK SMILES IDX 76 24 13 25 75 26 14 27 15 28 16 29 69 30 17 31 74 32 68 33
REMARK SMILES IDX 70 34 18 35 73 36 67 37 66 38 19 40 53 41 32 42 52 43 33 44
REMARK SMILES IDX 36 45 51 46 71 47 34 48 35 49 50 51 72 52 37 53 20 54 21 55
REMARK SMILES IDX 30 56 22 57 23 58 29 59 31 60 24 61 25 62 26 63 27 64 28 65
REMARK SMILES IDX 54 66 55 67 64 68 56 69 57 70 63 71 65 72 58 73 59 74 60 75
REMARK SMILES IDX 61 76 62 77 38 78 39 79 48 80 40 81 41 82 47 83 49 84 42 85
REMARK SMILES IDX 43 86 44 87 45 88 46 89
REMARK H PARENT 77 11 70 39 36 50
REMARK Flexibility Score: inf
ROOT
ATOM      1  C   UNL A   1      33.896  33.543  27.863  1.00  0.00     0.275 C 
ENDROOT
BRANCH   1   2
ATOM      2  C   UNL A   1      34.049  34.703  28.856  1.00  0.00     0.274 C 
BRANCH   2   3
ATOM      3  O   UNL A   1      32.892  34.817  29.722  1.00  0.00    -0.458 OA
BRANCH   3   4
ATOM      4  C   UNL A   1      33.006  35.676  30.789  1.00  0.00     0.364 C 
ATOM      5  O   UNL A   1      32.491  36.790  30.796  1.00  0.00    -0.245 OA
BRANCH   4   6
ATOM      6  C   UNL A   1      34.029  35.178  31.861  1.00  0.00     0.292 C 
ATOM      7  C   UNL A   1      33.996  36.179  33.031  1.00  0.00     0.088 C 
BRANCH   6   8
ATOM      8  N   UNL A   1      34.031  33.731  32.292  1.00  0.00    -0.319 N 
ATOM      9  C   UNL A   1      34.381  33.519  33.706  1.00  0.00     0.268 C 
ATOM     10  C   UNL A   1      34.828  32.777  31.472  1.00  0.00     0.300 C 
ATOM     11  H   UNL A   1      33.047  33.511  32.136  1.00  0.00     0.349 HD
ATOM     12  C   UNL A   1      35.898  33.447  33.980  1.00  0.00     0.097 C 
ATOM     13  C   UNL A   1      36.291  33.122  31.534  1.00  0.00     0.010 A 
ATOM     14  C   UNL A   1      36.728  33.673  32.738  1.00  0.00    -0.034 A 
ATOM     15  C   UNL A   1      37.118  33.126  30.406  1.00  0.00     0.010 A 
ATOM     16  C   UNL A   1      37.819  34.524  32.684  1.00  0.00     0.004 A 
ATOM     17  C   UNL A   1      38.305  33.857  30.427  1.00  0.00     0.001 A 
ATOM     18  C   UNL A   1      38.616  34.615  31.547  1.00  0.00     0.000 A 
ENDBRANCH   6   8
ENDBRANCH   4   6
ENDBRANCH   3   4
ENDBRANCH   2   3
ENDBRANCH   1   2
BRANCH   1  19
ATOM     19  O   UNL A   1      34.888  32.539  28.147  1.00  0.00    -0.458 OA
BRANCH  19  20
ATOM     20  C   UNL A   1      34.491  31.236  28.127  1.00  0.00     0.338 C 
ATOM     21  O   UNL A   1      33.344  30.840  27.968  1.00  0.00    -0.246 OA
BRANCH  20  22
ATOM     22  C   UNL A   1      35.695  30.355  28.176  1.00  0.00     0.060 A 
ATOM     23  C   UNL A   1      36.118  29.836  29.386  1.00  0.00     0.016 A 
ATOM     24  C   UNL A   1      36.512  30.157  27.064  1.00  0.00     0.016 A 
ATOM     25  C   UNL A   1      37.447  29.424  29.542  1.00  0.00     0.010 A 
ATOM     26  C   UNL A   1      37.780  29.545  27.208  1.00  0.00     0.010 A 
ATOM     27  C   UNL A   1      38.329  29.250  28.474  1.00  0.00    -0.014 A 
BRANCH  27  28
ATOM     28  C   UNL A   1      39.781  28.835  28.674  1.00  0.00     0.031 A 
ATOM     29  C   UNL A   1      40.787  29.829  29.237  1.00  0.00     0.074 A 
ATOM     30  C   UNL A   1      40.273  27.592  28.432  1.00  0.00     0.049 A 
ATOM     31  N   UNL A   1      42.085  29.891  29.057  1.00  0.00    -0.248 NA
ATOM     32  C   UNL A   1      40.263  30.906  30.093  1.00  0.00     0.031 C 
ATOM     33  C   UNL A   1      39.523  26.408  28.011  1.00  0.00     0.029 A 
ATOM     34  N   UNL A   1      41.571  27.111  28.519  1.00  0.00    -0.354 N 
ATOM     35  C   UNL A   1      42.502  31.082  29.648  1.00  0.00     0.074 A 
ATOM     36  C   UNL A   1      41.326  31.689  30.233  1.00  0.00     0.031 C 
ATOM     37  C   UNL A   1      40.327  25.340  27.983  1.00  0.00     0.029 A 
ATOM     38  C   UNL A   1      41.699  25.787  28.156  1.00  0.00     0.049 A 
ATOM     39  H   UNL A   1      42.331  27.664  28.813  1.00  0.00     0.167 HD
ATOM     40  C   UNL A   1      43.746  31.624  29.679  1.00  0.00     0.037 A 
ATOM     41  C   UNL A   1      42.769  25.020  27.862  1.00  0.00     0.037 A 
ATOM     42  C   UNL A   1      44.941  30.939  29.251  1.00  0.00     0.049 A 
ATOM     43  C   UNL A   1      44.138  25.626  27.854  1.00  0.00     0.074 A 
ATOM     44  C   UNL A   1      46.248  31.403  29.244  1.00  0.00     0.029 A 
ATOM     45  N   UNL A   1      44.989  29.624  28.814  1.00  0.00    -0.354 N 
ATOM     46  N   UNL A   1      44.499  26.844  28.170  1.00  0.00    -0.248 NA
ATOM     47  C   UNL A   1      45.240  24.769  27.392  1.00  0.00     0.031 C 
ATOM     48  C   UNL A   1      47.081  30.376  28.785  1.00  0.00     0.029 A 
ATOM     49  C   UNL A   1      46.298  29.261  28.542  1.00  0.00     0.049 A 
ATOM     50  H   UNL A   1      44.206  29.035  28.713  1.00  0.00     0.167 HD
ATOM     51  C   UNL A   1      45.868  26.903  27.943  1.00  0.00     0.074 A 
ATOM     52  C   UNL A   1      46.276  25.592  27.485  1.00  0.00     0.031 C 
ATOM     53  C   UNL A   1      46.706  27.957  28.089  1.00  0.00     0.037 A 
BRANCH  40  54
ATOM     54  C   UNL A   1      43.891  33.051  30.133  1.00  0.00     0.058 A 
ATOM     55  C   UNL A   1      43.657  34.150  29.295  1.00  0.00     0.135 A 
ATOM     56  C   UNL A   1      44.206  33.315  31.480  1.00  0.00     0.135 A 
ATOM     57  F   UNL A   1      43.365  33.961  27.999  1.00  0.00    -0.206 F 
ATOM     58  C   UNL A   1      43.748  35.458  29.768  1.00  0.00     0.059 A 
ATOM     59  C   UNL A   1      44.276  34.611  31.981  1.00  0.00     0.059 A 
ATOM     60  F   UNL A   1      44.434  32.301  32.330  1.00  0.00    -0.206 F 
ATOM     61  C   UNL A   1      44.058  35.679  31.113  1.00  0.00     0.060 A 
BRANCH  61  62
ATOM     62  S   UNL A   1      44.157  37.377  31.719  1.00  0.00     0.124 S 
ATOM     63  O   UNL A   1      45.589  37.513  31.965  1.00  0.00    -0.237 OA
ATOM     64  O   UNL A   1      43.632  38.144  30.595  1.00  0.00    -0.237 OA
ATOM     65  O   UNL A   1      43.315  37.362  32.912  1.00  0.00    -0.744 OA
ENDBRANCH  61  62
ENDBRANCH  40  54
BRANCH  41  66
ATOM     66  C   UNL A   1      42.563  23.616  27.398  1.00  0.00     0.058 A 
ATOM     67  C   UNL A   1      42.571  23.291  26.036  1.00  0.00     0.135 A 
ATOM     68  C   UNL A   1      42.391  22.568  28.319  1.00  0.00     0.135 A 
ATOM     69  F   UNL A   1      42.701  24.259  25.115  1.00  0.00    -0.206 F 
ATOM     70  C   UNL A   1      42.434  21.976  25.601  1.00  0.00     0.059 A 
ATOM     71  C   UNL A   1      42.290  21.244  27.912  1.00  0.00     0.059 A 
ATOM     72  F   UNL A   1      42.376  22.825  29.637  1.00  0.00    -0.206 F 
ATOM     73  C   UNL A   1      42.308  20.957  26.548  1.00  0.00     0.060 A 
BRANCH  73  74
ATOM     74  S   UNL A   1      42.235  19.241  25.990  1.00  0.00     0.124 S 
ATOM     75  O   UNL A   1      43.159  19.261  24.862  1.00  0.00    -0.237 OA
ATOM     76  O   UNL A   1      42.683  18.510  27.171  1.00  0.00    -0.237 OA
ATOM     77  O   UNL A   1      40.826  19.062  25.651  1.00  0.00    -0.744 OA
ENDBRANCH  73  74
ENDBRANCH  41  66
BRANCH  53  78
ATOM     78  C   UNL A   1      48.158  27.725  27.789  1.00  0.00     0.058 A 
ATOM     79  C   UNL A   1      49.053  27.286  28.776  1.00  0.00     0.135 A 
ATOM     80  C   UNL A   1      48.658  27.930  26.493  1.00  0.00     0.135 A 
ATOM     81  F   UNL A   1      48.626  27.086  30.034  1.00  0.00    -0.206 F 
ATOM     82  C   UNL A   1      50.399  27.081  28.496  1.00  0.00     0.059 A 
ATOM     83  C   UNL A   1      49.996  27.713  26.185  1.00  0.00     0.059 A 
ATOM     84  F   UNL A   1      47.841  28.347  25.512  1.00  0.00    -0.206 F 
ATOM     85  C   UNL A   1      50.862  27.300  27.197  1.00  0.00     0.060 A 
BRANCH  85  86
ATOM     86  S   UNL A   1      52.609  27.018  26.840  1.00  0.00     0.124 S 
ATOM     87  O   UNL A   1      52.629  27.102  25.384  1.00  0.00    -0.237 OA
ATOM     88  O   UNL A   1      53.257  28.119  27.547  1.00  0.00    -0.237 OA
ATOM     89  O   UNL A   1      52.859  25.691  27.395  1.00  0.00    -0.744 OA
ENDBRANCH  85  86
ENDBRANCH  53  78
ENDBRANCH  27  28
ENDBRANCH  20  22
ENDBRANCH  19  20
ENDBRANCH   1  19
TORSDOF 15
ENDMDL
