MODEL 1
REMARK VINA RESULT:     -11.1      0.000      0.000
REMARK SMILES O=C(CSc1ccccc1C(=O)OCCOC(=O)c1ccc(-c2c3nc(c(-c4c(F)cc(S(=O)(=O)[O-])cc4F)c4ccc([nH]4)c(-c4c(F)cc(S(=O)(=O)[O-])cc4F)c4nc(c(-c5c(F)cc(S(=O)(=O)[O-])cc5F)c5ccc2[nH]5)C=C4)C=C3)cc1)c1ccc(Cl)cc1
REMARK SMILES IDX 14 1 13 2 11 3 12 4 10 5 5 6 6 7 7 8 9 9 8 10 4 11 3 12 2 13
REMARK SMILES IDX 1 14 85 15 86 16 91 17 87 18 90 19 88 20 89 21 15 22 16 23
REMARK SMILES IDX 17 24 18 25 19 26 20 27 84 28 21 29 83 30 22 31 23 32 24 33
REMARK SMILES IDX 77 34 25 35 82 36 76 37 78 38 26 39 81 40 75 41 74 42 27 44
REMARK SMILES IDX 61 45 40 46 60 47 41 48 44 49 59 50 79 51 42 52 43 53 58 55
REMARK SMILES IDX 80 56 45 57 28 58 29 59 38 60 30 61 31 62 37 63 39 64 32 65
REMARK SMILES IDX 33 66 34 67 35 68 36 69 62 70 63 71 72 72 64 73 65 74 71 75
REMARK SMILES IDX 73 76 66 77 67 78 68 79 69 80 70 81 46 82 47 83 56 84 48 85
REMARK SMILES IDX 49 86 55 87 57 88 50 89 51 90 52 91 53 92 54 93
REMARK H PARENT 78 43 44 54
REMARK Flexibility Score: inf
ROOT
ATOM      1  C   UNL A   1      33.485  29.488  27.283  1.00  0.00     0.275 C 
ENDROOT
BRANCH   1   2
ATOM      2  O   UNL A   1      33.696  29.413  25.856  1.00  0.00    -0.458 OA
BRANCH   2   3
ATOM      3  C   UNL A   1      32.581  29.329  25.083  1.00  0.00     0.339 C 
ATOM      4  O   UNL A   1      31.589  30.026  25.178  1.00  0.00    -0.246 OA
BRANCH   3   5
ATOM      5  C   UNL A   1      32.711  28.284  24.032  1.00  0.00     0.073 A 
ATOM      6  C   UNL A   1      31.897  27.141  23.961  1.00  0.00     0.022 A 
ATOM      7  C   UNL A   1      32.087  26.240  22.897  1.00  0.00     0.016 A 
ATOM      8  C   UNL A   1      33.054  26.475  21.916  1.00  0.00     0.001 A 
ATOM      9  C   UNL A   1      33.645  28.534  23.010  1.00  0.00     0.017 A 
ATOM     10  C   UNL A   1      33.833  27.623  21.971  1.00  0.00     0.001 A 
BRANCH   6  11
ATOM     11  S   UNL A   1      30.644  26.732  25.170  1.00  0.00    -0.117 SA
BRANCH  11  12
ATOM     12  C   UNL A   1      31.645  26.130  26.560  1.00  0.00     0.156 C 
BRANCH  12  13
ATOM     13  C   UNL A   1      31.921  24.641  26.571  1.00  0.00     0.173 C 
ATOM     14  O   UNL A   1      31.135  23.863  27.114  1.00  0.00    -0.293 OA
BRANCH  13  15
ATOM     15  C   UNL A   1      33.073  24.068  25.807  1.00  0.00     0.018 A 
ATOM     16  C   UNL A   1      33.064  22.779  25.269  1.00  0.00     0.013 A 
ATOM     17  C   UNL A   1      34.194  24.884  25.589  1.00  0.00     0.013 A 
ATOM     18  C   UNL A   1      34.128  22.330  24.478  1.00  0.00     0.021 A 
ATOM     19  C   UNL A   1      35.275  24.423  24.827  1.00  0.00     0.021 A 
ATOM     20  C   UNL A   1      35.228  23.154  24.259  1.00  0.00     0.041 A 
ATOM     21  Cl  UNL A   1      36.527  22.597  23.280  1.00  0.00    -0.084 Cl
ENDBRANCH  13  15
ENDBRANCH  12  13
ENDBRANCH  11  12
ENDBRANCH   6  11
ENDBRANCH   3   5
ENDBRANCH   2   3
ENDBRANCH   1   2
BRANCH   1  22
ATOM     22  C   UNL A   1      34.590  30.249  28.008  1.00  0.00     0.275 C 
BRANCH  22  23
ATOM     23  O   UNL A   1      35.691  29.373  28.279  1.00  0.00    -0.458 OA
BRANCH  23  24
ATOM     24  C   UNL A   1      36.292  29.613  29.460  1.00  0.00     0.338 C 
ATOM     25  O   UNL A   1      35.799  29.555  30.576  1.00  0.00    -0.246 OA
BRANCH  24  26
ATOM     26  C   UNL A   1      37.724  29.820  29.249  1.00  0.00     0.060 A 
ATOM     27  C   UNL A   1      38.167  29.798  27.929  1.00  0.00     0.016 A 
ATOM     28  C   UNL A   1      38.622  29.796  30.312  1.00  0.00     0.016 A 
ATOM     29  C   UNL A   1      39.513  29.612  27.654  1.00  0.00     0.010 A 
ATOM     30  C   UNL A   1      39.983  29.668  30.034  1.00  0.00     0.010 A 
ATOM     31  C   UNL A   1      40.427  29.495  28.707  1.00  0.00    -0.014 A 
BRANCH  31  32
ATOM     32  C   UNL A   1      41.801  29.000  28.435  1.00  0.00     0.031 A 
ATOM     33  C   UNL A   1      42.956  29.959  28.570  1.00  0.00     0.074 A 
ATOM     34  C   UNL A   1      42.025  27.708  28.134  1.00  0.00     0.049 A 
ATOM     35  N   UNL A   1      44.202  29.816  28.201  1.00  0.00    -0.248 NA
ATOM     36  C   UNL A   1      42.660  31.264  29.186  1.00  0.00     0.031 C 
ATOM     37  C   UNL A   1      41.001  26.665  28.054  1.00  0.00     0.029 A 
ATOM     38  N   UNL A   1      43.194  27.052  27.845  1.00  0.00    -0.354 N 
ATOM     39  C   UNL A   1      44.817  31.036  28.469  1.00  0.00     0.074 A 
ATOM     40  C   UNL A   1      43.810  31.905  29.034  1.00  0.00     0.031 C 
ATOM     41  C   UNL A   1      41.591  25.495  27.757  1.00  0.00     0.029 A 
ATOM     42  C   UNL A   1      43.018  25.721  27.554  1.00  0.00     0.049 A 
ATOM     43  H   UNL A   1      44.074  27.492  27.847  1.00  0.00     0.167 HD
ATOM     44  C   UNL A   1      46.106  31.394  28.254  1.00  0.00     0.037 A 
ATOM     45  C   UNL A   1      43.904  24.799  27.133  1.00  0.00     0.037 A 
ATOM     46  C   UNL A   1      47.112  30.489  27.762  1.00  0.00     0.049 A 
ATOM     47  C   UNL A   1      45.335  25.209  26.925  1.00  0.00     0.074 A 
ATOM     48  C   UNL A   1      48.448  30.738  27.499  1.00  0.00     0.029 A 
ATOM     49  N   UNL A   1      46.894  29.146  27.489  1.00  0.00    -0.354 N 
ATOM     50  N   UNL A   1      45.884  26.390  27.081  1.00  0.00    -0.248 NA
ATOM     51  C   UNL A   1      46.263  24.166  26.473  1.00  0.00     0.031 C 
ATOM     52  C   UNL A   1      49.033  29.547  27.051  1.00  0.00     0.029 A 
ATOM     53  C   UNL A   1      48.072  28.549  27.071  1.00  0.00     0.049 A 
ATOM     54  H   UNL A   1      46.030  28.684  27.579  1.00  0.00     0.167 HD
ATOM     55  C   UNL A   1      47.227  26.231  26.761  1.00  0.00     0.074 A 
ATOM     56  C   UNL A   1      47.408  24.833  26.420  1.00  0.00     0.031 C 
ATOM     57  C   UNL A   1      48.222  27.154  26.745  1.00  0.00     0.037 A 
BRANCH  44  58
ATOM     58  C   UNL A   1      46.483  32.829  28.510  1.00  0.00     0.058 A 
ATOM     59  C   UNL A   1      46.391  33.817  27.519  1.00  0.00     0.135 A 
ATOM     60  C   UNL A   1      46.945  33.217  29.779  1.00  0.00     0.135 A 
ATOM     61  F   UNL A   1      45.976  33.499  26.282  1.00  0.00    -0.206 F 
ATOM     62  C   UNL A   1      46.777  35.133  27.765  1.00  0.00     0.059 A 
ATOM     63  C   UNL A   1      47.311  34.532  30.055  1.00  0.00     0.059 A 
ATOM     64  F   UNL A   1      47.056  32.313  30.764  1.00  0.00    -0.206 F 
ATOM     65  C   UNL A   1      47.240  35.479  29.035  1.00  0.00     0.060 A 
BRANCH  65  66
ATOM     66  S   UNL A   1      47.745  37.186  29.343  1.00  0.00     0.124 S 
ATOM     67  O   UNL A   1      48.628  37.437  28.209  1.00  0.00    -0.237 OA
ATOM     68  O   UNL A   1      46.472  37.900  29.324  1.00  0.00    -0.237 OA
ATOM     69  O   UNL A   1      48.400  37.116  30.646  1.00  0.00    -0.744 OA
ENDBRANCH  65  66
ENDBRANCH  44  58
BRANCH  45  70
ATOM     70  C   UNL A   1      43.449  23.411  26.858  1.00  0.00     0.058 A 
ATOM     71  C   UNL A   1      43.362  22.923  25.545  1.00  0.00     0.135 A 
ATOM     72  C   UNL A   1      43.127  22.531  27.904  1.00  0.00     0.135 A 
ATOM     73  F   UNL A   1      43.650  23.728  24.511  1.00  0.00    -0.206 F 
ATOM     74  C   UNL A   1      42.969  21.616  25.279  1.00  0.00     0.059 A 
ATOM     75  C   UNL A   1      42.757  21.212  27.663  1.00  0.00     0.059 A 
ATOM     76  F   UNL A   1      43.207  22.945  29.179  1.00  0.00    -0.206 F 
ATOM     77  C   UNL A   1      42.674  20.765  26.346  1.00  0.00     0.060 A 
BRANCH  77  78
ATOM     78  S   UNL A   1      42.235  19.049  25.997  1.00  0.00     0.124 S 
ATOM     79  O   UNL A   1      42.997  18.793  24.781  1.00  0.00    -0.237 OA
ATOM     80  O   UNL A   1      42.698  18.360  27.197  1.00  0.00    -0.237 OA
ATOM     81  O   UNL A   1      40.784  19.101  25.836  1.00  0.00    -0.744 OA
ENDBRANCH  77  78
ENDBRANCH  45  70
BRANCH  57  82
ATOM     82  C   UNL A   1      49.594  26.661  26.388  1.00  0.00     0.058 A 
ATOM     83  C   UNL A   1      50.112  26.796  25.092  1.00  0.00     0.135 A 
ATOM     84  C   UNL A   1      50.401  26.051  27.362  1.00  0.00     0.135 A 
ATOM     85  F   UNL A   1      49.377  27.369  24.126  1.00  0.00    -0.206 F 
ATOM     86  C   UNL A   1      51.371  26.305  24.761  1.00  0.00     0.059 A 
ATOM     87  C   UNL A   1      51.672  25.575  27.059  1.00  0.00     0.059 A 
ATOM     88  F   UNL A   1      49.955  25.912  28.620  1.00  0.00    -0.206 F 
ATOM     89  C   UNL A   1      52.139  25.688  25.750  1.00  0.00     0.060 A 
BRANCH  89  90
ATOM     90  S   UNL A   1      53.767  25.042  25.312  1.00  0.00     0.124 S 
ATOM     91  O   UNL A   1      53.521  23.603  25.323  1.00  0.00    -0.237 OA
ATOM     92  O   UNL A   1      54.001  25.636  24.000  1.00  0.00    -0.237 OA
ATOM     93  O   UNL A   1      54.626  25.541  26.381  1.00  0.00    -0.744 OA
ENDBRANCH  89  90
ENDBRANCH  57  82
ENDBRANCH  31  32
ENDBRANCH  24  26
ENDBRANCH  23  24
ENDBRANCH  22  23
ENDBRANCH   1  22
TORSDOF 18
ENDMDL
MODEL 2
REMARK VINA RESULT:     -11.1      2.017      2.781
REMARK SMILES O=C(CSc1ccccc1C(=O)OCCOC(=O)c1ccc(-c2c3nc(c(-c4c(F)cc(S(=O)(=O)[O-])cc4F)c4ccc([nH]4)c(-c4c(F)cc(S(=O)(=O)[O-])cc4F)c4nc(c(-c5c(F)cc(S(=O)(=O)[O-])cc5F)c5ccc2[nH]5)C=C4)C=C3)cc1)c1ccc(Cl)cc1
REMARK SMILES IDX 14 1 13 2 11 3 12 4 10 5 5 6 6 7 7 8 9 9 8 10 4 11 3 12 2 13
REMARK SMILES IDX 1 14 85 15 86 16 91 17 87 18 90 19 88 20 89 21 15 22 16 23
REMARK SMILES IDX 17 24 18 25 19 26 20 27 84 28 21 29 83 30 22 31 23 32 24 33
REMARK SMILES IDX 77 34 25 35 82 36 76 37 78 38 26 39 81 40 75 41 74 42 27 44
REMARK SMILES IDX 61 45 40 46 60 47 41 48 44 49 59 50 79 51 42 52 43 53 58 55
REMARK SMILES IDX 80 56 45 57 28 58 29 59 38 60 30 61 31 62 37 63 39 64 32 65
REMARK SMILES IDX 33 66 34 67 35 68 36 69 62 70 63 71 72 72 64 73 65 74 71 75
REMARK SMILES IDX 73 76 66 77 67 78 68 79 69 80 70 81 46 82 47 83 56 84 48 85
REMARK SMILES IDX 49 86 55 87 57 88 50 89 51 90 52 91 53 92 54 93
REMARK H PARENT 78 43 44 54
REMARK Flexibility Score: inf
ROOT
ATOM      1  C   UNL A   1      32.280  30.585  26.720  1.00  0.00     0.275 C 
ENDROOT
BRANCH   1   2
ATOM      2  O   UNL A   1      31.738  29.406  26.086  1.00  0.00    -0.458 OA
BRANCH   2   3
ATOM      3  C   UNL A   1      31.882  29.322  24.737  1.00  0.00     0.339 C 
ATOM      4  O   UNL A   1      32.934  29.313  24.129  1.00  0.00    -0.246 OA
BRANCH   3   5
ATOM      5  C   UNL A   1      30.571  29.193  24.046  1.00  0.00     0.073 A 
ATOM      6  C   UNL A   1      29.991  27.963  23.692  1.00  0.00     0.022 A 
ATOM      7  C   UNL A   1      28.726  27.964  23.076  1.00  0.00     0.016 A 
ATOM      8  C   UNL A   1      28.044  29.159  22.829  1.00  0.00     0.001 A 
ATOM      9  C   UNL A   1      29.851  30.384  23.839  1.00  0.00     0.017 A 
ATOM     10  C   UNL A   1      28.606  30.369  23.212  1.00  0.00     0.001 A 
BRANCH   6  11
ATOM     11  S   UNL A   1      30.782  26.378  23.943  1.00  0.00    -0.117 SA
BRANCH  11  12
ATOM     12  C   UNL A   1      30.753  26.226  25.751  1.00  0.00     0.156 C 
BRANCH  12  13
ATOM     13  C   UNL A   1      31.199  24.888  26.302  1.00  0.00     0.173 C 
ATOM     14  O   UNL A   1      30.370  24.067  26.698  1.00  0.00    -0.293 OA
BRANCH  13  15
ATOM     15  C   UNL A   1      32.637  24.476  26.250  1.00  0.00     0.018 A 
ATOM     16  C   UNL A   1      33.131  23.352  26.915  1.00  0.00     0.013 A 
ATOM     17  C   UNL A   1      33.515  25.237  25.463  1.00  0.00     0.013 A 
ATOM     18  C   UNL A   1      34.464  22.957  26.751  1.00  0.00     0.021 A 
ATOM     19  C   UNL A   1      34.857  24.862  25.325  1.00  0.00     0.021 A 
ATOM     20  C   UNL A   1      35.321  23.712  25.956  1.00  0.00     0.041 A 
ATOM     21  Cl  UNL A   1      36.955  23.216  25.756  1.00  0.00    -0.084 Cl
ENDBRANCH  13  15
ENDBRANCH  12  13
ENDBRANCH  11  12
ENDBRANCH   6  11
ENDBRANCH   3   5
ENDBRANCH   2   3
ENDBRANCH   1   2
BRANCH   1  22
ATOM     22  C   UNL A   1      33.472  30.281  27.621  1.00  0.00     0.275 C 
BRANCH  22  23
ATOM     23  O   UNL A   1      34.202  31.485  27.887  1.00  0.00    -0.458 OA
BRANCH  23  24
ATOM     24  C   UNL A   1      34.912  31.442  29.031  1.00  0.00     0.338 C 
ATOM     25  O   UNL A   1      34.643  31.970  30.099  1.00  0.00    -0.246 OA
BRANCH  24  26
ATOM     26  C   UNL A   1      36.032  30.515  28.879  1.00  0.00     0.060 A 
ATOM     27  C   UNL A   1      36.584  30.009  30.053  1.00  0.00     0.016 A 
ATOM     28  C   UNL A   1      36.663  30.339  27.651  1.00  0.00     0.016 A 
ATOM     29  C   UNL A   1      37.847  29.438  30.034  1.00  0.00     0.010 A 
ATOM     30  C   UNL A   1      37.910  29.712  27.623  1.00  0.00     0.010 A 
ATOM     31  C   UNL A   1      38.543  29.330  28.824  1.00  0.00    -0.014 A 
BRANCH  31  32
ATOM     32  C   UNL A   1      39.992  29.006  28.837  1.00  0.00     0.031 A 
ATOM     33  C   UNL A   1      40.967  30.070  29.272  1.00  0.00     0.074 A 
ATOM     34  C   UNL A   1      40.429  27.772  28.527  1.00  0.00     0.049 A 
ATOM     35  N   UNL A   1      42.271  30.089  29.181  1.00  0.00    -0.248 NA
ATOM     36  C   UNL A   1      40.391  31.286  29.873  1.00  0.00     0.031 C 
ATOM     37  C   UNL A   1      39.580  26.635  28.170  1.00  0.00     0.029 A 
ATOM     38  N   UNL A   1      41.704  27.269  28.471  1.00  0.00    -0.354 N 
ATOM     39  C   UNL A   1      42.663  31.344  29.639  1.00  0.00     0.074 A 
ATOM     40  C   UNL A   1      41.461  32.055  30.012  1.00  0.00     0.031 C 
ATOM     41  C   UNL A   1      40.356  25.561  27.952  1.00  0.00     0.029 A 
ATOM     42  C   UNL A   1      41.756  25.952  28.081  1.00  0.00     0.049 A 
ATOM     43  H   UNL A   1      42.503  27.799  28.689  1.00  0.00     0.167 HD
ATOM     44  C   UNL A   1      43.915  31.854  29.733  1.00  0.00     0.037 A 
ATOM     45  C   UNL A   1      42.816  25.165  27.819  1.00  0.00     0.037 A 
ATOM     46  C   UNL A   1      45.105  31.101  29.430  1.00  0.00     0.049 A 
ATOM     47  C   UNL A   1      44.199  25.740  27.954  1.00  0.00     0.074 A 
ATOM     48  C   UNL A   1      46.426  31.510  29.482  1.00  0.00     0.029 A 
ATOM     49  N   UNL A   1      45.114  29.767  29.048  1.00  0.00    -0.354 N 
ATOM     50  N   UNL A   1      44.555  26.958  28.287  1.00  0.00    -0.248 NA
ATOM     51  C   UNL A   1      45.321  24.840  27.666  1.00  0.00     0.031 C 
ATOM     52  C   UNL A   1      47.233  30.427  29.115  1.00  0.00     0.029 A 
ATOM     53  C   UNL A   1      46.417  29.332  28.871  1.00  0.00     0.049 A 
ATOM     54  H   UNL A   1      44.313  29.210  28.922  1.00  0.00     0.167 HD
ATOM     55  C   UNL A   1      45.944  26.968  28.264  1.00  0.00     0.074 A 
ATOM     56  C   UNL A   1      46.362  25.627  27.901  1.00  0.00     0.031 C 
ATOM     57  C   UNL A   1      46.801  27.990  28.515  1.00  0.00     0.037 A 
BRANCH  44  58
ATOM     58  C   UNL A   1      44.052  33.296  30.139  1.00  0.00     0.058 A 
ATOM     59  C   UNL A   1      44.198  33.690  31.477  1.00  0.00     0.135 A 
ATOM     60  C   UNL A   1      44.036  34.304  29.160  1.00  0.00     0.135 A 
ATOM     61  F   UNL A   1      44.199  32.772  32.456  1.00  0.00    -0.206 F 
ATOM     62  C   UNL A   1      44.290  35.033  31.835  1.00  0.00     0.059 A 
ATOM     63  C   UNL A   1      44.153  35.651  29.492  1.00  0.00     0.059 A 
ATOM     64  F   UNL A   1      43.896  33.986  27.863  1.00  0.00    -0.206 F 
ATOM     65  C   UNL A   1      44.261  36.007  30.836  1.00  0.00     0.060 A 
BRANCH  65  66
ATOM     66  S   UNL A   1      44.372  37.746  31.310  1.00  0.00     0.124 S 
ATOM     67  O   UNL A   1      43.737  37.731  32.623  1.00  0.00    -0.237 OA
ATOM     68  O   UNL A   1      45.812  37.983  31.306  1.00  0.00    -0.237 OA
ATOM     69  O   UNL A   1      43.626  38.433  30.260  1.00  0.00    -0.744 OA
ENDBRANCH  65  66
ENDBRANCH  44  58
BRANCH  45  70
ATOM     70  C   UNL A   1      42.602  23.761  27.381  1.00  0.00     0.058 A 
ATOM     71  C   UNL A   1      42.619  23.417  26.021  1.00  0.00     0.135 A 
ATOM     72  C   UNL A   1      42.411  22.729  28.313  1.00  0.00     0.135 A 
ATOM     73  F   UNL A   1      42.788  24.368  25.090  1.00  0.00    -0.206 F 
ATOM     74  C   UNL A   1      42.452  22.101  25.601  1.00  0.00     0.059 A 
ATOM     75  C   UNL A   1      42.269  21.403  27.919  1.00  0.00     0.059 A 
ATOM     76  F   UNL A   1      42.400  23.005  29.627  1.00  0.00    -0.206 F 
ATOM     77  C   UNL A   1      42.283  21.099  26.559  1.00  0.00     0.060 A 
BRANCH  77  78
ATOM     78  S   UNL A   1      42.140  19.385  26.012  1.00  0.00     0.124 S 
ATOM     79  O   UNL A   1      40.699  19.254  25.832  1.00  0.00    -0.237 OA
ATOM     80  O   UNL A   1      42.939  19.382  24.790  1.00  0.00    -0.237 OA
ATOM     81  O   UNL A   1      42.710  18.630  27.124  1.00  0.00    -0.744 OA
ENDBRANCH  77  78
ENDBRANCH  45  70
BRANCH  57  82
ATOM     82  C   UNL A   1      48.267  27.675  28.446  1.00  0.00     0.058 A 
ATOM     83  C   UNL A   1      49.033  27.975  27.309  1.00  0.00     0.135 A 
ATOM     84  C   UNL A   1      48.912  27.071  29.537  1.00  0.00     0.135 A 
ATOM     85  F   UNL A   1      48.459  28.549  26.240  1.00  0.00    -0.206 F 
ATOM     86  C   UNL A   1      50.382  27.647  27.240  1.00  0.00     0.059 A 
ATOM     87  C   UNL A   1      50.266  26.757  29.498  1.00  0.00     0.059 A 
ATOM     88  F   UNL A   1      48.224  26.778  30.652  1.00  0.00    -0.206 F 
ATOM     89  C   UNL A   1      50.988  27.030  28.337  1.00  0.00     0.060 A 
BRANCH  89  90
ATOM     90  S   UNL A   1      52.737  26.597  28.237  1.00  0.00     0.124 S 
ATOM     91  O   UNL A   1      52.704  25.464  27.318  1.00  0.00    -0.237 OA
ATOM     92  O   UNL A   1      53.337  27.821  27.713  1.00  0.00    -0.237 OA
ATOM     93  O   UNL A   1      53.085  26.278  29.618  1.00  0.00    -0.744 OA
ENDBRANCH  89  90
ENDBRANCH  57  82
ENDBRANCH  31  32
ENDBRANCH  24  26
ENDBRANCH  23  24
ENDBRANCH  22  23
ENDBRANCH   1  22
TORSDOF 18
ENDMDL
MODEL 3
REMARK VINA RESULT:     -10.9      6.884     12.172
REMARK SMILES O=C(CSc1ccccc1C(=O)OCCOC(=O)c1ccc(-c2c3nc(c(-c4c(F)cc(S(=O)(=O)[O-])cc4F)c4ccc([nH]4)c(-c4c(F)cc(S(=O)(=O)[O-])cc4F)c4nc(c(-c5c(F)cc(S(=O)(=O)[O-])cc5F)c5ccc2[nH]5)C=C4)C=C3)cc1)c1ccc(Cl)cc1
REMARK SMILES IDX 14 1 13 2 11 3 12 4 10 5 5 6 6 7 7 8 9 9 8 10 4 11 3 12 2 13
REMARK SMILES IDX 1 14 85 15 86 16 91 17 87 18 90 19 88 20 89 21 15 22 16 23
REMARK SMILES IDX 17 24 18 25 19 26 20 27 84 28 21 29 83 30 22 31 23 32 24 33
REMARK SMILES IDX 77 34 25 35 82 36 76 37 78 38 26 39 81 40 75 41 74 42 27 44
REMARK SMILES IDX 61 45 40 46 60 47 41 48 44 49 59 50 79 51 42 52 43 53 58 55
REMARK SMILES IDX 80 56 45 57 28 58 29 59 38 60 30 61 31 62 37 63 39 64 32 65
REMARK SMILES IDX 33 66 34 67 35 68 36 69 62 70 63 71 72 72 64 73 65 74 71 75
REMARK SMILES IDX 73 76 66 77 67 78 68 79 69 80 70 81 46 82 47 83 56 84 48 85
REMARK SMILES IDX 49 86 55 87 57 88 50 89 51 90 52 91 53 92 54 93
REMARK H PARENT 78 43 44 54
REMARK Flexibility Score: inf
ROOT
ATOM      1  C   UNL A   1      38.120  22.279  25.763  1.00  0.00     0.275 C 
ENDROOT
BRANCH   1   2
ATOM      2  O   UNL A   1      36.895  23.038  25.685  1.00  0.00    -0.458 OA
BRANCH   2   3
ATOM      3  C   UNL A   1      36.176  22.913  24.538  1.00  0.00     0.339 C 
ATOM      4  O   UNL A   1      36.474  23.373  23.453  1.00  0.00    -0.246 OA
BRANCH   3   5
ATOM      5  C   UNL A   1      34.955  22.086  24.735  1.00  0.00     0.073 A 
ATOM      6  C   UNL A   1      33.651  22.610  24.753  1.00  0.00     0.022 A 
ATOM      7  C   UNL A   1      32.569  21.724  24.907  1.00  0.00     0.016 A 
ATOM      8  C   UNL A   1      32.774  20.346  25.026  1.00  0.00     0.001 A 
ATOM      9  C   UNL A   1      35.144  20.694  24.804  1.00  0.00     0.017 A 
ATOM     10  C   UNL A   1      34.062  19.830  24.973  1.00  0.00     0.001 A 
BRANCH   6  11
ATOM     11  S   UNL A   1      33.274  24.353  24.628  1.00  0.00    -0.117 SA
BRANCH  11  12
ATOM     12  C   UNL A   1      31.544  24.404  25.177  1.00  0.00     0.156 C 
BRANCH  12  13
ATOM     13  C   UNL A   1      31.074  25.730  25.738  1.00  0.00     0.173 C 
ATOM     14  O   UNL A   1      31.060  25.925  26.954  1.00  0.00    -0.293 OA
BRANCH  13  15
ATOM     15  C   UNL A   1      30.752  26.876  24.831  1.00  0.00     0.018 A 
ATOM     16  C   UNL A   1      31.592  27.980  24.672  1.00  0.00     0.013 A 
ATOM     17  C   UNL A   1      29.569  26.813  24.079  1.00  0.00     0.013 A 
ATOM     18  C   UNL A   1      31.289  28.976  23.736  1.00  0.00     0.021 A 
ATOM     19  C   UNL A   1      29.247  27.826  23.167  1.00  0.00     0.021 A 
ATOM     20  C   UNL A   1      30.120  28.894  22.986  1.00  0.00     0.041 A 
ATOM     21  Cl  UNL A   1      29.759  30.119  21.835  1.00  0.00    -0.084 Cl
ENDBRANCH  13  15
ENDBRANCH  12  13
ENDBRANCH  11  12
ENDBRANCH   6  11
ENDBRANCH   3   5
ENDBRANCH   2   3
ENDBRANCH   1   2
BRANCH   1  22
ATOM     22  C   UNL A   1      39.226  23.009  26.518  1.00  0.00     0.275 C 
BRANCH  22  23
ATOM     23  O   UNL A   1      38.890  24.395  26.657  1.00  0.00    -0.458 OA
BRANCH  23  24
ATOM     24  C   UNL A   1      39.939  25.223  26.490  1.00  0.00     0.338 C 
ATOM     25  O   UNL A   1      40.478  25.547  25.443  1.00  0.00    -0.246 OA
BRANCH  24  26
ATOM     26  C   UNL A   1      40.284  25.841  27.769  1.00  0.00     0.060 A 
ATOM     27  C   UNL A   1      39.324  25.767  28.775  1.00  0.00     0.016 A 
ATOM     28  C   UNL A   1      41.400  26.663  27.897  1.00  0.00     0.016 A 
ATOM     29  C   UNL A   1      39.396  26.620  29.865  1.00  0.00     0.010 A 
ATOM     30  C   UNL A   1      41.503  27.481  29.023  1.00  0.00     0.010 A 
ATOM     31  C   UNL A   1      40.462  27.521  29.973  1.00  0.00    -0.014 A 
BRANCH  31  32
ATOM     32  C   UNL A   1      40.390  28.629  30.959  1.00  0.00     0.031 A 
ATOM     33  C   UNL A   1      41.379  28.651  32.097  1.00  0.00     0.074 A 
ATOM     34  C   UNL A   1      39.502  29.630  30.814  1.00  0.00     0.049 A 
ATOM     35  N   UNL A   1      41.390  29.392  33.174  1.00  0.00    -0.248 NA
ATOM     36  C   UNL A   1      42.495  27.692  32.019  1.00  0.00     0.031 C 
ATOM     37  C   UNL A   1      38.549  29.766  29.712  1.00  0.00     0.029 A 
ATOM     38  N   UNL A   1      39.266  30.729  31.598  1.00  0.00    -0.354 N 
ATOM     39  C   UNL A   1      42.464  28.937  33.934  1.00  0.00     0.074 A 
ATOM     40  C   UNL A   1      43.083  27.860  33.194  1.00  0.00     0.031 C 
ATOM     41  C   UNL A   1      37.844  30.896  29.881  1.00  0.00     0.029 A 
ATOM     42  C   UNL A   1      38.244  31.523  31.136  1.00  0.00     0.049 A 
ATOM     43  H   UNL A   1      39.779  30.931  32.413  1.00  0.00     0.167 HD
ATOM     44  C   UNL A   1      42.888  29.379  35.142  1.00  0.00     0.037 A 
ATOM     45  C   UNL A   1      37.671  32.610  31.685  1.00  0.00     0.037 A 
ATOM     46  C   UNL A   1      42.306  30.504  35.827  1.00  0.00     0.049 A 
ATOM     47  C   UNL A   1      38.172  33.101  33.015  1.00  0.00     0.074 A 
ATOM     48  C   UNL A   1      42.646  31.040  37.056  1.00  0.00     0.029 A 
ATOM     49  N   UNL A   1      41.279  31.287  35.319  1.00  0.00    -0.354 N 
ATOM     50  N   UNL A   1      39.119  32.601  33.774  1.00  0.00    -0.248 NA
ATOM     51  C   UNL A   1      37.520  34.294  33.569  1.00  0.00     0.031 C 
ATOM     52  C   UNL A   1      41.811  32.139  37.299  1.00  0.00     0.029 A 
ATOM     53  C   UNL A   1      40.978  32.309  36.203  1.00  0.00     0.049 A 
ATOM     54  H   UNL A   1      40.830  31.138  34.456  1.00  0.00     0.167 HD
ATOM     55  C   UNL A   1      39.188  33.427  34.889  1.00  0.00     0.074 A 
ATOM     56  C   UNL A   1      38.198  34.469  34.695  1.00  0.00     0.031 C 
ATOM     57  C   UNL A   1      39.992  33.334  35.979  1.00  0.00     0.037 A 
BRANCH  44  58
ATOM     58  C   UNL A   1      44.001  28.618  35.811  1.00  0.00     0.058 A 
ATOM     59  C   UNL A   1      45.353  28.936  35.614  1.00  0.00     0.135 A 
ATOM     60  C   UNL A   1      43.701  27.547  36.669  1.00  0.00     0.135 A 
ATOM     61  F   UNL A   1      45.699  29.936  34.788  1.00  0.00    -0.206 F 
ATOM     62  C   UNL A   1      46.370  28.199  36.216  1.00  0.00     0.059 A 
ATOM     63  C   UNL A   1      44.701  26.812  37.303  1.00  0.00     0.059 A 
ATOM     64  F   UNL A   1      42.425  27.196  36.893  1.00  0.00    -0.206 F 
ATOM     65  C   UNL A   1      46.034  27.135  37.054  1.00  0.00     0.060 A 
BRANCH  65  66
ATOM     66  S   UNL A   1      47.359  26.179  37.824  1.00  0.00     0.124 S 
ATOM     67  O   UNL A   1      46.710  24.888  38.022  1.00  0.00    -0.237 OA
ATOM     68  O   UNL A   1      48.404  26.213  36.806  1.00  0.00    -0.237 OA
ATOM     69  O   UNL A   1      47.653  26.927  39.043  1.00  0.00    -0.744 OA
ENDBRANCH  65  66
ENDBRANCH  44  58
BRANCH  45  70
ATOM     70  C   UNL A   1      36.546  33.283  30.986  1.00  0.00     0.058 A 
ATOM     71  C   UNL A   1      35.228  33.165  31.452  1.00  0.00     0.135 A 
ATOM     72  C   UNL A   1      36.769  34.089  29.858  1.00  0.00     0.135 A 
ATOM     73  F   UNL A   1      34.962  32.398  32.521  1.00  0.00    -0.206 F 
ATOM     74  C   UNL A   1      34.172  33.817  30.825  1.00  0.00     0.059 A 
ATOM     75  C   UNL A   1      35.734  34.773  29.230  1.00  0.00     0.059 A 
ATOM     76  F   UNL A   1      38.014  34.246  29.380  1.00  0.00    -0.206 F 
ATOM     77  C   UNL A   1      34.436  34.625  29.717  1.00  0.00     0.060 A 
BRANCH  77  78
ATOM     78  S   UNL A   1      33.072  35.527  28.951  1.00  0.00     0.124 S 
ATOM     79  O   UNL A   1      33.782  36.576  28.230  1.00  0.00    -0.237 OA
ATOM     80  O   UNL A   1      32.445  34.498  28.127  1.00  0.00    -0.237 OA
ATOM     81  O   UNL A   1      32.280  35.969  30.095  1.00  0.00    -0.744 OA
ENDBRANCH  77  78
ENDBRANCH  45  70
BRANCH  57  82
ATOM     82  C   UNL A   1      39.856  34.415  37.012  1.00  0.00     0.058 A 
ATOM     83  C   UNL A   1      38.936  34.314  38.067  1.00  0.00     0.135 A 
ATOM     84  C   UNL A   1      40.662  35.561  36.947  1.00  0.00     0.135 A 
ATOM     85  F   UNL A   1      38.140  33.238  38.170  1.00  0.00    -0.206 F 
ATOM     86  C   UNL A   1      38.791  35.335  39.000  1.00  0.00     0.059 A 
ATOM     87  C   UNL A   1      40.551  36.583  37.883  1.00  0.00     0.059 A 
ATOM     88  F   UNL A   1      41.567  35.697  35.964  1.00  0.00    -0.206 F 
ATOM     89  C   UNL A   1      39.597  36.470  38.894  1.00  0.00     0.060 A 
BRANCH  89  90
ATOM     90  S   UNL A   1      39.397  37.797  40.101  1.00  0.00     0.124 S 
ATOM     91  O   UNL A   1      38.225  38.492  39.577  1.00  0.00    -0.237 OA
ATOM     92  O   UNL A   1      39.196  37.064  41.347  1.00  0.00    -0.237 OA
ATOM     93  O   UNL A   1      40.656  38.530  40.009  1.00  0.00    -0.744 OA
ENDBRANCH  89  90
ENDBRANCH  57  82
ENDBRANCH  31  32
ENDBRANCH  24  26
ENDBRANCH  23  24
ENDBRANCH  22  23
ENDBRANCH   1  22
TORSDOF 18
ENDMDL
