MODEL 1
REMARK VINA RESULT:     -10.1      0.000      0.000
REMARK SMILES CCS(=O)(=O)N1CCC(C(=O)N[C@H](CO)C(=O)OCCOC(=O)c2ccc(-c3c4nc(c(-c5c(F)cc(S(=O)(=O)[O-])cc5F)c5ccc([nH]5)c(-c5c(F)cc(S(=O)(=O)[O-])cc5F)c5nc(c(-c6c(F)cc(S(=O)(=O)[O-])cc6F)c6ccc3[nH]6)C=C5)C=C4)cc2)CC1
REMARK SMILES IDX 19 1 18 2 16 3 17 4 13 5 12 6 10 7 11 8 9 10 6 11 7 12 91 13
REMARK SMILES IDX 8 14 90 15 3 16 4 17 5 18 2 19 1 20 14 21 15 22 20 24 21 25
REMARK SMILES IDX 22 26 23 27 24 28 25 29 89 30 26 31 88 32 27 33 28 34 29 35
REMARK SMILES IDX 82 36 30 37 87 38 81 39 83 40 31 41 86 42 80 43 79 44 32 46
REMARK SMILES IDX 66 47 45 48 65 49 46 50 49 51 64 52 84 53 47 54 48 55 63 57
REMARK SMILES IDX 85 58 50 59 33 60 34 61 43 62 35 63 36 64 42 65 44 66 37 67
REMARK SMILES IDX 38 68 39 69 40 70 41 71 67 72 68 73 77 74 69 75 70 76 76 77
REMARK SMILES IDX 78 78 71 79 72 80 73 81 74 82 75 83 51 84 52 85 61 86 53 87
REMARK SMILES IDX 54 88 60 89 62 90 55 91 56 92 57 93 58 94 59 95
REMARK H PARENT 12 9 15 23 83 45 49 56
REMARK Flexibility Score: inf
ROOT
ATOM      1  C   UNL A   1      41.439  20.041  26.468  1.00  0.00     0.274 C 
ENDROOT
BRANCH   1   2
ATOM      2  O   UNL A   1      42.251  19.741  25.322  1.00  0.00    -0.460 OA
BRANCH   2   3
ATOM      3  C   UNL A   1      43.289  18.876  25.456  1.00  0.00     0.331 C 
ATOM      4  O   UNL A   1      43.182  17.704  25.793  1.00  0.00    -0.250 OA
BRANCH   3   5
ATOM      5  C   UNL A   1      44.629  19.591  25.253  1.00  0.00     0.218 C 
BRANCH   5   6
ATOM      6  N   UNL A   1      44.730  20.670  24.237  1.00  0.00    -0.341 N 
ATOM      7  C   UNL A   1      44.991  21.996  24.199  1.00  0.00     0.223 C 
ATOM      8  O   UNL A   1      44.533  22.596  23.217  1.00  0.00    -0.275 OA
ATOM      9  H   UNL A   1      44.557  20.320  23.334  1.00  0.00     0.164 HD
BRANCH   7  10
ATOM     10  C   UNL A   1      45.880  22.774  25.167  1.00  0.00     0.081 C 
ATOM     11  N   UNL A   1      46.359  25.160  26.775  1.00  0.00    -0.202 NA
ATOM     12  C   UNL A   1      47.247  24.849  25.597  1.00  0.00     0.103 C 
ATOM     13  C   UNL A   1      45.993  23.910  27.480  1.00  0.00     0.103 C 
ATOM     14  C   UNL A   1      46.504  24.017  24.557  1.00  0.00     0.030 C 
ATOM     15  C   UNL A   1      45.240  22.963  26.545  1.00  0.00     0.030 C 
BRANCH  11  16
ATOM     16  S   UNL A   1      47.010  26.435  27.714  1.00  0.00     0.213 S 
ATOM     17  O   UNL A   1      48.388  26.598  27.295  1.00  0.00    -0.212 OA
ATOM     18  O   UNL A   1      46.705  26.124  29.096  1.00  0.00    -0.212 OA
BRANCH  16  19
ATOM     19  C   UNL A   1      46.110  27.928  27.289  1.00  0.00     0.151 C 
ATOM     20  C   UNL A   1      45.031  27.756  26.244  1.00  0.00     0.022 C 
ENDBRANCH  16  19
ENDBRANCH  11  16
ENDBRANCH   7  10
ENDBRANCH   5   6
BRANCH   5  21
ATOM     21  C   UNL A   1      45.888  18.692  25.349  1.00  0.00     0.193 C 
BRANCH  21  22
ATOM     22  O   UNL A   1      45.660  17.359  25.781  1.00  0.00    -0.394 OA
ATOM     23  H   UNL A   1      44.882  17.001  25.326  1.00  0.00     0.210 HD
ENDBRANCH  21  22
ENDBRANCH   5  21
ENDBRANCH   3   5
ENDBRANCH   2   3
ENDBRANCH   1   2
BRANCH   1  24
ATOM     24  C   UNL A   1      40.528  21.236  26.228  1.00  0.00     0.275 C 
BRANCH  24  25
ATOM     25  O   UNL A   1      40.929  22.295  27.093  1.00  0.00    -0.458 OA
BRANCH  25  26
ATOM     26  C   UNL A   1      41.515  23.313  26.419  1.00  0.00     0.338 C 
ATOM     27  O   UNL A   1      42.042  23.257  25.326  1.00  0.00    -0.246 OA
BRANCH  26  28
ATOM     28  C   UNL A   1      41.132  24.568  27.091  1.00  0.00     0.060 A 
ATOM     29  C   UNL A   1      41.909  25.694  26.799  1.00  0.00     0.016 A 
ATOM     30  C   UNL A   1      40.041  24.648  27.966  1.00  0.00     0.016 A 
ATOM     31  C   UNL A   1      41.679  26.877  27.473  1.00  0.00     0.010 A 
ATOM     32  C   UNL A   1      39.812  25.834  28.651  1.00  0.00     0.010 A 
ATOM     33  C   UNL A   1      40.686  26.913  28.456  1.00  0.00    -0.014 A 
BRANCH  33  34
ATOM     34  C   UNL A   1      40.792  27.954  29.488  1.00  0.00     0.031 A 
ATOM     35  C   UNL A   1      41.940  27.842  30.451  1.00  0.00     0.074 A 
ATOM     36  C   UNL A   1      39.940  28.990  29.488  1.00  0.00     0.049 A 
ATOM     37  N   UNL A   1      42.239  28.593  31.474  1.00  0.00    -0.248 NA
ATOM     38  C   UNL A   1      42.889  26.732  30.228  1.00  0.00     0.031 C 
ATOM     39  C   UNL A   1      38.856  29.190  28.526  1.00  0.00     0.029 A 
ATOM     40  N   UNL A   1      39.859  30.065  30.325  1.00  0.00    -0.354 N 
ATOM     41  C   UNL A   1      43.388  28.038  32.023  1.00  0.00     0.074 A 
ATOM     42  C   UNL A   1      43.733  26.879  31.237  1.00  0.00     0.031 C 
ATOM     43  C   UNL A   1      38.201  30.320  28.843  1.00  0.00     0.029 A 
ATOM     44  C   UNL A   1      38.796  30.888  30.049  1.00  0.00     0.049 A 
ATOM     45  H   UNL A   1      40.498  30.233  31.054  1.00  0.00     0.167 HD
ATOM     46  C   UNL A   1      44.091  28.470  33.094  1.00  0.00     0.037 A 
ATOM     47  C   UNL A   1      38.347  31.957  30.732  1.00  0.00     0.037 A 
ATOM     48  C   UNL A   1      43.718  29.637  33.846  1.00  0.00     0.049 A 
ATOM     49  C   UNL A   1      39.108  32.378  31.961  1.00  0.00     0.074 A 
ATOM     50  C   UNL A   1      44.336  30.183  34.953  1.00  0.00     0.029 A 
ATOM     51  N   UNL A   1      42.619  30.436  33.556  1.00  0.00    -0.354 N 
ATOM     52  N   UNL A   1      40.188  31.843  32.486  1.00  0.00    -0.248 NA
ATOM     53  C   UNL A   1      38.597  33.543  32.692  1.00  0.00     0.031 C 
ATOM     54  C   UNL A   1      43.579  31.284  35.366  1.00  0.00     0.029 A 
ATOM     55  C   UNL A   1      42.525  31.459  34.479  1.00  0.00     0.049 A 
ATOM     56  H   UNL A   1      41.999  30.294  32.805  1.00  0.00     0.167 HD
ATOM     57  C   UNL A   1      40.502  32.622  33.593  1.00  0.00     0.074 A 
ATOM     58  C   UNL A   1      39.503  33.673  33.651  1.00  0.00     0.031 C 
ATOM     59  C   UNL A   1      41.516  32.489  34.484  1.00  0.00     0.037 A 
BRANCH  46  60
ATOM     60  C   UNL A   1      45.282  27.667  33.533  1.00  0.00     0.058 A 
ATOM     61  C   UNL A   1      45.167  26.579  34.414  1.00  0.00     0.135 A 
ATOM     62  C   UNL A   1      46.559  27.969  33.032  1.00  0.00     0.135 A 
ATOM     63  F   UNL A   1      43.978  26.266  34.951  1.00  0.00    -0.206 F 
ATOM     64  C   UNL A   1      46.276  25.821  34.781  1.00  0.00     0.059 A 
ATOM     65  C   UNL A   1      47.677  27.210  33.366  1.00  0.00     0.059 A 
ATOM     66  F   UNL A   1      46.729  29.012  32.203  1.00  0.00    -0.206 F 
ATOM     67  C   UNL A   1      47.525  26.139  34.245  1.00  0.00     0.060 A 
BRANCH  67  68
ATOM     68  S   UNL A   1      48.944  25.117  34.695  1.00  0.00     0.124 S 
ATOM     69  O   UNL A   1      48.378  23.774  34.606  1.00  0.00    -0.237 OA
ATOM     70  O   UNL A   1      49.916  25.464  33.662  1.00  0.00    -0.237 OA
ATOM     71  O   UNL A   1      49.277  25.569  36.042  1.00  0.00    -0.744 OA
ENDBRANCH  67  68
ENDBRANCH  46  60
BRANCH  47  72
ATOM     72  C   UNL A   1      37.110  32.656  30.297  1.00  0.00     0.058 A 
ATOM     73  C   UNL A   1      35.846  32.269  30.762  1.00  0.00     0.135 A 
ATOM     74  C   UNL A   1      37.170  33.736  29.400  1.00  0.00     0.135 A 
ATOM     75  F   UNL A   1      35.733  31.243  31.621  1.00  0.00    -0.206 F 
ATOM     76  C   UNL A   1      34.685  32.905  30.336  1.00  0.00     0.059 A 
ATOM     77  C   UNL A   1      36.028  34.409  28.982  1.00  0.00     0.059 A 
ATOM     78  F   UNL A   1      38.356  34.162  28.936  1.00  0.00    -0.206 F 
ATOM     79  C   UNL A   1      34.786  33.974  29.442  1.00  0.00     0.060 A 
BRANCH  79  80
ATOM     80  S   UNL A   1      33.276  34.806  28.908  1.00  0.00     0.124 S 
ATOM     81  O   UNL A   1      32.571  34.972  30.173  1.00  0.00    -0.237 OA
ATOM     82  O   UNL A   1      33.796  36.027  28.301  1.00  0.00    -0.237 OA
ATOM     83  O   UNL A   1      32.682  33.855  27.973  1.00  0.00    -0.744 OA
ENDBRANCH  79  80
ENDBRANCH  47  72
BRANCH  59  84
ATOM     84  C   UNL A   1      41.613  33.528  35.563  1.00  0.00     0.058 A 
ATOM     85  C   UNL A   1      42.396  34.681  35.408  1.00  0.00     0.135 A 
ATOM     86  C   UNL A   1      40.863  33.390  36.742  1.00  0.00     0.135 A 
ATOM     87  F   UNL A   1      43.135  34.852  34.300  1.00  0.00    -0.206 F 
ATOM     88  C   UNL A   1      42.455  35.651  36.400  1.00  0.00     0.059 A 
ATOM     89  C   UNL A   1      40.880  34.364  37.732  1.00  0.00     0.059 A 
ATOM     90  F   UNL A   1      40.085  32.311  36.927  1.00  0.00    -0.206 F 
ATOM     91  C   UNL A   1      41.691  35.484  37.557  1.00  0.00     0.060 A 
BRANCH  91  92
ATOM     92  S   UNL A   1      41.753  36.768  38.823  1.00  0.00     0.124 S 
ATOM     93  O   UNL A   1      40.399  37.307  38.757  1.00  0.00    -0.237 OA
ATOM     94  O   UNL A   1      42.075  36.004  40.025  1.00  0.00    -0.237 OA
ATOM     95  O   UNL A   1      42.809  37.659  38.351  1.00  0.00    -0.744 OA
ENDBRANCH  91  92
ENDBRANCH  59  84
ENDBRANCH  33  34
ENDBRANCH  26  28
ENDBRANCH  25  26
ENDBRANCH  24  25
ENDBRANCH   1  24
TORSDOF 20
ENDMDL
MODEL 2
REMARK VINA RESULT:     -10.0      4.701     11.445
REMARK SMILES CCS(=O)(=O)N1CCC(C(=O)N[C@H](CO)C(=O)OCCOC(=O)c2ccc(-c3c4nc(c(-c5c(F)cc(S(=O)(=O)[O-])cc5F)c5ccc([nH]5)c(-c5c(F)cc(S(=O)(=O)[O-])cc5F)c5nc(c(-c6c(F)cc(S(=O)(=O)[O-])cc6F)c6ccc3[nH]6)C=C5)C=C4)cc2)CC1
REMARK SMILES IDX 19 1 18 2 16 3 17 4 13 5 12 6 10 7 11 8 9 10 6 11 7 12 91 13
REMARK SMILES IDX 8 14 90 15 3 16 4 17 5 18 2 19 1 20 14 21 15 22 20 24 21 25
REMARK SMILES IDX 22 26 23 27 24 28 25 29 89 30 26 31 88 32 27 33 28 34 29 35
REMARK SMILES IDX 82 36 30 37 87 38 81 39 83 40 31 41 86 42 80 43 79 44 32 46
REMARK SMILES IDX 66 47 45 48 65 49 46 50 49 51 64 52 84 53 47 54 48 55 63 57
REMARK SMILES IDX 85 58 50 59 33 60 34 61 43 62 35 63 36 64 42 65 44 66 37 67
REMARK SMILES IDX 38 68 39 69 40 70 41 71 67 72 68 73 77 74 69 75 70 76 76 77
REMARK SMILES IDX 78 78 71 79 72 80 73 81 74 82 75 83 51 84 52 85 61 86 53 87
REMARK SMILES IDX 54 88 60 89 62 90 55 91 56 92 57 93 58 94 59 95
REMARK H PARENT 12 9 15 23 83 45 49 56
REMARK Flexibility Score: inf
ROOT
ATOM      1  C   UNL A   1      31.831  30.504  26.051  1.00  0.00     0.274 C 
ENDROOT
BRANCH   1   2
ATOM      2  O   UNL A   1      32.146  29.615  24.968  1.00  0.00    -0.460 OA
BRANCH   2   3
ATOM      3  C   UNL A   1      31.320  28.569  24.712  1.00  0.00     0.331 C 
ATOM      4  O   UNL A   1      30.915  27.776  25.554  1.00  0.00    -0.250 OA
BRANCH   3   5
ATOM      5  C   UNL A   1      31.060  28.429  23.208  1.00  0.00     0.218 C 
BRANCH   5   6
ATOM      6  N   UNL A   1      32.160  27.972  22.321  1.00  0.00    -0.341 N 
ATOM      7  C   UNL A   1      33.156  27.058  22.340  1.00  0.00     0.223 C 
ATOM      8  O   UNL A   1      34.117  27.311  21.600  1.00  0.00    -0.275 OA
ATOM      9  H   UNL A   1      32.164  28.480  21.477  1.00  0.00     0.164 HD
BRANCH   7  10
ATOM     10  C   UNL A   1      33.147  25.721  23.078  1.00  0.00     0.081 C 
ATOM     11  N   UNL A   1      32.063  24.020  25.184  1.00  0.00    -0.202 NA
ATOM     12  C   UNL A   1      33.493  24.491  25.251  1.00  0.00     0.103 C 
ATOM     13  C   UNL A   1      31.695  23.709  23.783  1.00  0.00     0.103 C 
ATOM     14  C   UNL A   1      33.672  25.806  24.500  1.00  0.00     0.030 C 
ATOM     15  C   UNL A   1      31.836  24.950  22.901  1.00  0.00     0.030 C 
BRANCH  11  16
ATOM     16  S   UNL A   1      31.757  22.820  26.365  1.00  0.00     0.213 S 
ATOM     17  O   UNL A   1      30.707  21.971  25.834  1.00  0.00    -0.212 OA
ATOM     18  O   UNL A   1      31.558  23.518  27.619  1.00  0.00    -0.212 OA
BRANCH  16  19
ATOM     19  C   UNL A   1      33.248  21.836  26.530  1.00  0.00     0.151 C 
ATOM     20  C   UNL A   1      33.245  20.528  25.773  1.00  0.00     0.022 C 
ENDBRANCH  16  19
ENDBRANCH  11  16
ENDBRANCH   7  10
ENDBRANCH   5   6
BRANCH   5  21
ATOM     21  C   UNL A   1      30.150  29.516  22.582  1.00  0.00     0.193 C 
BRANCH  21  22
ATOM     22  O   UNL A   1      30.661  30.147  21.417  1.00  0.00    -0.394 OA
ATOM     23  H   UNL A   1      30.659  29.516  20.681  1.00  0.00     0.210 HD
ENDBRANCH  21  22
ENDBRANCH   5  21
ENDBRANCH   3   5
ENDBRANCH   2   3
ENDBRANCH   1   2
BRANCH   1  24
ATOM     24  C   UNL A   1      32.737  30.284  27.254  1.00  0.00     0.275 C 
BRANCH  24  25
ATOM     25  O   UNL A   1      34.054  30.710  26.917  1.00  0.00    -0.458 OA
BRANCH  25  26
ATOM     26  C   UNL A   1      34.703  31.253  27.974  1.00  0.00     0.338 C 
ATOM     27  O   UNL A   1      34.268  32.079  28.752  1.00  0.00    -0.246 OA
BRANCH  26  28
ATOM     28  C   UNL A   1      35.915  30.448  28.212  1.00  0.00     0.060 A 
ATOM     29  C   UNL A   1      35.922  29.661  29.369  1.00  0.00     0.016 A 
ATOM     30  C   UNL A   1      37.002  30.448  27.329  1.00  0.00     0.016 A 
ATOM     31  C   UNL A   1      37.065  28.966  29.714  1.00  0.00     0.010 A 
ATOM     32  C   UNL A   1      38.154  29.757  27.678  1.00  0.00     0.010 A 
ATOM     33  C   UNL A   1      38.200  29.088  28.909  1.00  0.00    -0.014 A 
BRANCH  33  34
ATOM     34  C   UNL A   1      39.502  28.795  29.525  1.00  0.00     0.031 A 
ATOM     35  C   UNL A   1      39.911  29.653  30.689  1.00  0.00     0.074 A 
ATOM     36  C   UNL A   1      40.226  27.749  29.103  1.00  0.00     0.049 A 
ATOM     37  N   UNL A   1      41.017  29.639  31.380  1.00  0.00    -0.248 NA
ATOM     38  C   UNL A   1      38.937  30.668  31.143  1.00  0.00     0.031 C 
ATOM     39  C   UNL A   1      39.838  26.833  28.029  1.00  0.00     0.029 A 
ATOM     40  N   UNL A   1      41.436  27.284  29.530  1.00  0.00    -0.354 N 
ATOM     41  C   UNL A   1      40.879  30.647  32.328  1.00  0.00     0.074 A 
ATOM     42  C   UNL A   1      39.594  31.267  32.122  1.00  0.00     0.031 C 
ATOM     43  C   UNL A   1      40.811  25.920  27.869  1.00  0.00     0.029 A 
ATOM     44  C   UNL A   1      41.898  26.219  28.796  1.00  0.00     0.049 A 
ATOM     45  H   UNL A   1      41.930  27.673  30.287  1.00  0.00     0.167 HD
ATOM     46  C   UNL A   1      41.759  31.012  33.286  1.00  0.00     0.037 A 
ATOM     47  C   UNL A   1      43.088  25.595  28.857  1.00  0.00     0.037 A 
ATOM     48  C   UNL A   1      43.027  30.360  33.464  1.00  0.00     0.049 A 
ATOM     49  C   UNL A   1      44.078  26.065  29.890  1.00  0.00     0.074 A 
ATOM     50  C   UNL A   1      44.014  30.631  34.390  1.00  0.00     0.029 A 
ATOM     51  N   UNL A   1      43.477  29.300  32.687  1.00  0.00    -0.354 N 
ATOM     52  N   UNL A   1      43.950  27.026  30.778  1.00  0.00    -0.248 NA
ATOM     53  C   UNL A   1      45.370  25.372  29.935  1.00  0.00     0.031 C 
ATOM     54  C   UNL A   1      45.086  29.768  34.139  1.00  0.00     0.029 A 
ATOM     55  C   UNL A   1      44.740  28.919  33.096  1.00  0.00     0.049 A 
ATOM     56  H   UNL A   1      42.971  28.882  31.953  1.00  0.00     0.167 HD
ATOM     57  C   UNL A   1      45.133  27.037  31.504  1.00  0.00     0.074 A 
ATOM     58  C   UNL A   1      45.958  25.974  30.960  1.00  0.00     0.031 C 
ATOM     59  C   UNL A   1      45.514  27.844  32.526  1.00  0.00     0.037 A 
BRANCH  46  60
ATOM     60  C   UNL A   1      41.405  32.175  34.169  1.00  0.00     0.058 A 
ATOM     61  C   UNL A   1      41.621  33.505  33.777  1.00  0.00     0.135 A 
ATOM     62  C   UNL A   1      40.801  31.953  35.419  1.00  0.00     0.135 A 
ATOM     63  F   UNL A   1      42.226  33.776  32.609  1.00  0.00    -0.206 F 
ATOM     64  C   UNL A   1      41.252  34.573  34.591  1.00  0.00     0.059 A 
ATOM     65  C   UNL A   1      40.402  33.005  36.237  1.00  0.00     0.059 A 
ATOM     66  F   UNL A   1      40.591  30.700  35.853  1.00  0.00    -0.206 F 
ATOM     67  C   UNL A   1      40.635  34.312  35.816  1.00  0.00     0.060 A 
BRANCH  67  68
ATOM     68  S   UNL A   1      40.120  35.709  36.838  1.00  0.00     0.124 S 
ATOM     69  O   UNL A   1      39.722  36.682  35.826  1.00  0.00    -0.237 OA
ATOM     70  O   UNL A   1      39.034  35.133  37.625  1.00  0.00    -0.237 OA
ATOM     71  O   UNL A   1      41.326  36.044  37.589  1.00  0.00    -0.744 OA
ENDBRANCH  67  68
ENDBRANCH  46  60
BRANCH  47  72
ATOM     72  C   UNL A   1      43.413  24.508  27.897  1.00  0.00     0.058 A 
ATOM     73  C   UNL A   1      43.067  23.174  28.154  1.00  0.00     0.135 A 
ATOM     74  C   UNL A   1      44.079  24.787  26.692  1.00  0.00     0.135 A 
ATOM     75  F   UNL A   1      42.429  22.855  29.291  1.00  0.00    -0.206 F 
ATOM     76  C   UNL A   1      43.394  22.152  27.269  1.00  0.00     0.059 A 
ATOM     77  C   UNL A   1      44.390  23.789  25.776  1.00  0.00     0.059 A 
ATOM     78  F   UNL A   1      44.417  26.050  26.385  1.00  0.00    -0.206 F 
ATOM     79  C   UNL A   1      44.058  22.470  26.082  1.00  0.00     0.060 A 
BRANCH  79  80
ATOM     80  S   UNL A   1      44.462  21.140  24.930  1.00  0.00     0.124 S 
ATOM     81  O   UNL A   1      44.451  21.846  23.654  1.00  0.00    -0.237 OA
ATOM     82  O   UNL A   1      45.770  20.705  25.409  1.00  0.00    -0.237 OA
ATOM     83  O   UNL A   1      43.379  20.182  25.131  1.00  0.00    -0.744 OA
ENDBRANCH  79  80
ENDBRANCH  47  72
BRANCH  59  84
ATOM     84  C   UNL A   1      46.857  27.576  33.140  1.00  0.00     0.058 A 
ATOM     85  C   UNL A   1      47.996  28.306  32.768  1.00  0.00     0.135 A 
ATOM     86  C   UNL A   1      46.989  26.616  34.156  1.00  0.00     0.135 A 
ATOM     87  F   UNL A   1      47.919  29.230  31.797  1.00  0.00    -0.206 F 
ATOM     88  C   UNL A   1      49.228  28.072  33.363  1.00  0.00     0.059 A 
ATOM     89  C   UNL A   1      48.204  26.390  34.789  1.00  0.00     0.059 A 
ATOM     90  F   UNL A   1      45.922  25.905  34.557  1.00  0.00    -0.206 F 
ATOM     91  C   UNL A   1      49.321  27.114  34.375  1.00  0.00     0.060 A 
BRANCH  91  92
ATOM     92  S   UNL A   1      50.921  26.844  35.161  1.00  0.00     0.124 S 
ATOM     93  O   UNL A   1      50.574  25.891  36.210  1.00  0.00    -0.237 OA
ATOM     94  O   UNL A   1      51.723  26.314  34.063  1.00  0.00    -0.237 OA
ATOM     95  O   UNL A   1      51.302  28.176  35.623  1.00  0.00    -0.744 OA
ENDBRANCH  91  92
ENDBRANCH  59  84
ENDBRANCH  33  34
ENDBRANCH  26  28
ENDBRANCH  25  26
ENDBRANCH  24  25
ENDBRANCH   1  24
TORSDOF 20
ENDMDL
MODEL 3
REMARK VINA RESULT:      -9.9      4.505      9.928
REMARK SMILES CCS(=O)(=O)N1CCC(C(=O)N[C@H](CO)C(=O)OCCOC(=O)c2ccc(-c3c4nc(c(-c5c(F)cc(S(=O)(=O)[O-])cc5F)c5ccc([nH]5)c(-c5c(F)cc(S(=O)(=O)[O-])cc5F)c5nc(c(-c6c(F)cc(S(=O)(=O)[O-])cc6F)c6ccc3[nH]6)C=C5)C=C4)cc2)CC1
REMARK SMILES IDX 19 1 18 2 16 3 17 4 13 5 12 6 10 7 11 8 9 10 6 11 7 12 91 13
REMARK SMILES IDX 8 14 90 15 3 16 4 17 5 18 2 19 1 20 14 21 15 22 20 24 21 25
REMARK SMILES IDX 22 26 23 27 24 28 25 29 89 30 26 31 88 32 27 33 28 34 29 35
REMARK SMILES IDX 82 36 30 37 87 38 81 39 83 40 31 41 86 42 80 43 79 44 32 46
REMARK SMILES IDX 66 47 45 48 65 49 46 50 49 51 64 52 84 53 47 54 48 55 63 57
REMARK SMILES IDX 85 58 50 59 33 60 34 61 43 62 35 63 36 64 42 65 44 66 37 67
REMARK SMILES IDX 38 68 39 69 40 70 41 71 67 72 68 73 77 74 69 75 70 76 76 77
REMARK SMILES IDX 78 78 71 79 72 80 73 81 74 82 75 83 51 84 52 85 61 86 53 87
REMARK SMILES IDX 54 88 60 89 62 90 55 91 56 92 57 93 58 94 59 95
REMARK H PARENT 12 9 15 23 83 45 49 56
REMARK Flexibility Score: inf
ROOT
ATOM      1  C   UNL A   1      31.828  30.161  25.693  1.00  0.00     0.274 C 
ENDROOT
BRANCH   1   2
ATOM      2  O   UNL A   1      31.825  28.852  25.101  1.00  0.00    -0.460 OA
BRANCH   2   3
ATOM      3  C   UNL A   1      32.396  28.678  23.882  1.00  0.00     0.331 C 
ATOM      4  O   UNL A   1      33.511  29.080  23.569  1.00  0.00    -0.250 OA
BRANCH   3   5
ATOM      5  C   UNL A   1      31.415  28.023  22.904  1.00  0.00     0.218 C 
BRANCH   5   6
ATOM      6  N   UNL A   1      31.937  27.112  21.853  1.00  0.00    -0.341 N 
ATOM      7  C   UNL A   1      32.671  25.978  21.777  1.00  0.00     0.223 C 
ATOM      8  O   UNL A   1      33.257  25.802  20.699  1.00  0.00    -0.275 OA
ATOM      9  H   UNL A   1      31.674  27.421  20.957  1.00  0.00     0.164 HD
BRANCH   7  10
ATOM     10  C   UNL A   1      32.741  24.870  22.824  1.00  0.00     0.081 C 
ATOM     11  N   UNL A   1      34.332  23.154  24.566  1.00  0.00    -0.202 NA
ATOM     12  C   UNL A   1      33.552  22.558  23.422  1.00  0.00     0.103 C 
ATOM     13  C   UNL A   1      33.558  24.251  25.192  1.00  0.00     0.103 C 
ATOM     14  C   UNL A   1      33.351  23.579  22.307  1.00  0.00     0.030 C 
ATOM     15  C   UNL A   1      33.272  25.357  24.175  1.00  0.00     0.030 C 
BRANCH  11  16
ATOM     16  S   UNL A   1      34.940  21.930  25.597  1.00  0.00     0.213 S 
ATOM     17  O   UNL A   1      34.466  20.666  25.068  1.00  0.00    -0.212 OA
ATOM     18  O   UNL A   1      34.597  22.323  26.949  1.00  0.00    -0.212 OA
BRANCH  16  19
ATOM     19  C   UNL A   1      36.729  21.961  25.467  1.00  0.00     0.151 C 
ATOM     20  C   UNL A   1      37.354  20.722  24.866  1.00  0.00     0.022 C 
ENDBRANCH  16  19
ENDBRANCH  11  16
ENDBRANCH   7  10
ENDBRANCH   5   6
BRANCH   5  21
ATOM     21  C   UNL A   1      30.236  28.915  22.439  1.00  0.00     0.193 C 
BRANCH  21  22
ATOM     22  O   UNL A   1      30.549  29.877  21.443  1.00  0.00    -0.394 OA
ATOM     23  H   UNL A   1      31.510  30.004  21.406  1.00  0.00     0.210 HD
ENDBRANCH  21  22
ENDBRANCH   5  21
ENDBRANCH   3   5
ENDBRANCH   2   3
ENDBRANCH   1   2
BRANCH   1  24
ATOM     24  C   UNL A   1      32.548  30.182  27.033  1.00  0.00     0.275 C 
BRANCH  24  25
ATOM     25  O   UNL A   1      33.950  30.275  26.796  1.00  0.00    -0.458 OA
BRANCH  25  26
ATOM     26  C   UNL A   1      34.575  31.047  27.716  1.00  0.00     0.338 C 
ATOM     27  O   UNL A   1      34.107  31.998  28.310  1.00  0.00    -0.246 OA
BRANCH  26  28
ATOM     28  C   UNL A   1      35.814  30.352  28.110  1.00  0.00     0.060 A 
ATOM     29  C   UNL A   1      35.777  29.651  29.320  1.00  0.00     0.016 A 
ATOM     30  C   UNL A   1      36.969  30.372  27.319  1.00  0.00     0.016 A 
ATOM     31  C   UNL A   1      36.931  29.068  29.806  1.00  0.00     0.010 A 
ATOM     32  C   UNL A   1      38.132  29.793  27.809  1.00  0.00     0.010 A 
ATOM     33  C   UNL A   1      38.119  29.217  29.087  1.00  0.00    -0.014 A 
BRANCH  33  34
ATOM     34  C   UNL A   1      39.382  29.066  29.825  1.00  0.00     0.031 A 
ATOM     35  C   UNL A   1      40.343  28.026  29.321  1.00  0.00     0.074 A 
ATOM     36  C   UNL A   1      39.669  29.892  30.841  1.00  0.00     0.049 A 
ATOM     37  N   UNL A   1      41.496  27.660  29.808  1.00  0.00    -0.248 NA
ATOM     38  C   UNL A   1      39.955  27.300  28.095  1.00  0.00     0.031 C 
ATOM     39  C   UNL A   1      38.806  30.972  31.321  1.00  0.00     0.029 A 
ATOM     40  N   UNL A   1      40.769  29.949  31.647  1.00  0.00    -0.354 N 
ATOM     41  C   UNL A   1      41.956  26.656  28.965  1.00  0.00     0.074 A 
ATOM     42  C   UNL A   1      40.960  26.452  27.942  1.00  0.00     0.031 C 
ATOM     43  C   UNL A   1      39.408  31.577  32.359  1.00  0.00     0.029 A 
ATOM     44  C   UNL A   1      40.669  30.896  32.636  1.00  0.00     0.049 A 
ATOM     45  H   UNL A   1      41.556  29.368  31.533  1.00  0.00     0.167 HD
ATOM     46  C   UNL A   1      43.117  25.969  29.046  1.00  0.00     0.037 A 
ATOM     47  C   UNL A   1      41.498  31.143  33.666  1.00  0.00     0.037 A 
ATOM     48  C   UNL A   1      44.089  26.209  30.078  1.00  0.00     0.049 A 
ATOM     49  C   UNL A   1      42.754  30.317  33.774  1.00  0.00     0.074 A 
ATOM     50  C   UNL A   1      45.303  25.584  30.281  1.00  0.00     0.029 A 
ATOM     51  N   UNL A   1      43.947  27.159  31.081  1.00  0.00    -0.354 N 
ATOM     52  N   UNL A   1      43.181  29.359  32.981  1.00  0.00    -0.248 NA
ATOM     53  C   UNL A   1      43.640  30.601  34.907  1.00  0.00     0.031 C 
ATOM     54  C   UNL A   1      45.872  26.120  31.441  1.00  0.00     0.029 A 
ATOM     55  C   UNL A   1      45.040  27.122  31.924  1.00  0.00     0.049 A 
ATOM     56  H   UNL A   1      43.179  27.768  31.179  1.00  0.00     0.167 HD
ATOM     57  C   UNL A   1      44.398  28.944  33.505  1.00  0.00     0.074 A 
ATOM     58  C   UNL A   1      44.644  29.767  34.673  1.00  0.00     0.031 C 
ATOM     59  C   UNL A   1      45.242  27.974  33.069  1.00  0.00     0.037 A 
BRANCH  46  60
ATOM     60  C   UNL A   1      43.373  24.884  28.039  1.00  0.00     0.058 A 
ATOM     61  C   UNL A   1      44.049  25.127  26.833  1.00  0.00     0.135 A 
ATOM     62  C   UNL A   1      42.966  23.566  28.305  1.00  0.00     0.135 A 
ATOM     63  F   UNL A   1      44.430  26.373  26.511  1.00  0.00    -0.206 F 
ATOM     64  C   UNL A   1      44.312  24.103  25.927  1.00  0.00     0.059 A 
ATOM     65  C   UNL A   1      43.240  22.522  27.426  1.00  0.00     0.059 A 
ATOM     66  F   UNL A   1      42.297  23.281  29.434  1.00  0.00    -0.206 F 
ATOM     67  C   UNL A   1      43.911  22.801  26.237  1.00  0.00     0.060 A 
BRANCH  67  68
ATOM     68  S   UNL A   1      44.301  21.477  25.074  1.00  0.00     0.124 S 
ATOM     69  O   UNL A   1      45.644  21.096  25.503  1.00  0.00    -0.237 OA
ATOM     70  O   UNL A   1      43.249  20.504  25.348  1.00  0.00    -0.237 OA
ATOM     71  O   UNL A   1      44.223  22.132  23.772  1.00  0.00    -0.744 OA
ENDBRANCH  67  68
ENDBRANCH  46  60
BRANCH  47  72
ATOM     72  C   UNL A   1      41.146  32.170  34.681  1.00  0.00     0.058 A 
ATOM     73  C   UNL A   1      40.442  31.837  35.847  1.00  0.00     0.135 A 
ATOM     74  C   UNL A   1      41.510  33.514  34.502  1.00  0.00     0.135 A 
ATOM     75  F   UNL A   1      40.071  30.566  36.066  1.00  0.00    -0.206 F 
ATOM     76  C   UNL A   1      40.088  32.801  36.785  1.00  0.00     0.059 A 
ATOM     77  C   UNL A   1      41.195  34.492  35.439  1.00  0.00     0.059 A 
ATOM     78  F   UNL A   1      42.201  33.887  33.412  1.00  0.00    -0.206 F 
ATOM     79  C   UNL A   1      40.468  34.128  36.570  1.00  0.00     0.060 A 
BRANCH  79  80
ATOM     80  S   UNL A   1      40.019  35.370  37.801  1.00  0.00     0.124 S 
ATOM     81  O   UNL A   1      38.760  34.837  38.308  1.00  0.00    -0.237 OA
ATOM     82  O   UNL A   1      41.152  35.316  38.719  1.00  0.00    -0.237 OA
ATOM     83  O   UNL A   1      39.916  36.597  37.017  1.00  0.00    -0.744 OA
ENDBRANCH  79  80
ENDBRANCH  47  72
BRANCH  59  84
ATOM     84  C   UNL A   1      46.517  27.788  33.837  1.00  0.00     0.058 A 
ATOM     85  C   UNL A   1      46.606  26.891  34.913  1.00  0.00     0.135 A 
ATOM     86  C   UNL A   1      47.679  28.474  33.449  1.00  0.00     0.135 A 
ATOM     87  F   UNL A   1      45.519  26.217  35.322  1.00  0.00    -0.206 F 
ATOM     88  C   UNL A   1      47.799  26.703  35.597  1.00  0.00     0.059 A 
ATOM     89  C   UNL A   1      48.891  28.275  34.099  1.00  0.00     0.059 A 
ATOM     90  F   UNL A   1      47.646  29.329  32.415  1.00  0.00    -0.206 F 
ATOM     91  C   UNL A   1      48.936  27.398  35.180  1.00  0.00     0.060 A 
BRANCH  91  92
ATOM     92  S   UNL A   1      50.487  27.119  36.059  1.00  0.00     0.124 S 
ATOM     93  O   UNL A   1      50.373  28.069  37.161  1.00  0.00    -0.237 OA
ATOM     94  O   UNL A   1      50.389  25.709  36.424  1.00  0.00    -0.237 OA
ATOM     95  O   UNL A   1      51.504  27.433  35.060  1.00  0.00    -0.744 OA
ENDBRANCH  91  92
ENDBRANCH  59  84
ENDBRANCH  33  34
ENDBRANCH  26  28
ENDBRANCH  25  26
ENDBRANCH  24  25
ENDBRANCH   1  24
TORSDOF 20
ENDMDL
