MODEL 1
REMARK VINA RESULT:     -12.1      0.000      0.000
REMARK SMILES O=C(OCCOC(=O)c1ccc(-c2c3nc(c(-c4c(F)cc(S(=O)(=O)[O-])cc4F)c4ccc([nH]4)c(-c4c(F)cc(S(=O)(=O)[O-])cc4F)c4nc(c(-c5c(F)cc(S(=O)(=O)[O-])cc5F)c5ccc2[nH]5)C=C4)C=C3)cc1)C1=Cc2c(Cl)cc(Cl)cc2O[C@@H]1C(F)(F)F
REMARK SMILES IDX 5 1 4 2 3 3 2 4 1 5 75 6 76 7 86 8 77 9 85 10 78 11 84 12
REMARK SMILES IDX 79 13 80 14 83 15 81 16 82 17 87 18 88 19 89 20 90 21 6 22
REMARK SMILES IDX 7 23 8 24 9 25 10 26 74 27 11 28 73 29 12 30 13 31 14 32
REMARK SMILES IDX 67 33 15 34 72 35 66 36 68 37 16 38 71 39 65 40 64 41 17 43
REMARK SMILES IDX 51 44 30 45 50 46 31 47 34 48 49 49 69 50 32 51 33 52 48 54
REMARK SMILES IDX 70 55 35 56 18 57 19 58 28 59 20 60 21 61 27 62 29 63 22 64
REMARK SMILES IDX 23 65 24 66 25 67 26 68 52 69 53 70 62 71 54 72 55 73 61 74
REMARK SMILES IDX 63 75 56 76 57 77 58 78 59 79 60 80 36 81 37 82 46 83 38 84
REMARK SMILES IDX 39 85 45 86 47 87 40 88 41 89 42 90 43 91 44 92
REMARK H PARENT 68 42 34 53
REMARK Flexibility Score: inf
ROOT
ATOM      1  C   UNL A   1      32.837  30.469  26.083  1.00  0.00     0.275 C 
ENDROOT
BRANCH   1   2
ATOM      2  C   UNL A   1      31.641  29.504  25.940  1.00  0.00     0.275 C 
BRANCH   2   3
ATOM      3  O   UNL A   1      32.065  28.259  25.362  1.00  0.00    -0.459 OA
BRANCH   3   4
ATOM      4  C   UNL A   1      31.195  27.240  25.536  1.00  0.00     0.338 C 
ATOM      5  O   UNL A   1      30.666  26.967  26.602  1.00  0.00    -0.246 OA
BRANCH   4   6
ATOM      6  C   UNL A   1      30.868  26.585  24.225  1.00  0.00     0.087 C 
ATOM      7  C   UNL A   1      29.549  26.669  23.952  1.00  0.00     0.029 C 
ATOM      8  C   UNL A   1      31.807  26.933  23.083  1.00  0.00     0.316 C 
ATOM      9  C   UNL A   1      29.191  27.932  23.248  1.00  0.00     0.036 A 
ATOM     10  O   UNL A   1      31.509  28.246  22.529  1.00  0.00    -0.475 OA
ATOM     11  C   UNL A   1      27.886  28.446  23.246  1.00  0.00     0.053 A 
ATOM     12  C   UNL A   1      30.213  28.684  22.641  1.00  0.00     0.130 A 
ATOM     13  Cl  UNL A   1      26.551  27.546  23.872  1.00  0.00    -0.083 Cl
ATOM     14  C   UNL A   1      27.632  29.728  22.749  1.00  0.00     0.042 A 
ATOM     15  C   UNL A   1      29.965  29.970  22.163  1.00  0.00     0.067 A 
ATOM     16  C   UNL A   1      28.679  30.495  22.244  1.00  0.00     0.046 A 
ATOM     17  Cl  UNL A   1      28.385  32.115  21.742  1.00  0.00    -0.084 Cl
BRANCH   8  18
ATOM     18  C   UNL A   1      31.917  25.864  21.993  1.00  0.00     0.430 C 
ATOM     19  F   UNL A   1      31.380  24.696  22.417  1.00  0.00    -0.167 F 
ATOM     20  F   UNL A   1      31.287  26.218  20.852  1.00  0.00    -0.167 F 
ATOM     21  F   UNL A   1      33.212  25.619  21.682  1.00  0.00    -0.167 F 
ENDBRANCH   8  18
ENDBRANCH   4   6
ENDBRANCH   3   4
ENDBRANCH   2   3
ENDBRANCH   1   2
BRANCH   1  22
ATOM     22  O   UNL A   1      33.484  30.356  27.363  1.00  0.00    -0.458 OA
BRANCH  22  23
ATOM     23  C   UNL A   1      34.158  31.474  27.737  1.00  0.00     0.338 C 
ATOM     24  O   UNL A   1      33.679  32.591  27.846  1.00  0.00    -0.246 OA
BRANCH  23  25
ATOM     25  C   UNL A   1      35.510  31.103  28.228  1.00  0.00     0.060 A 
ATOM     26  C   UNL A   1      35.722  29.759  28.552  1.00  0.00     0.016 A 
ATOM     27  C   UNL A   1      36.572  32.014  28.316  1.00  0.00     0.016 A 
ATOM     28  C   UNL A   1      36.971  29.333  29.004  1.00  0.00     0.010 A 
ATOM     29  C   UNL A   1      37.836  31.576  28.746  1.00  0.00     0.010 A 
ATOM     30  C   UNL A   1      38.033  30.240  29.132  1.00  0.00    -0.014 A 
BRANCH  30  31
ATOM     31  C   UNL A   1      39.274  29.782  29.816  1.00  0.00     0.031 A 
ATOM     32  C   UNL A   1      39.551  30.257  31.220  1.00  0.00     0.074 A 
ATOM     33  C   UNL A   1      40.087  28.866  29.254  1.00  0.00     0.049 A 
ATOM     34  N   UNL A   1      40.420  29.808  32.088  1.00  0.00    -0.248 NA
ATOM     35  C   UNL A   1      38.739  31.382  31.710  1.00  0.00     0.031 C 
ATOM     36  C   UNL A   1      39.963  28.340  27.896  1.00  0.00     0.029 A 
ATOM     37  N   UNL A   1      41.172  28.200  29.772  1.00  0.00    -0.354 N 
ATOM     38  C   UNL A   1      40.222  30.556  33.241  1.00  0.00     0.074 A 
ATOM     39  C   UNL A   1      39.215  31.548  32.933  1.00  0.00     0.031 C 
ATOM     40  C   UNL A   1      40.929  27.428  27.688  1.00  0.00     0.029 A 
ATOM     41  C   UNL A   1      41.730  27.290  28.904  1.00  0.00     0.049 A 
ATOM     42  H   UNL A   1      41.518  28.358  30.679  1.00  0.00     0.167 HD
ATOM     43  C   UNL A   1      40.790  30.408  34.461  1.00  0.00     0.037 A 
ATOM     44  C   UNL A   1      42.752  26.427  29.077  1.00  0.00     0.037 A 
ATOM     45  C   UNL A   1      41.816  29.450  34.771  1.00  0.00     0.049 A 
ATOM     46  C   UNL A   1      43.407  26.310  30.433  1.00  0.00     0.074 A 
ATOM     47  C   UNL A   1      42.454  29.227  35.978  1.00  0.00     0.029 A 
ATOM     48  N   UNL A   1      42.363  28.560  33.859  1.00  0.00    -0.354 N 
ATOM     49  N   UNL A   1      43.136  26.958  31.541  1.00  0.00    -0.248 NA
ATOM     50  C   UNL A   1      44.485  25.319  30.568  1.00  0.00     0.031 C 
ATOM     51  C   UNL A   1      43.414  28.226  35.787  1.00  0.00     0.029 A 
ATOM     52  C   UNL A   1      43.343  27.797  34.472  1.00  0.00     0.049 A 
ATOM     53  H   UNL A   1      42.095  28.482  32.915  1.00  0.00     0.167 HD
ATOM     54  C   UNL A   1      43.988  26.430  32.509  1.00  0.00     0.074 A 
ATOM     55  C   UNL A   1      44.770  25.400  31.860  1.00  0.00     0.031 C 
ATOM     56  C   UNL A   1      44.110  26.767  33.817  1.00  0.00     0.037 A 
BRANCH  43  57
ATOM     57  C   UNL A   1      40.284  31.303  35.558  1.00  0.00     0.058 A 
ATOM     58  C   UNL A   1      41.066  32.367  36.040  1.00  0.00     0.135 A 
ATOM     59  C   UNL A   1      39.022  31.102  36.135  1.00  0.00     0.135 A 
ATOM     60  F   UNL A   1      42.290  32.590  35.534  1.00  0.00    -0.206 F 
ATOM     61  C   UNL A   1      40.628  33.178  37.080  1.00  0.00     0.059 A 
ATOM     62  C   UNL A   1      38.553  31.916  37.161  1.00  0.00     0.059 A 
ATOM     63  F   UNL A   1      38.238  30.098  35.712  1.00  0.00    -0.206 F 
ATOM     64  C   UNL A   1      39.371  32.940  37.639  1.00  0.00     0.060 A 
BRANCH  64  65
ATOM     65  S   UNL A   1      38.827  33.987  39.005  1.00  0.00     0.124 S 
ATOM     66  O   UNL A   1      38.901  35.314  38.401  1.00  0.00    -0.237 OA
ATOM     67  O   UNL A   1      37.481  33.485  39.268  1.00  0.00    -0.237 OA
ATOM     68  O   UNL A   1      39.809  33.718  40.051  1.00  0.00    -0.744 OA
ENDBRANCH  64  65
ENDBRANCH  43  57
BRANCH  44  69
ATOM     69  C   UNL A   1      43.215  25.572  27.950  1.00  0.00     0.058 A 
ATOM     70  C   UNL A   1      42.816  24.232  27.835  1.00  0.00     0.135 A 
ATOM     71  C   UNL A   1      44.111  26.071  26.992  1.00  0.00     0.135 A 
ATOM     72  F   UNL A   1      41.968  23.706  28.731  1.00  0.00    -0.206 F 
ATOM     73  C   UNL A   1      43.315  23.406  26.832  1.00  0.00     0.059 A 
ATOM     74  C   UNL A   1      44.605  25.272  25.966  1.00  0.00     0.059 A 
ATOM     75  F   UNL A   1      44.514  27.350  27.050  1.00  0.00    -0.206 F 
ATOM     76  C   UNL A   1      44.216  23.934  25.906  1.00  0.00     0.060 A 
BRANCH  76  77
ATOM     77  S   UNL A   1      44.857  22.857  24.604  1.00  0.00     0.124 S 
ATOM     78  O   UNL A   1      43.650  22.574  23.836  1.00  0.00    -0.237 OA
ATOM     79  O   UNL A   1      45.843  23.713  23.953  1.00  0.00    -0.237 OA
ATOM     80  O   UNL A   1      45.411  21.729  25.348  1.00  0.00    -0.744 OA
ENDBRANCH  76  77
ENDBRANCH  44  69
BRANCH  56  81
ATOM     81  C   UNL A   1      45.104  25.996  34.645  1.00  0.00     0.058 A 
ATOM     82  C   UNL A   1      46.429  26.432  34.802  1.00  0.00     0.135 A 
ATOM     83  C   UNL A   1      44.715  24.826  35.318  1.00  0.00     0.135 A 
ATOM     84  F   UNL A   1      46.854  27.543  34.180  1.00  0.00    -0.206 F 
ATOM     85  C   UNL A   1      47.344  25.716  35.570  1.00  0.00     0.059 A 
ATOM     86  C   UNL A   1      45.605  24.110  36.114  1.00  0.00     0.059 A 
ATOM     87  F   UNL A   1      43.457  24.372  35.214  1.00  0.00    -0.206 F 
ATOM     88  C   UNL A   1      46.922  24.554  36.220  1.00  0.00     0.060 A 
BRANCH  88  89
ATOM     89  S   UNL A   1      48.112  23.644  37.228  1.00  0.00     0.124 S 
ATOM     90  O   UNL A   1      49.370  24.263  36.829  1.00  0.00    -0.237 OA
ATOM     91  O   UNL A   1      47.664  23.937  38.586  1.00  0.00    -0.237 OA
ATOM     92  O   UNL A   1      47.928  22.260  36.801  1.00  0.00    -0.744 OA
ENDBRANCH  88  89
ENDBRANCH  56  81
ENDBRANCH  30  31
ENDBRANCH  23  25
ENDBRANCH  22  23
ENDBRANCH   1  22
TORSDOF 15
ENDMDL
MODEL 2
REMARK VINA RESULT:     -12.0      5.701     11.731
REMARK SMILES O=C(OCCOC(=O)c1ccc(-c2c3nc(c(-c4c(F)cc(S(=O)(=O)[O-])cc4F)c4ccc([nH]4)c(-c4c(F)cc(S(=O)(=O)[O-])cc4F)c4nc(c(-c5c(F)cc(S(=O)(=O)[O-])cc5F)c5ccc2[nH]5)C=C4)C=C3)cc1)C1=Cc2c(Cl)cc(Cl)cc2O[C@@H]1C(F)(F)F
REMARK SMILES IDX 5 1 4 2 3 3 2 4 1 5 75 6 76 7 86 8 77 9 85 10 78 11 84 12
REMARK SMILES IDX 79 13 80 14 83 15 81 16 82 17 87 18 88 19 89 20 90 21 6 22
REMARK SMILES IDX 7 23 8 24 9 25 10 26 74 27 11 28 73 29 12 30 13 31 14 32
REMARK SMILES IDX 67 33 15 34 72 35 66 36 68 37 16 38 71 39 65 40 64 41 17 43
REMARK SMILES IDX 51 44 30 45 50 46 31 47 34 48 49 49 69 50 32 51 33 52 48 54
REMARK SMILES IDX 70 55 35 56 18 57 19 58 28 59 20 60 21 61 27 62 29 63 22 64
REMARK SMILES IDX 23 65 24 66 25 67 26 68 52 69 53 70 62 71 54 72 55 73 61 74
REMARK SMILES IDX 63 75 56 76 57 77 58 78 59 79 60 80 36 81 37 82 46 83 38 84
REMARK SMILES IDX 39 85 45 86 47 87 40 88 41 89 42 90 43 91 44 92
REMARK H PARENT 68 42 34 53
REMARK Flexibility Score: inf
ROOT
ATOM      1  C   UNL A   1      45.738  26.293  25.367  1.00  0.00     0.275 C 
ENDROOT
BRANCH   1   2
ATOM      2  C   UNL A   1      46.734  25.242  24.830  1.00  0.00     0.275 C 
BRANCH   2   3
ATOM      3  O   UNL A   1      46.516  23.972  25.464  1.00  0.00    -0.459 OA
BRANCH   3   4
ATOM      4  C   UNL A   1      45.827  23.085  24.712  1.00  0.00     0.338 C 
ATOM      5  O   UNL A   1      45.462  23.298  23.566  1.00  0.00    -0.246 OA
BRANCH   4   6
ATOM      6  C   UNL A   1      45.696  21.768  25.422  1.00  0.00     0.087 C 
ATOM      7  C   UNL A   1      45.342  21.942  26.713  1.00  0.00     0.029 C 
ATOM      8  C   UNL A   1      44.930  20.702  24.660  1.00  0.00     0.316 C 
ATOM      9  C   UNL A   1      43.866  22.024  26.893  1.00  0.00     0.036 A 
ATOM     10  O   UNL A   1      43.493  20.917  24.743  1.00  0.00    -0.475 OA
ATOM     11  C   UNL A   1      43.279  22.619  28.020  1.00  0.00     0.053 A 
ATOM     12  C   UNL A   1      43.029  21.571  25.857  1.00  0.00     0.130 A 
ATOM     13  Cl  UNL A   1      44.218  23.106  29.386  1.00  0.00    -0.083 Cl
ATOM     14  C   UNL A   1      41.902  22.855  28.058  1.00  0.00     0.042 A 
ATOM     15  C   UNL A   1      41.658  21.824  25.885  1.00  0.00     0.067 A 
ATOM     16  C   UNL A   1      41.106  22.489  26.975  1.00  0.00     0.046 A 
ATOM     17  Cl  UNL A   1      39.432  22.886  26.974  1.00  0.00    -0.084 Cl
BRANCH   8  18
ATOM     18  C   UNL A   1      45.314  19.262  25.007  1.00  0.00     0.430 C 
ATOM     19  F   UNL A   1      46.557  19.217  25.541  1.00  0.00    -0.167 F 
ATOM     20  F   UNL A   1      44.465  18.696  25.892  1.00  0.00    -0.167 F 
ATOM     21  F   UNL A   1      45.326  18.482  23.900  1.00  0.00    -0.167 F 
ENDBRANCH   8  18
ENDBRANCH   4   6
ENDBRANCH   3   4
ENDBRANCH   2   3
ENDBRANCH   1   2
BRANCH   1  22
ATOM     22  O   UNL A   1      44.958  25.796  26.469  1.00  0.00    -0.458 OA
BRANCH  22  23
ATOM     23  C   UNL A   1      43.619  25.800  26.238  1.00  0.00     0.338 C 
ATOM     24  O   UNL A   1      43.043  25.156  25.377  1.00  0.00    -0.246 OA
BRANCH  23  25
ATOM     25  C   UNL A   1      42.923  26.517  27.338  1.00  0.00     0.060 A 
ATOM     26  C   UNL A   1      43.403  27.788  27.671  1.00  0.00     0.016 A 
ATOM     27  C   UNL A   1      41.795  26.007  27.993  1.00  0.00     0.016 A 
ATOM     28  C   UNL A   1      42.790  28.528  28.682  1.00  0.00     0.010 A 
ATOM     29  C   UNL A   1      41.163  26.766  28.993  1.00  0.00     0.010 A 
ATOM     30  C   UNL A   1      41.682  28.016  29.372  1.00  0.00    -0.014 A 
BRANCH  30  31
ATOM     31  C   UNL A   1      41.201  28.747  30.577  1.00  0.00     0.031 A 
ATOM     32  C   UNL A   1      41.969  28.614  31.867  1.00  0.00     0.074 A 
ATOM     33  C   UNL A   1      40.169  29.610  30.507  1.00  0.00     0.049 A 
ATOM     34  N   UNL A   1      41.887  29.332  32.957  1.00  0.00    -0.248 NA
ATOM     35  C   UNL A   1      42.965  27.532  31.935  1.00  0.00     0.031 C 
ATOM     36  C   UNL A   1      39.314  29.820  29.340  1.00  0.00     0.029 A 
ATOM     37  N   UNL A   1      39.678  30.491  31.442  1.00  0.00    -0.354 N 
ATOM     38  C   UNL A   1      42.854  28.826  33.816  1.00  0.00     0.074 A 
ATOM     39  C   UNL A   1      43.448  27.684  33.158  1.00  0.00     0.031 C 
ATOM     40  C   UNL A   1      38.408  30.772  29.624  1.00  0.00     0.029 A 
ATOM     41  C   UNL A   1      38.628  31.254  30.987  1.00  0.00     0.049 A 
ATOM     42  H   UNL A   1      40.043  30.568  32.352  1.00  0.00     0.167 HD
ATOM     43  C   UNL A   1      43.248  29.292  35.025  1.00  0.00     0.037 A 
ATOM     44  C   UNL A   1      37.940  32.246  31.590  1.00  0.00     0.037 A 
ATOM     45  C   UNL A   1      42.643  30.405  35.704  1.00  0.00     0.049 A 
ATOM     46  C   UNL A   1      38.364  32.720  32.960  1.00  0.00     0.074 A 
ATOM     47  C   UNL A   1      42.972  30.949  36.933  1.00  0.00     0.029 A 
ATOM     48  N   UNL A   1      41.574  31.139  35.216  1.00  0.00    -0.354 N 
ATOM     49  N   UNL A   1      39.348  32.294  33.715  1.00  0.00    -0.248 NA
ATOM     50  C   UNL A   1      37.601  33.834  33.544  1.00  0.00     0.031 C 
ATOM     51  C   UNL A   1      42.077  31.991  37.204  1.00  0.00     0.029 A 
ATOM     52  C   UNL A   1      41.218  32.122  36.125  1.00  0.00     0.049 A 
ATOM     53  H   UNL A   1      41.131  30.986  34.349  1.00  0.00     0.167 HD
ATOM     54  C   UNL A   1      39.341  33.109  34.846  1.00  0.00     0.074 A 
ATOM     55  C   UNL A   1      38.266  34.061  34.667  1.00  0.00     0.031 C 
ATOM     56  C   UNL A   1      40.151  33.071  35.933  1.00  0.00     0.037 A 
BRANCH  43  57
ATOM     57  C   UNL A   1      44.413  28.597  35.672  1.00  0.00     0.058 A 
ATOM     58  C   UNL A   1      45.733  28.985  35.389  1.00  0.00     0.135 A 
ATOM     59  C   UNL A   1      44.217  27.540  36.572  1.00  0.00     0.135 A 
ATOM     60  F   UNL A   1      45.975  29.978  34.519  1.00  0.00    -0.206 F 
ATOM     61  C   UNL A   1      46.820  28.325  35.949  1.00  0.00     0.059 A 
ATOM     62  C   UNL A   1      45.291  26.880  37.164  1.00  0.00     0.059 A 
ATOM     63  F   UNL A   1      42.976  27.129  36.874  1.00  0.00    -0.206 F 
ATOM     64  C   UNL A   1      46.589  27.268  36.831  1.00  0.00     0.060 A 
BRANCH  64  65
ATOM     65  S   UNL A   1      48.011  26.407  37.532  1.00  0.00     0.124 S 
ATOM     66  O   UNL A   1      47.721  25.024  37.167  1.00  0.00    -0.237 OA
ATOM     67  O   UNL A   1      49.131  27.025  36.828  1.00  0.00    -0.237 OA
ATOM     68  O   UNL A   1      47.926  26.712  38.957  1.00  0.00    -0.744 OA
ENDBRANCH  64  65
ENDBRANCH  43  57
BRANCH  44  69
ATOM     69  C   UNL A   1      36.790  32.890  30.901  1.00  0.00     0.058 A 
ATOM     70  C   UNL A   1      36.981  33.882  29.927  1.00  0.00     0.135 A 
ATOM     71  C   UNL A   1      35.470  32.559  31.244  1.00  0.00     0.135 A 
ATOM     72  F   UNL A   1      38.224  34.241  29.572  1.00  0.00    -0.206 F 
ATOM     73  C   UNL A   1      35.907  34.549  29.344  1.00  0.00     0.059 A 
ATOM     74  C   UNL A   1      34.380  33.193  30.657  1.00  0.00     0.059 A 
ATOM     75  F   UNL A   1      35.232  31.607  32.160  1.00  0.00    -0.206 F 
ATOM     76  C   UNL A   1      34.609  34.201  29.721  1.00  0.00     0.060 A 
BRANCH  76  77
ATOM     77  S   UNL A   1      33.219  35.068  28.957  1.00  0.00     0.124 S 
ATOM     78  O   UNL A   1      32.416  35.419  30.123  1.00  0.00    -0.237 OA
ATOM     79  O   UNL A   1      33.883  36.178  28.281  1.00  0.00    -0.237 OA
ATOM     80  O   UNL A   1      32.642  34.060  28.073  1.00  0.00    -0.744 OA
ENDBRANCH  76  77
ENDBRANCH  44  69
BRANCH  56  81
ATOM     81  C   UNL A   1      39.930  34.108  37.002  1.00  0.00     0.058 A 
ATOM     82  C   UNL A   1      40.469  35.399  36.903  1.00  0.00     0.135 A 
ATOM     83  C   UNL A   1      39.135  33.815  38.124  1.00  0.00     0.135 A 
ATOM     84  F   UNL A   1      41.236  35.732  35.852  1.00  0.00    -0.206 F 
ATOM     85  C   UNL A   1      40.260  36.354  37.893  1.00  0.00     0.059 A 
ATOM     86  C   UNL A   1      38.889  34.763  39.113  1.00  0.00     0.059 A 
ATOM     87  F   UNL A   1      38.583  32.600  38.263  1.00  0.00    -0.206 F 
ATOM     88  C   UNL A   1      39.469  36.025  38.997  1.00  0.00     0.060 A 
BRANCH  88  89
ATOM     89  S   UNL A   1      39.188  37.277  40.268  1.00  0.00     0.124 S 
ATOM     90  O   UNL A   1      38.361  36.545  41.222  1.00  0.00    -0.237 OA
ATOM     91  O   UNL A   1      40.543  37.587  40.710  1.00  0.00    -0.237 OA
ATOM     92  O   UNL A   1      38.512  38.348  39.543  1.00  0.00    -0.744 OA
ENDBRANCH  88  89
ENDBRANCH  56  81
ENDBRANCH  30  31
ENDBRANCH  23  25
ENDBRANCH  22  23
ENDBRANCH   1  22
TORSDOF 15
ENDMDL
MODEL 3
REMARK VINA RESULT:     -11.9      5.600     10.929
REMARK SMILES O=C(OCCOC(=O)c1ccc(-c2c3nc(c(-c4c(F)cc(S(=O)(=O)[O-])cc4F)c4ccc([nH]4)c(-c4c(F)cc(S(=O)(=O)[O-])cc4F)c4nc(c(-c5c(F)cc(S(=O)(=O)[O-])cc5F)c5ccc2[nH]5)C=C4)C=C3)cc1)C1=Cc2c(Cl)cc(Cl)cc2O[C@@H]1C(F)(F)F
REMARK SMILES IDX 5 1 4 2 3 3 2 4 1 5 75 6 76 7 86 8 77 9 85 10 78 11 84 12
REMARK SMILES IDX 79 13 80 14 83 15 81 16 82 17 87 18 88 19 89 20 90 21 6 22
REMARK SMILES IDX 7 23 8 24 9 25 10 26 74 27 11 28 73 29 12 30 13 31 14 32
REMARK SMILES IDX 67 33 15 34 72 35 66 36 68 37 16 38 71 39 65 40 64 41 17 43
REMARK SMILES IDX 51 44 30 45 50 46 31 47 34 48 49 49 69 50 32 51 33 52 48 54
REMARK SMILES IDX 70 55 35 56 18 57 19 58 28 59 20 60 21 61 27 62 29 63 22 64
REMARK SMILES IDX 23 65 24 66 25 67 26 68 52 69 53 70 62 71 54 72 55 73 61 74
REMARK SMILES IDX 63 75 56 76 57 77 58 78 59 79 60 80 36 81 37 82 46 83 38 84
REMARK SMILES IDX 39 85 45 86 47 87 40 88 41 89 42 90 43 91 44 92
REMARK H PARENT 68 42 34 53
REMARK Flexibility Score: inf
ROOT
ATOM      1  C   UNL A   1      34.428  32.833  28.047  1.00  0.00     0.275 C 
ENDROOT
BRANCH   1   2
ATOM      2  C   UNL A   1      35.348  33.823  28.794  1.00  0.00     0.275 C 
BRANCH   2   3
ATOM      3  O   UNL A   1      36.539  33.158  29.248  1.00  0.00    -0.459 OA
BRANCH   3   4
ATOM      4  C   UNL A   1      37.096  33.705  30.350  1.00  0.00     0.338 C 
ATOM      5  O   UNL A   1      38.010  34.515  30.324  1.00  0.00    -0.246 OA
BRANCH   4   6
ATOM      6  C   UNL A   1      36.355  33.290  31.588  1.00  0.00     0.087 C 
ATOM      7  C   UNL A   1      36.952  32.237  32.185  1.00  0.00     0.029 C 
ATOM      8  C   UNL A   1      35.946  34.430  32.504  1.00  0.00     0.316 C 
ATOM      9  C   UNL A   1      38.021  32.651  33.137  1.00  0.00     0.036 A 
ATOM     10  O   UNL A   1      37.068  34.898  33.304  1.00  0.00    -0.475 OA
ATOM     11  C   UNL A   1      39.048  31.783  33.536  1.00  0.00     0.053 A 
ATOM     12  C   UNL A   1      38.055  33.985  33.581  1.00  0.00     0.130 A 
ATOM     13  Cl  UNL A   1      39.032  30.104  33.128  1.00  0.00    -0.083 Cl
ATOM     14  C   UNL A   1      40.137  32.266  34.267  1.00  0.00     0.042 A 
ATOM     15  C   UNL A   1      39.150  34.473  34.293  1.00  0.00     0.067 A 
ATOM     16  C   UNL A   1      40.199  33.615  34.608  1.00  0.00     0.046 A 
ATOM     17  Cl  UNL A   1      41.594  34.231  35.405  1.00  0.00    -0.084 Cl
BRANCH   8  18
ATOM     18  C   UNL A   1      34.708  34.154  33.360  1.00  0.00     0.430 C 
ATOM     19  F   UNL A   1      34.192  32.936  33.072  1.00  0.00    -0.167 F 
ATOM     20  F   UNL A   1      34.973  34.187  34.684  1.00  0.00    -0.167 F 
ATOM     21  F   UNL A   1      33.737  35.067  33.117  1.00  0.00    -0.167 F 
ENDBRANCH   8  18
ENDBRANCH   4   6
ENDBRANCH   3   4
ENDBRANCH   2   3
ENDBRANCH   1   2
BRANCH   1  22
ATOM     22  O   UNL A   1      34.203  31.624  28.792  1.00  0.00    -0.458 OA
BRANCH  22  23
ATOM     23  C   UNL A   1      34.463  30.491  28.090  1.00  0.00     0.338 C 
ATOM     24  O   UNL A   1      33.723  29.977  27.267  1.00  0.00    -0.246 OA
BRANCH  23  25
ATOM     25  C   UNL A   1      35.880  30.093  28.289  1.00  0.00     0.060 A 
ATOM     26  C   UNL A   1      36.248  29.671  29.570  1.00  0.00     0.016 A 
ATOM     27  C   UNL A   1      36.823  30.064  27.252  1.00  0.00     0.016 A 
ATOM     28  C   UNL A   1      37.558  29.267  29.830  1.00  0.00     0.010 A 
ATOM     29  C   UNL A   1      38.134  29.631  27.509  1.00  0.00     0.010 A 
ATOM     30  C   UNL A   1      38.521  29.267  28.810  1.00  0.00    -0.014 A 
BRANCH  30  31
ATOM     31  C   UNL A   1      39.944  29.034  29.183  1.00  0.00     0.031 A 
ATOM     32  C   UNL A   1      40.564  27.691  28.892  1.00  0.00     0.074 A 
ATOM     33  C   UNL A   1      40.714  30.029  29.663  1.00  0.00     0.049 A 
ATOM     34  N   UNL A   1      41.825  27.343  28.900  1.00  0.00    -0.248 NA
ATOM     35  C   UNL A   1      39.642  26.599  28.540  1.00  0.00     0.031 C 
ATOM     36  C   UNL A   1      40.248  31.367  30.023  1.00  0.00     0.029 A 
ATOM     37  N   UNL A   1      42.066  30.070  29.913  1.00  0.00    -0.354 N 
ATOM     38  C   UNL A   1      41.851  26.012  28.504  1.00  0.00     0.074 A 
ATOM     39  C   UNL A   1      40.477  25.589  28.351  1.00  0.00     0.031 C 
ATOM     40  C   UNL A   1      41.295  32.100  30.440  1.00  0.00     0.029 A 
ATOM     41  C   UNL A   1      42.511  31.292  30.361  1.00  0.00     0.049 A 
ATOM     42  H   UNL A   1      42.660  29.296  29.782  1.00  0.00     0.167 HD
ATOM     43  C   UNL A   1      42.919  25.221  28.245  1.00  0.00     0.037 A 
ATOM     44  C   UNL A   1      43.758  31.718  30.649  1.00  0.00     0.037 A 
ATOM     45  C   UNL A   1      44.289  25.618  28.426  1.00  0.00     0.049 A 
ATOM     46  C   UNL A   1      44.934  30.804  30.401  1.00  0.00     0.074 A 
ATOM     47  C   UNL A   1      45.438  24.885  28.193  1.00  0.00     0.029 A 
ATOM     48  N   UNL A   1      44.694  26.857  28.897  1.00  0.00    -0.354 N 
ATOM     49  N   UNL A   1      44.945  29.580  29.928  1.00  0.00    -0.248 NA
ATOM     50  C   UNL A   1      46.270  31.344  30.694  1.00  0.00     0.031 C 
ATOM     51  C   UNL A   1      46.540  25.670  28.558  1.00  0.00     0.029 A 
ATOM     52  C   UNL A   1      46.076  26.905  28.977  1.00  0.00     0.049 A 
ATOM     53  H   UNL A   1      44.088  27.596  29.139  1.00  0.00     0.167 HD
ATOM     54  C   UNL A   1      46.288  29.218  29.838  1.00  0.00     0.074 A 
ATOM     55  C   UNL A   1      47.058  30.358  30.290  1.00  0.00     0.031 C 
ATOM     56  C   UNL A   1      46.833  28.049  29.420  1.00  0.00     0.037 A 
BRANCH  43  57
ATOM     57  C   UNL A   1      42.630  23.845  27.714  1.00  0.00     0.058 A 
ATOM     58  C   UNL A   1      42.475  22.753  28.584  1.00  0.00     0.135 A 
ATOM     59  C   UNL A   1      42.513  23.609  26.336  1.00  0.00     0.135 A 
ATOM     60  F   UNL A   1      42.598  22.923  29.911  1.00  0.00    -0.206 F 
ATOM     61  C   UNL A   1      42.248  21.468  28.106  1.00  0.00     0.059 A 
ATOM     62  C   UNL A   1      42.262  22.335  25.836  1.00  0.00     0.059 A 
ATOM     63  F   UNL A   1      42.656  24.617  25.463  1.00  0.00    -0.206 F 
ATOM     64  C   UNL A   1      42.149  21.268  26.728  1.00  0.00     0.060 A 
BRANCH  64  65
ATOM     65  S   UNL A   1      41.877  19.591  26.122  1.00  0.00     0.124 S 
ATOM     66  O   UNL A   1      42.280  18.795  27.278  1.00  0.00    -0.237 OA
ATOM     67  O   UNL A   1      40.448  19.592  25.822  1.00  0.00    -0.237 OA
ATOM     68  O   UNL A   1      42.758  19.502  24.961  1.00  0.00    -0.744 OA
ENDBRANCH  64  65
ENDBRANCH  43  57
BRANCH  44  69
ATOM     69  C   UNL A   1      43.979  33.089  31.182  1.00  0.00     0.058 A 
ATOM     70  C   UNL A   1      43.967  33.351  32.560  1.00  0.00     0.135 A 
ATOM     71  C   UNL A   1      44.156  34.178  30.313  1.00  0.00     0.135 A 
ATOM     72  F   UNL A   1      43.792  32.346  33.431  1.00  0.00    -0.206 F 
ATOM     73  C   UNL A   1      44.087  34.645  33.059  1.00  0.00     0.059 A 
ATOM     74  C   UNL A   1      44.302  35.477  30.788  1.00  0.00     0.059 A 
ATOM     75  F   UNL A   1      44.188  33.980  28.986  1.00  0.00    -0.206 F 
ATOM     76  C   UNL A   1      44.247  35.703  32.163  1.00  0.00     0.060 A 
BRANCH  76  77
ATOM     77  S   UNL A   1      44.405  37.380  32.817  1.00  0.00     0.124 S 
ATOM     78  O   UNL A   1      43.978  38.182  31.676  1.00  0.00    -0.237 OA
ATOM     79  O   UNL A   1      43.493  37.354  33.956  1.00  0.00    -0.237 OA
ATOM     80  O   UNL A   1      45.821  37.473  33.159  1.00  0.00    -0.744 OA
ENDBRANCH  76  77
ENDBRANCH  44  69
BRANCH  56  81
ATOM     81  C   UNL A   1      48.335  27.949  29.399  1.00  0.00     0.058 A 
ATOM     82  C   UNL A   1      49.086  28.333  28.278  1.00  0.00     0.135 A 
ATOM     83  C   UNL A   1      49.034  27.499  30.532  1.00  0.00     0.135 A 
ATOM     84  F   UNL A   1      48.469  28.770  27.168  1.00  0.00    -0.206 F 
ATOM     85  C   UNL A   1      50.475  28.240  28.265  1.00  0.00     0.059 A 
ATOM     86  C   UNL A   1      50.424  27.425  30.552  1.00  0.00     0.059 A 
ATOM     87  F   UNL A   1      48.367  27.132  31.637  1.00  0.00    -0.206 F 
ATOM     88  C   UNL A   1      51.135  27.782  29.408  1.00  0.00     0.060 A 
BRANCH  88  89
ATOM     89  S   UNL A   1      52.938  27.684  29.388  1.00  0.00     0.124 S 
ATOM     90  O   UNL A   1      53.310  29.076  29.620  1.00  0.00    -0.237 OA
ATOM     91  O   UNL A   1      53.216  26.762  30.485  1.00  0.00    -0.237 OA
ATOM     92  O   UNL A   1      53.234  27.168  28.055  1.00  0.00    -0.744 OA
ENDBRANCH  88  89
ENDBRANCH  56  81
ENDBRANCH  30  31
ENDBRANCH  23  25
ENDBRANCH  22  23
ENDBRANCH   1  22
TORSDOF 15
ENDMDL
