MODEL 1
REMARK VINA RESULT:     -11.1      0.000      0.000
REMARK SMILES COc1ccc2c(c1)OC[C@]1(C(=O)OCCOC(=O)c3ccc(-c4c5nc(c(-c6c(F)cc(S(=O)(=O)[O-])cc6F)c6ccc([nH]6)c(-c6c(F)cc(S(=O)(=O)[O-])cc6F)c6nc(c(-c7c(F)cc(S(=O)(=O)[O-])cc7F)c7ccc4[nH]7)C=C6)C=C5)cc3)C[N@@H+](Cc3cc(C(C)(C)C)n[nH]3)C[C@H]21
REMARK SMILES IDX 15 1 14 2 12 3 13 4 11 5 3 6 4 7 8 8 5 9 7 10 6 11 9 12
REMARK SMILES IDX 99 13 10 14 98 15 86 16 87 17 2 19 1 20 88 21 89 22 90 23
REMARK SMILES IDX 97 24 91 25 96 26 92 28 93 29 94 30 95 31 16 32 17 33 18 34
REMARK SMILES IDX 19 35 20 36 21 37 85 38 22 39 84 40 23 41 24 42 25 43 78 44
REMARK SMILES IDX 26 45 83 46 77 47 79 48 27 49 82 50 76 51 75 52 28 54 62 55
REMARK SMILES IDX 41 56 61 57 42 58 45 59 60 60 80 61 43 62 44 63 59 65 81 66
REMARK SMILES IDX 46 67 29 68 30 69 39 70 31 71 32 72 38 73 40 74 33 75 34 76
REMARK SMILES IDX 35 77 36 78 37 79 63 80 64 81 73 82 65 83 66 84 72 85 74 86
REMARK SMILES IDX 67 87 68 88 69 89 70 90 71 91 47 92 48 93 57 94 49 95 50 96
REMARK SMILES IDX 56 97 58 98 51 99 52 100 53 101 54 102 55 103
REMARK H PARENT 87 18 97 27 79 53 45 64
REMARK Flexibility Score: inf
ROOT
ATOM      1  C   UNL A   1      47.200  39.055  25.416  1.00  0.00     0.274 C 
ENDROOT
BRANCH   1   2
ATOM      2  O   UNL A   1      47.147  40.493  25.308  1.00  0.00    -0.461 OA
BRANCH   2   3
ATOM      3  C   UNL A   1      46.670  41.046  24.144  1.00  0.00     0.322 C 
ATOM      4  O   UNL A   1      47.023  40.729  23.022  1.00  0.00    -0.251 OA
BRANCH   3   5
ATOM      5  C   UNL A   1      45.595  42.065  24.502  1.00  0.00     0.162 C 
ATOM      6  C   UNL A   1      43.265  41.013  28.987  1.00  0.00     0.122 A 
ATOM      7  C   UNL A   1      42.572  40.287  28.018  1.00  0.00     0.047 A 
ATOM      8  C   UNL A   1      44.286  41.875  28.589  1.00  0.00     0.093 A 
ATOM      9  C   UNL A   1      42.909  40.409  26.669  1.00  0.00     0.012 A 
ATOM     10  C   UNL A   1      44.608  42.010  27.233  1.00  0.00     0.126 A 
ATOM     11  C   UNL A   1      43.940  41.268  26.270  1.00  0.00     0.005 A 
ATOM     12  O   UNL A   1      45.496  42.987  26.914  1.00  0.00    -0.492 OA
ATOM     13  C   UNL A   1      44.207  41.526  24.821  1.00  0.00     0.105 C 
ATOM     14  C   UNL A   1      46.168  42.926  25.653  1.00  0.00     0.255 C 
ATOM     15  C   UNL A   1      43.306  42.684  24.360  1.00  0.00     0.272 C 
ATOM     16  C   UNL A   1      45.336  42.840  23.185  1.00  0.00     0.286 C 
ATOM     17  N   UNL A   1      43.916  43.209  23.138  1.00  0.00    -0.328 N 
ATOM     18  H   UNL A   1      43.828  44.224  23.109  1.00  0.00     0.348 HD
BRANCH   6  19
ATOM     19  O   UNL A   1      42.826  40.813  30.265  1.00  0.00    -0.497 OA
ATOM     20  C   UNL A   1      43.601  41.379  31.315  1.00  0.00     0.278 C 
ENDBRANCH   6  19
BRANCH  17  21
ATOM     21  C   UNL A   1      43.214  42.843  21.899  1.00  0.00     0.319 C 
BRANCH  21  22
ATOM     22  C   UNL A   1      43.399  43.780  20.755  1.00  0.00     0.090 A 
ATOM     23  C   UNL A   1      42.611  44.062  19.657  1.00  0.00     0.055 A 
ATOM     24  N   UNL A   1      44.488  44.593  20.622  1.00  0.00    -0.277 N 
ATOM     25  C   UNL A   1      43.378  44.932  18.845  1.00  0.00     0.068 A 
ATOM     26  N   UNL A   1      44.496  45.304  19.486  1.00  0.00    -0.180 NA
ATOM     27  H   UNL A   1      45.200  44.652  21.299  1.00  0.00     0.190 HD
BRANCH  25  28
ATOM     28  C   UNL A   1      43.077  45.424  17.437  1.00  0.00     0.006 C 
ATOM     29  C   UNL A   1      44.045  46.555  17.052  1.00  0.00     0.017 C 
ATOM     30  C   UNL A   1      43.209  44.270  16.419  1.00  0.00     0.017 C 
ATOM     31  C   UNL A   1      41.635  45.966  17.322  1.00  0.00     0.017 C 
ENDBRANCH  25  28
ENDBRANCH  21  22
ENDBRANCH  17  21
ENDBRANCH   3   5
ENDBRANCH   2   3
ENDBRANCH   1   2
BRANCH   1  32
ATOM     32  C   UNL A   1      47.792  38.702  26.781  1.00  0.00     0.275 C 
BRANCH  32  33
ATOM     33  O   UNL A   1      47.333  37.381  27.100  1.00  0.00    -0.458 OA
BRANCH  33  34
ATOM     34  C   UNL A   1      48.127  36.617  27.877  1.00  0.00     0.338 C 
ATOM     35  O   UNL A   1      49.190  36.943  28.389  1.00  0.00    -0.246 OA
BRANCH  34  36
ATOM     36  C   UNL A   1      47.507  35.281  27.954  1.00  0.00     0.060 A 
ATOM     37  C   UNL A   1      47.434  34.629  29.182  1.00  0.00     0.016 A 
ATOM     38  C   UNL A   1      47.036  34.650  26.796  1.00  0.00     0.016 A 
ATOM     39  C   UNL A   1      46.980  33.309  29.225  1.00  0.00     0.010 A 
ATOM     40  C   UNL A   1      46.510  33.364  26.853  1.00  0.00     0.010 A 
ATOM     41  C   UNL A   1      46.531  32.659  28.058  1.00  0.00    -0.014 A 
BRANCH  41  42
ATOM     42  C   UNL A   1      46.110  31.238  28.108  1.00  0.00     0.031 A 
ATOM     43  C   UNL A   1      44.709  30.866  28.511  1.00  0.00     0.074 A 
ATOM     44  C   UNL A   1      46.991  30.284  27.753  1.00  0.00     0.049 A 
ATOM     45  N   UNL A   1      44.117  29.700  28.444  1.00  0.00    -0.248 NA
ATOM     46  C   UNL A   1      43.861  31.933  29.067  1.00  0.00     0.031 C 
ATOM     47  C   UNL A   1      48.388  30.530  27.402  1.00  0.00     0.029 A 
ATOM     48  N   UNL A   1      46.840  28.931  27.599  1.00  0.00    -0.354 N 
ATOM     49  C   UNL A   1      42.826  29.900  28.920  1.00  0.00     0.074 A 
ATOM     50  C   UNL A   1      42.747  31.277  29.354  1.00  0.00     0.031 C 
ATOM     51  C   UNL A   1      48.955  29.377  27.019  1.00  0.00     0.029 A 
ATOM     52  C   UNL A   1      47.963  28.311  27.107  1.00  0.00     0.049 A 
ATOM     53  H   UNL A   1      46.008  28.451  27.819  1.00  0.00     0.167 HD
ATOM     54  C   UNL A   1      41.790  29.028  28.951  1.00  0.00     0.037 A 
ATOM     55  C   UNL A   1      48.160  27.034  26.728  1.00  0.00     0.037 A 
ATOM     56  C   UNL A   1      41.887  27.657  28.524  1.00  0.00     0.049 A 
ATOM     57  C   UNL A   1      47.004  26.077  26.782  1.00  0.00     0.074 A 
ATOM     58  C   UNL A   1      40.899  26.690  28.485  1.00  0.00     0.029 A 
ATOM     59  N   UNL A   1      43.053  27.054  28.068  1.00  0.00    -0.354 N 
ATOM     60  N   UNL A   1      45.768  26.301  27.161  1.00  0.00    -0.248 NA
ATOM     61  C   UNL A   1      47.263  24.701  26.342  1.00  0.00     0.031 C 
ATOM     62  C   UNL A   1      41.475  25.495  28.039  1.00  0.00     0.029 A 
ATOM     63  C   UNL A   1      42.814  25.725  27.760  1.00  0.00     0.049 A 
ATOM     64  H   UNL A   1      43.923  27.507  27.976  1.00  0.00     0.167 HD
ATOM     65  C   UNL A   1      45.095  25.098  26.990  1.00  0.00     0.074 A 
ATOM     66  C   UNL A   1      46.060  24.155  26.458  1.00  0.00     0.031 C 
ATOM     67  C   UNL A   1      43.796  24.800  27.249  1.00  0.00     0.037 A 
BRANCH  54  68
ATOM     68  C   UNL A   1      40.465  29.552  29.441  1.00  0.00     0.058 A 
ATOM     69  C   UNL A   1      39.431  29.872  28.544  1.00  0.00     0.135 A 
ATOM     70  C   UNL A   1      40.221  29.744  30.810  1.00  0.00     0.135 A 
ATOM     71  F   UNL A   1      39.610  29.718  27.222  1.00  0.00    -0.206 F 
ATOM     72  C   UNL A   1      38.223  30.406  28.981  1.00  0.00     0.059 A 
ATOM     73  C   UNL A   1      39.008  30.252  31.273  1.00  0.00     0.059 A 
ATOM     74  F   UNL A   1      41.168  29.451  31.714  1.00  0.00    -0.206 F 
ATOM     75  C   UNL A   1      38.024  30.600  30.348  1.00  0.00     0.060 A 
BRANCH  75  76
ATOM     76  S   UNL A   1      36.461  31.323  30.894  1.00  0.00     0.124 S 
ATOM     77  O   UNL A   1      35.669  31.263  29.669  1.00  0.00    -0.237 OA
ATOM     78  O   UNL A   1      36.050  30.413  31.958  1.00  0.00    -0.237 OA
ATOM     79  O   UNL A   1      36.840  32.664  31.330  1.00  0.00    -0.744 OA
ENDBRANCH  75  76
ENDBRANCH  54  68
BRANCH  55  80
ATOM     80  C   UNL A   1      49.481  26.638  26.177  1.00  0.00     0.058 A 
ATOM     81  C   UNL A   1      49.805  26.898  24.839  1.00  0.00     0.135 A 
ATOM     82  C   UNL A   1      50.476  26.081  26.996  1.00  0.00     0.135 A 
ATOM     83  F   UNL A   1      48.887  27.430  24.016  1.00  0.00    -0.206 F 
ATOM     84  C   UNL A   1      51.071  26.630  24.330  1.00  0.00     0.059 A 
ATOM     85  C   UNL A   1      51.756  25.822  26.516  1.00  0.00     0.059 A 
ATOM     86  F   UNL A   1      50.221  25.833  28.290  1.00  0.00    -0.206 F 
ATOM     87  C   UNL A   1      52.045  26.104  25.182  1.00  0.00     0.060 A 
BRANCH  87  88
ATOM     88  S   UNL A   1      53.713  25.855  24.534  1.00  0.00     0.124 S 
ATOM     89  O   UNL A   1      53.942  24.447  24.837  1.00  0.00    -0.237 OA
ATOM     90  O   UNL A   1      53.541  26.185  23.122  1.00  0.00    -0.237 OA
ATOM     91  O   UNL A   1      54.516  26.805  25.298  1.00  0.00    -0.744 OA
ENDBRANCH  87  88
ENDBRANCH  55  80
BRANCH  67  92
ATOM     92  C   UNL A   1      43.348  23.395  26.965  1.00  0.00     0.058 A 
ATOM     93  C   UNL A   1      43.105  22.955  25.655  1.00  0.00     0.135 A 
ATOM     94  C   UNL A   1      43.208  22.465  28.008  1.00  0.00     0.135 A 
ATOM     95  F   UNL A   1      43.217  23.809  24.624  1.00  0.00    -0.206 F 
ATOM     96  C   UNL A   1      42.718  21.647  25.388  1.00  0.00     0.059 A 
ATOM     97  C   UNL A   1      42.847  21.143  27.761  1.00  0.00     0.059 A 
ATOM     98  F   UNL A   1      43.438  22.832  29.278  1.00  0.00    -0.206 F 
ATOM     99  C   UNL A   1      42.594  20.748  26.448  1.00  0.00     0.060 A 
BRANCH  99 100
ATOM    100  S   UNL A   1      42.121  19.044  26.083  1.00  0.00     0.124 S 
ATOM    101  O   UNL A   1      42.529  18.358  27.305  1.00  0.00    -0.237 OA
ATOM    102  O   UNL A   1      40.682  19.159  25.871  1.00  0.00    -0.237 OA
ATOM    103  O   UNL A   1      42.901  18.722  24.892  1.00  0.00    -0.744 OA
ENDBRANCH  99 100
ENDBRANCH  67  92
ENDBRANCH  41  42
ENDBRANCH  34  36
ENDBRANCH  33  34
ENDBRANCH  32  33
ENDBRANCH   1  32
TORSDOF 18
ENDMDL
MODEL 2
REMARK VINA RESULT:     -11.0      1.279      2.365
REMARK SMILES COc1ccc2c(c1)OC[C@]1(C(=O)OCCOC(=O)c3ccc(-c4c5nc(c(-c6c(F)cc(S(=O)(=O)[O-])cc6F)c6ccc([nH]6)c(-c6c(F)cc(S(=O)(=O)[O-])cc6F)c6nc(c(-c7c(F)cc(S(=O)(=O)[O-])cc7F)c7ccc4[nH]7)C=C6)C=C5)cc3)C[N@@H+](Cc3cc(C(C)(C)C)n[nH]3)C[C@H]21
REMARK SMILES IDX 15 1 14 2 12 3 13 4 11 5 3 6 4 7 8 8 5 9 7 10 6 11 9 12
REMARK SMILES IDX 99 13 10 14 98 15 86 16 87 17 2 19 1 20 88 21 89 22 90 23
REMARK SMILES IDX 97 24 91 25 96 26 92 28 93 29 94 30 95 31 16 32 17 33 18 34
REMARK SMILES IDX 19 35 20 36 21 37 85 38 22 39 84 40 23 41 24 42 25 43 78 44
REMARK SMILES IDX 26 45 83 46 77 47 79 48 27 49 82 50 76 51 75 52 28 54 62 55
REMARK SMILES IDX 41 56 61 57 42 58 45 59 60 60 80 61 43 62 44 63 59 65 81 66
REMARK SMILES IDX 46 67 29 68 30 69 39 70 31 71 32 72 38 73 40 74 33 75 34 76
REMARK SMILES IDX 35 77 36 78 37 79 63 80 64 81 73 82 65 83 66 84 72 85 74 86
REMARK SMILES IDX 67 87 68 88 69 89 70 90 71 91 47 92 48 93 57 94 49 95 50 96
REMARK SMILES IDX 56 97 58 98 51 99 52 100 53 101 54 102 55 103
REMARK H PARENT 87 18 97 27 79 53 45 64
REMARK Flexibility Score: inf
ROOT
ATOM      1  C   UNL A   1      47.187  39.218  24.888  1.00  0.00     0.274 C 
ENDROOT
BRANCH   1   2
ATOM      2  O   UNL A   1      46.136  40.205  24.845  1.00  0.00    -0.461 OA
BRANCH   2   3
ATOM      3  C   UNL A   1      46.084  41.151  25.842  1.00  0.00     0.322 C 
ATOM      4  O   UNL A   1      46.988  41.914  26.130  1.00  0.00    -0.251 OA
BRANCH   3   5
ATOM      5  C   UNL A   1      44.695  41.114  26.466  1.00  0.00     0.162 C 
ATOM      6  C   UNL A   1      43.840  36.798  29.168  1.00  0.00     0.122 A 
ATOM      7  C   UNL A   1      43.500  36.496  27.849  1.00  0.00     0.047 A 
ATOM      8  C   UNL A   1      44.210  38.103  29.492  1.00  0.00     0.093 A 
ATOM      9  C   UNL A   1      43.550  37.482  26.863  1.00  0.00     0.012 A 
ATOM     10  C   UNL A   1      44.238  39.094  28.504  1.00  0.00     0.126 A 
ATOM     11  C   UNL A   1      43.930  38.790  27.187  1.00  0.00     0.005 A 
ATOM     12  O   UNL A   1      44.448  40.368  28.928  1.00  0.00    -0.492 OA
ATOM     13  C   UNL A   1      43.837  39.889  26.176  1.00  0.00     0.105 C 
ATOM     14  C   UNL A   1      44.886  41.348  27.983  1.00  0.00     0.255 C 
ATOM     15  C   UNL A   1      42.417  40.480  26.231  1.00  0.00     0.272 C 
ATOM     16  C   UNL A   1      43.907  42.230  25.735  1.00  0.00     0.286 C 
ATOM     17  N   UNL A   1      42.507  41.804  25.615  1.00  0.00    -0.328 N 
ATOM     18  H   UNL A   1      41.906  42.463  26.109  1.00  0.00     0.348 HD
BRANCH   6  19
ATOM     19  O   UNL A   1      43.735  35.747  30.035  1.00  0.00    -0.497 OA
ATOM     20  C   UNL A   1      44.148  35.968  31.377  1.00  0.00     0.278 C 
ENDBRANCH   6  19
BRANCH  17  21
ATOM     21  C   UNL A   1      41.940  41.888  24.262  1.00  0.00     0.319 C 
BRANCH  21  22
ATOM     22  C   UNL A   1      42.689  42.749  23.302  1.00  0.00     0.090 A 
ATOM     23  C   UNL A   1      42.748  42.757  21.923  1.00  0.00     0.055 A 
ATOM     24  N   UNL A   1      43.498  43.776  23.693  1.00  0.00    -0.277 N 
ATOM     25  C   UNL A   1      43.737  43.712  21.586  1.00  0.00     0.068 A 
ATOM     26  N   UNL A   1      44.135  44.379  22.680  1.00  0.00    -0.180 NA
ATOM     27  H   UNL A   1      43.604  44.049  24.633  1.00  0.00     0.190 HD
BRANCH  25  28
ATOM     28  C   UNL A   1      44.338  44.010  20.220  1.00  0.00     0.006 C 
ATOM     29  C   UNL A   1      44.657  45.510  20.097  1.00  0.00     0.017 C 
ATOM     30  C   UNL A   1      45.633  43.194  20.007  1.00  0.00     0.017 C 
ATOM     31  C   UNL A   1      43.370  43.630  19.079  1.00  0.00     0.017 C 
ENDBRANCH  25  28
ENDBRANCH  21  22
ENDBRANCH  17  21
ENDBRANCH   3   5
ENDBRANCH   2   3
ENDBRANCH   1   2
BRANCH   1  32
ATOM     32  C   UNL A   1      47.617  39.043  26.345  1.00  0.00     0.275 C 
BRANCH  32  33
ATOM     33  O   UNL A   1      47.133  37.761  26.766  1.00  0.00    -0.458 OA
BRANCH  33  34
ATOM     34  C   UNL A   1      47.830  37.115  27.724  1.00  0.00     0.338 C 
ATOM     35  O   UNL A   1      48.800  37.538  28.338  1.00  0.00    -0.246 OA
BRANCH  34  36
ATOM     36  C   UNL A   1      47.243  35.769  27.859  1.00  0.00     0.060 A 
ATOM     37  C   UNL A   1      47.351  35.093  29.071  1.00  0.00     0.016 A 
ATOM     38  C   UNL A   1      46.621  35.154  26.766  1.00  0.00     0.016 A 
ATOM     39  C   UNL A   1      46.924  33.766  29.149  1.00  0.00     0.010 A 
ATOM     40  C   UNL A   1      46.124  33.859  26.868  1.00  0.00     0.010 A 
ATOM     41  C   UNL A   1      46.323  33.132  28.044  1.00  0.00    -0.014 A 
BRANCH  41  42
ATOM     42  C   UNL A   1      45.930  31.704  28.122  1.00  0.00     0.031 A 
ATOM     43  C   UNL A   1      44.537  31.312  28.532  1.00  0.00     0.074 A 
ATOM     44  C   UNL A   1      46.831  30.761  27.787  1.00  0.00     0.049 A 
ATOM     45  N   UNL A   1      43.969  30.133  28.489  1.00  0.00    -0.248 NA
ATOM     46  C   UNL A   1      43.668  32.372  29.066  1.00  0.00     0.031 C 
ATOM     47  C   UNL A   1      48.223  31.028  27.431  1.00  0.00     0.029 A 
ATOM     48  N   UNL A   1      46.707  29.402  27.660  1.00  0.00    -0.354 N 
ATOM     49  C   UNL A   1      42.674  30.317  28.960  1.00  0.00     0.074 A 
ATOM     50  C   UNL A   1      42.566  31.701  29.366  1.00  0.00     0.031 C 
ATOM     51  C   UNL A   1      48.813  29.878  27.072  1.00  0.00     0.029 A 
ATOM     52  C   UNL A   1      47.842  28.795  27.181  1.00  0.00     0.049 A 
ATOM     53  H   UNL A   1      45.885  28.910  27.890  1.00  0.00     0.167 HD
ATOM     54  C   UNL A   1      41.655  29.425  29.009  1.00  0.00     0.037 A 
ATOM     55  C   UNL A   1      48.065  27.515  26.828  1.00  0.00     0.037 A 
ATOM     56  C   UNL A   1      41.780  28.048  28.610  1.00  0.00     0.049 A 
ATOM     57  C   UNL A   1      46.928  26.536  26.901  1.00  0.00     0.074 A 
ATOM     58  C   UNL A   1      40.811  27.061  28.590  1.00  0.00     0.029 A 
ATOM     59  N   UNL A   1      42.958  27.460  28.166  1.00  0.00    -0.354 N 
ATOM     60  N   UNL A   1      45.688  26.742  27.275  1.00  0.00    -0.248 NA
ATOM     61  C   UNL A   1      47.215  25.157  26.489  1.00  0.00     0.031 C 
ATOM     62  C   UNL A   1      41.411  25.869  28.168  1.00  0.00     0.029 A 
ATOM     63  C   UNL A   1      42.746  26.120  27.886  1.00  0.00     0.049 A 
ATOM     64  H   UNL A   1      43.819  27.927  28.065  1.00  0.00     0.167 HD
ATOM     65  C   UNL A   1      45.039  25.523  27.129  1.00  0.00     0.074 A 
ATOM     66  C   UNL A   1      46.023  24.589  26.616  1.00  0.00     0.031 C 
ATOM     67  C   UNL A   1      43.747  25.205  27.393  1.00  0.00     0.037 A 
BRANCH  54  68
ATOM     68  C   UNL A   1      40.319  29.932  29.488  1.00  0.00     0.058 A 
ATOM     69  C   UNL A   1      40.116  30.287  30.833  1.00  0.00     0.135 A 
ATOM     70  C   UNL A   1      39.233  30.060  28.610  1.00  0.00     0.135 A 
ATOM     71  F   UNL A   1      41.117  30.177  31.722  1.00  0.00    -0.206 F 
ATOM     72  C   UNL A   1      38.874  30.706  31.298  1.00  0.00     0.059 A 
ATOM     73  C   UNL A   1      37.985  30.504  29.048  1.00  0.00     0.059 A 
ATOM     74  F   UNL A   1      39.368  29.741  27.313  1.00  0.00    -0.206 F 
ATOM     75  C   UNL A   1      37.811  30.803  30.399  1.00  0.00     0.060 A 
BRANCH  75  76
ATOM     76  S   UNL A   1      36.198  31.319  31.027  1.00  0.00     0.124 S 
ATOM     77  O   UNL A   1      35.427  31.432  29.792  1.00  0.00    -0.237 OA
ATOM     78  O   UNL A   1      35.833  30.208  31.900  1.00  0.00    -0.237 OA
ATOM     79  O   UNL A   1      36.483  32.579  31.706  1.00  0.00    -0.744 OA
ENDBRANCH  75  76
ENDBRANCH  54  68
BRANCH  55  80
ATOM     80  C   UNL A   1      49.394  27.135  26.285  1.00  0.00     0.058 A 
ATOM     81  C   UNL A   1      50.426  26.726  27.141  1.00  0.00     0.135 A 
ATOM     82  C   UNL A   1      49.630  27.082  24.903  1.00  0.00     0.135 A 
ATOM     83  F   UNL A   1      50.248  26.758  28.471  1.00  0.00    -0.206 F 
ATOM     84  C   UNL A   1      51.643  26.268  26.648  1.00  0.00     0.059 A 
ATOM     85  C   UNL A   1      50.832  26.610  24.384  1.00  0.00     0.059 A 
ATOM     86  F   UNL A   1      48.666  27.444  24.041  1.00  0.00    -0.206 F 
ATOM     87  C   UNL A   1      51.832  26.201  25.265  1.00  0.00     0.060 A 
BRANCH  87  88
ATOM     88  S   UNL A   1      53.378  25.510  24.639  1.00  0.00     0.124 S 
ATOM     89  O   UNL A   1      53.258  25.764  23.208  1.00  0.00    -0.237 OA
ATOM     90  O   UNL A   1      54.375  26.308  25.348  1.00  0.00    -0.237 OA
ATOM     91  O   UNL A   1      53.309  24.109  25.040  1.00  0.00    -0.744 OA
ENDBRANCH  87  88
ENDBRANCH  55  80
BRANCH  67  92
ATOM     92  C   UNL A   1      43.327  23.786  27.138  1.00  0.00     0.058 A 
ATOM     93  C   UNL A   1      43.191  22.864  28.186  1.00  0.00     0.135 A 
ATOM     94  C   UNL A   1      43.007  23.357  25.839  1.00  0.00     0.135 A 
ATOM     95  F   UNL A   1      43.492  23.223  29.445  1.00  0.00    -0.206 F 
ATOM     96  C   UNL A   1      42.774  21.558  27.956  1.00  0.00     0.059 A 
ATOM     97  C   UNL A   1      42.562  22.062  25.589  1.00  0.00     0.059 A 
ATOM     98  F   UNL A   1      43.110  24.203  24.802  1.00  0.00    -0.206 F 
ATOM     99  C   UNL A   1      42.460  21.167  26.653  1.00  0.00     0.060 A 
BRANCH  99 100
ATOM    100  S   UNL A   1      41.890  19.477  26.373  1.00  0.00     0.124 S 
ATOM    101  O   UNL A   1      42.316  18.816  27.603  1.00  0.00    -0.237 OA
ATOM    102  O   UNL A   1      40.450  19.656  26.216  1.00  0.00    -0.237 OA
ATOM    103  O   UNL A   1      42.601  19.073  25.165  1.00  0.00    -0.744 OA
ENDBRANCH  99 100
ENDBRANCH  67  92
ENDBRANCH  41  42
ENDBRANCH  34  36
ENDBRANCH  33  34
ENDBRANCH  32  33
ENDBRANCH   1  32
TORSDOF 18
ENDMDL
MODEL 3
REMARK VINA RESULT:     -11.0      9.088     15.223
REMARK SMILES COc1ccc2c(c1)OC[C@]1(C(=O)OCCOC(=O)c3ccc(-c4c5nc(c(-c6c(F)cc(S(=O)(=O)[O-])cc6F)c6ccc([nH]6)c(-c6c(F)cc(S(=O)(=O)[O-])cc6F)c6nc(c(-c7c(F)cc(S(=O)(=O)[O-])cc7F)c7ccc4[nH]7)C=C6)C=C5)cc3)C[N@@H+](Cc3cc(C(C)(C)C)n[nH]3)C[C@H]21
REMARK SMILES IDX 15 1 14 2 12 3 13 4 11 5 3 6 4 7 8 8 5 9 7 10 6 11 9 12
REMARK SMILES IDX 99 13 10 14 98 15 86 16 87 17 2 19 1 20 88 21 89 22 90 23
REMARK SMILES IDX 97 24 91 25 96 26 92 28 93 29 94 30 95 31 16 32 17 33 18 34
REMARK SMILES IDX 19 35 20 36 21 37 85 38 22 39 84 40 23 41 24 42 25 43 78 44
REMARK SMILES IDX 26 45 83 46 77 47 79 48 27 49 82 50 76 51 75 52 28 54 62 55
REMARK SMILES IDX 41 56 61 57 42 58 45 59 60 60 80 61 43 62 44 63 59 65 81 66
REMARK SMILES IDX 46 67 29 68 30 69 39 70 31 71 32 72 38 73 40 74 33 75 34 76
REMARK SMILES IDX 35 77 36 78 37 79 63 80 64 81 73 82 65 83 66 84 72 85 74 86
REMARK SMILES IDX 67 87 68 88 69 89 70 90 71 91 47 92 48 93 57 94 49 95 50 96
REMARK SMILES IDX 56 97 58 98 51 99 52 100 53 101 54 102 55 103
REMARK H PARENT 87 18 97 27 79 53 45 64
REMARK Flexibility Score: inf
ROOT
ATOM      1  C   UNL A   1      33.173  28.083  26.891  1.00  0.00     0.274 C 
ENDROOT
BRANCH   1   2
ATOM      2  O   UNL A   1      33.279  26.774  26.294  1.00  0.00    -0.461 OA
BRANCH   2   3
ATOM      3  C   UNL A   1      32.172  25.959  26.300  1.00  0.00     0.322 C 
ATOM      4  O   UNL A   1      31.279  25.998  27.128  1.00  0.00    -0.251 OA
BRANCH   3   5
ATOM      5  C   UNL A   1      32.232  25.058  25.073  1.00  0.00     0.162 C 
ATOM      6  C   UNL A   1      35.956  21.496  25.399  1.00  0.00     0.122 A 
ATOM      7  C   UNL A   1      36.563  22.635  24.870  1.00  0.00     0.047 A 
ATOM      8  C   UNL A   1      34.579  21.502  25.621  1.00  0.00     0.093 A 
ATOM      9  C   UNL A   1      35.805  23.772  24.585  1.00  0.00     0.012 A 
ATOM     10  C   UNL A   1      33.819  22.637  25.314  1.00  0.00     0.126 A 
ATOM     11  C   UNL A   1      34.424  23.781  24.817  1.00  0.00     0.005 A 
ATOM     12  O   UNL A   1      32.470  22.506  25.404  1.00  0.00    -0.492 OA
ATOM     13  C   UNL A   1      33.579  24.931  24.372  1.00  0.00     0.105 C 
ATOM     14  C   UNL A   1      31.666  23.685  25.505  1.00  0.00     0.255 C 
ATOM     15  C   UNL A   1      33.151  24.685  22.914  1.00  0.00     0.272 C 
ATOM     16  C   UNL A   1      31.388  25.796  24.003  1.00  0.00     0.286 C 
ATOM     17  N   UNL A   1      31.984  25.537  22.687  1.00  0.00    -0.328 N 
ATOM     18  H   UNL A   1      31.307  25.055  22.096  1.00  0.00     0.348 HD
BRANCH   6  19
ATOM     19  O   UNL A   1      36.807  20.450  25.617  1.00  0.00    -0.497 OA
ATOM     20  C   UNL A   1      38.009  20.421  24.857  1.00  0.00     0.278 C 
ENDBRANCH   6  19
BRANCH  17  21
ATOM     21  C   UNL A   1      32.248  26.731  21.872  1.00  0.00     0.319 C 
BRANCH  21  22
ATOM     22  C   UNL A   1      31.353  27.895  22.127  1.00  0.00     0.090 A 
ATOM     23  C   UNL A   1      30.029  27.974  22.512  1.00  0.00     0.055 A 
ATOM     24  N   UNL A   1      31.764  29.193  22.020  1.00  0.00    -0.277 N 
ATOM     25  C   UNL A   1      29.692  29.348  22.454  1.00  0.00     0.068 A 
ATOM     26  N   UNL A   1      30.786  30.088  22.221  1.00  0.00    -0.180 NA
ATOM     27  H   UNL A   1      32.692  29.448  21.816  1.00  0.00     0.190 HD
BRANCH  25  28
ATOM     28  C   UNL A   1      28.323  29.993  22.607  1.00  0.00     0.006 C 
ATOM     29  C   UNL A   1      27.892  30.643  21.281  1.00  0.00     0.017 C 
ATOM     30  C   UNL A   1      27.271  28.943  23.026  1.00  0.00     0.017 C 
ATOM     31  C   UNL A   1      28.331  31.087  23.697  1.00  0.00     0.017 C 
ENDBRANCH  25  28
ENDBRANCH  21  22
ENDBRANCH  17  21
ENDBRANCH   3   5
ENDBRANCH   2   3
ENDBRANCH   1   2
BRANCH   1  32
ATOM     32  C   UNL A   1      34.551  28.744  26.835  1.00  0.00     0.275 C 
BRANCH  32  33
ATOM     33  O   UNL A   1      34.327  30.158  26.752  1.00  0.00    -0.458 OA
BRANCH  33  34
ATOM     34  C   UNL A   1      34.603  30.898  27.845  1.00  0.00     0.338 C 
ATOM     35  O   UNL A   1      33.958  31.845  28.274  1.00  0.00    -0.246 OA
BRANCH  34  36
ATOM     36  C   UNL A   1      35.870  30.393  28.406  1.00  0.00     0.060 A 
ATOM     37  C   UNL A   1      35.843  29.585  29.540  1.00  0.00     0.016 A 
ATOM     38  C   UNL A   1      37.095  30.756  27.833  1.00  0.00     0.016 A 
ATOM     39  C   UNL A   1      37.048  29.231  30.151  1.00  0.00     0.010 A 
ATOM     40  C   UNL A   1      38.294  30.336  28.397  1.00  0.00     0.010 A 
ATOM     41  C   UNL A   1      38.283  29.618  29.595  1.00  0.00    -0.014 A 
BRANCH  41  42
ATOM     42  C   UNL A   1      39.552  29.286  30.287  1.00  0.00     0.031 A 
ATOM     43  C   UNL A   1      40.447  28.194  29.768  1.00  0.00     0.074 A 
ATOM     44  C   UNL A   1      39.910  30.002  31.369  1.00  0.00     0.049 A 
ATOM     45  N   UNL A   1      41.665  27.885  30.138  1.00  0.00    -0.248 NA
ATOM     46  C   UNL A   1      39.911  27.330  28.705  1.00  0.00     0.031 C 
ATOM     47  C   UNL A   1      39.091  31.043  31.988  1.00  0.00     0.029 A 
ATOM     48  N   UNL A   1      41.057  29.989  32.118  1.00  0.00    -0.354 N 
ATOM     49  C   UNL A   1      42.047  26.816  29.335  1.00  0.00     0.074 A 
ATOM     50  C   UNL A   1      40.902  26.472  28.520  1.00  0.00     0.031 C 
ATOM     51  C   UNL A   1      39.782  31.609  32.989  1.00  0.00     0.029 A 
ATOM     52  C   UNL A   1      41.087  30.964  33.086  1.00  0.00     0.049 A 
ATOM     53  H   UNL A   1      41.789  29.344  31.977  1.00  0.00     0.167 HD
ATOM     54  C   UNL A   1      43.254  26.206  29.253  1.00  0.00     0.037 A 
ATOM     55  C   UNL A   1      42.071  31.328  33.929  1.00  0.00     0.037 A 
ATOM     56  C   UNL A   1      44.381  26.554  30.078  1.00  0.00     0.049 A 
ATOM     57  C   UNL A   1      43.399  30.631  33.835  1.00  0.00     0.074 A 
ATOM     58  C   UNL A   1      45.659  26.024  30.065  1.00  0.00     0.029 A 
ATOM     59  N   UNL A   1      44.360  27.522  31.074  1.00  0.00    -0.354 N 
ATOM     60  N   UNL A   1      43.769  29.675  33.018  1.00  0.00    -0.248 NA
ATOM     61  C   UNL A   1      44.445  31.075  34.764  1.00  0.00     0.031 C 
ATOM     62  C   UNL A   1      46.399  26.647  31.077  1.00  0.00     0.029 A 
ATOM     63  C   UNL A   1      45.596  27.594  31.695  1.00  0.00     0.049 A 
ATOM     64  H   UNL A   1      43.580  28.076  31.306  1.00  0.00     0.167 HD
ATOM     65  C   UNL A   1      45.099  29.410  33.321  1.00  0.00     0.074 A 
ATOM     66  C   UNL A   1      45.470  30.321  34.386  1.00  0.00     0.031 C 
ATOM     67  C   UNL A   1      45.937  28.498  32.767  1.00  0.00     0.037 A 
BRANCH  54  68
ATOM     68  C   UNL A   1      43.408  25.122  28.218  1.00  0.00     0.058 A 
ATOM     69  C   UNL A   1      43.127  23.779  28.522  1.00  0.00     0.135 A 
ATOM     70  C   UNL A   1      43.843  25.417  26.917  1.00  0.00     0.135 A 
ATOM     71  F   UNL A   1      42.716  23.436  29.754  1.00  0.00    -0.206 F 
ATOM     72  C   UNL A   1      43.317  22.763  27.591  1.00  0.00     0.059 A 
ATOM     73  C   UNL A   1      44.014  24.418  25.958  1.00  0.00     0.059 A 
ATOM     74  F   UNL A   1      44.122  26.682  26.565  1.00  0.00    -0.206 F 
ATOM     75  C   UNL A   1      43.769  23.093  26.313  1.00  0.00     0.060 A 
BRANCH  75  76
ATOM     76  S   UNL A   1      44.039  21.757  25.127  1.00  0.00     0.124 S 
ATOM     77  O   UNL A   1      45.416  21.375  25.427  1.00  0.00    -0.237 OA
ATOM     78  O   UNL A   1      43.017  20.788  25.510  1.00  0.00    -0.237 OA
ATOM     79  O   UNL A   1      43.834  22.403  23.834  1.00  0.00    -0.744 OA
ENDBRANCH  75  76
ENDBRANCH  54  68
BRANCH  55  80
ATOM     80  C   UNL A   1      41.847  32.467  34.855  1.00  0.00     0.058 A 
ATOM     81  C   UNL A   1      42.222  33.768  34.493  1.00  0.00     0.135 A 
ATOM     82  C   UNL A   1      41.172  32.296  36.073  1.00  0.00     0.135 A 
ATOM     83  F   UNL A   1      42.870  33.983  33.336  1.00  0.00    -0.206 F 
ATOM     84  C   UNL A   1      41.928  34.863  35.299  1.00  0.00     0.059 A 
ATOM     85  C   UNL A   1      40.849  33.376  36.889  1.00  0.00     0.059 A 
ATOM     86  F   UNL A   1      40.774  31.072  36.455  1.00  0.00    -0.206 F 
ATOM     87  C   UNL A   1      41.228  34.657  36.490  1.00  0.00     0.060 A 
BRANCH  87  88
ATOM     88  S   UNL A   1      40.765  36.098  37.476  1.00  0.00     0.124 S 
ATOM     89  O   UNL A   1      40.297  35.475  38.709  1.00  0.00    -0.237 OA
ATOM     90  O   UNL A   1      42.031  36.821  37.568  1.00  0.00    -0.237 OA
ATOM     91  O   UNL A   1      39.739  36.746  36.666  1.00  0.00    -0.744 OA
ENDBRANCH  87  88
ENDBRANCH  55  80
BRANCH  67  92
ATOM     92  C   UNL A   1      47.336  28.437  33.310  1.00  0.00     0.058 A 
ATOM     93  C   UNL A   1      48.362  29.233  32.779  1.00  0.00     0.135 A 
ATOM     94  C   UNL A   1      47.643  27.613  34.406  1.00  0.00     0.135 A 
ATOM     95  F   UNL A   1      48.121  30.032  31.727  1.00  0.00    -0.206 F 
ATOM     96  C   UNL A   1      49.650  29.200  33.300  1.00  0.00     0.059 A 
ATOM     97  C   UNL A   1      48.919  27.583  34.960  1.00  0.00     0.059 A 
ATOM     98  F   UNL A   1      46.694  26.839  34.957  1.00  0.00    -0.206 F 
ATOM     99  C   UNL A   1      49.918  28.373  34.392  1.00  0.00     0.060 A 
BRANCH  99 100
ATOM    100  S   UNL A   1      51.589  28.363  35.077  1.00  0.00     0.124 S 
ATOM    101  O   UNL A   1      51.862  26.932  35.164  1.00  0.00    -0.237 OA
ATOM    102  O   UNL A   1      52.345  29.092  34.064  1.00  0.00    -0.237 OA
ATOM    103  O   UNL A   1      51.437  29.052  36.355  1.00  0.00    -0.744 OA
ENDBRANCH  99 100
ENDBRANCH  67  92
ENDBRANCH  41  42
ENDBRANCH  34  36
ENDBRANCH  33  34
ENDBRANCH  32  33
ENDBRANCH   1  32
TORSDOF 18
ENDMDL
