MODEL 1
REMARK VINA RESULT:     -11.3      0.000      0.000
REMARK SMILES COc1ccc(CCN2/C(=[NH+]/C(=O)CCC(=O)OCCOC(=O)c3ccc(-c4c5nc(c(-c6c(F)cc(S(=O)(=O)[O-])cc6F)c6ccc([nH]6)c(-c6c(F)cc(S(=O)(=O)[O-])cc6F)c6nc(c(-c7c(F)cc(S(=O)(=O)[O-])cc7F)c7ccc4[nH]7)C=C6)C=C5)cc3)S[C@@H]3CS(=O)(=O)C[C@@H]32)cc1
REMARK SMILES IDX 18 1 16 2 17 3 15 4 14 5 12 6 9 7 10 8 97 9 11 10 90 11
REMARK SMILES IDX 91 12 96 13 92 15 93 16 13 17 94 18 95 19 8 20 7 21 6 22
REMARK SMILES IDX 3 23 4 24 99 25 5 26 98 27 2 28 1 29 19 30 20 31 21 32 22 33
REMARK SMILES IDX 23 34 24 35 25 36 89 37 26 38 88 39 27 40 28 41 29 42 82 43
REMARK SMILES IDX 30 44 87 45 81 46 83 47 31 48 86 49 80 50 79 51 32 53 66 54
REMARK SMILES IDX 45 55 65 56 46 57 49 58 64 59 84 60 47 61 48 62 63 64 85 65
REMARK SMILES IDX 50 66 33 67 34 68 43 69 35 70 36 71 42 72 44 73 37 74 38 75
REMARK SMILES IDX 39 76 40 77 41 78 67 79 68 80 77 81 69 82 70 83 76 84 78 85
REMARK SMILES IDX 71 86 72 87 73 88 74 89 75 90 51 91 52 92 61 93 53 94 54 95
REMARK SMILES IDX 60 96 62 97 55 98 56 99 57 100 58 101 59 102
REMARK H PARENT 11 14 83 52 49 63
REMARK Flexibility Score: inf
ROOT
ATOM      1  O   UNL A   1      33.759  29.876  27.069  1.00  0.00    -0.462 OA
ENDROOT
BRANCH   1   2
ATOM      2  C   UNL A   1      32.659  29.277  26.548  1.00  0.00     0.306 C 
ATOM      3  O   UNL A   1      31.616  29.849  26.264  1.00  0.00    -0.252 OA
BRANCH   2   4
ATOM      4  C   UNL A   1      32.857  27.790  26.389  1.00  0.00     0.135 C 
BRANCH   4   5
ATOM      5  C   UNL A   1      31.651  26.983  26.845  1.00  0.00     0.139 C 
BRANCH   5   6
ATOM      6  C   UNL A   1      31.781  25.520  26.468  1.00  0.00     0.308 C 
ATOM      7  N   UNL A   1      33.951  24.022  23.964  1.00  0.00    -0.251 N 
ATOM      8  C   UNL A   1      33.075  24.186  25.031  1.00  0.00     0.314 C 
ATOM      9  C   UNL A   1      34.725  22.770  23.945  1.00  0.00     0.206 C 
ATOM     10  N   UNL A   1      32.550  25.320  25.351  1.00  0.00    -0.205 N 
ATOM     11  S   UNL A   1      32.898  22.654  25.878  1.00  0.00    -0.030 SA
ATOM     12  C   UNL A   1      34.518  22.100  25.321  1.00  0.00     0.120 C 
ATOM     13  C   UNL A   1      36.227  22.945  23.725  1.00  0.00     0.187 C 
ATOM     14  H   UNL A   1      32.712  26.088  24.756  1.00  0.00     0.316 HD
ATOM     15  C   UNL A   1      35.584  22.620  26.269  1.00  0.00     0.156 C 
ATOM     16  S   UNL A   1      37.035  22.590  25.264  1.00  0.00     0.155 S 
ATOM     17  O   UNL A   1      31.240  24.666  27.162  1.00  0.00    -0.247 OA
ATOM     18  O   UNL A   1      37.891  23.702  25.619  1.00  0.00    -0.229 OA
ATOM     19  O   UNL A   1      37.520  21.226  25.216  1.00  0.00    -0.229 OA
BRANCH   7  20
ATOM     20  C   UNL A   1      34.020  25.049  22.914  1.00  0.00     0.242 C 
BRANCH  20  21
ATOM     21  C   UNL A   1      32.754  25.352  22.100  1.00  0.00     0.081 C 
BRANCH  21  22
ATOM     22  C   UNL A   1      31.928  26.582  22.392  1.00  0.00    -0.044 A 
ATOM     23  C   UNL A   1      30.312  28.755  23.198  1.00  0.00     0.118 A 
ATOM     24  C   UNL A   1      31.637  28.955  22.806  1.00  0.00     0.046 A 
ATOM     25  C   UNL A   1      29.776  27.473  23.135  1.00  0.00     0.046 A 
ATOM     26  C   UNL A   1      32.436  27.883  22.394  1.00  0.00     0.007 A 
ATOM     27  C   UNL A   1      30.580  26.397  22.745  1.00  0.00     0.007 A 
BRANCH  23  28
ATOM     28  O   UNL A   1      29.657  29.882  23.612  1.00  0.00    -0.497 OA
ATOM     29  C   UNL A   1      29.131  30.723  22.595  1.00  0.00     0.278 C 
ENDBRANCH  23  28
ENDBRANCH  21  22
ENDBRANCH  20  21
ENDBRANCH   7  20
ENDBRANCH   5   6
ENDBRANCH   4   5
ENDBRANCH   2   4
ENDBRANCH   1   2
BRANCH   1  30
ATOM     30  C   UNL A   1      33.588  31.213  27.578  1.00  0.00     0.274 C 
BRANCH  30  31
ATOM     31  C   UNL A   1      34.815  31.634  28.387  1.00  0.00     0.275 C 
BRANCH  31  32
ATOM     32  O   UNL A   1      35.564  30.474  28.776  1.00  0.00    -0.458 OA
BRANCH  32  33
ATOM     33  C   UNL A   1      36.395  30.630  29.828  1.00  0.00     0.338 C 
ATOM     34  O   UNL A   1      36.130  31.100  30.925  1.00  0.00    -0.246 OA
BRANCH  33  35
ATOM     35  C   UNL A   1      37.690  30.042  29.482  1.00  0.00     0.060 A 
ATOM     36  C   UNL A   1      38.584  29.721  30.507  1.00  0.00     0.016 A 
ATOM     37  C   UNL A   1      38.032  29.851  28.142  1.00  0.00     0.016 A 
ATOM     38  C   UNL A   1      39.842  29.215  30.192  1.00  0.00     0.010 A 
ATOM     39  C   UNL A   1      39.290  29.339  27.829  1.00  0.00     0.010 A 
ATOM     40  C   UNL A   1      40.208  29.038  28.852  1.00  0.00    -0.014 A 
BRANCH  40  41
ATOM     41  C   UNL A   1      41.589  28.635  28.507  1.00  0.00     0.031 A 
ATOM     42  C   UNL A   1      42.669  29.678  28.488  1.00  0.00     0.074 A 
ATOM     43  C   UNL A   1      41.867  27.352  28.215  1.00  0.00     0.049 A 
ATOM     44  N   UNL A   1      43.922  29.569  28.134  1.00  0.00    -0.248 NA
ATOM     45  C   UNL A   1      42.280  31.031  28.919  1.00  0.00     0.031 C 
ATOM     46  C   UNL A   1      40.900  26.253  28.229  1.00  0.00     0.029 A 
ATOM     47  N   UNL A   1      43.045  26.758  27.839  1.00  0.00    -0.354 N 
ATOM     48  C   UNL A   1      44.470  30.837  28.283  1.00  0.00     0.074 A 
ATOM     49  C   UNL A   1      43.406  31.708  28.735  1.00  0.00     0.031 C 
ATOM     50  C   UNL A   1      41.524  25.118  27.871  1.00  0.00     0.029 A 
ATOM     51  C   UNL A   1      42.922  25.415  27.570  1.00  0.00     0.049 A 
ATOM     52  H   UNL A   1      43.896  27.246  27.769  1.00  0.00     0.167 HD
ATOM     53  C   UNL A   1      45.745  31.236  28.071  1.00  0.00     0.037 A 
ATOM     54  C   UNL A   1      43.833  24.534  27.114  1.00  0.00     0.037 A 
ATOM     55  C   UNL A   1      46.796  30.357  27.627  1.00  0.00     0.049 A 
ATOM     56  C   UNL A   1      45.241  25.005  26.862  1.00  0.00     0.074 A 
ATOM     57  C   UNL A   1      48.123  30.657  27.370  1.00  0.00     0.029 A 
ATOM     58  N   UNL A   1      46.638  29.000  27.378  1.00  0.00    -0.354 N 
ATOM     59  N   UNL A   1      45.744  26.210  26.999  1.00  0.00    -0.248 NA
ATOM     60  C   UNL A   1      46.206  23.999  26.400  1.00  0.00     0.031 C 
ATOM     61  C   UNL A   1      48.759  29.487  26.939  1.00  0.00     0.029 A 
ATOM     62  C   UNL A   1      47.841  28.450  26.968  1.00  0.00     0.049 A 
ATOM     63  H   UNL A   1      45.794  28.503  27.477  1.00  0.00     0.167 HD
ATOM     64  C   UNL A   1      47.092  26.099  26.672  1.00  0.00     0.074 A 
ATOM     65  C   UNL A   1      47.325  24.709  26.335  1.00  0.00     0.031 C 
ATOM     66  C   UNL A   1      48.051  27.059  26.654  1.00  0.00     0.037 A 
BRANCH  53  67
ATOM     67  C   UNL A   1      46.064  32.687  28.295  1.00  0.00     0.058 A 
ATOM     68  C   UNL A   1      45.891  33.646  27.284  1.00  0.00     0.135 A 
ATOM     69  C   UNL A   1      46.541  33.128  29.541  1.00  0.00     0.135 A 
ATOM     70  F   UNL A   1      45.459  33.275  26.068  1.00  0.00    -0.206 F 
ATOM     71  C   UNL A   1      46.207  34.986  27.490  1.00  0.00     0.059 A 
ATOM     72  C   UNL A   1      46.839  34.468  29.776  1.00  0.00     0.059 A 
ATOM     73  F   UNL A   1      46.729  32.254  30.540  1.00  0.00    -0.206 F 
ATOM     74  C   UNL A   1      46.684  35.387  28.739  1.00  0.00     0.060 A 
BRANCH  74  75
ATOM     75  S   UNL A   1      47.095  37.126  28.991  1.00  0.00     0.124 S 
ATOM     76  O   UNL A   1      48.408  37.209  28.358  1.00  0.00    -0.237 OA
ATOM     77  O   UNL A   1      46.010  37.810  28.294  1.00  0.00    -0.237 OA
ATOM     78  O   UNL A   1      47.089  37.269  30.443  1.00  0.00    -0.744 OA
ENDBRANCH  74  75
ENDBRANCH  53  67
BRANCH  54  79
ATOM     79  C   UNL A   1      43.442  23.121  26.871  1.00  0.00     0.058 A 
ATOM     80  C   UNL A   1      43.187  22.245  27.937  1.00  0.00     0.135 A 
ATOM     81  C   UNL A   1      43.304  22.620  25.567  1.00  0.00     0.135 A 
ATOM     82  F   UNL A   1      43.314  22.675  29.202  1.00  0.00    -0.206 F 
ATOM     83  C   UNL A   1      42.825  20.919  27.721  1.00  0.00     0.059 A 
ATOM     84  C   UNL A   1      42.919  21.305  25.326  1.00  0.00     0.059 A 
ATOM     85  F   UNL A   1      43.523  23.420  24.513  1.00  0.00    -0.206 F 
ATOM     86  C   UNL A   1      42.692  20.459  26.410  1.00  0.00     0.060 A 
BRANCH  86  87
ATOM     87  S   UNL A   1      42.175  18.750  26.139  1.00  0.00     0.124 S 
ATOM     88  O   UNL A   1      40.779  18.923  25.755  1.00  0.00    -0.237 OA
ATOM     89  O   UNL A   1      43.080  18.318  25.079  1.00  0.00    -0.237 OA
ATOM     90  O   UNL A   1      42.399  18.122  27.438  1.00  0.00    -0.744 OA
ENDBRANCH  86  87
ENDBRANCH  54  79
BRANCH  66  91
ATOM     91  C   UNL A   1      49.449  26.626  26.311  1.00  0.00     0.058 A 
ATOM     92  C   UNL A   1      50.308  26.068  27.269  1.00  0.00     0.135 A 
ATOM     93  C   UNL A   1      49.917  26.737  24.992  1.00  0.00     0.135 A 
ATOM     94  F   UNL A   1      49.907  25.943  28.544  1.00  0.00    -0.206 F 
ATOM     95  C   UNL A   1      51.596  25.662  26.939  1.00  0.00     0.059 A 
ATOM     96  C   UNL A   1      51.193  26.314  24.634  1.00  0.00     0.059 A 
ATOM     97  F   UNL A   1      49.129  27.253  24.034  1.00  0.00    -0.206 F 
ATOM     98  C   UNL A   1      52.031  25.792  25.618  1.00  0.00     0.060 A 
BRANCH  98  99
ATOM     99  S   UNL A   1      53.698  25.245  25.194  1.00  0.00     0.124 S 
ATOM    100  O   UNL A   1      53.550  23.794  25.236  1.00  0.00    -0.237 OA
ATOM    101  O   UNL A   1      53.893  25.824  23.869  1.00  0.00    -0.237 OA
ATOM    102  O   UNL A   1      54.524  25.823  26.250  1.00  0.00    -0.744 OA
ENDBRANCH  98  99
ENDBRANCH  66  91
ENDBRANCH  40  41
ENDBRANCH  33  35
ENDBRANCH  32  33
ENDBRANCH  31  32
ENDBRANCH  30  31
ENDBRANCH   1  30
TORSDOF 20
ENDMDL
MODEL 2
REMARK VINA RESULT:     -11.2      1.417      2.302
REMARK SMILES COc1ccc(CCN2/C(=[NH+]/C(=O)CCC(=O)OCCOC(=O)c3ccc(-c4c5nc(c(-c6c(F)cc(S(=O)(=O)[O-])cc6F)c6ccc([nH]6)c(-c6c(F)cc(S(=O)(=O)[O-])cc6F)c6nc(c(-c7c(F)cc(S(=O)(=O)[O-])cc7F)c7ccc4[nH]7)C=C6)C=C5)cc3)S[C@@H]3CS(=O)(=O)C[C@@H]32)cc1
REMARK SMILES IDX 18 1 16 2 17 3 15 4 14 5 12 6 9 7 10 8 97 9 11 10 90 11
REMARK SMILES IDX 91 12 96 13 92 15 93 16 13 17 94 18 95 19 8 20 7 21 6 22
REMARK SMILES IDX 3 23 4 24 99 25 5 26 98 27 2 28 1 29 19 30 20 31 21 32 22 33
REMARK SMILES IDX 23 34 24 35 25 36 89 37 26 38 88 39 27 40 28 41 29 42 82 43
REMARK SMILES IDX 30 44 87 45 81 46 83 47 31 48 86 49 80 50 79 51 32 53 66 54
REMARK SMILES IDX 45 55 65 56 46 57 49 58 64 59 84 60 47 61 48 62 63 64 85 65
REMARK SMILES IDX 50 66 33 67 34 68 43 69 35 70 36 71 42 72 44 73 37 74 38 75
REMARK SMILES IDX 39 76 40 77 41 78 67 79 68 80 77 81 69 82 70 83 76 84 78 85
REMARK SMILES IDX 71 86 72 87 73 88 74 89 75 90 51 91 52 92 61 93 53 94 54 95
REMARK SMILES IDX 60 96 62 97 55 98 56 99 57 100 58 101 59 102
REMARK H PARENT 11 14 83 52 49 63
REMARK Flexibility Score: inf
ROOT
ATOM      1  O   UNL A   1      34.319  31.363  27.943  1.00  0.00    -0.462 OA
ENDROOT
BRANCH   1   2
ATOM      2  C   UNL A   1      33.182  31.090  27.256  1.00  0.00     0.306 C 
ATOM      3  O   UNL A   1      32.249  31.867  27.107  1.00  0.00    -0.252 OA
BRANCH   2   4
ATOM      4  C   UNL A   1      33.182  29.682  26.716  1.00  0.00     0.135 C 
BRANCH   4   5
ATOM      5  C   UNL A   1      31.809  29.236  26.237  1.00  0.00     0.139 C 
BRANCH   5   6
ATOM      6  C   UNL A   1      31.526  27.795  26.616  1.00  0.00     0.308 C 
ATOM      7  N   UNL A   1      30.697  25.010  24.428  1.00  0.00    -0.251 N 
ATOM      8  C   UNL A   1      31.062  25.757  25.543  1.00  0.00     0.314 C 
ATOM      9  C   UNL A   1      31.088  23.591  24.440  1.00  0.00     0.206 C 
ATOM     10  N   UNL A   1      31.057  27.046  25.566  1.00  0.00    -0.205 N 
ATOM     11  S   UNL A   1      31.593  24.670  26.821  1.00  0.00    -0.030 SA
ATOM     12  C   UNL A   1      32.061  23.408  25.625  1.00  0.00     0.120 C 
ATOM     13  C   UNL A   1      31.788  23.105  23.172  1.00  0.00     0.187 C 
ATOM     14  H   UNL A   1      30.696  27.522  24.784  1.00  0.00     0.316 HD
ATOM     15  C   UNL A   1      33.470  23.681  25.129  1.00  0.00     0.156 C 
ATOM     16  S   UNL A   1      33.496  22.844  23.575  1.00  0.00     0.155 S 
ATOM     17  O   UNL A   1      31.744  27.415  27.762  1.00  0.00    -0.247 OA
ATOM     18  O   UNL A   1      34.322  23.581  22.643  1.00  0.00    -0.229 OA
ATOM     19  O   UNL A   1      33.690  21.431  23.829  1.00  0.00    -0.229 OA
BRANCH   7  20
ATOM     20  C   UNL A   1      29.922  25.642  23.351  1.00  0.00     0.242 C 
BRANCH  20  21
ATOM     21  C   UNL A   1      28.837  26.660  23.728  1.00  0.00     0.081 C 
BRANCH  21  22
ATOM     22  C   UNL A   1      28.814  28.031  23.096  1.00  0.00    -0.044 A 
ATOM     23  C   UNL A   1      28.665  30.697  22.171  1.00  0.00     0.118 A 
ATOM     24  C   UNL A   1      29.859  29.978  22.093  1.00  0.00     0.046 A 
ATOM     25  C   UNL A   1      27.527  30.065  22.662  1.00  0.00     0.046 A 
ATOM     26  C   UNL A   1      29.933  28.654  22.538  1.00  0.00     0.007 A 
ATOM     27  C   UNL A   1      27.605  28.748  23.128  1.00  0.00     0.007 A 
BRANCH  23  28
ATOM     28  O   UNL A   1      28.742  31.991  21.736  1.00  0.00    -0.497 OA
ATOM     29  C   UNL A   1      28.834  32.995  22.738  1.00  0.00     0.278 C 
ENDBRANCH  23  28
ENDBRANCH  21  22
ENDBRANCH  20  21
ENDBRANCH   7  20
ENDBRANCH   5   6
ENDBRANCH   4   5
ENDBRANCH   2   4
ENDBRANCH   1   2
BRANCH   1  30
ATOM     30  C   UNL A   1      34.253  32.429  28.910  1.00  0.00     0.274 C 
BRANCH  30  31
ATOM     31  C   UNL A   1      35.079  32.079  30.146  1.00  0.00     0.275 C 
BRANCH  31  32
ATOM     32  O   UNL A   1      36.055  31.082  29.813  1.00  0.00    -0.458 OA
BRANCH  32  33
ATOM     33  C   UNL A   1      36.737  30.550  30.849  1.00  0.00     0.338 C 
ATOM     34  O   UNL A   1      36.304  30.253  31.954  1.00  0.00    -0.246 OA
BRANCH  33  35
ATOM     35  C   UNL A   1      38.108  30.283  30.410  1.00  0.00     0.060 A 
ATOM     36  C   UNL A   1      38.397  30.306  29.043  1.00  0.00     0.016 A 
ATOM     37  C   UNL A   1      39.090  29.969  31.350  1.00  0.00     0.016 A 
ATOM     38  C   UNL A   1      39.683  29.998  28.605  1.00  0.00     0.010 A 
ATOM     39  C   UNL A   1      40.378  29.667  30.909  1.00  0.00     0.010 A 
ATOM     40  C   UNL A   1      40.674  29.659  29.535  1.00  0.00    -0.014 A 
BRANCH  40  41
ATOM     41  C   UNL A   1      42.000  29.196  29.069  1.00  0.00     0.031 A 
ATOM     42  C   UNL A   1      43.135  30.178  29.006  1.00  0.00     0.074 A 
ATOM     43  C   UNL A   1      42.181  27.913  28.708  1.00  0.00     0.049 A 
ATOM     44  N   UNL A   1      44.349  30.015  28.553  1.00  0.00    -0.248 NA
ATOM     45  C   UNL A   1      42.858  31.531  29.518  1.00  0.00     0.031 C 
ATOM     46  C   UNL A   1      41.155  26.870  28.755  1.00  0.00     0.029 A 
ATOM     47  N   UNL A   1      43.290  27.272  28.220  1.00  0.00    -0.354 N 
ATOM     48  C   UNL A   1      44.979  31.244  28.708  1.00  0.00     0.074 A 
ATOM     49  C   UNL A   1      44.004  32.151  29.273  1.00  0.00     0.031 C 
ATOM     50  C   UNL A   1      41.683  25.718  28.307  1.00  0.00     0.029 A 
ATOM     51  C   UNL A   1      43.070  25.950  27.911  1.00  0.00     0.049 A 
ATOM     52  H   UNL A   1      44.161  27.714  28.103  1.00  0.00     0.167 HD
ATOM     53  C   UNL A   1      46.256  31.580  28.413  1.00  0.00     0.037 A 
ATOM     54  C   UNL A   1      43.891  25.041  27.352  1.00  0.00     0.037 A 
ATOM     55  C   UNL A   1      47.218  30.664  27.856  1.00  0.00     0.049 A 
ATOM     56  C   UNL A   1      45.302  25.444  27.010  1.00  0.00     0.074 A 
ATOM     57  C   UNL A   1      48.537  30.901  27.509  1.00  0.00     0.029 A 
ATOM     58  N   UNL A   1      46.963  29.330  27.569  1.00  0.00    -0.354 N 
ATOM     59  N   UNL A   1      45.883  26.612  27.154  1.00  0.00    -0.248 NA
ATOM     60  C   UNL A   1      46.169  24.406  26.438  1.00  0.00     0.031 C 
ATOM     61  C   UNL A   1      49.070  29.718  26.986  1.00  0.00     0.029 A 
ATOM     62  C   UNL A   1      48.098  28.732  27.047  1.00  0.00     0.049 A 
ATOM     63  H   UNL A   1      46.101  28.877  27.714  1.00  0.00     0.167 HD
ATOM     64  C   UNL A   1      47.193  26.441  26.720  1.00  0.00     0.074 A 
ATOM     65  C   UNL A   1      47.319  25.056  26.314  1.00  0.00     0.031 C 
ATOM     66  C   UNL A   1      48.203  27.347  26.664  1.00  0.00     0.037 A 
BRANCH  53  67
ATOM     67  C   UNL A   1      46.674  33.001  28.667  1.00  0.00     0.058 A 
ATOM     68  C   UNL A   1      47.229  33.399  29.894  1.00  0.00     0.135 A 
ATOM     69  C   UNL A   1      46.527  33.978  27.669  1.00  0.00     0.135 A 
ATOM     70  F   UNL A   1      47.373  32.510  30.891  1.00  0.00    -0.206 F 
ATOM     71  C   UNL A   1      47.596  34.720  30.133  1.00  0.00     0.059 A 
ATOM     72  C   UNL A   1      46.911  35.300  27.878  1.00  0.00     0.059 A 
ATOM     73  F   UNL A   1      45.998  33.653  26.479  1.00  0.00    -0.206 F 
ATOM     74  C   UNL A   1      47.430  35.664  29.119  1.00  0.00     0.060 A 
BRANCH  74  75
ATOM     75  S   UNL A   1      47.904  37.375  29.443  1.00  0.00     0.124 S 
ATOM     76  O   UNL A   1      49.273  37.211  29.924  1.00  0.00    -0.237 OA
ATOM     77  O   UNL A   1      47.764  37.995  28.130  1.00  0.00    -0.237 OA
ATOM     78  O   UNL A   1      46.937  37.812  30.445  1.00  0.00    -0.744 OA
ENDBRANCH  74  75
ENDBRANCH  53  67
BRANCH  54  79
ATOM     79  C   UNL A   1      43.402  23.662  27.086  1.00  0.00     0.058 A 
ATOM     80  C   UNL A   1      43.271  22.727  28.123  1.00  0.00     0.135 A 
ATOM     81  C   UNL A   1      43.045  23.256  25.791  1.00  0.00     0.135 A 
ATOM     82  F   UNL A   1      43.607  23.065  29.378  1.00  0.00    -0.206 F 
ATOM     83  C   UNL A   1      42.818  21.433  27.885  1.00  0.00     0.059 A 
ATOM     84  C   UNL A   1      42.566  21.975  25.532  1.00  0.00     0.059 A 
ATOM     85  F   UNL A   1      43.140  24.117  24.767  1.00  0.00    -0.206 F 
ATOM     86  C   UNL A   1      42.466  21.067  26.585  1.00  0.00     0.060 A 
BRANCH  86  87
ATOM     87  S   UNL A   1      41.834  19.401  26.293  1.00  0.00     0.124 S 
ATOM     88  O   UNL A   1      42.264  18.708  27.502  1.00  0.00    -0.237 OA
ATOM     89  O   UNL A   1      40.399  19.633  26.165  1.00  0.00    -0.237 OA
ATOM     90  O   UNL A   1      42.509  18.999  25.062  1.00  0.00    -0.744 OA
ENDBRANCH  86  87
ENDBRANCH  54  79
BRANCH  66  91
ATOM     91  C   UNL A   1      49.543  26.852  26.198  1.00  0.00     0.058 A 
ATOM     92  C   UNL A   1      49.976  27.021  24.874  1.00  0.00     0.135 A 
ATOM     93  C   UNL A   1      50.421  26.236  27.104  1.00  0.00     0.135 A 
ATOM     94  F   UNL A   1      49.172  27.602  23.970  1.00  0.00    -0.206 F 
ATOM     95  C   UNL A   1      51.222  26.567  24.456  1.00  0.00     0.059 A 
ATOM     96  C   UNL A   1      51.682  25.797  26.713  1.00  0.00     0.059 A 
ATOM     97  F   UNL A   1      50.060  26.062  28.385  1.00  0.00    -0.206 F 
ATOM     98  C   UNL A   1      52.067  25.954  25.382  1.00  0.00     0.060 A 
BRANCH  98  99
ATOM     99  S   UNL A   1      53.691  25.385  24.835  1.00  0.00     0.124 S 
ATOM    100  O   UNL A   1      54.553  25.901  25.893  1.00  0.00    -0.237 OA
ATOM    101  O   UNL A   1      53.523  23.936  24.804  1.00  0.00    -0.237 OA
ATOM    102  O   UNL A   1      53.850  26.019  23.529  1.00  0.00    -0.744 OA
ENDBRANCH  98  99
ENDBRANCH  66  91
ENDBRANCH  40  41
ENDBRANCH  33  35
ENDBRANCH  32  33
ENDBRANCH  31  32
ENDBRANCH  30  31
ENDBRANCH   1  30
TORSDOF 20
ENDMDL
MODEL 3
REMARK VINA RESULT:     -10.7      6.444      8.563
REMARK SMILES COc1ccc(CCN2/C(=[NH+]/C(=O)CCC(=O)OCCOC(=O)c3ccc(-c4c5nc(c(-c6c(F)cc(S(=O)(=O)[O-])cc6F)c6ccc([nH]6)c(-c6c(F)cc(S(=O)(=O)[O-])cc6F)c6nc(c(-c7c(F)cc(S(=O)(=O)[O-])cc7F)c7ccc4[nH]7)C=C6)C=C5)cc3)S[C@@H]3CS(=O)(=O)C[C@@H]32)cc1
REMARK SMILES IDX 18 1 16 2 17 3 15 4 14 5 12 6 9 7 10 8 97 9 11 10 90 11
REMARK SMILES IDX 91 12 96 13 92 15 93 16 13 17 94 18 95 19 8 20 7 21 6 22
REMARK SMILES IDX 3 23 4 24 99 25 5 26 98 27 2 28 1 29 19 30 20 31 21 32 22 33
REMARK SMILES IDX 23 34 24 35 25 36 89 37 26 38 88 39 27 40 28 41 29 42 82 43
REMARK SMILES IDX 30 44 87 45 81 46 83 47 31 48 86 49 80 50 79 51 32 53 66 54
REMARK SMILES IDX 45 55 65 56 46 57 49 58 64 59 84 60 47 61 48 62 63 64 85 65
REMARK SMILES IDX 50 66 33 67 34 68 43 69 35 70 36 71 42 72 44 73 37 74 38 75
REMARK SMILES IDX 39 76 40 77 41 78 67 79 68 80 77 81 69 82 70 83 76 84 78 85
REMARK SMILES IDX 71 86 72 87 73 88 74 89 75 90 51 91 52 92 61 93 53 94 54 95
REMARK SMILES IDX 60 96 62 97 55 98 56 99 57 100 58 101 59 102
REMARK H PARENT 11 14 83 52 49 63
REMARK Flexibility Score: inf
ROOT
ATOM      1  O   UNL A   1      33.001  33.357  28.011  1.00  0.00    -0.462 OA
ENDROOT
BRANCH   1   2
ATOM      2  C   UNL A   1      33.629  32.197  27.696  1.00  0.00     0.306 C 
ATOM      3  O   UNL A   1      34.842  32.047  27.649  1.00  0.00    -0.252 OA
BRANCH   2   4
ATOM      4  C   UNL A   1      32.645  31.101  27.369  1.00  0.00     0.135 C 
BRANCH   4   5
ATOM      5  C   UNL A   1      32.924  30.442  26.027  1.00  0.00     0.139 C 
BRANCH   5   6
ATOM      6  C   UNL A   1      33.288  28.979  26.188  1.00  0.00     0.308 C 
ATOM      7  N   UNL A   1      31.518  26.063  24.926  1.00  0.00    -0.251 N 
ATOM      8  C   UNL A   1      32.495  26.884  25.480  1.00  0.00     0.314 C 
ATOM      9  C   UNL A   1      31.988  24.791  24.352  1.00  0.00     0.206 C 
ATOM     10  N   UNL A   1      32.303  28.129  25.754  1.00  0.00    -0.205 N 
ATOM     11  S   UNL A   1      33.994  25.977  25.639  1.00  0.00    -0.030 SA
ATOM     12  C   UNL A   1      33.529  24.871  24.297  1.00  0.00     0.120 C 
ATOM     13  C   UNL A   1      31.478  24.494  22.943  1.00  0.00     0.187 C 
ATOM     14  H   UNL A   1      31.394  28.492  25.646  1.00  0.00     0.316 HD
ATOM     15  C   UNL A   1      33.926  25.493  22.970  1.00  0.00     0.156 C 
ATOM     16  S   UNL A   1      32.848  24.682  21.832  1.00  0.00     0.155 S 
ATOM     17  O   UNL A   1      34.384  28.674  26.647  1.00  0.00    -0.247 OA
ATOM     18  O   UNL A   1      32.481  25.601  20.775  1.00  0.00    -0.229 OA
ATOM     19  O   UNL A   1      33.391  23.367  21.557  1.00  0.00    -0.229 OA
BRANCH   7  20
ATOM     20  C   UNL A   1      30.107  26.469  24.985  1.00  0.00     0.242 C 
BRANCH  20  21
ATOM     21  C   UNL A   1      29.393  26.833  23.676  1.00  0.00     0.081 C 
BRANCH  21  22
ATOM     22  C   UNL A   1      29.027  28.266  23.372  1.00  0.00    -0.044 A 
ATOM     23  C   UNL A   1      28.134  30.923  23.015  1.00  0.00     0.118 A 
ATOM     24  C   UNL A   1      29.479  30.648  23.268  1.00  0.00     0.046 A 
ATOM     25  C   UNL A   1      27.241  29.864  22.885  1.00  0.00     0.046 A 
ATOM     26  C   UNL A   1      29.927  29.333  23.432  1.00  0.00     0.007 A 
ATOM     27  C   UNL A   1      27.684  28.550  23.072  1.00  0.00     0.007 A 
BRANCH  23  28
ATOM     28  O   UNL A   1      27.827  32.252  22.912  1.00  0.00    -0.497 OA
ATOM     29  C   UNL A   1      28.900  33.168  23.082  1.00  0.00     0.278 C 
ENDBRANCH  23  28
ENDBRANCH  21  22
ENDBRANCH  20  21
ENDBRANCH   7  20
ENDBRANCH   5   6
ENDBRANCH   4   5
ENDBRANCH   2   4
ENDBRANCH   1   2
BRANCH   1  30
ATOM     30  C   UNL A   1      33.807  34.550  28.020  1.00  0.00     0.274 C 
BRANCH  30  31
ATOM     31  C   UNL A   1      33.160  35.625  28.892  1.00  0.00     0.275 C 
BRANCH  31  32
ATOM     32  O   UNL A   1      32.572  35.020  30.053  1.00  0.00    -0.458 OA
BRANCH  32  33
ATOM     33  C   UNL A   1      33.048  35.438  31.244  1.00  0.00     0.338 C 
ATOM     34  O   UNL A   1      32.573  36.290  31.981  1.00  0.00    -0.246 OA
BRANCH  33  35
ATOM     35  C   UNL A   1      34.215  34.622  31.585  1.00  0.00     0.060 A 
ATOM     36  C   UNL A   1      34.027  33.437  32.300  1.00  0.00     0.016 A 
ATOM     37  C   UNL A   1      35.494  35.055  31.232  1.00  0.00     0.016 A 
ATOM     38  C   UNL A   1      35.131  32.678  32.682  1.00  0.00     0.010 A 
ATOM     39  C   UNL A   1      36.597  34.291  31.609  1.00  0.00     0.010 A 
ATOM     40  C   UNL A   1      36.422  33.111  32.354  1.00  0.00    -0.014 A 
BRANCH  40  41
ATOM     41  C   UNL A   1      37.602  32.387  32.875  1.00  0.00     0.031 A 
ATOM     42  C   UNL A   1      38.182  32.797  34.199  1.00  0.00     0.074 A 
ATOM     43  C   UNL A   1      38.143  31.377  32.170  1.00  0.00     0.049 A 
ATOM     44  N   UNL A   1      39.256  32.363  34.804  1.00  0.00    -0.248 NA
ATOM     45  C   UNL A   1      37.456  33.845  34.935  1.00  0.00     0.031 C 
ATOM     46  C   UNL A   1      37.644  30.880  30.888  1.00  0.00     0.029 A 
ATOM     47  N   UNL A   1      39.239  30.596  32.430  1.00  0.00    -0.354 N 
ATOM     48  C   UNL A   1      39.346  33.092  35.983  1.00  0.00     0.074 A 
ATOM     49  C   UNL A   1      38.232  34.016  35.997  1.00  0.00     0.031 C 
ATOM     50  C   UNL A   1      38.438  29.880  30.469  1.00  0.00     0.029 A 
ATOM     51  C   UNL A   1      39.517  29.690  31.434  1.00  0.00     0.049 A 
ATOM     52  H   UNL A   1      39.777  30.676  33.251  1.00  0.00     0.167 HD
ATOM     53  C   UNL A   1      40.269  32.993  36.968  1.00  0.00     0.037 A 
ATOM     54  C   UNL A   1      40.539  28.821  31.311  1.00  0.00     0.037 A 
ATOM     55  C   UNL A   1      41.369  32.064  36.944  1.00  0.00     0.049 A 
ATOM     56  C   UNL A   1      41.568  28.745  32.408  1.00  0.00     0.074 A 
ATOM     57  C   UNL A   1      42.369  31.886  37.884  1.00  0.00     0.029 A 
ATOM     58  N   UNL A   1      41.611  31.153  35.926  1.00  0.00    -0.354 N 
ATOM     59  N   UNL A   1      41.647  29.446  33.514  1.00  0.00    -0.248 NA
ATOM     60  C   UNL A   1      42.642  27.757  32.244  1.00  0.00     0.031 C 
ATOM     61  C   UNL A   1      43.231  30.886  37.419  1.00  0.00     0.029 A 
ATOM     62  C   UNL A   1      42.744  30.411  36.212  1.00  0.00     0.049 A 
ATOM     63  H   UNL A   1      41.057  31.050  35.118  1.00  0.00     0.167 HD
ATOM     64  C   UNL A   1      42.760  28.962  34.194  1.00  0.00     0.074 A 
ATOM     65  C   UNL A   1      43.319  27.904  33.375  1.00  0.00     0.031 C 
ATOM     66  C   UNL A   1      43.272  29.353  35.388  1.00  0.00     0.037 A 
BRANCH  53  67
ATOM     67  C   UNL A   1      40.137  33.927  38.138  1.00  0.00     0.058 A 
ATOM     68  C   UNL A   1      39.352  33.604  39.256  1.00  0.00     0.135 A 
ATOM     69  C   UNL A   1      40.810  35.160  38.146  1.00  0.00     0.135 A 
ATOM     70  F   UNL A   1      38.669  32.448  39.291  1.00  0.00    -0.206 F 
ATOM     71  C   UNL A   1      39.215  34.481  40.328  1.00  0.00     0.059 A 
ATOM     72  C   UNL A   1      40.708  36.041  39.219  1.00  0.00     0.059 A 
ATOM     73  F   UNL A   1      41.570  35.522  37.101  1.00  0.00    -0.206 F 
ATOM     74  C   UNL A   1      39.895  35.699  40.298  1.00  0.00     0.060 A 
BRANCH  74  75
ATOM     75  S   UNL A   1      39.706  36.830  41.693  1.00  0.00     0.124 S 
ATOM     76  O   UNL A   1      39.048  37.968  41.057  1.00  0.00    -0.237 OA
ATOM     77  O   UNL A   1      38.882  36.056  42.616  1.00  0.00    -0.237 OA
ATOM     78  O   UNL A   1      41.079  37.064  42.129  1.00  0.00    -0.744 OA
ENDBRANCH  74  75
ENDBRANCH  53  67
BRANCH  54  79
ATOM     79  C   UNL A   1      40.636  27.955  30.107  1.00  0.00     0.058 A 
ATOM     80  C   UNL A   1      39.720  26.915  29.886  1.00  0.00     0.135 A 
ATOM     81  C   UNL A   1      41.640  28.155  29.147  1.00  0.00     0.135 A 
ATOM     82  F   UNL A   1      38.747  26.678  30.780  1.00  0.00    -0.206 F 
ATOM     83  C   UNL A   1      39.804  26.095  28.765  1.00  0.00     0.059 A 
ATOM     84  C   UNL A   1      41.729  27.365  28.005  1.00  0.00     0.059 A 
ATOM     85  F   UNL A   1      42.532  29.145  29.304  1.00  0.00    -0.206 F 
ATOM     86  C   UNL A   1      40.812  26.329  27.829  1.00  0.00     0.060 A 
BRANCH  86  87
ATOM     87  S   UNL A   1      40.884  25.291  26.353  1.00  0.00     0.124 S 
ATOM     88  O   UNL A   1      39.557  24.687  26.354  1.00  0.00    -0.237 OA
ATOM     89  O   UNL A   1      41.141  26.268  25.300  1.00  0.00    -0.237 OA
ATOM     90  O   UNL A   1      41.992  24.383  26.638  1.00  0.00    -0.744 OA
ENDBRANCH  86  87
ENDBRANCH  54  79
BRANCH  66  91
ATOM     91  C   UNL A   1      44.464  28.597  35.904  1.00  0.00     0.058 A 
ATOM     92  C   UNL A   1      44.327  27.451  36.703  1.00  0.00     0.135 A 
ATOM     93  C   UNL A   1      45.762  29.007  35.558  1.00  0.00     0.135 A 
ATOM     94  F   UNL A   1      43.108  27.022  37.062  1.00  0.00    -0.206 F 
ATOM     95  C   UNL A   1      45.437  26.755  37.167  1.00  0.00     0.059 A 
ATOM     96  C   UNL A   1      46.886  28.310  35.991  1.00  0.00     0.059 A 
ATOM     97  F   UNL A   1      45.947  30.089  34.786  1.00  0.00    -0.206 F 
ATOM     98  C   UNL A   1      46.713  27.193  36.808  1.00  0.00     0.060 A 
BRANCH  98  99
ATOM     99  S   UNL A   1      48.148  26.272  37.399  1.00  0.00     0.124 S 
ATOM    100  O   UNL A   1      49.175  27.308  37.414  1.00  0.00    -0.237 OA
ATOM    101  O   UNL A   1      47.704  25.802  38.707  1.00  0.00    -0.237 OA
ATOM    102  O   UNL A   1      48.321  25.229  36.392  1.00  0.00    -0.744 OA
ENDBRANCH  98  99
ENDBRANCH  66  91
ENDBRANCH  40  41
ENDBRANCH  33  35
ENDBRANCH  32  33
ENDBRANCH  31  32
ENDBRANCH  30  31
ENDBRANCH   1  30
TORSDOF 20
ENDMDL
