MODEL 1
REMARK VINA RESULT:     -10.9      0.000      0.000
REMARK SMILES CC(C)C[C@H](CNC(=O)NC[C@H]1CCC(=O)N1)C(=O)OCCOC(=O)c1ccc(-c2c3nc(c(-c4c(F)cc(S(=O)(=O)[O-])cc4F)c4ccc([nH]4)c(-c4c(F)cc(S(=O)(=O)[O-])cc4F)c4nc(c(-c5c(F)cc(S(=O)(=O)[O-])cc5F)c5ccc2[nH]5)C=C4)C=C3)cc1
REMARK SMILES IDX 21 1 20 2 18 3 19 4 5 5 4 6 2 7 1 8 3 9 6 10 7 11 8 12 9 14
REMARK SMILES IDX 10 15 11 17 12 18 13 19 17 20 14 21 15 22 16 24 22 25 23 26
REMARK SMILES IDX 24 27 25 28 26 29 27 30 91 31 28 32 90 33 29 34 30 35 31 36
REMARK SMILES IDX 84 37 32 38 89 39 83 40 85 41 33 42 88 43 82 44 81 45 34 47
REMARK SMILES IDX 68 48 47 49 67 50 48 51 51 52 66 53 86 54 49 55 50 56 65 58
REMARK SMILES IDX 87 59 52 60 35 61 36 62 45 63 37 64 38 65 44 66 46 67 39 68
REMARK SMILES IDX 40 69 41 70 42 71 43 72 69 73 70 74 79 75 71 76 72 77 78 78
REMARK SMILES IDX 80 79 73 80 74 81 75 82 76 83 77 84 53 85 54 86 63 87 55 88
REMARK SMILES IDX 56 89 62 90 64 91 57 92 58 93 59 94 60 95 61 96
REMARK H PARENT 7 13 10 16 17 23 85 46 51 57
REMARK Flexibility Score: inf
ROOT
ATOM      1  C   UNL A   1      34.652  31.655  28.400  1.00  0.00     0.274 C 
ENDROOT
BRANCH   1   2
ATOM      2  O   UNL A   1      34.233  30.879  27.260  1.00  0.00    -0.462 OA
BRANCH   2   3
ATOM      3  C   UNL A   1      34.424  29.540  27.323  1.00  0.00     0.310 C 
ATOM      4  O   UNL A   1      35.270  28.994  28.022  1.00  0.00    -0.252 OA
BRANCH   3   5
ATOM      5  C   UNL A   1      33.501  28.755  26.410  1.00  0.00     0.119 C 
BRANCH   5   6
ATOM      6  C   UNL A   1      34.045  27.419  25.872  1.00  0.00     0.020 C 
BRANCH   6   7
ATOM      7  C   UNL A   1      33.155  26.164  25.856  1.00  0.00    -0.017 C 
ATOM      8  C   UNL A   1      31.797  26.361  26.534  1.00  0.00     0.007 C 
ATOM      9  C   UNL A   1      32.909  25.771  24.391  1.00  0.00     0.007 C 
ENDBRANCH   6   7
ENDBRANCH   5   6
BRANCH   5  10
ATOM     10  C   UNL A   1      32.773  29.606  25.344  1.00  0.00     0.133 C 
BRANCH  10  11
ATOM     11  N   UNL A   1      33.299  29.514  24.001  1.00  0.00    -0.337 N 
ATOM     12  C   UNL A   1      32.851  28.997  22.858  1.00  0.00     0.314 C 
ATOM     13  H   UNL A   1      34.189  29.925  23.910  1.00  0.00     0.165 HD
ATOM     14  O   UNL A   1      33.666  28.646  22.002  1.00  0.00    -0.249 OA
ATOM     15  N   UNL A   1      31.555  28.839  22.578  1.00  0.00    -0.336 N 
ATOM     16  H   UNL A   1      31.395  28.180  21.864  1.00  0.00     0.165 HD
BRANCH  15  17
ATOM     17  C   UNL A   1      30.330  29.423  23.092  1.00  0.00     0.142 C 
BRANCH  17  18
ATOM     18  C   UNL A   1      29.469  30.178  22.055  1.00  0.00     0.101 C 
ATOM     19  C   UNL A   1      27.960  30.039  22.236  1.00  0.00     0.036 C 
ATOM     20  N   UNL A   1      29.671  31.602  22.039  1.00  0.00    -0.352 N 
ATOM     21  C   UNL A   1      27.511  31.333  22.906  1.00  0.00     0.102 C 
ATOM     22  C   UNL A   1      28.589  32.307  22.519  1.00  0.00     0.220 C 
ATOM     23  H   UNL A   1      30.498  32.030  21.718  1.00  0.00     0.163 HD
ATOM     24  O   UNL A   1      28.540  33.524  22.617  1.00  0.00    -0.275 OA
ENDBRANCH  17  18
ENDBRANCH  15  17
ENDBRANCH  10  11
ENDBRANCH   5  10
ENDBRANCH   3   5
ENDBRANCH   2   3
ENDBRANCH   1   2
BRANCH   1  25
ATOM     25  C   UNL A   1      36.030  32.297  28.198  1.00  0.00     0.275 C 
BRANCH  25  26
ATOM     26  O   UNL A   1      36.752  32.423  29.439  1.00  0.00    -0.458 OA
BRANCH  26  27
ATOM     27  C   UNL A   1      36.957  31.259  30.097  1.00  0.00     0.338 C 
ATOM     28  O   UNL A   1      36.163  30.694  30.835  1.00  0.00    -0.246 OA
BRANCH  27  29
ATOM     29  C   UNL A   1      38.213  30.624  29.647  1.00  0.00     0.060 A 
ATOM     30  C   UNL A   1      39.266  30.573  30.566  1.00  0.00     0.016 A 
ATOM     31  C   UNL A   1      38.392  30.137  28.353  1.00  0.00     0.016 A 
ATOM     32  C   UNL A   1      40.503  30.060  30.207  1.00  0.00     0.010 A 
ATOM     33  C   UNL A   1      39.644  29.629  27.982  1.00  0.00     0.010 A 
ATOM     34  C   UNL A   1      40.708  29.608  28.904  1.00  0.00    -0.014 A 
BRANCH  34  35
ATOM     35  C   UNL A   1      42.086  29.257  28.495  1.00  0.00     0.031 A 
ATOM     36  C   UNL A   1      42.371  27.848  28.060  1.00  0.00     0.074 A 
ATOM     37  C   UNL A   1      43.037  30.205  28.424  1.00  0.00     0.049 A 
ATOM     38  N   UNL A   1      43.500  27.310  27.684  1.00  0.00    -0.248 NA
ATOM     39  C   UNL A   1      41.225  26.924  28.039  1.00  0.00     0.031 C 
ATOM     40  C   UNL A   1      42.843  31.622  28.735  1.00  0.00     0.029 A 
ATOM     41  N   UNL A   1      44.356  30.120  28.056  1.00  0.00    -0.354 N 
ATOM     42  C   UNL A   1      43.209  25.978  27.411  1.00  0.00     0.074 A 
ATOM     43  C   UNL A   1      41.799  25.789  27.671  1.00  0.00     0.031 C 
ATOM     44  C   UNL A   1      44.002  32.275  28.541  1.00  0.00     0.029 A 
ATOM     45  C   UNL A   1      45.028  31.316  28.137  1.00  0.00     0.049 A 
ATOM     46  H   UNL A   1      44.779  29.282  27.761  1.00  0.00     0.167 HD
ATOM     47  C   UNL A   1      44.047  25.004  26.984  1.00  0.00     0.037 A 
ATOM     48  C   UNL A   1      46.329  31.595  27.931  1.00  0.00     0.037 A 
ATOM     49  C   UNL A   1      45.446  25.213  26.717  1.00  0.00     0.049 A 
ATOM     50  C   UNL A   1      47.255  30.479  27.524  1.00  0.00     0.074 A 
ATOM     51  C   UNL A   1      46.386  24.297  26.281  1.00  0.00     0.029 A 
ATOM     52  N   UNL A   1      46.106  26.425  26.863  1.00  0.00    -0.354 N 
ATOM     53  N   UNL A   1      46.977  29.217  27.290  1.00  0.00    -0.248 NA
ATOM     54  C   UNL A   1      48.675  30.821  27.357  1.00  0.00     0.031 C 
ATOM     55  C   UNL A   1      47.625  24.944  26.209  1.00  0.00     0.029 A 
ATOM     56  C   UNL A   1      47.446  26.277  26.547  1.00  0.00     0.049 A 
ATOM     57  H   UNL A   1      45.683  27.267  27.149  1.00  0.00     0.167 HD
ATOM     58  C   UNL A   1      48.177  28.623  26.919  1.00  0.00     0.074 A 
ATOM     59  C   UNL A   1      49.183  29.666  26.952  1.00  0.00     0.031 C 
ATOM     60  C   UNL A   1      48.428  27.333  26.578  1.00  0.00     0.037 A 
BRANCH  47  61
ATOM     61  C   UNL A   1      43.479  23.620  26.838  1.00  0.00     0.058 A 
ATOM     62  C   UNL A   1      43.210  22.802  27.946  1.00  0.00     0.135 A 
ATOM     63  C   UNL A   1      43.206  23.104  25.561  1.00  0.00     0.135 A 
ATOM     64  F   UNL A   1      43.474  23.235  29.188  1.00  0.00    -0.206 F 
ATOM     65  C   UNL A   1      42.719  21.508  27.791  1.00  0.00     0.059 A 
ATOM     66  C   UNL A   1      42.690  21.824  25.383  1.00  0.00     0.059 A 
ATOM     67  F   UNL A   1      43.450  23.841  24.467  1.00  0.00    -0.206 F 
ATOM     68  C   UNL A   1      42.467  21.027  26.505  1.00  0.00     0.060 A 
BRANCH  68  69
ATOM     69  S   UNL A   1      41.845  19.341  26.317  1.00  0.00     0.124 S 
ATOM     70  O   UNL A   1      42.529  18.914  25.101  1.00  0.00    -0.237 OA
ATOM     71  O   UNL A   1      42.291  18.704  27.552  1.00  0.00    -0.237 OA
ATOM     72  O   UNL A   1      40.402  19.524  26.195  1.00  0.00    -0.744 OA
ENDBRANCH  68  69
ENDBRANCH  47  61
BRANCH  48  73
ATOM     73  C   UNL A   1      46.837  32.981  28.117  1.00  0.00     0.058 A 
ATOM     74  C   UNL A   1      46.850  33.897  27.056  1.00  0.00     0.135 A 
ATOM     75  C   UNL A   1      47.320  33.417  29.362  1.00  0.00     0.135 A 
ATOM     76  F   UNL A   1      46.411  33.526  25.843  1.00  0.00    -0.206 F 
ATOM     77  C   UNL A   1      47.336  35.191  27.215  1.00  0.00     0.059 A 
ATOM     78  C   UNL A   1      47.785  34.715  29.553  1.00  0.00     0.059 A 
ATOM     79  F   UNL A   1      47.323  32.582  30.413  1.00  0.00    -0.206 F 
ATOM     80  C   UNL A   1      47.798  35.592  28.470  1.00  0.00     0.060 A 
BRANCH  80  81
ATOM     81  S   UNL A   1      48.380  37.290  28.679  1.00  0.00     0.124 S 
ATOM     82  O   UNL A   1      49.607  37.089  29.439  1.00  0.00    -0.237 OA
ATOM     83  O   UNL A   1      48.549  37.727  27.296  1.00  0.00    -0.237 OA
ATOM     84  O   UNL A   1      47.286  37.932  29.401  1.00  0.00    -0.744 OA
ENDBRANCH  80  81
ENDBRANCH  48  73
BRANCH  60  85
ATOM     85  C   UNL A   1      49.833  26.991  26.168  1.00  0.00     0.058 A 
ATOM     86  C   UNL A   1      50.760  26.455  27.075  1.00  0.00     0.135 A 
ATOM     87  C   UNL A   1      50.244  27.170  24.837  1.00  0.00     0.135 A 
ATOM     88  F   UNL A   1      50.420  26.269  28.359  1.00  0.00    -0.206 F 
ATOM     89  C   UNL A   1      52.057  26.137  26.683  1.00  0.00     0.059 A 
ATOM     90  C   UNL A   1      51.526  26.833  24.417  1.00  0.00     0.059 A 
ATOM     91  F   UNL A   1      49.391  27.667  23.927  1.00  0.00    -0.206 F 
ATOM     92  C   UNL A   1      52.431  26.331  25.351  1.00  0.00     0.060 A 
BRANCH  92  93
ATOM     93  S   UNL A   1      54.111  25.901  24.850  1.00  0.00     0.124 S 
ATOM     94  O   UNL A   1      54.130  24.463  25.093  1.00  0.00    -0.237 OA
ATOM     95  O   UNL A   1      54.134  26.308  23.448  1.00  0.00    -0.237 OA
ATOM     96  O   UNL A   1      54.946  26.700  25.742  1.00  0.00    -0.744 OA
ENDBRANCH  92  93
ENDBRANCH  60  85
ENDBRANCH  34  35
ENDBRANCH  27  29
ENDBRANCH  26  27
ENDBRANCH  25  26
ENDBRANCH   1  25
TORSDOF 20
ENDMDL
MODEL 2
REMARK VINA RESULT:     -10.8      4.327      9.750
REMARK SMILES CC(C)C[C@H](CNC(=O)NC[C@H]1CCC(=O)N1)C(=O)OCCOC(=O)c1ccc(-c2c3nc(c(-c4c(F)cc(S(=O)(=O)[O-])cc4F)c4ccc([nH]4)c(-c4c(F)cc(S(=O)(=O)[O-])cc4F)c4nc(c(-c5c(F)cc(S(=O)(=O)[O-])cc5F)c5ccc2[nH]5)C=C4)C=C3)cc1
REMARK SMILES IDX 21 1 20 2 18 3 19 4 5 5 4 6 2 7 1 8 3 9 6 10 7 11 8 12 9 14
REMARK SMILES IDX 10 15 11 17 12 18 13 19 17 20 14 21 15 22 16 24 22 25 23 26
REMARK SMILES IDX 24 27 25 28 26 29 27 30 91 31 28 32 90 33 29 34 30 35 31 36
REMARK SMILES IDX 84 37 32 38 89 39 83 40 85 41 33 42 88 43 82 44 81 45 34 47
REMARK SMILES IDX 68 48 47 49 67 50 48 51 51 52 66 53 86 54 49 55 50 56 65 58
REMARK SMILES IDX 87 59 52 60 35 61 36 62 45 63 37 64 38 65 44 66 46 67 39 68
REMARK SMILES IDX 40 69 41 70 42 71 43 72 69 73 70 74 79 75 71 76 72 77 78 78
REMARK SMILES IDX 80 79 73 80 74 81 75 82 76 83 77 84 53 85 54 86 63 87 55 88
REMARK SMILES IDX 56 89 62 90 64 91 57 92 58 93 59 94 60 95 61 96
REMARK H PARENT 7 13 10 16 17 23 85 46 51 57
REMARK Flexibility Score: inf
ROOT
ATOM      1  C   UNL A   1      36.195  22.018  24.309  1.00  0.00     0.274 C 
ENDROOT
BRANCH   1   2
ATOM      2  O   UNL A   1      35.642  23.048  23.467  1.00  0.00    -0.462 OA
BRANCH   2   3
ATOM      3  C   UNL A   1      34.677  23.831  24.006  1.00  0.00     0.310 C 
ATOM      4  O   UNL A   1      34.890  24.754  24.785  1.00  0.00    -0.252 OA
BRANCH   3   5
ATOM      5  C   UNL A   1      33.274  23.440  23.581  1.00  0.00     0.119 C 
BRANCH   5   6
ATOM      6  C   UNL A   1      32.493  24.481  22.758  1.00  0.00     0.020 C 
BRANCH   6   7
ATOM      7  C   UNL A   1      33.227  25.408  21.775  1.00  0.00    -0.017 C 
ATOM      8  C   UNL A   1      32.512  25.576  20.432  1.00  0.00     0.007 C 
ATOM      9  C   UNL A   1      33.354  26.793  22.428  1.00  0.00     0.007 C 
ENDBRANCH   6   7
ENDBRANCH   5   6
BRANCH   5  10
ATOM     10  C   UNL A   1      32.432  22.760  24.685  1.00  0.00     0.133 C 
BRANCH  10  11
ATOM     11  N   UNL A   1      33.071  22.636  25.975  1.00  0.00    -0.337 N 
ATOM     12  C   UNL A   1      33.247  21.633  26.835  1.00  0.00     0.314 C 
ATOM     13  H   UNL A   1      33.464  23.481  26.291  1.00  0.00     0.165 HD
ATOM     14  O   UNL A   1      33.405  21.893  28.030  1.00  0.00    -0.249 OA
ATOM     15  N   UNL A   1      33.267  20.348  26.475  1.00  0.00    -0.336 N 
ATOM     16  H   UNL A   1      33.093  19.736  27.227  1.00  0.00     0.165 HD
BRANCH  15  17
ATOM     17  C   UNL A   1      33.490  19.651  25.221  1.00  0.00     0.142 C 
BRANCH  17  18
ATOM     18  C   UNL A   1      32.802  18.274  25.096  1.00  0.00     0.101 C 
ATOM     19  C   UNL A   1      32.696  17.726  23.676  1.00  0.00     0.036 C 
ATOM     20  N   UNL A   1      33.459  17.214  25.812  1.00  0.00    -0.352 N 
ATOM     21  C   UNL A   1      33.811  16.693  23.555  1.00  0.00     0.102 C 
ATOM     22  C   UNL A   1      34.056  16.290  24.983  1.00  0.00     0.220 C 
ATOM     23  H   UNL A   1      33.481  17.155  26.795  1.00  0.00     0.163 HD
ATOM     24  O   UNL A   1      34.686  15.316  25.367  1.00  0.00    -0.275 OA
ENDBRANCH  17  18
ENDBRANCH  15  17
ENDBRANCH  10  11
ENDBRANCH   5  10
ENDBRANCH   3   5
ENDBRANCH   2   3
ENDBRANCH   1   2
BRANCH   1  25
ATOM     25  C   UNL A   1      37.686  22.237  24.600  1.00  0.00     0.275 C 
BRANCH  25  26
ATOM     26  O   UNL A   1      37.945  22.370  26.011  1.00  0.00    -0.458 OA
BRANCH  26  27
ATOM     27  C   UNL A   1      39.243  22.233  26.365  1.00  0.00     0.338 C 
ATOM     28  O   UNL A   1      39.982  21.306  26.064  1.00  0.00    -0.246 OA
BRANCH  27  29
ATOM     29  C   UNL A   1      39.739  23.468  27.006  1.00  0.00     0.060 A 
ATOM     30  C   UNL A   1      39.228  24.681  26.532  1.00  0.00     0.016 A 
ATOM     31  C   UNL A   1      40.712  23.463  28.004  1.00  0.00     0.016 A 
ATOM     32  C   UNL A   1      39.689  25.891  27.026  1.00  0.00     0.010 A 
ATOM     33  C   UNL A   1      41.190  24.684  28.497  1.00  0.00     0.010 A 
ATOM     34  C   UNL A   1      40.692  25.901  27.994  1.00  0.00    -0.014 A 
BRANCH  34  35
ATOM     35  C   UNL A   1      41.303  27.201  28.352  1.00  0.00     0.031 A 
ATOM     36  C   UNL A   1      42.768  27.404  28.091  1.00  0.00     0.074 A 
ATOM     37  C   UNL A   1      40.540  28.208  28.812  1.00  0.00     0.049 A 
ATOM     38  N   UNL A   1      43.518  28.444  28.343  1.00  0.00    -0.248 NA
ATOM     39  C   UNL A   1      43.481  26.286  27.452  1.00  0.00     0.031 C 
ATOM     40  C   UNL A   1      39.091  28.146  29.014  1.00  0.00     0.029 A 
ATOM     41  N   UNL A   1      40.876  29.486  29.180  1.00  0.00    -0.354 N 
ATOM     42  C   UNL A   1      44.797  28.097  27.923  1.00  0.00     0.074 A 
ATOM     43  C   UNL A   1      44.723  26.747  27.406  1.00  0.00     0.031 C 
ATOM     44  C   UNL A   1      38.662  29.336  29.468  1.00  0.00     0.029 A 
ATOM     45  C   UNL A   1      39.809  30.226  29.631  1.00  0.00     0.049 A 
ATOM     46  H   UNL A   1      41.793  29.838  29.126  1.00  0.00     0.167 HD
ATOM     47  C   UNL A   1      45.928  28.839  27.968  1.00  0.00     0.037 A 
ATOM     48  C   UNL A   1      39.772  31.473  30.139  1.00  0.00     0.037 A 
ATOM     49  C   UNL A   1      45.981  30.186  28.473  1.00  0.00     0.049 A 
ATOM     50  C   UNL A   1      41.058  32.252  30.243  1.00  0.00     0.074 A 
ATOM     51  C   UNL A   1      47.074  31.028  28.566  1.00  0.00     0.029 A 
ATOM     52  N   UNL A   1      44.893  30.886  28.973  1.00  0.00    -0.354 N 
ATOM     53  N   UNL A   1      42.267  31.908  29.865  1.00  0.00    -0.248 NA
ATOM     54  C   UNL A   1      40.976  33.589  30.848  1.00  0.00     0.031 C 
ATOM     55  C   UNL A   1      46.655  32.221  29.166  1.00  0.00     0.029 A 
ATOM     56  C   UNL A   1      45.290  32.143  29.397  1.00  0.00     0.049 A 
ATOM     57  H   UNL A   1      43.972  30.539  29.020  1.00  0.00     0.167 HD
ATOM     58  C   UNL A   1      43.082  32.994  30.157  1.00  0.00     0.074 A 
ATOM     59  C   UNL A   1      42.227  34.011  30.736  1.00  0.00     0.031 C 
ATOM     60  C   UNL A   1      44.418  33.143  29.962  1.00  0.00     0.037 A 
BRANCH  47  61
ATOM     61  C   UNL A   1      47.202  28.184  27.512  1.00  0.00     0.058 A 
ATOM     62  C   UNL A   1      48.077  27.547  28.405  1.00  0.00     0.135 A 
ATOM     63  C   UNL A   1      47.552  28.201  26.152  1.00  0.00     0.135 A 
ATOM     64  F   UNL A   1      47.804  27.522  29.718  1.00  0.00    -0.206 F 
ATOM     65  C   UNL A   1      49.272  26.979  27.970  1.00  0.00     0.059 A 
ATOM     66  C   UNL A   1      48.727  27.615  25.690  1.00  0.00     0.059 A 
ATOM     67  F   UNL A   1      46.754  28.801  25.255  1.00  0.00    -0.206 F 
ATOM     68  C   UNL A   1      49.589  27.022  26.611  1.00  0.00     0.060 A 
BRANCH  68  69
ATOM     69  S   UNL A   1      51.148  26.294  26.063  1.00  0.00     0.124 S 
ATOM     70  O   UNL A   1      51.048  26.452  24.615  1.00  0.00    -0.237 OA
ATOM     71  O   UNL A   1      52.137  27.138  26.725  1.00  0.00    -0.237 OA
ATOM     72  O   UNL A   1      51.072  24.921  26.550  1.00  0.00    -0.744 OA
ENDBRANCH  68  69
ENDBRANCH  47  61
BRANCH  48  73
ATOM     73  C   UNL A   1      38.484  32.057  30.600  1.00  0.00     0.058 A 
ATOM     74  C   UNL A   1      37.620  32.703  29.704  1.00  0.00     0.135 A 
ATOM     75  C   UNL A   1      38.091  31.982  31.946  1.00  0.00     0.135 A 
ATOM     76  F   UNL A   1      37.955  32.812  28.409  1.00  0.00    -0.206 F 
ATOM     77  C   UNL A   1      36.418  33.264  30.125  1.00  0.00     0.059 A 
ATOM     78  C   UNL A   1      36.882  32.512  32.387  1.00  0.00     0.059 A 
ATOM     79  F   UNL A   1      38.878  31.368  32.843  1.00  0.00    -0.206 F 
ATOM     80  C   UNL A   1      36.056  33.160  31.470  1.00  0.00     0.060 A 
BRANCH  80  81
ATOM     81  S   UNL A   1      34.472  33.849  31.998  1.00  0.00     0.124 S 
ATOM     82  O   UNL A   1      34.899  34.910  32.901  1.00  0.00    -0.237 OA
ATOM     83  O   UNL A   1      33.890  34.284  30.731  1.00  0.00    -0.237 OA
ATOM     84  O   UNL A   1      33.806  32.713  32.627  1.00  0.00    -0.744 OA
ENDBRANCH  80  81
ENDBRANCH  48  73
BRANCH  60  85
ATOM     85  C   UNL A   1      45.024  34.467  30.334  1.00  0.00     0.058 A 
ATOM     86  C   UNL A   1      45.567  34.704  31.606  1.00  0.00     0.135 A 
ATOM     87  C   UNL A   1      45.095  35.502  29.387  1.00  0.00     0.135 A 
ATOM     88  F   UNL A   1      45.520  33.750  32.548  1.00  0.00    -0.206 F 
ATOM     89  C   UNL A   1      46.130  35.932  31.937  1.00  0.00     0.059 A 
ATOM     90  C   UNL A   1      45.679  36.728  29.688  1.00  0.00     0.059 A 
ATOM     91  F   UNL A   1      44.602  35.323  28.150  1.00  0.00    -0.206 F 
ATOM     92  C   UNL A   1      46.180  36.939  30.971  1.00  0.00     0.060 A 
BRANCH  92  93
ATOM     93  S   UNL A   1      46.928  38.523  31.406  1.00  0.00     0.124 S 
ATOM     94  O   UNL A   1      47.919  38.117  32.396  1.00  0.00    -0.237 OA
ATOM     95  O   UNL A   1      47.458  38.982  30.126  1.00  0.00    -0.237 OA
ATOM     96  O   UNL A   1      45.803  39.297  31.923  1.00  0.00    -0.744 OA
ENDBRANCH  92  93
ENDBRANCH  60  85
ENDBRANCH  34  35
ENDBRANCH  27  29
ENDBRANCH  26  27
ENDBRANCH  25  26
ENDBRANCH   1  25
TORSDOF 20
ENDMDL
MODEL 3
REMARK VINA RESULT:     -10.8      5.020      9.659
REMARK SMILES CC(C)C[C@H](CNC(=O)NC[C@H]1CCC(=O)N1)C(=O)OCCOC(=O)c1ccc(-c2c3nc(c(-c4c(F)cc(S(=O)(=O)[O-])cc4F)c4ccc([nH]4)c(-c4c(F)cc(S(=O)(=O)[O-])cc4F)c4nc(c(-c5c(F)cc(S(=O)(=O)[O-])cc5F)c5ccc2[nH]5)C=C4)C=C3)cc1
REMARK SMILES IDX 21 1 20 2 18 3 19 4 5 5 4 6 2 7 1 8 3 9 6 10 7 11 8 12 9 14
REMARK SMILES IDX 10 15 11 17 12 18 13 19 17 20 14 21 15 22 16 24 22 25 23 26
REMARK SMILES IDX 24 27 25 28 26 29 27 30 91 31 28 32 90 33 29 34 30 35 31 36
REMARK SMILES IDX 84 37 32 38 89 39 83 40 85 41 33 42 88 43 82 44 81 45 34 47
REMARK SMILES IDX 68 48 47 49 67 50 48 51 51 52 66 53 86 54 49 55 50 56 65 58
REMARK SMILES IDX 87 59 52 60 35 61 36 62 45 63 37 64 38 65 44 66 46 67 39 68
REMARK SMILES IDX 40 69 41 70 42 71 43 72 69 73 70 74 79 75 71 76 72 77 78 78
REMARK SMILES IDX 80 79 73 80 74 81 75 82 76 83 77 84 53 85 54 86 63 87 55 88
REMARK SMILES IDX 56 89 62 90 64 91 57 92 58 93 59 94 60 95 61 96
REMARK H PARENT 7 13 10 16 17 23 85 46 51 57
REMARK Flexibility Score: inf
ROOT
ATOM      1  C   UNL A   1      33.235  29.289  25.302  1.00  0.00     0.274 C 
ENDROOT
BRANCH   1   2
ATOM      2  O   UNL A   1      32.412  29.696  24.192  1.00  0.00    -0.462 OA
BRANCH   2   3
ATOM      3  C   UNL A   1      32.421  28.901  23.095  1.00  0.00     0.310 C 
ATOM      4  O   UNL A   1      33.438  28.533  22.517  1.00  0.00    -0.252 OA
BRANCH   3   5
ATOM      5  C   UNL A   1      31.034  28.522  22.612  1.00  0.00     0.119 C 
BRANCH   5   6
ATOM      6  C   UNL A   1      29.852  29.220  23.309  1.00  0.00     0.020 C 
BRANCH   6   7
ATOM      7  C   UNL A   1      28.489  29.334  22.605  1.00  0.00    -0.017 C 
ATOM      8  C   UNL A   1      27.400  28.450  23.218  1.00  0.00     0.007 C 
ATOM      9  C   UNL A   1      28.027  30.797  22.694  1.00  0.00     0.007 C 
ENDBRANCH   6   7
ENDBRANCH   5   6
BRANCH   5  10
ATOM     10  C   UNL A   1      30.821  27.006  22.393  1.00  0.00     0.133 C 
BRANCH  10  11
ATOM     11  N   UNL A   1      31.500  26.434  21.253  1.00  0.00    -0.337 N 
ATOM     12  C   UNL A   1      32.541  25.616  21.102  1.00  0.00     0.314 C 
ATOM     13  H   UNL A   1      31.106  26.712  20.394  1.00  0.00     0.165 HD
ATOM     14  O   UNL A   1      33.186  25.660  20.053  1.00  0.00    -0.249 OA
ATOM     15  N   UNL A   1      32.928  24.737  22.029  1.00  0.00    -0.336 N 
ATOM     16  H   UNL A   1      33.861  24.443  21.912  1.00  0.00     0.165 HD
BRANCH  15  17
ATOM     17  C   UNL A   1      32.280  24.119  23.171  1.00  0.00     0.142 C 
BRANCH  17  18
ATOM     18  C   UNL A   1      33.036  24.245  24.512  1.00  0.00     0.101 C 
ATOM     19  C   UNL A   1      33.058  25.646  25.117  1.00  0.00     0.036 C 
ATOM     20  N   UNL A   1      32.502  23.434  25.573  1.00  0.00    -0.352 N 
ATOM     21  C   UNL A   1      32.000  25.631  26.214  1.00  0.00     0.102 C 
ATOM     22  C   UNL A   1      31.896  24.173  26.565  1.00  0.00     0.220 C 
ATOM     23  H   UNL A   1      32.564  22.452  25.590  1.00  0.00     0.163 HD
ATOM     24  O   UNL A   1      31.358  23.698  27.555  1.00  0.00    -0.275 OA
ENDBRANCH  17  18
ENDBRANCH  15  17
ENDBRANCH  10  11
ENDBRANCH   5  10
ENDBRANCH   3   5
ENDBRANCH   2   3
ENDBRANCH   1   2
BRANCH   1  25
ATOM     25  C   UNL A   1      32.659  29.734  26.653  1.00  0.00     0.275 C 
BRANCH  25  26
ATOM     26  O   UNL A   1      33.630  29.629  27.713  1.00  0.00    -0.458 OA
BRANCH  26  27
ATOM     27  C   UNL A   1      34.525  30.643  27.765  1.00  0.00     0.338 C 
ATOM     28  O   UNL A   1      34.274  31.836  27.673  1.00  0.00    -0.246 OA
BRANCH  27  29
ATOM     29  C   UNL A   1      35.855  30.139  28.162  1.00  0.00     0.060 A 
ATOM     30  C   UNL A   1      35.963  29.551  29.426  1.00  0.00     0.016 A 
ATOM     31  C   UNL A   1      36.985  30.276  27.357  1.00  0.00     0.016 A 
ATOM     32  C   UNL A   1      37.188  29.115  29.908  1.00  0.00     0.010 A 
ATOM     33  C   UNL A   1      38.227  29.848  27.846  1.00  0.00     0.010 A 
ATOM     34  C   UNL A   1      38.333  29.285  29.131  1.00  0.00    -0.014 A 
BRANCH  34  35
ATOM     35  C   UNL A   1      39.646  28.997  29.751  1.00  0.00     0.031 A 
ATOM     36  C   UNL A   1      40.045  29.764  30.979  1.00  0.00     0.074 A 
ATOM     37  C   UNL A   1      40.418  28.003  29.278  1.00  0.00     0.049 A 
ATOM     38  N   UNL A   1      41.150  29.697  31.674  1.00  0.00    -0.248 NA
ATOM     39  C   UNL A   1      39.062  30.729  31.498  1.00  0.00     0.031 C 
ATOM     40  C   UNL A   1      40.081  27.136  28.148  1.00  0.00     0.029 A 
ATOM     41  N   UNL A   1      41.641  27.547  29.699  1.00  0.00    -0.354 N 
ATOM     42  C   UNL A   1      41.009  30.633  32.693  1.00  0.00     0.074 A 
ATOM     43  C   UNL A   1      39.716  31.258  32.522  1.00  0.00     0.031 C 
ATOM     44  C   UNL A   1      41.076  26.250  27.966  1.00  0.00     0.029 A 
ATOM     45  C   UNL A   1      42.135  26.516  28.937  1.00  0.00     0.049 A 
ATOM     46  H   UNL A   1      42.119  27.923  30.473  1.00  0.00     0.167 HD
ATOM     47  C   UNL A   1      41.885  30.940  33.679  1.00  0.00     0.037 A 
ATOM     48  C   UNL A   1      43.320  25.878  29.004  1.00  0.00     0.037 A 
ATOM     49  C   UNL A   1      43.162  30.298  33.843  1.00  0.00     0.049 A 
ATOM     50  C   UNL A   1      44.305  26.287  30.067  1.00  0.00     0.074 A 
ATOM     51  C   UNL A   1      44.127  30.533  34.806  1.00  0.00     0.029 A 
ATOM     52  N   UNL A   1      43.655  29.296  33.020  1.00  0.00    -0.354 N 
ATOM     53  N   UNL A   1      44.174  27.189  31.013  1.00  0.00    -0.248 NA
ATOM     54  C   UNL A   1      45.602  25.597  30.071  1.00  0.00     0.031 C 
ATOM     55  C   UNL A   1      45.222  29.704  34.537  1.00  0.00     0.029 A 
ATOM     56  C   UNL A   1      44.918  28.914  33.439  1.00  0.00     0.049 A 
ATOM     57  H   UNL A   1      43.175  28.911  32.251  1.00  0.00     0.167 HD
ATOM     58  C   UNL A   1      45.357  27.152  31.742  1.00  0.00     0.074 A 
ATOM     59  C   UNL A   1      46.188  26.133  31.133  1.00  0.00     0.031 C 
ATOM     60  C   UNL A   1      45.724  27.890  32.821  1.00  0.00     0.037 A 
BRANCH  47  61
ATOM     61  C   UNL A   1      41.507  32.055  34.614  1.00  0.00     0.058 A 
ATOM     62  C   UNL A   1      40.823  31.823  35.817  1.00  0.00     0.135 A 
ATOM     63  C   UNL A   1      41.834  33.383  34.292  1.00  0.00     0.135 A 
ATOM     64  F   UNL A   1      40.465  30.577  36.163  1.00  0.00    -0.206 F 
ATOM     65  C   UNL A   1      40.448  32.872  36.653  1.00  0.00     0.059 A 
ATOM     66  C   UNL A   1      41.493  34.444  35.126  1.00  0.00     0.059 A 
ATOM     67  F   UNL A   1      42.483  33.662  33.151  1.00  0.00    -0.206 F 
ATOM     68  C   UNL A   1      40.784  34.178  36.296  1.00  0.00     0.060 A 
BRANCH  68  69
ATOM     69  S   UNL A   1      40.277  35.530  37.381  1.00  0.00     0.124 S 
ATOM     70  O   UNL A   1      39.091  34.964  38.016  1.00  0.00    -0.237 OA
ATOM     71  O   UNL A   1      41.442  35.691  38.245  1.00  0.00    -0.237 OA
ATOM     72  O   UNL A   1      40.028  36.632  36.457  1.00  0.00    -0.744 OA
ENDBRANCH  68  69
ENDBRANCH  47  61
BRANCH  48  73
ATOM     73  C   UNL A   1      43.647  24.800  28.032  1.00  0.00     0.058 A 
ATOM     74  C   UNL A   1      43.205  23.484  28.234  1.00  0.00     0.135 A 
ATOM     75  C   UNL A   1      44.408  25.063  26.882  1.00  0.00     0.135 A 
ATOM     76  F   UNL A   1      42.485  23.178  29.324  1.00  0.00    -0.206 F 
ATOM     77  C   UNL A   1      43.516  22.465  27.339  1.00  0.00     0.059 A 
ATOM     78  C   UNL A   1      44.708  24.067  25.958  1.00  0.00     0.059 A 
ATOM     79  F   UNL A   1      44.849  26.307  26.637  1.00  0.00    -0.206 F 
ATOM     80  C   UNL A   1      44.266  22.768  26.201  1.00  0.00     0.060 A 
BRANCH  80  81
ATOM     81  S   UNL A   1      44.622  21.447  25.020  1.00  0.00     0.124 S 
ATOM     82  O   UNL A   1      43.587  20.475  25.346  1.00  0.00    -0.237 OA
ATOM     83  O   UNL A   1      44.474  22.134  23.740  1.00  0.00    -0.237 OA
ATOM     84  O   UNL A   1      45.987  21.055  25.358  1.00  0.00    -0.744 OA
ENDBRANCH  80  81
ENDBRANCH  48  73
BRANCH  60  85
ATOM     85  C   UNL A   1      47.061  27.588  33.438  1.00  0.00     0.058 A 
ATOM     86  C   UNL A   1      48.227  28.266  33.049  1.00  0.00     0.135 A 
ATOM     87  C   UNL A   1      47.168  26.631  34.460  1.00  0.00     0.135 A 
ATOM     88  F   UNL A   1      48.180  29.186  32.074  1.00  0.00    -0.206 F 
ATOM     89  C   UNL A   1      49.459  27.982  33.631  1.00  0.00     0.059 A 
ATOM     90  C   UNL A   1      48.384  26.352  35.074  1.00  0.00     0.059 A 
ATOM     91  F   UNL A   1      46.080  25.963  34.878  1.00  0.00    -0.206 F 
ATOM     92  C   UNL A   1      49.527  27.022  34.642  1.00  0.00     0.060 A 
BRANCH  92  93
ATOM     93  S   UNL A   1      51.127  26.672  35.400  1.00  0.00     0.124 S 
ATOM     94  O   UNL A   1      51.699  25.722  34.453  1.00  0.00    -0.237 OA
ATOM     95  O   UNL A   1      51.753  27.991  35.434  1.00  0.00    -0.237 OA
ATOM     96  O   UNL A   1      50.771  26.122  36.705  1.00  0.00    -0.744 OA
ENDBRANCH  92  93
ENDBRANCH  60  85
ENDBRANCH  34  35
ENDBRANCH  27  29
ENDBRANCH  26  27
ENDBRANCH  25  26
ENDBRANCH   1  25
TORSDOF 20
ENDMDL
