MODEL 1
REMARK VINA RESULT:     -12.6      0.000      0.000
REMARK SMILES O=C(OCCOC(=O)[C@@H]1CCCN(c2ccc3cc(S(=O)(=O)N4CCCCC4)ccc3n2)C1)c1ccc(-c2c3nc(c(-c4c(F)cc(S(=O)(=O)[O-])cc4F)c4ccc([nH]4)c(-c4c(F)cc(S(=O)(=O)[O-])cc4F)c4nc(c(-c5c(F)cc(S(=O)(=O)[O-])cc5F)c5ccc2[nH]5)C=C4)C=C3)cc1
REMARK SMILES IDX 4 1 3 2 2 3 1 4 34 5 35 6 99 7 36 8 98 9 37 10 38 11 39 12
REMARK SMILES IDX 92 13 40 14 97 15 91 16 93 17 41 18 96 19 90 20 89 21 42 23
REMARK SMILES IDX 76 24 55 25 75 26 56 27 59 28 74 29 94 30 57 31 58 32 73 34
REMARK SMILES IDX 95 35 60 36 43 37 44 38 53 39 45 40 46 41 52 42 54 43 47 44
REMARK SMILES IDX 48 45 49 46 50 47 51 48 77 49 78 50 87 51 79 52 80 53 86 54
REMARK SMILES IDX 88 55 81 56 82 57 83 58 84 59 85 60 61 61 62 62 71 63 63 64
REMARK SMILES IDX 64 65 70 66 72 67 65 68 66 69 67 70 68 71 69 72 5 73 6 74
REMARK SMILES IDX 7 75 8 76 9 77 10 78 33 79 11 80 13 81 12 82 14 83 15 84
REMARK SMILES IDX 32 85 16 86 31 87 17 88 30 89 18 90 29 91 19 92 20 93 21 94
REMARK SMILES IDX 22 95 23 96 24 97 28 98 25 99 27 100 26 101
REMARK H PARENT 93 22 59 33
REMARK Flexibility Score: inf
ROOT
ATOM      1  C   UNL A   1      45.795  25.352  25.907  1.00  0.00     0.275 C 
ENDROOT
BRANCH   1   2
ATOM      2  O   UNL A   1      45.138  26.480  25.291  1.00  0.00    -0.458 OA
BRANCH   2   3
ATOM      3  C   UNL A   1      43.813  26.562  25.443  1.00  0.00     0.338 C 
ATOM      4  O   UNL A   1      43.019  26.590  24.519  1.00  0.00    -0.246 OA
BRANCH   3   5
ATOM      5  C   UNL A   1      43.455  26.809  26.851  1.00  0.00     0.060 A 
ATOM      6  C   UNL A   1      43.784  28.210  27.759  1.00  0.00     0.016 A 
ATOM      7  C   UNL A   1      42.274  25.713  27.482  1.00  0.00     0.016 A 
ATOM      8  C   UNL A   1      42.948  28.595  29.227  1.00  0.00     0.010 A 
ATOM      9  C   UNL A   1      41.285  26.092  29.127  1.00  0.00     0.010 A 
ATOM     10  C   UNL A   1      41.712  27.604  29.988  1.00  0.00    -0.014 A 
BRANCH  10  11
ATOM     11  C   UNL A   1      41.158  28.326  31.187  1.00  0.00     0.031 A 
ATOM     12  C   UNL A   1      42.038  28.395  32.434  1.00  0.00     0.074 A 
ATOM     13  C   UNL A   1      40.225  29.294  31.008  1.00  0.00     0.049 A 
ATOM     14  N   UNL A   1      42.065  29.277  33.405  1.00  0.00    -0.248 NA
ATOM     15  C   UNL A   1      43.087  27.371  32.559  1.00  0.00     0.031 C 
ATOM     16  C   UNL A   1      39.419  29.501  29.804  1.00  0.00     0.029 A 
ATOM     17  N   UNL A   1      39.862  30.357  31.812  1.00  0.00    -0.354 N 
ATOM     18  C   UNL A   1      43.158  28.941  34.207  1.00  0.00     0.074 A 
ATOM     19  C   UNL A   1      43.782  27.790  33.604  1.00  0.00     0.031 C 
ATOM     20  C   UNL A   1      38.715  30.637  29.917  1.00  0.00     0.029 A 
ATOM     21  C   UNL A   1      38.929  31.202  31.241  1.00  0.00     0.049 A 
ATOM     22  H   UNL A   1      40.234  30.501  32.713  1.00  0.00     0.167 HD
ATOM     23  C   UNL A   1      43.601  29.510  35.355  1.00  0.00     0.037 A 
ATOM     24  C   UNL A   1      38.277  32.281  31.727  1.00  0.00     0.037 A 
ATOM     25  C   UNL A   1      42.933  30.604  36.005  1.00  0.00     0.049 A 
ATOM     26  C   UNL A   1      38.654  32.791  33.091  1.00  0.00     0.074 A 
ATOM     27  C   UNL A   1      43.202  31.178  37.235  1.00  0.00     0.029 A 
ATOM     28  N   UNL A   1      41.846  31.282  35.476  1.00  0.00    -0.354 N 
ATOM     29  N   UNL A   1      39.629  32.390  33.872  1.00  0.00    -0.248 NA
ATOM     30  C   UNL A   1      37.856  33.894  33.640  1.00  0.00     0.031 C 
ATOM     31  C   UNL A   1      42.246  32.171  37.471  1.00  0.00     0.029 A 
ATOM     32  C   UNL A   1      41.420  32.255  36.361  1.00  0.00     0.049 A 
ATOM     33  H   UNL A   1      41.437  31.097  34.599  1.00  0.00     0.167 HD
ATOM     34  C   UNL A   1      39.564  33.195  35.003  1.00  0.00     0.074 A 
ATOM     35  C   UNL A   1      38.478  34.131  34.785  1.00  0.00     0.031 C 
ATOM     36  C   UNL A   1      40.327  33.161  36.123  1.00  0.00     0.037 A 
BRANCH  23  37
ATOM     37  C   UNL A   1      44.810  28.903  36.027  1.00  0.00     0.058 A 
ATOM     38  C   UNL A   1      44.705  27.816  36.911  1.00  0.00     0.135 A 
ATOM     39  C   UNL A   1      46.096  29.407  35.770  1.00  0.00     0.135 A 
ATOM     40  F   UNL A   1      43.501  27.310  37.219  1.00  0.00    -0.206 F 
ATOM     41  C   UNL A   1      45.829  27.259  37.521  1.00  0.00     0.059 A 
ATOM     42  C   UNL A   1      47.235  28.852  36.351  1.00  0.00     0.059 A 
ATOM     43  F   UNL A   1      46.258  30.452  34.944  1.00  0.00    -0.206 F 
ATOM     44  C   UNL A   1      47.091  27.782  37.233  1.00  0.00     0.060 A 
BRANCH  44  45
ATOM     45  S   UNL A   1      48.540  27.044  38.022  1.00  0.00     0.124 S 
ATOM     46  O   UNL A   1      48.725  25.836  37.222  1.00  0.00    -0.237 OA
ATOM     47  O   UNL A   1      49.551  28.081  37.845  1.00  0.00    -0.237 OA
ATOM     48  O   UNL A   1      48.104  26.823  39.397  1.00  0.00    -0.744 OA
ENDBRANCH  44  45
ENDBRANCH  23  37
BRANCH  24  49
ATOM     49  C   UNL A   1      37.120  32.862  30.972  1.00  0.00     0.058 A 
ATOM     50  C   UNL A   1      37.256  33.877  30.012  1.00  0.00     0.135 A 
ATOM     51  C   UNL A   1      35.815  32.407  31.239  1.00  0.00     0.135 A 
ATOM     52  F   UNL A   1      38.470  34.372  29.726  1.00  0.00    -0.206 F 
ATOM     53  C   UNL A   1      36.150  34.421  29.357  1.00  0.00     0.059 A 
ATOM     54  C   UNL A   1      34.701  32.905  30.570  1.00  0.00     0.059 A 
ATOM     55  F   UNL A   1      35.612  31.443  32.151  1.00  0.00    -0.206 F 
ATOM     56  C   UNL A   1      34.876  33.924  29.640  1.00  0.00     0.060 A 
BRANCH  56  57
ATOM     57  S   UNL A   1      33.447  34.605  28.768  1.00  0.00     0.124 S 
ATOM     58  O   UNL A   1      34.042  35.733  28.063  1.00  0.00    -0.237 OA
ATOM     59  O   UNL A   1      33.030  33.479  27.939  1.00  0.00    -0.237 OA
ATOM     60  O   UNL A   1      32.528  34.950  29.849  1.00  0.00    -0.744 OA
ENDBRANCH  56  57
ENDBRANCH  24  49
BRANCH  36  61
ATOM     61  C   UNL A   1      40.015  34.173  37.185  1.00  0.00     0.058 A 
ATOM     62  C   UNL A   1      40.503  35.487  37.112  1.00  0.00     0.135 A 
ATOM     63  C   UNL A   1      39.209  33.826  38.280  1.00  0.00     0.135 A 
ATOM     64  F   UNL A   1      41.279  35.864  36.084  1.00  0.00    -0.206 F 
ATOM     65  C   UNL A   1      40.239  36.411  38.114  1.00  0.00     0.059 A 
ATOM     66  C   UNL A   1      38.905  34.744  39.277  1.00  0.00     0.059 A 
ATOM     67  F   UNL A   1      38.706  32.585  38.386  1.00  0.00    -0.206 F 
ATOM     68  C   UNL A   1      39.443  36.028  39.196  1.00  0.00     0.060 A 
BRANCH  68  69
ATOM     69  S   UNL A   1      39.116  37.235  40.494  1.00  0.00     0.124 S 
ATOM     70  O   UNL A   1      40.468  37.668  40.835  1.00  0.00    -0.237 OA
ATOM     71  O   UNL A   1      38.289  38.219  39.804  1.00  0.00    -0.237 OA
ATOM     72  O   UNL A   1      38.429  36.453  41.518  1.00  0.00    -0.744 OA
ENDBRANCH  68  69
ENDBRANCH  36  61
ENDBRANCH  10  11
ENDBRANCH   3   5
ENDBRANCH   2   3
ENDBRANCH   1   2
BRANCH   1  73
ATOM     73  C   UNL A   1      46.304  24.157  25.046  1.00  0.00     0.274 C 
BRANCH  73  74
ATOM     74  O   UNL A   1      45.305  23.720  24.102  1.00  0.00    -0.462 OA
BRANCH  74  75
ATOM     75  C   UNL A   1      44.238  22.935  24.435  1.00  0.00     0.310 C 
ATOM     76  O   UNL A   1      43.152  22.952  23.880  1.00  0.00    -0.252 OA
BRANCH  75  77
ATOM     77  C   UNL A   1      44.648  21.988  25.598  1.00  0.00     0.118 C 
ATOM     78  C   UNL A   1      44.791  20.215  24.802  1.00  0.00     0.019 C 
ATOM     79  C   UNL A   1      43.549  22.190  27.103  1.00  0.00     0.133 C 
ATOM     80  C   UNL A   1      43.366  18.740  25.612  1.00  0.00     0.022 C 
ATOM     81  N   UNL A   1      42.297  21.032  27.545  1.00  0.00    -0.356 N 
ATOM     82  C   UNL A   1      42.379  19.332  27.184  1.00  0.00     0.118 C 
BRANCH  81  83
ATOM     83  C   UNL A   1      40.909  21.411  27.392  1.00  0.00     0.129 A 
ATOM     84  C   UNL A   1      40.456  22.623  27.919  1.00  0.00     0.047 A 
ATOM     85  N   UNL A   1      40.134  20.764  26.482  1.00  0.00    -0.231 NA
ATOM     86  C   UNL A   1      39.453  23.330  27.261  1.00  0.00     0.014 A 
ATOM     87  C   UNL A   1      39.035  21.380  25.972  1.00  0.00     0.073 A 
ATOM     88  C   UNL A   1      38.733  22.722  26.251  1.00  0.00     0.002 A 
ATOM     89  C   UNL A   1      38.139  20.712  25.145  1.00  0.00     0.030 A 
ATOM     90  C   UNL A   1      37.698  23.412  25.600  1.00  0.00     0.032 A 
ATOM     91  C   UNL A   1      37.013  21.350  24.591  1.00  0.00     0.024 A 
ATOM     92  C   UNL A   1      36.813  22.717  24.783  1.00  0.00     0.083 A 
BRANCH  92  93
ATOM     93  S   UNL A   1      35.387  23.627  24.190  1.00  0.00     0.243 S 
ATOM     94  O   UNL A   1      35.311  24.828  24.999  1.00  0.00    -0.207 OA
ATOM     95  O   UNL A   1      35.497  23.696  22.749  1.00  0.00    -0.207 OA
BRANCH  93  96
ATOM     96  N   UNL A   1      34.010  22.684  24.575  1.00  0.00    -0.198 NA
ATOM     97  C   UNL A   1      33.457  21.905  23.441  1.00  0.00     0.102 C 
ATOM     98  C   UNL A   1      34.014  22.133  25.952  1.00  0.00     0.102 C 
ATOM     99  C   UNL A   1      32.403  20.883  23.831  1.00  0.00     0.017 C 
ATOM    100  C   UNL A   1      32.882  21.161  26.228  1.00  0.00     0.017 C 
ATOM    101  C   UNL A   1      32.752  20.145  25.110  1.00  0.00     0.003 C 
ENDBRANCH  93  96
ENDBRANCH  92  93
ENDBRANCH  81  83
ENDBRANCH  75  77
ENDBRANCH  74  75
ENDBRANCH  73  74
ENDBRANCH   1  73
TORSDOF 17
ENDMDL
MODEL 2
REMARK VINA RESULT:     -12.3      2.767      4.693
REMARK SMILES O=C(OCCOC(=O)[C@@H]1CCCN(c2ccc3cc(S(=O)(=O)N4CCCCC4)ccc3n2)C1)c1ccc(-c2c3nc(c(-c4c(F)cc(S(=O)(=O)[O-])cc4F)c4ccc([nH]4)c(-c4c(F)cc(S(=O)(=O)[O-])cc4F)c4nc(c(-c5c(F)cc(S(=O)(=O)[O-])cc5F)c5ccc2[nH]5)C=C4)C=C3)cc1
REMARK SMILES IDX 4 1 3 2 2 3 1 4 34 5 35 6 99 7 36 8 98 9 37 10 38 11 39 12
REMARK SMILES IDX 92 13 40 14 97 15 91 16 93 17 41 18 96 19 90 20 89 21 42 23
REMARK SMILES IDX 76 24 55 25 75 26 56 27 59 28 74 29 94 30 57 31 58 32 73 34
REMARK SMILES IDX 95 35 60 36 43 37 44 38 53 39 45 40 46 41 52 42 54 43 47 44
REMARK SMILES IDX 48 45 49 46 50 47 51 48 77 49 78 50 87 51 79 52 80 53 86 54
REMARK SMILES IDX 88 55 81 56 82 57 83 58 84 59 85 60 61 61 62 62 71 63 63 64
REMARK SMILES IDX 64 65 70 66 72 67 65 68 66 69 67 70 68 71 69 72 5 73 6 74
REMARK SMILES IDX 7 75 8 76 9 77 10 78 33 79 11 80 13 81 12 82 14 83 15 84
REMARK SMILES IDX 32 85 16 86 31 87 17 88 30 89 18 90 29 91 19 92 20 93 21 94
REMARK SMILES IDX 22 95 23 96 24 97 28 98 25 99 27 100 26 101
REMARK H PARENT 93 22 59 33
REMARK Flexibility Score: inf
ROOT
ATOM      1  C   UNL A   1      40.765  21.880  26.136  1.00  0.00     0.275 C 
ENDROOT
BRANCH   1   2
ATOM      2  O   UNL A   1      41.688  22.770  26.798  1.00  0.00    -0.458 OA
BRANCH   2   3
ATOM      3  C   UNL A   1      41.943  23.933  26.191  1.00  0.00     0.338 C 
ATOM      4  O   UNL A   1      42.584  24.038  25.159  1.00  0.00    -0.246 OA
BRANCH   3   5
ATOM      5  C   UNL A   1      41.523  25.072  27.025  1.00  0.00     0.060 A 
ATOM      6  C   UNL A   1      40.136  25.163  28.007  1.00  0.00     0.016 A 
ATOM      7  C   UNL A   1      42.764  26.247  27.293  1.00  0.00     0.016 A 
ATOM      8  C   UNL A   1      39.961  26.327  29.277  1.00  0.00     0.010 A 
ATOM      9  C   UNL A   1      42.636  27.582  28.718  1.00  0.00     0.010 A 
ATOM     10  C   UNL A   1      41.133  27.571  29.692  1.00  0.00    -0.014 A 
BRANCH  10  11
ATOM     11  C   UNL A   1      40.664  28.315  30.913  1.00  0.00     0.031 A 
ATOM     12  C   UNL A   1      41.596  28.335  32.125  1.00  0.00     0.074 A 
ATOM     13  C   UNL A   1      39.775  29.329  30.774  1.00  0.00     0.049 A 
ATOM     14  N   UNL A   1      41.705  29.210  33.096  1.00  0.00    -0.248 NA
ATOM     15  C   UNL A   1      42.596  27.259  32.205  1.00  0.00     0.031 C 
ATOM     16  C   UNL A   1      38.933  29.581  29.604  1.00  0.00     0.029 A 
ATOM     17  N   UNL A   1      39.498  30.406  31.595  1.00  0.00    -0.354 N 
ATOM     18  C   UNL A   1      42.812  28.817  33.852  1.00  0.00     0.074 A 
ATOM     19  C   UNL A   1      43.353  27.638  33.223  1.00  0.00     0.031 C 
ATOM     20  C   UNL A   1      38.291  30.750  29.748  1.00  0.00     0.029 A 
ATOM     21  C   UNL A   1      38.587  31.298  31.064  1.00  0.00     0.049 A 
ATOM     22  H   UNL A   1      39.912  30.527  32.480  1.00  0.00     0.167 HD
ATOM     23  C   UNL A   1      43.328  29.358  34.982  1.00  0.00     0.037 A 
ATOM     24  C   UNL A   1      38.010  32.407  31.577  1.00  0.00     0.037 A 
ATOM     25  C   UNL A   1      42.742  30.481  35.662  1.00  0.00     0.049 A 
ATOM     26  C   UNL A   1      38.466  32.892  32.925  1.00  0.00     0.074 A 
ATOM     27  C   UNL A   1      43.090  31.036  36.881  1.00  0.00     0.029 A 
ATOM     28  N   UNL A   1      41.670  31.215  35.178  1.00  0.00    -0.354 N 
ATOM     29  N   UNL A   1      39.450  32.439  33.667  1.00  0.00    -0.248 NA
ATOM     30  C   UNL A   1      37.746  34.031  33.508  1.00  0.00     0.031 C 
ATOM     31  C   UNL A   1      42.194  32.075  37.157  1.00  0.00     0.029 A 
ATOM     32  C   UNL A   1      41.330  32.205  36.081  1.00  0.00     0.049 A 
ATOM     33  H   UNL A   1      41.218  31.054  34.318  1.00  0.00     0.167 HD
ATOM     34  C   UNL A   1      39.471  33.242  34.800  1.00  0.00     0.074 A 
ATOM     35  C   UNL A   1      38.426  34.232  34.629  1.00  0.00     0.031 C 
ATOM     36  C   UNL A   1      40.276  33.166  35.889  1.00  0.00     0.037 A 
BRANCH  23  37
ATOM     37  C   UNL A   1      44.531  28.688  35.605  1.00  0.00     0.058 A 
ATOM     38  C   UNL A   1      45.845  29.066  35.282  1.00  0.00     0.135 A 
ATOM     39  C   UNL A   1      44.365  27.665  36.553  1.00  0.00     0.135 A 
ATOM     40  F   UNL A   1      46.068  30.017  34.362  1.00  0.00    -0.206 F 
ATOM     41  C   UNL A   1      46.949  28.446  35.868  1.00  0.00     0.059 A 
ATOM     42  C   UNL A   1      45.453  27.046  37.167  1.00  0.00     0.059 A 
ATOM     43  F   UNL A   1      43.134  27.253  36.893  1.00  0.00    -0.206 F 
ATOM     44  C   UNL A   1      46.743  27.438  36.812  1.00  0.00     0.060 A 
BRANCH  44  45
ATOM     45  S   UNL A   1      48.182  26.650  37.571  1.00  0.00     0.124 S 
ATOM     46  O   UNL A   1      47.977  26.966  38.982  1.00  0.00    -0.237 OA
ATOM     47  O   UNL A   1      47.999  25.250  37.203  1.00  0.00    -0.237 OA
ATOM     48  O   UNL A   1      49.312  27.321  36.938  1.00  0.00    -0.744 OA
ENDBRANCH  44  45
ENDBRANCH  23  37
BRANCH  24  49
ATOM     49  C   UNL A   1      36.854  33.048  30.871  1.00  0.00     0.058 A 
ATOM     50  C   UNL A   1      37.002  33.906  29.770  1.00  0.00     0.135 A 
ATOM     51  C   UNL A   1      35.542  32.821  31.329  1.00  0.00     0.135 A 
ATOM     52  F   UNL A   1      38.227  34.185  29.295  1.00  0.00    -0.206 F 
ATOM     53  C   UNL A   1      35.904  34.516  29.161  1.00  0.00     0.059 A 
ATOM     54  C   UNL A   1      34.430  33.385  30.715  1.00  0.00     0.059 A 
ATOM     55  F   UNL A   1      35.329  32.016  32.383  1.00  0.00    -0.206 F 
ATOM     56  C   UNL A   1      34.620  34.245  29.639  1.00  0.00     0.060 A 
BRANCH  56  57
ATOM     57  S   UNL A   1      33.195  35.008  28.831  1.00  0.00     0.124 S 
ATOM     58  O   UNL A   1      33.811  36.147  28.162  1.00  0.00    -0.237 OA
ATOM     59  O   UNL A   1      32.724  33.934  27.964  1.00  0.00    -0.237 OA
ATOM     60  O   UNL A   1      32.312  35.334  29.947  1.00  0.00    -0.744 OA
ENDBRANCH  56  57
ENDBRANCH  24  49
BRANCH  36  61
ATOM     61  C   UNL A   1      40.057  34.187  36.965  1.00  0.00     0.058 A 
ATOM     62  C   UNL A   1      39.223  33.928  38.063  1.00  0.00     0.135 A 
ATOM     63  C   UNL A   1      40.701  35.432  36.902  1.00  0.00     0.135 A 
ATOM     64  F   UNL A   1      38.585  32.752  38.166  1.00  0.00    -0.206 F 
ATOM     65  C   UNL A   1      38.997  34.889  39.040  1.00  0.00     0.059 A 
ATOM     66  C   UNL A   1      40.516  36.395  37.886  1.00  0.00     0.059 A 
ATOM     67  F   UNL A   1      41.522  35.720  35.879  1.00  0.00    -0.206 F 
ATOM     68  C   UNL A   1      39.645  36.122  38.939  1.00  0.00     0.060 A 
BRANCH  68  69
ATOM     69  S   UNL A   1      39.336  37.364  40.209  1.00  0.00     0.124 S 
ATOM     70  O   UNL A   1      40.690  37.820  40.505  1.00  0.00    -0.237 OA
ATOM     71  O   UNL A   1      38.482  38.319  39.509  1.00  0.00    -0.237 OA
ATOM     72  O   UNL A   1      38.681  36.606  41.271  1.00  0.00    -0.744 OA
ENDBRANCH  68  69
ENDBRANCH  36  61
ENDBRANCH  10  11
ENDBRANCH   3   5
ENDBRANCH   2   3
ENDBRANCH   1   2
BRANCH   1  73
ATOM     73  C   UNL A   1      39.227  22.116  26.225  1.00  0.00     0.274 C 
BRANCH  73  74
ATOM     74  O   UNL A   1      38.555  21.699  25.020  1.00  0.00    -0.462 OA
BRANCH  74  75
ATOM     75  C   UNL A   1      37.213  21.836  24.812  1.00  0.00     0.310 C 
ATOM     76  O   UNL A   1      36.698  22.599  24.011  1.00  0.00    -0.252 OA
BRANCH  75  77
ATOM     77  C   UNL A   1      36.453  20.833  25.725  1.00  0.00     0.118 C 
ATOM     78  C   UNL A   1      35.956  19.346  24.566  1.00  0.00     0.019 C 
ATOM     79  C   UNL A   1      35.099  21.660  26.724  1.00  0.00     0.133 C 
ATOM     80  C   UNL A   1      33.781  19.051  24.355  1.00  0.00     0.022 C 
ATOM     81  N   UNL A   1      33.387  21.511  26.337  1.00  0.00    -0.356 N 
ATOM     82  C   UNL A   1      32.686  20.118  25.563  1.00  0.00     0.118 C 
BRANCH  81  83
ATOM     83  C   UNL A   1      32.686  22.661  25.807  1.00  0.00     0.129 A 
ATOM     84  C   UNL A   1      31.834  23.397  26.634  1.00  0.00     0.047 A 
ATOM     85  N   UNL A   1      33.090  23.209  24.631  1.00  0.00    -0.231 NA
ATOM     86  C   UNL A   1      31.716  24.773  26.454  1.00  0.00     0.014 A 
ATOM     87  C   UNL A   1      32.810  24.511  24.362  1.00  0.00     0.073 A 
ATOM     88  C   UNL A   1      32.226  25.363  25.313  1.00  0.00     0.002 A 
ATOM     89  C   UNL A   1      33.081  25.078  23.122  1.00  0.00     0.030 A 
ATOM     90  C   UNL A   1      32.086  26.744  25.103  1.00  0.00     0.032 A 
ATOM     91  C   UNL A   1      32.817  26.432  22.843  1.00  0.00     0.024 A 
ATOM     92  C   UNL A   1      32.359  27.282  23.850  1.00  0.00     0.083 A 
BRANCH  92  93
ATOM     93  S   UNL A   1      31.923  29.003  23.606  1.00  0.00     0.243 S 
ATOM     94  O   UNL A   1      32.467  29.722  24.741  1.00  0.00    -0.207 OA
ATOM     95  O   UNL A   1      32.293  29.346  22.250  1.00  0.00    -0.207 OA
BRANCH  93  96
ATOM     96  N   UNL A   1      30.217  29.099  23.733  1.00  0.00    -0.198 NA
ATOM     97  C   UNL A   1      29.666  30.472  23.641  1.00  0.00     0.102 C 
ATOM     98  C   UNL A   1      29.496  27.944  23.143  1.00  0.00     0.102 C 
ATOM     99  C   UNL A   1      28.155  30.539  23.499  1.00  0.00     0.017 C 
ATOM    100  C   UNL A   1      27.990  28.117  23.104  1.00  0.00     0.017 C 
ATOM    101  C   UNL A   1      27.611  29.480  22.558  1.00  0.00     0.003 C 
ENDBRANCH  93  96
ENDBRANCH  92  93
ENDBRANCH  81  83
ENDBRANCH  75  77
ENDBRANCH  74  75
ENDBRANCH  73  74
ENDBRANCH   1  73
TORSDOF 17
ENDMDL
MODEL 3
REMARK VINA RESULT:     -12.1      9.596     15.941
REMARK SMILES O=C(OCCOC(=O)[C@@H]1CCCN(c2ccc3cc(S(=O)(=O)N4CCCCC4)ccc3n2)C1)c1ccc(-c2c3nc(c(-c4c(F)cc(S(=O)(=O)[O-])cc4F)c4ccc([nH]4)c(-c4c(F)cc(S(=O)(=O)[O-])cc4F)c4nc(c(-c5c(F)cc(S(=O)(=O)[O-])cc5F)c5ccc2[nH]5)C=C4)C=C3)cc1
REMARK SMILES IDX 4 1 3 2 2 3 1 4 34 5 35 6 99 7 36 8 98 9 37 10 38 11 39 12
REMARK SMILES IDX 92 13 40 14 97 15 91 16 93 17 41 18 96 19 90 20 89 21 42 23
REMARK SMILES IDX 76 24 55 25 75 26 56 27 59 28 74 29 94 30 57 31 58 32 73 34
REMARK SMILES IDX 95 35 60 36 43 37 44 38 53 39 45 40 46 41 52 42 54 43 47 44
REMARK SMILES IDX 48 45 49 46 50 47 51 48 77 49 78 50 87 51 79 52 80 53 86 54
REMARK SMILES IDX 88 55 81 56 82 57 83 58 84 59 85 60 61 61 62 62 71 63 63 64
REMARK SMILES IDX 64 65 70 66 72 67 65 68 66 69 67 70 68 71 69 72 5 73 6 74
REMARK SMILES IDX 7 75 8 76 9 77 10 78 33 79 11 80 13 81 12 82 14 83 15 84
REMARK SMILES IDX 32 85 16 86 31 87 17 88 30 89 18 90 29 91 19 92 20 93 21 94
REMARK SMILES IDX 22 95 23 96 24 97 28 98 25 99 27 100 26 101
REMARK H PARENT 93 22 59 33
REMARK Flexibility Score: inf
ROOT
ATOM      1  C   UNL A   1      49.207  39.465  28.427  1.00  0.00     0.275 C 
ENDROOT
BRANCH   1   2
ATOM      2  O   UNL A   1      48.612  38.272  28.981  1.00  0.00    -0.458 OA
BRANCH   2   3
ATOM      3  C   UNL A   1      49.254  37.121  28.757  1.00  0.00     0.338 C 
ATOM      4  O   UNL A   1      50.450  37.036  28.541  1.00  0.00    -0.246 OA
BRANCH   3   5
ATOM      5  C   UNL A   1      48.304  36.004  28.611  1.00  0.00     0.060 A 
ATOM      6  C   UNL A   1      47.536  35.495  27.181  1.00  0.00     0.016 A 
ATOM      7  C   UNL A   1      48.288  34.912  29.952  1.00  0.00     0.016 A 
ATOM      8  C   UNL A   1      46.810  33.931  27.010  1.00  0.00     0.010 A 
ATOM      9  C   UNL A   1      47.497  33.126  29.825  1.00  0.00     0.010 A 
ATOM     10  C   UNL A   1      46.728  32.701  28.264  1.00  0.00    -0.014 A 
BRANCH  10  11
ATOM     11  C   UNL A   1      46.115  31.449  27.698  1.00  0.00     0.031 A 
ATOM     12  C   UNL A   1      47.063  30.310  27.323  1.00  0.00     0.074 A 
ATOM     13  C   UNL A   1      44.832  31.137  28.009  1.00  0.00     0.049 A 
ATOM     14  N   UNL A   1      46.851  29.017  27.259  1.00  0.00    -0.248 NA
ATOM     15  C   UNL A   1      48.464  30.678  27.062  1.00  0.00     0.031 C 
ATOM     16  C   UNL A   1      43.833  32.052  28.562  1.00  0.00     0.029 A 
ATOM     17  N   UNL A   1      44.170  29.924  27.996  1.00  0.00    -0.354 N 
ATOM     18  C   UNL A   1      48.095  28.430  27.012  1.00  0.00     0.074 A 
ATOM     19  C   UNL A   1      49.059  29.501  26.954  1.00  0.00     0.031 C 
ATOM     20  C   UNL A   1      42.724  31.372  28.890  1.00  0.00     0.029 A 
ATOM     21  C   UNL A   1      42.878  29.983  28.482  1.00  0.00     0.049 A 
ATOM     22  H   UNL A   1      44.581  29.091  27.667  1.00  0.00     0.167 HD
ATOM     23  C   UNL A   1      48.418  27.129  26.820  1.00  0.00     0.037 A 
ATOM     24  C   UNL A   1      41.902  29.051  28.557  1.00  0.00     0.037 A 
ATOM     25  C   UNL A   1      47.448  26.068  26.790  1.00  0.00     0.049 A 
ATOM     26  C   UNL A   1      42.229  27.638  28.162  1.00  0.00     0.074 A 
ATOM     27  C   UNL A   1      47.631  24.733  26.474  1.00  0.00     0.029 A 
ATOM     28  N   UNL A   1      46.103  26.231  27.079  1.00  0.00    -0.354 N 
ATOM     29  N   UNL A   1      43.394  27.130  27.834  1.00  0.00    -0.248 NA
ATOM     30  C   UNL A   1      41.124  26.672  28.146  1.00  0.00     0.031 C 
ATOM     31  C   UNL A   1      46.385  24.100  26.522  1.00  0.00     0.029 A 
ATOM     32  C   UNL A   1      45.438  25.028  26.929  1.00  0.00     0.049 A 
ATOM     33  H   UNL A   1      45.681  27.080  27.350  1.00  0.00     0.167 HD
ATOM     34  C   UNL A   1      43.163  25.784  27.579  1.00  0.00     0.074 A 
ATOM     35  C   UNL A   1      41.754  25.550  27.828  1.00  0.00     0.031 C 
ATOM     36  C   UNL A   1      44.033  24.828  27.169  1.00  0.00     0.037 A 
BRANCH  23  37
ATOM     37  C   UNL A   1      49.863  26.790  26.537  1.00  0.00     0.058 A 
ATOM     38  C   UNL A   1      50.360  26.673  25.229  1.00  0.00     0.135 A 
ATOM     39  C   UNL A   1      50.770  26.597  27.594  1.00  0.00     0.135 A 
ATOM     40  F   UNL A   1      49.537  26.818  24.178  1.00  0.00    -0.206 F 
ATOM     41  C   UNL A   1      51.697  26.368  24.978  1.00  0.00     0.059 A 
ATOM     42  C   UNL A   1      52.115  26.312  27.367  1.00  0.00     0.059 A 
ATOM     43  F   UNL A   1      50.351  26.684  28.866  1.00  0.00    -0.206 F 
ATOM     44  C   UNL A   1      52.569  26.191  26.055  1.00  0.00     0.060 A 
BRANCH  44  45
ATOM     45  S   UNL A   1      54.302  25.806  25.717  1.00  0.00     0.124 S 
ATOM     46  O   UNL A   1      54.737  25.259  26.999  1.00  0.00    -0.237 OA
ATOM     47  O   UNL A   1      54.198  24.846  24.622  1.00  0.00    -0.237 OA
ATOM     48  O   UNL A   1      54.877  27.100  25.361  1.00  0.00    -0.744 OA
ENDBRANCH  44  45
ENDBRANCH  23  37
BRANCH  24  49
ATOM     49  C   UNL A   1      40.501  29.458  28.900  1.00  0.00     0.058 A 
ATOM     50  C   UNL A   1      39.481  29.593  27.946  1.00  0.00     0.135 A 
ATOM     51  C   UNL A   1      40.168  29.754  30.236  1.00  0.00     0.135 A 
ATOM     52  F   UNL A   1      39.735  29.348  26.651  1.00  0.00    -0.206 F 
ATOM     53  C   UNL A   1      38.196  30.012  28.298  1.00  0.00     0.059 A 
ATOM     54  C   UNL A   1      38.886  30.135  30.617  1.00  0.00     0.059 A 
ATOM     55  F   UNL A   1      41.098  29.653  31.199  1.00  0.00    -0.206 F 
ATOM     56  C   UNL A   1      37.907  30.276  29.639  1.00  0.00     0.060 A 
BRANCH  56  57
ATOM     57  S   UNL A   1      36.236  30.787  30.100  1.00  0.00     0.124 S 
ATOM     58  O   UNL A   1      36.004  29.985  31.295  1.00  0.00    -0.237 OA
ATOM     59  O   UNL A   1      36.403  32.220  30.314  1.00  0.00    -0.237 OA
ATOM     60  O   UNL A   1      35.440  30.424  28.932  1.00  0.00    -0.744 OA
ENDBRANCH  56  57
ENDBRANCH  24  49
BRANCH  36  61
ATOM     61  C   UNL A   1      43.481  23.447  26.979  1.00  0.00     0.058 A 
ATOM     62  C   UNL A   1      43.210  22.610  28.072  1.00  0.00     0.135 A 
ATOM     63  C   UNL A   1      43.208  22.964  25.691  1.00  0.00     0.135 A 
ATOM     64  F   UNL A   1      43.456  23.028  29.323  1.00  0.00    -0.206 F 
ATOM     65  C   UNL A   1      42.731  21.319  27.890  1.00  0.00     0.059 A 
ATOM     66  C   UNL A   1      42.696  21.689  25.487  1.00  0.00     0.059 A 
ATOM     67  F   UNL A   1      43.436  23.735  24.615  1.00  0.00    -0.206 F 
ATOM     68  C   UNL A   1      42.481  20.866  26.592  1.00  0.00     0.060 A 
BRANCH  68  69
ATOM     69  S   UNL A   1      41.868  19.186  26.370  1.00  0.00     0.124 S 
ATOM     70  O   UNL A   1      42.191  18.585  27.660  1.00  0.00    -0.237 OA
ATOM     71  O   UNL A   1      40.448  19.405  26.109  1.00  0.00    -0.237 OA
ATOM     72  O   UNL A   1      42.639  18.692  25.233  1.00  0.00    -0.744 OA
ENDBRANCH  68  69
ENDBRANCH  36  61
ENDBRANCH  10  11
ENDBRANCH   3   5
ENDBRANCH   2   3
ENDBRANCH   1   2
BRANCH   1  73
ATOM     73  C   UNL A   1      48.508  40.240  27.269  1.00  0.00     0.274 C 
BRANCH  73  74
ATOM     74  O   UNL A   1      47.537  39.419  26.591  1.00  0.00    -0.462 OA
BRANCH  74  75
ATOM     75  C   UNL A   1      46.518  39.918  25.831  1.00  0.00     0.310 C 
ATOM     76  O   UNL A   1      46.414  39.792  24.622  1.00  0.00    -0.252 OA
BRANCH  75  77
ATOM     77  C   UNL A   1      45.493  40.629  26.760  1.00  0.00     0.118 C 
ATOM     78  C   UNL A   1      44.349  39.212  27.455  1.00  0.00     0.019 C 
ATOM     79  C   UNL A   1      44.672  42.094  25.928  1.00  0.00     0.133 C 
ATOM     80  C   UNL A   1      42.230  39.391  26.871  1.00  0.00     0.022 C 
ATOM     81  N   UNL A   1      43.020  42.055  25.317  1.00  0.00    -0.356 N 
ATOM     82  C   UNL A   1      41.758  41.068  25.998  1.00  0.00     0.118 C 
BRANCH  81  83
ATOM     83  C   UNL A   1      42.803  42.057  23.887  1.00  0.00     0.129 A 
ATOM     84  C   UNL A   1      41.502  41.983  23.381  1.00  0.00     0.047 A 
ATOM     85  N   UNL A   1      43.806  42.446  23.057  1.00  0.00    -0.231 NA
ATOM     86  C   UNL A   1      41.183  42.648  22.200  1.00  0.00     0.014 A 
ATOM     87  C   UNL A   1      43.511  42.922  21.818  1.00  0.00     0.073 A 
ATOM     88  C   UNL A   1      42.190  43.153  21.401  1.00  0.00     0.002 A 
ATOM     89  C   UNL A   1      44.503  43.204  20.886  1.00  0.00     0.030 A 
ATOM     90  C   UNL A   1      41.884  43.798  20.191  1.00  0.00     0.032 A 
ATOM     91  C   UNL A   1      44.208  43.721  19.611  1.00  0.00     0.024 A 
ATOM     92  C   UNL A   1      42.897  44.062  19.275  1.00  0.00     0.083 A 
BRANCH  92  93
ATOM     93  S   UNL A   1      42.384  44.662  17.667  1.00  0.00     0.243 S 
ATOM     94  O   UNL A   1      43.372  44.180  16.722  1.00  0.00    -0.207 OA
ATOM     95  O   UNL A   1      40.982  44.339  17.521  1.00  0.00    -0.207 OA
BRANCH  93  96
ATOM     96  N   UNL A   1      42.536  46.368  17.711  1.00  0.00    -0.198 NA
ATOM     97  C   UNL A   1      43.789  46.862  18.331  1.00  0.00     0.102 C 
ATOM     98  C   UNL A   1      41.933  47.064  16.548  1.00  0.00     0.102 C 
ATOM     99  C   UNL A   1      44.043  48.348  18.146  1.00  0.00     0.017 C 
ATOM    100  C   UNL A   1      42.221  48.553  16.506  1.00  0.00     0.017 C 
ATOM    101  C   UNL A   1      43.692  48.830  16.750  1.00  0.00     0.003 C 
ENDBRANCH  93  96
ENDBRANCH  92  93
ENDBRANCH  81  83
ENDBRANCH  75  77
ENDBRANCH  74  75
ENDBRANCH  73  74
ENDBRANCH   1  73
TORSDOF 17
ENDMDL
