MODEL 1
REMARK VINA RESULT:     -11.1      0.000      0.000
REMARK SMILES COc1ncccc1Cn1ccc(C(=O)OCCOC(=O)c2ccc(-c3c4nc(c(-c5c(F)cc(S(=O)(=O)[O-])cc5F)c5ccc([nH]5)c(-c5c(F)cc(S(=O)(=O)[O-])cc5F)c5nc(c(-c6c(F)cc(S(=O)(=O)[O-])cc6F)c6ccc3[nH]6)C=C5)C=C4)cc2)n1
REMARK SMILES IDX 17 1 16 2 14 3 15 4 13 5 10 6 11 7 88 8 12 9 9 10 8 11 3 12
REMARK SMILES IDX 4 13 5 14 7 15 6 16 2 17 1 18 18 19 19 20 20 21 21 22 22 23
REMARK SMILES IDX 23 24 87 25 24 26 86 27 25 28 26 29 27 30 80 31 28 32 85 33
REMARK SMILES IDX 79 34 81 35 29 36 84 37 78 38 77 39 30 41 64 42 43 43 63 44
REMARK SMILES IDX 44 45 47 46 62 47 82 48 45 49 46 50 61 52 83 53 48 54 31 55
REMARK SMILES IDX 32 56 41 57 33 58 34 59 40 60 42 61 35 62 36 63 37 64 38 65
REMARK SMILES IDX 39 66 65 67 66 68 75 69 67 70 68 71 74 72 76 73 69 74 70 75
REMARK SMILES IDX 71 76 72 77 73 78 49 79 50 80 59 81 51 82 52 83 58 84 60 85
REMARK SMILES IDX 53 86 54 87 55 88 56 89 57 90
REMARK H PARENT 81 40 47 51
REMARK Flexibility Score: inf
ROOT
ATOM      1  C   UNL A   1      33.312  35.133  28.772  1.00  0.00     0.275 C 
ENDROOT
BRANCH   1   2
ATOM      2  O   UNL A   1      32.573  34.942  29.988  1.00  0.00    -0.457 OA
BRANCH   2   3
ATOM      3  C   UNL A   1      32.942  35.771  31.021  1.00  0.00     0.358 C 
ATOM      4  O   UNL A   1      32.589  36.933  31.114  1.00  0.00    -0.244 OA
BRANCH   3   5
ATOM      5  C   UNL A   1      33.821  35.137  32.024  1.00  0.00     0.170 A 
ATOM      6  N   UNL A   1      35.011  33.746  33.123  1.00  0.00    -0.267 N 
ATOM      7  C   UNL A   1      35.156  34.933  33.787  1.00  0.00     0.110 A 
ATOM      8  N   UNL A   1      34.291  33.872  31.982  1.00  0.00    -0.165 NA
ATOM      9  C   UNL A   1      34.321  35.822  33.164  1.00  0.00     0.057 A 
BRANCH   6  10
ATOM     10  C   UNL A   1      35.746  32.515  33.409  1.00  0.00     0.185 C 
BRANCH  10  11
ATOM     11  C   UNL A   1      37.245  32.655  33.449  1.00  0.00     0.036 A 
ATOM     12  C   UNL A   1      37.989  32.489  34.614  1.00  0.00     0.218 A 
ATOM     13  N   UNL A   1      39.314  32.736  34.726  1.00  0.00    -0.222 NA
ATOM     14  C   UNL A   1      39.954  33.133  33.609  1.00  0.00     0.115 A 
ATOM     15  C   UNL A   1      37.955  33.060  32.310  1.00  0.00     0.013 A 
ATOM     16  C   UNL A   1      39.325  33.303  32.388  1.00  0.00     0.021 A 
BRANCH  12  17
ATOM     17  O   UNL A   1      37.341  32.134  35.772  1.00  0.00    -0.481 OA
ATOM     18  C   UNL A   1      38.068  31.084  36.415  1.00  0.00     0.280 C 
ENDBRANCH  12  17
ENDBRANCH  10  11
ENDBRANCH   6  10
ENDBRANCH   3   5
ENDBRANCH   2   3
ENDBRANCH   1   2
BRANCH   1  19
ATOM     19  C   UNL A   1      33.532  33.819  28.036  1.00  0.00     0.275 C 
BRANCH  19  20
ATOM     20  O   UNL A   1      34.273  32.875  28.812  1.00  0.00    -0.458 OA
BRANCH  20  21
ATOM     21  C   UNL A   1      34.608  31.747  28.148  1.00  0.00     0.338 C 
ATOM     22  O   UNL A   1      33.915  31.133  27.352  1.00  0.00    -0.246 OA
BRANCH  21  23
ATOM     23  C   UNL A   1      35.847  31.196  28.706  1.00  0.00     0.060 A 
ATOM     24  C   UNL A   1      36.893  32.092  28.954  1.00  0.00     0.016 A 
ATOM     25  C   UNL A   1      36.044  29.809  28.743  1.00  0.00     0.016 A 
ATOM     26  C   UNL A   1      38.168  31.594  29.121  1.00  0.00     0.010 A 
ATOM     27  C   UNL A   1      37.319  29.314  28.898  1.00  0.00     0.010 A 
ATOM     28  C   UNL A   1      38.376  30.212  29.032  1.00  0.00    -0.014 A 
BRANCH  28  29
ATOM     29  C   UNL A   1      39.723  29.711  29.236  1.00  0.00     0.031 A 
ATOM     30  C   UNL A   1      40.106  29.654  30.669  1.00  0.00     0.074 A 
ATOM     31  C   UNL A   1      40.468  29.196  28.241  1.00  0.00     0.049 A 
ATOM     32  N   UNL A   1      41.046  30.300  31.276  1.00  0.00    -0.248 NA
ATOM     33  C   UNL A   1      39.220  28.898  31.572  1.00  0.00     0.031 C 
ATOM     34  C   UNL A   1      40.046  28.909  26.866  1.00  0.00     0.029 A 
ATOM     35  N   UNL A   1      41.735  28.700  28.282  1.00  0.00    -0.354 N 
ATOM     36  C   UNL A   1      41.019  29.840  32.590  1.00  0.00     0.074 A 
ATOM     37  C   UNL A   1      39.767  29.154  32.759  1.00  0.00     0.031 C 
ATOM     38  C   UNL A   1      40.950  28.086  26.288  1.00  0.00     0.029 A 
ATOM     39  C   UNL A   1      42.067  27.895  27.197  1.00  0.00     0.049 A 
ATOM     40  H   UNL A   1      42.361  28.894  29.015  1.00  0.00     0.167 HD
ATOM     41  C   UNL A   1      42.149  29.804  33.345  1.00  0.00     0.037 A 
ATOM     42  C   UNL A   1      43.142  27.071  27.105  1.00  0.00     0.037 A 
ATOM     43  C   UNL A   1      43.152  30.699  32.828  1.00  0.00     0.049 A 
ATOM     44  C   UNL A   1      44.125  27.510  28.131  1.00  0.00     0.074 A 
ATOM     45  C   UNL A   1      43.206  32.055  32.571  1.00  0.00     0.029 A 
ATOM     46  N   UNL A   1      44.205  30.144  32.145  1.00  0.00    -0.354 N 
ATOM     47  N   UNL A   1      44.764  28.646  28.101  1.00  0.00    -0.248 NA
ATOM     48  C   UNL A   1      44.092  26.848  29.426  1.00  0.00     0.031 C 
ATOM     49  C   UNL A   1      43.994  32.180  31.391  1.00  0.00     0.029 A 
ATOM     50  C   UNL A   1      44.426  30.904  31.026  1.00  0.00     0.049 A 
ATOM     51  H   UNL A   1      44.712  29.344  32.412  1.00  0.00     0.167 HD
ATOM     52  C   UNL A   1      44.842  29.044  29.428  1.00  0.00     0.074 A 
ATOM     53  C   UNL A   1      44.511  27.851  30.201  1.00  0.00     0.031 C 
ATOM     54  C   UNL A   1      44.893  30.366  29.766  1.00  0.00     0.037 A 
BRANCH  41  55
ATOM     55  C   UNL A   1      42.480  28.663  34.284  1.00  0.00     0.058 A 
ATOM     56  C   UNL A   1      42.753  28.944  35.639  1.00  0.00     0.135 A 
ATOM     57  C   UNL A   1      42.822  27.359  33.855  1.00  0.00     0.135 A 
ATOM     58  F   UNL A   1      42.484  30.154  36.153  1.00  0.00    -0.206 F 
ATOM     59  C   UNL A   1      43.389  28.027  36.478  1.00  0.00     0.059 A 
ATOM     60  C   UNL A   1      43.400  26.412  34.690  1.00  0.00     0.059 A 
ATOM     61  F   UNL A   1      42.709  26.964  32.582  1.00  0.00    -0.206 F 
ATOM     62  C   UNL A   1      43.720  26.768  35.986  1.00  0.00     0.060 A 
BRANCH  62  63
ATOM     63  S   UNL A   1      44.631  25.618  37.029  1.00  0.00     0.124 S 
ATOM     64  O   UNL A   1      44.166  26.003  38.357  1.00  0.00    -0.237 OA
ATOM     65  O   UNL A   1      44.165  24.327  36.534  1.00  0.00    -0.237 OA
ATOM     66  O   UNL A   1      46.026  25.930  36.731  1.00  0.00    -0.744 OA
ENDBRANCH  62  63
ENDBRANCH  41  55
BRANCH  42  67
ATOM     67  C   UNL A   1      43.234  25.735  26.452  1.00  0.00     0.058 A 
ATOM     68  C   UNL A   1      44.154  25.502  25.413  1.00  0.00     0.135 A 
ATOM     69  C   UNL A   1      42.643  24.590  27.025  1.00  0.00     0.135 A 
ATOM     70  F   UNL A   1      44.778  26.532  24.821  1.00  0.00    -0.206 F 
ATOM     71  C   UNL A   1      44.515  24.212  25.009  1.00  0.00     0.059 A 
ATOM     72  C   UNL A   1      42.977  23.295  26.629  1.00  0.00     0.059 A 
ATOM     73  F   UNL A   1      41.793  24.690  28.057  1.00  0.00    -0.206 F 
ATOM     74  C   UNL A   1      43.936  23.112  25.640  1.00  0.00     0.060 A 
BRANCH  74  75
ATOM     75  S   UNL A   1      44.533  21.448  25.254  1.00  0.00     0.124 S 
ATOM     76  O   UNL A   1      45.881  21.476  25.807  1.00  0.00    -0.237 OA
ATOM     77  O   UNL A   1      43.572  20.604  25.955  1.00  0.00    -0.237 OA
ATOM     78  O   UNL A   1      44.458  21.393  23.796  1.00  0.00    -0.744 OA
ENDBRANCH  74  75
ENDBRANCH  42  67
BRANCH  54  79
ATOM     79  C   UNL A   1      45.263  31.363  28.698  1.00  0.00     0.058 A 
ATOM     80  C   UNL A   1      44.382  31.877  27.730  1.00  0.00     0.135 A 
ATOM     81  C   UNL A   1      46.550  31.921  28.753  1.00  0.00     0.135 A 
ATOM     82  F   UNL A   1      43.104  31.473  27.672  1.00  0.00    -0.206 F 
ATOM     83  C   UNL A   1      44.782  32.868  26.829  1.00  0.00     0.059 A 
ATOM     84  C   UNL A   1      46.957  32.931  27.890  1.00  0.00     0.059 A 
ATOM     85  F   UNL A   1      47.420  31.513  29.694  1.00  0.00    -0.206 F 
ATOM     86  C   UNL A   1      46.072  33.391  26.919  1.00  0.00     0.060 A 
BRANCH  86  87
ATOM     87  S   UNL A   1      46.569  34.721  25.802  1.00  0.00     0.124 S 
ATOM     88  O   UNL A   1      47.952  34.368  25.501  1.00  0.00    -0.237 OA
ATOM     89  O   UNL A   1      45.623  34.580  24.699  1.00  0.00    -0.237 OA
ATOM     90  O   UNL A   1      46.395  35.927  26.608  1.00  0.00    -0.744 OA
ENDBRANCH  86  87
ENDBRANCH  54  79
ENDBRANCH  28  29
ENDBRANCH  21  23
ENDBRANCH  20  21
ENDBRANCH  19  20
ENDBRANCH   1  19
TORSDOF 17
ENDMDL
MODEL 2
REMARK VINA RESULT:     -10.5      3.880     11.221
REMARK SMILES COc1ncccc1Cn1ccc(C(=O)OCCOC(=O)c2ccc(-c3c4nc(c(-c5c(F)cc(S(=O)(=O)[O-])cc5F)c5ccc([nH]5)c(-c5c(F)cc(S(=O)(=O)[O-])cc5F)c5nc(c(-c6c(F)cc(S(=O)(=O)[O-])cc6F)c6ccc3[nH]6)C=C5)C=C4)cc2)n1
REMARK SMILES IDX 17 1 16 2 14 3 15 4 13 5 10 6 11 7 88 8 12 9 9 10 8 11 3 12
REMARK SMILES IDX 4 13 5 14 7 15 6 16 2 17 1 18 18 19 19 20 20 21 21 22 22 23
REMARK SMILES IDX 23 24 87 25 24 26 86 27 25 28 26 29 27 30 80 31 28 32 85 33
REMARK SMILES IDX 79 34 81 35 29 36 84 37 78 38 77 39 30 41 64 42 43 43 63 44
REMARK SMILES IDX 44 45 47 46 62 47 82 48 45 49 46 50 61 52 83 53 48 54 31 55
REMARK SMILES IDX 32 56 41 57 33 58 34 59 40 60 42 61 35 62 36 63 37 64 38 65
REMARK SMILES IDX 39 66 65 67 66 68 75 69 67 70 68 71 74 72 76 73 69 74 70 75
REMARK SMILES IDX 71 76 72 77 73 78 49 79 50 80 59 81 51 82 52 83 58 84 60 85
REMARK SMILES IDX 53 86 54 87 55 88 56 89 57 90
REMARK H PARENT 81 40 47 51
REMARK Flexibility Score: inf
ROOT
ATOM      1  C   UNL A   1      41.661  19.615  26.752  1.00  0.00     0.275 C 
ENDROOT
BRANCH   1   2
ATOM      2  O   UNL A   1      40.844  20.561  26.045  1.00  0.00    -0.457 OA
BRANCH   2   3
ATOM      3  C   UNL A   1      40.214  21.485  26.844  1.00  0.00     0.358 C 
ATOM      4  O   UNL A   1      40.603  21.794  27.956  1.00  0.00    -0.244 OA
BRANCH   3   5
ATOM      5  C   UNL A   1      39.003  22.080  26.245  1.00  0.00     0.170 A 
ATOM      6  N   UNL A   1      37.157  22.376  25.214  1.00  0.00    -0.267 N 
ATOM      7  C   UNL A   1      37.477  23.605  25.719  1.00  0.00     0.110 A 
ATOM      8  N   UNL A   1      38.015  21.407  25.615  1.00  0.00    -0.165 NA
ATOM      9  C   UNL A   1      38.710  23.470  26.299  1.00  0.00     0.057 A 
BRANCH   6  10
ATOM     10  C   UNL A   1      35.904  22.030  24.544  1.00  0.00     0.185 C 
BRANCH  10  11
ATOM     11  C   UNL A   1      34.652  22.343  25.319  1.00  0.00     0.036 A 
ATOM     12  C   UNL A   1      33.723  23.294  24.904  1.00  0.00     0.218 A 
ATOM     13  N   UNL A   1      32.659  23.702  25.631  1.00  0.00    -0.222 NA
ATOM     14  C   UNL A   1      32.475  23.107  26.826  1.00  0.00     0.115 A 
ATOM     15  C   UNL A   1      34.415  21.744  26.565  1.00  0.00     0.013 A 
ATOM     16  C   UNL A   1      33.315  22.128  27.329  1.00  0.00     0.021 A 
BRANCH  12  17
ATOM     17  O   UNL A   1      33.925  23.945  23.712  1.00  0.00    -0.481 OA
ATOM     18  C   UNL A   1      32.958  23.495  22.760  1.00  0.00     0.280 C 
ENDBRANCH  12  17
ENDBRANCH  10  11
ENDBRANCH   6  10
ENDBRANCH   3   5
ENDBRANCH   2   3
ENDBRANCH   1   2
BRANCH   1  19
ATOM     19  C   UNL A   1      42.868  19.190  25.928  1.00  0.00     0.275 C 
BRANCH  19  20
ATOM     20  O   UNL A   1      43.216  20.151  24.930  1.00  0.00    -0.458 OA
BRANCH  20  21
ATOM     21  C   UNL A   1      44.465  20.653  25.049  1.00  0.00     0.338 C 
ATOM     22  O   UNL A   1      45.511  20.023  25.046  1.00  0.00    -0.246 OA
BRANCH  21  23
ATOM     23  C   UNL A   1      44.392  22.062  25.448  1.00  0.00     0.060 A 
ATOM     24  C   UNL A   1      45.320  22.510  26.394  1.00  0.00     0.016 A 
ATOM     25  C   UNL A   1      43.285  22.839  25.080  1.00  0.00     0.016 A 
ATOM     26  C   UNL A   1      45.069  23.690  27.064  1.00  0.00     0.010 A 
ATOM     27  C   UNL A   1      43.030  24.011  25.757  1.00  0.00     0.010 A 
ATOM     28  C   UNL A   1      43.896  24.398  26.778  1.00  0.00    -0.014 A 
BRANCH  28  29
ATOM     29  C   UNL A   1      43.668  25.649  27.478  1.00  0.00     0.031 A 
ATOM     30  C   UNL A   1      44.724  26.658  27.214  1.00  0.00     0.074 A 
ATOM     31  C   UNL A   1      42.532  25.912  28.150  1.00  0.00     0.049 A 
ATOM     32  N   UNL A   1      45.551  27.194  28.049  1.00  0.00    -0.248 NA
ATOM     33  C   UNL A   1      44.996  26.992  25.804  1.00  0.00     0.031 C 
ATOM     34  C   UNL A   1      41.307  25.107  28.183  1.00  0.00     0.029 A 
ATOM     35  N   UNL A   1      42.184  27.026  28.850  1.00  0.00    -0.354 N 
ATOM     36  C   UNL A   1      46.282  28.114  27.303  1.00  0.00     0.074 A 
ATOM     37  C   UNL A   1      46.050  27.799  25.921  1.00  0.00     0.031 C 
ATOM     38  C   UNL A   1      40.293  25.862  28.663  1.00  0.00     0.029 A 
ATOM     39  C   UNL A   1      40.819  27.148  29.087  1.00  0.00     0.049 A 
ATOM     40  H   UNL A   1      42.842  27.688  29.163  1.00  0.00     0.167 HD
ATOM     41  C   UNL A   1      46.786  29.240  27.875  1.00  0.00     0.037 A 
ATOM     42  C   UNL A   1      40.172  28.262  29.518  1.00  0.00     0.037 A 
ATOM     43  C   UNL A   1      46.894  29.098  29.304  1.00  0.00     0.049 A 
ATOM     44  C   UNL A   1      41.192  29.158  30.124  1.00  0.00     0.074 A 
ATOM     45  C   UNL A   1      47.543  28.217  30.148  1.00  0.00     0.029 A 
ATOM     46  N   UNL A   1      45.959  29.739  30.077  1.00  0.00    -0.354 N 
ATOM     47  N   UNL A   1      41.849  28.894  31.219  1.00  0.00    -0.248 NA
ATOM     48  C   UNL A   1      41.783  30.181  29.275  1.00  0.00     0.031 C 
ATOM     49  C   UNL A   1      46.664  28.044  31.255  1.00  0.00     0.029 A 
ATOM     50  C   UNL A   1      45.555  28.870  31.056  1.00  0.00     0.049 A 
ATOM     51  H   UNL A   1      45.635  30.661  29.951  1.00  0.00     0.167 HD
ATOM     52  C   UNL A   1      43.125  29.392  30.997  1.00  0.00     0.074 A 
ATOM     53  C   UNL A   1      42.992  30.265  29.835  1.00  0.00     0.031 C 
ATOM     54  C   UNL A   1      44.215  28.834  31.600  1.00  0.00     0.037 A 
BRANCH  41  55
ATOM     55  C   UNL A   1      46.780  30.589  27.187  1.00  0.00     0.058 A 
ATOM     56  C   UNL A   1      47.966  31.351  27.159  1.00  0.00     0.135 A 
ATOM     57  C   UNL A   1      45.604  31.284  26.818  1.00  0.00     0.135 A 
ATOM     58  F   UNL A   1      49.140  30.801  27.504  1.00  0.00    -0.206 F 
ATOM     59  C   UNL A   1      47.970  32.716  26.862  1.00  0.00     0.059 A 
ATOM     60  C   UNL A   1      45.595  32.626  26.461  1.00  0.00     0.059 A 
ATOM     61  F   UNL A   1      44.388  30.730  26.878  1.00  0.00    -0.206 F 
ATOM     62  C   UNL A   1      46.774  33.345  26.529  1.00  0.00     0.060 A 
BRANCH  62  63
ATOM     63  S   UNL A   1      46.753  35.122  26.246  1.00  0.00     0.124 S 
ATOM     64  O   UNL A   1      45.391  35.320  25.762  1.00  0.00    -0.237 OA
ATOM     65  O   UNL A   1      47.044  35.644  27.577  1.00  0.00    -0.237 OA
ATOM     66  O   UNL A   1      47.811  35.316  25.258  1.00  0.00    -0.744 OA
ENDBRANCH  62  63
ENDBRANCH  41  55
BRANCH  42  67
ATOM     67  C   UNL A   1      38.822  28.758  29.133  1.00  0.00     0.058 A 
ATOM     68  C   UNL A   1      37.810  28.919  30.098  1.00  0.00     0.135 A 
ATOM     69  C   UNL A   1      38.585  29.363  27.882  1.00  0.00     0.135 A 
ATOM     70  F   UNL A   1      37.957  28.391  31.323  1.00  0.00    -0.206 F 
ATOM     71  C   UNL A   1      36.664  29.684  29.860  1.00  0.00     0.059 A 
ATOM     72  C   UNL A   1      37.444  30.119  27.617  1.00  0.00     0.059 A 
ATOM     73  F   UNL A   1      39.502  29.319  26.905  1.00  0.00    -0.206 F 
ATOM     74  C   UNL A   1      36.500  30.301  28.621  1.00  0.00     0.060 A 
BRANCH  74  75
ATOM     75  S   UNL A   1      35.118  31.441  28.370  1.00  0.00     0.124 S 
ATOM     76  O   UNL A   1      34.822  31.861  29.735  1.00  0.00    -0.237 OA
ATOM     77  O   UNL A   1      35.708  32.456  27.504  1.00  0.00    -0.237 OA
ATOM     78  O   UNL A   1      34.099  30.604  27.740  1.00  0.00    -0.744 OA
ENDBRANCH  74  75
ENDBRANCH  42  67
BRANCH  54  79
ATOM     79  C   UNL A   1      43.992  27.948  32.799  1.00  0.00     0.058 A 
ATOM     80  C   UNL A   1      43.809  28.401  34.118  1.00  0.00     0.135 A 
ATOM     81  C   UNL A   1      43.825  26.574  32.564  1.00  0.00     0.135 A 
ATOM     82  F   UNL A   1      43.850  29.707  34.413  1.00  0.00    -0.206 F 
ATOM     83  C   UNL A   1      43.516  27.517  35.161  1.00  0.00     0.059 A 
ATOM     84  C   UNL A   1      43.501  25.682  33.580  1.00  0.00     0.059 A 
ATOM     85  F   UNL A   1      43.930  26.087  31.315  1.00  0.00    -0.206 F 
ATOM     86  C   UNL A   1      43.362  26.158  34.881  1.00  0.00     0.060 A 
BRANCH  86  87
ATOM     87  S   UNL A   1      42.917  25.024  36.215  1.00  0.00     0.124 S 
ATOM     88  O   UNL A   1      42.268  25.915  37.171  1.00  0.00    -0.237 OA
ATOM     89  O   UNL A   1      42.041  24.070  35.541  1.00  0.00    -0.237 OA
ATOM     90  O   UNL A   1      44.203  24.479  36.644  1.00  0.00    -0.744 OA
ENDBRANCH  86  87
ENDBRANCH  54  79
ENDBRANCH  28  29
ENDBRANCH  21  23
ENDBRANCH  20  21
ENDBRANCH  19  20
ENDBRANCH   1  19
TORSDOF 17
ENDMDL
MODEL 3
REMARK VINA RESULT:     -10.5      3.684     11.263
REMARK SMILES COc1ncccc1Cn1ccc(C(=O)OCCOC(=O)c2ccc(-c3c4nc(c(-c5c(F)cc(S(=O)(=O)[O-])cc5F)c5ccc([nH]5)c(-c5c(F)cc(S(=O)(=O)[O-])cc5F)c5nc(c(-c6c(F)cc(S(=O)(=O)[O-])cc6F)c6ccc3[nH]6)C=C5)C=C4)cc2)n1
REMARK SMILES IDX 17 1 16 2 14 3 15 4 13 5 10 6 11 7 88 8 12 9 9 10 8 11 3 12
REMARK SMILES IDX 4 13 5 14 7 15 6 16 2 17 1 18 18 19 19 20 20 21 21 22 22 23
REMARK SMILES IDX 23 24 87 25 24 26 86 27 25 28 26 29 27 30 80 31 28 32 85 33
REMARK SMILES IDX 79 34 81 35 29 36 84 37 78 38 77 39 30 41 64 42 43 43 63 44
REMARK SMILES IDX 44 45 47 46 62 47 82 48 45 49 46 50 61 52 83 53 48 54 31 55
REMARK SMILES IDX 32 56 41 57 33 58 34 59 40 60 42 61 35 62 36 63 37 64 38 65
REMARK SMILES IDX 39 66 65 67 66 68 75 69 67 70 68 71 74 72 76 73 69 74 70 75
REMARK SMILES IDX 71 76 72 77 73 78 49 79 50 80 59 81 51 82 52 83 58 84 60 85
REMARK SMILES IDX 53 86 54 87 55 88 56 89 57 90
REMARK H PARENT 81 40 47 51
REMARK Flexibility Score: inf
ROOT
ATOM      1  C   UNL A   1      42.488  18.617  26.087  1.00  0.00     0.275 C 
ENDROOT
BRANCH   1   2
ATOM      2  O   UNL A   1      41.244  19.252  25.753  1.00  0.00    -0.457 OA
BRANCH   2   3
ATOM      3  C   UNL A   1      40.821  20.198  26.657  1.00  0.00     0.358 C 
ATOM      4  O   UNL A   1      41.306  20.337  27.765  1.00  0.00    -0.244 OA
BRANCH   3   5
ATOM      5  C   UNL A   1      39.709  21.042  26.176  1.00  0.00     0.170 A 
ATOM      6  N   UNL A   1      37.936  21.752  25.224  1.00  0.00    -0.267 N 
ATOM      7  C   UNL A   1      38.408  22.824  25.929  1.00  0.00     0.110 A 
ATOM      8  N   UNL A   1      38.652  20.624  25.449  1.00  0.00    -0.165 NA
ATOM      9  C   UNL A   1      39.602  22.429  26.469  1.00  0.00     0.057 A 
BRANCH   6  10
ATOM     10  C   UNL A   1      36.658  21.695  24.514  1.00  0.00     0.185 C 
BRANCH  10  11
ATOM     11  C   UNL A   1      35.677  22.780  24.868  1.00  0.00     0.036 A 
ATOM     12  C   UNL A   1      34.828  22.703  25.969  1.00  0.00     0.218 A 
ATOM     13  N   UNL A   1      33.842  23.585  26.248  1.00  0.00    -0.222 NA
ATOM     14  C   UNL A   1      33.710  24.633  25.411  1.00  0.00     0.115 A 
ATOM     15  C   UNL A   1      35.509  23.892  24.030  1.00  0.00     0.013 A 
ATOM     16  C   UNL A   1      34.516  24.830  24.302  1.00  0.00     0.021 A 
BRANCH  12  17
ATOM     17  O   UNL A   1      34.917  21.615  26.802  1.00  0.00    -0.481 OA
ATOM     18  C   UNL A   1      33.687  21.467  27.516  1.00  0.00     0.280 C 
ENDBRANCH  12  17
ENDBRANCH  10  11
ENDBRANCH   6  10
ENDBRANCH   3   5
ENDBRANCH   2   3
ENDBRANCH   1   2
BRANCH   1  19
ATOM     19  C   UNL A   1      43.575  18.943  25.072  1.00  0.00     0.275 C 
BRANCH  19  20
ATOM     20  O   UNL A   1      44.391  20.043  25.478  1.00  0.00    -0.458 OA
BRANCH  20  21
ATOM     21  C   UNL A   1      44.216  21.167  24.748  1.00  0.00     0.338 C 
ATOM     22  O   UNL A   1      44.597  21.364  23.604  1.00  0.00    -0.246 OA
BRANCH  21  23
ATOM     23  C   UNL A   1      43.716  22.242  25.611  1.00  0.00     0.060 A 
ATOM     24  C   UNL A   1      43.005  23.279  24.997  1.00  0.00     0.016 A 
ATOM     25  C   UNL A   1      44.158  22.338  26.938  1.00  0.00     0.016 A 
ATOM     26  C   UNL A   1      42.841  24.466  25.681  1.00  0.00     0.010 A 
ATOM     27  C   UNL A   1      44.003  23.527  27.614  1.00  0.00     0.010 A 
ATOM     28  C   UNL A   1      43.393  24.597  26.960  1.00  0.00    -0.014 A 
BRANCH  28  29
ATOM     29  C   UNL A   1      43.185  25.847  27.668  1.00  0.00     0.031 A 
ATOM     30  C   UNL A   1      44.276  26.827  27.438  1.00  0.00     0.074 A 
ATOM     31  C   UNL A   1      42.042  26.136  28.317  1.00  0.00     0.049 A 
ATOM     32  N   UNL A   1      45.098  27.330  28.298  1.00  0.00    -0.248 NA
ATOM     33  C   UNL A   1      44.590  27.168  26.039  1.00  0.00     0.031 C 
ATOM     34  C   UNL A   1      40.795  25.366  28.314  1.00  0.00     0.029 A 
ATOM     35  N   UNL A   1      41.711  27.252  29.022  1.00  0.00    -0.354 N 
ATOM     36  C   UNL A   1      45.873  28.236  27.578  1.00  0.00     0.074 A 
ATOM     37  C   UNL A   1      45.663  27.942  26.188  1.00  0.00     0.031 C 
ATOM     38  C   UNL A   1      39.792  26.145  28.779  1.00  0.00     0.029 A 
ATOM     39  C   UNL A   1      40.345  27.412  29.228  1.00  0.00     0.049 A 
ATOM     40  H   UNL A   1      42.380  27.892  29.356  1.00  0.00     0.167 HD
ATOM     41  C   UNL A   1      46.396  29.342  28.174  1.00  0.00     0.037 A 
ATOM     42  C   UNL A   1      39.721  28.539  29.658  1.00  0.00     0.037 A 
ATOM     43  C   UNL A   1      46.467  29.182  29.603  1.00  0.00     0.049 A 
ATOM     44  C   UNL A   1      40.752  29.399  30.296  1.00  0.00     0.074 A 
ATOM     45  C   UNL A   1      47.071  28.274  30.452  1.00  0.00     0.029 A 
ATOM     46  N   UNL A   1      45.533  29.842  30.362  1.00  0.00    -0.354 N 
ATOM     47  N   UNL A   1      41.376  29.105  31.403  1.00  0.00    -0.248 NA
ATOM     48  C   UNL A   1      41.391  30.414  29.472  1.00  0.00     0.031 C 
ATOM     49  C   UNL A   1      46.162  28.116  31.537  1.00  0.00     0.029 A 
ATOM     50  C   UNL A   1      45.083  28.975  31.322  1.00  0.00     0.049 A 
ATOM     51  H   UNL A   1      45.240  30.774  30.239  1.00  0.00     0.167 HD
ATOM     52  C   UNL A   1      42.670  29.568  31.214  1.00  0.00     0.074 A 
ATOM     53  C   UNL A   1      42.590  30.456  30.059  1.00  0.00     0.031 C 
ATOM     54  C   UNL A   1      43.730  28.972  31.836  1.00  0.00     0.037 A 
BRANCH  41  55
ATOM     55  C   UNL A   1      46.444  30.697  27.501  1.00  0.00     0.058 A 
ATOM     56  C   UNL A   1      47.654  31.422  27.502  1.00  0.00     0.135 A 
ATOM     57  C   UNL A   1      45.298  31.432  27.118  1.00  0.00     0.135 A 
ATOM     58  F   UNL A   1      48.804  30.832  27.862  1.00  0.00    -0.206 F 
ATOM     59  C   UNL A   1      47.705  32.789  27.220  1.00  0.00     0.059 A 
ATOM     60  C   UNL A   1      45.337  32.777  26.775  1.00  0.00     0.059 A 
ATOM     61  F   UNL A   1      44.064  30.916  27.150  1.00  0.00    -0.206 F 
ATOM     62  C   UNL A   1      46.536  33.459  26.872  1.00  0.00     0.060 A 
BRANCH  62  63
ATOM     63  S   UNL A   1      46.575  35.239  26.608  1.00  0.00     0.124 S 
ATOM     64  O   UNL A   1      48.010  35.485  26.522  1.00  0.00    -0.237 OA
ATOM     65  O   UNL A   1      45.824  35.376  25.365  1.00  0.00    -0.237 OA
ATOM     66  O   UNL A   1      45.912  35.767  27.797  1.00  0.00    -0.744 OA
ENDBRANCH  62  63
ENDBRANCH  41  55
BRANCH  42  67
ATOM     67  C   UNL A   1      38.394  29.078  29.247  1.00  0.00     0.058 A 
ATOM     68  C   UNL A   1      37.391  29.326  30.202  1.00  0.00     0.135 A 
ATOM     69  C   UNL A   1      38.186  29.638  27.971  1.00  0.00     0.135 A 
ATOM     70  F   UNL A   1      37.513  28.846  31.449  1.00  0.00    -0.206 F 
ATOM     71  C   UNL A   1      36.280  30.131  29.928  1.00  0.00     0.059 A 
ATOM     72  C   UNL A   1      37.080  30.433  27.670  1.00  0.00     0.059 A 
ATOM     73  F   UNL A   1      39.102  29.511  26.999  1.00  0.00    -0.206 F 
ATOM     74  C   UNL A   1      36.145  30.700  28.663  1.00  0.00     0.060 A 
BRANCH  74  75
ATOM     75  S   UNL A   1      34.816  31.889  28.359  1.00  0.00     0.124 S 
ATOM     76  O   UNL A   1      34.401  32.230  29.714  1.00  0.00    -0.237 OA
ATOM     77  O   UNL A   1      35.505  32.940  27.618  1.00  0.00    -0.237 OA
ATOM     78  O   UNL A   1      33.844  31.120  27.585  1.00  0.00    -0.744 OA
ENDBRANCH  74  75
ENDBRANCH  42  67
BRANCH  54  79
ATOM     79  C   UNL A   1      43.455  28.081  33.020  1.00  0.00     0.058 A 
ATOM     80  C   UNL A   1      43.476  26.675  32.997  1.00  0.00     0.135 A 
ATOM     81  C   UNL A   1      43.294  28.700  34.270  1.00  0.00     0.135 A 
ATOM     82  F   UNL A   1      43.725  26.004  31.864  1.00  0.00    -0.206 F 
ATOM     83  C   UNL A   1      43.299  25.922  34.162  1.00  0.00     0.059 A 
ATOM     84  C   UNL A   1      43.150  27.971  35.444  1.00  0.00     0.059 A 
ATOM     85  F   UNL A   1      43.322  30.040  34.365  1.00  0.00    -0.206 F 
ATOM     86  C   UNL A   1      43.139  26.580  35.382  1.00  0.00     0.060 A 
BRANCH  86  87
ATOM     87  S   UNL A   1      42.979  25.610  36.897  1.00  0.00     0.124 S 
ATOM     88  O   UNL A   1      41.668  24.992  36.729  1.00  0.00    -0.237 OA
ATOM     89  O   UNL A   1      44.122  24.705  36.817  1.00  0.00    -0.237 OA
ATOM     90  O   UNL A   1      43.064  26.613  37.956  1.00  0.00    -0.744 OA
ENDBRANCH  86  87
ENDBRANCH  54  79
ENDBRANCH  28  29
ENDBRANCH  21  23
ENDBRANCH  20  21
ENDBRANCH  19  20
ENDBRANCH   1  19
TORSDOF 17
ENDMDL
