MODEL 1
REMARK VINA RESULT:     -11.5      0.000      0.000
REMARK SMILES C[C@@H](Nc1ccc(C(=O)OCCOC(=O)c2ccc(-c3c4nc(c(-c5c(F)cc(S(=O)(=O)[O-])cc5F)c5ccc([nH]5)c(-c5c(F)cc(S(=O)(=O)[O-])cc5F)c5nc(c(-c6c(F)cc(S(=O)(=O)[O-])cc6F)c6ccc3[nH]6)C=C5)C=C4)cc2)cc1)C1CC[NH+](C)CC1
REMARK SMILES IDX 11 1 10 2 8 3 9 4 7 5 4 6 5 7 83 8 6 9 82 10 3 11 2 13 1 14
REMARK SMILES IDX 84 15 85 16 90 17 86 18 89 19 87 20 88 21 12 23 13 24 14 25
REMARK SMILES IDX 15 26 16 27 17 28 81 29 18 30 80 31 19 32 20 33 21 34 74 35
REMARK SMILES IDX 22 36 79 37 73 38 75 39 23 40 78 41 72 42 71 43 24 45 58 46
REMARK SMILES IDX 37 47 57 48 38 49 41 50 56 51 76 52 39 53 40 54 55 56 77 57
REMARK SMILES IDX 42 58 25 59 26 60 35 61 27 62 28 63 34 64 36 65 29 66 30 67
REMARK SMILES IDX 31 68 32 69 33 70 59 71 60 72 69 73 61 74 62 75 68 76 70 77
REMARK SMILES IDX 63 78 64 79 65 80 66 81 67 82 43 83 44 84 53 85 45 86 46 87
REMARK SMILES IDX 52 88 54 89 47 90 48 91 49 92 50 93 51 94
REMARK H PARENT 3 12 87 22 75 44 41 55
REMARK Flexibility Score: inf
ROOT
ATOM      1  C   UNL A   1      38.197  21.650  25.736  1.00  0.00     0.275 C 
ENDROOT
BRANCH   1   2
ATOM      2  O   UNL A   1      37.410  21.579  24.533  1.00  0.00    -0.458 OA
BRANCH   2   3
ATOM      3  C   UNL A   1      36.090  21.382  24.739  1.00  0.00     0.338 C 
ATOM      4  O   UNL A   1      35.538  20.329  25.015  1.00  0.00    -0.246 OA
BRANCH   3   5
ATOM      5  C   UNL A   1      35.369  22.655  24.727  1.00  0.00     0.060 A 
ATOM      6  C   UNL A   1      33.782  25.908  24.439  1.00  0.00     0.034 A 
ATOM      7  C   UNL A   1      34.132  24.946  22.935  1.00  0.00     0.026 A 
ATOM      8  C   UNL A   1      34.062  25.190  26.087  1.00  0.00     0.026 A 
ATOM      9  C   UNL A   1      34.947  23.323  23.084  1.00  0.00     0.018 A 
ATOM     10  C   UNL A   1      34.870  23.536  26.230  1.00  0.00     0.018 A 
BRANCH   6  11
ATOM     11  N   UNL A   1      33.629  27.284  24.286  1.00  0.00    -0.382 N 
ATOM     12  H   UNL A   1      34.358  27.903  24.519  1.00  0.00     0.160 HD
BRANCH  11  13
ATOM     13  C   UNL A   1      32.343  27.789  23.767  1.00  0.00     0.079 C 
ATOM     14  C   UNL A   1      32.619  28.815  22.660  1.00  0.00     0.031 C 
BRANCH  13  15
ATOM     15  C   UNL A   1      31.213  28.299  24.723  1.00  0.00     0.022 C 
ATOM     16  C   UNL A   1      31.077  29.793  25.019  1.00  0.00     0.067 C 
ATOM     17  C   UNL A   1      31.092  27.562  26.048  1.00  0.00     0.067 C 
ATOM     18  C   UNL A   1      32.074  30.363  26.040  1.00  0.00     0.262 C 
ATOM     19  C   UNL A   1      31.735  28.320  27.226  1.00  0.00     0.262 C 
ATOM     20  N   UNL A   1      32.956  29.284  26.829  1.00  0.00    -0.337 N 
ATOM     21  C   UNL A   1      35.010  29.101  27.091  1.00  0.00     0.332 C 
ATOM     22  H   UNL A   1      33.912  29.327  27.183  1.00  0.00     0.347 HD
ENDBRANCH  13  15
ENDBRANCH  11  13
ENDBRANCH   6  11
ENDBRANCH   3   5
ENDBRANCH   2   3
ENDBRANCH   1   2
BRANCH   1  23
ATOM     23  C   UNL A   1      38.611  23.098  26.011  1.00  0.00     0.275 C 
BRANCH  23  24
ATOM     24  O   UNL A   1      39.575  23.186  27.081  1.00  0.00    -0.458 OA
BRANCH  24  25
ATOM     25  C   UNL A   1      40.573  24.076  26.878  1.00  0.00     0.338 C 
ATOM     26  O   UNL A   1      41.512  23.969  26.106  1.00  0.00    -0.246 OA
BRANCH  25  27
ATOM     27  C   UNL A   1      40.364  25.289  27.683  1.00  0.00     0.060 A 
ATOM     28  C   UNL A   1      41.344  26.273  27.651  1.00  0.00     0.016 A 
ATOM     29  C   UNL A   1      39.333  25.369  28.613  1.00  0.00     0.016 A 
ATOM     30  C   UNL A   1      41.389  27.265  28.626  1.00  0.00     0.010 A 
ATOM     31  C   UNL A   1      39.303  26.446  29.511  1.00  0.00     0.010 A 
ATOM     32  C   UNL A   1      40.353  27.385  29.560  1.00  0.00    -0.014 A 
BRANCH  32  33
ATOM     33  C   UNL A   1      40.367  28.478  30.580  1.00  0.00     0.031 A 
ATOM     34  C   UNL A   1      41.344  28.441  31.731  1.00  0.00     0.074 A 
ATOM     35  C   UNL A   1      39.495  29.505  30.490  1.00  0.00     0.049 A 
ATOM     36  N   UNL A   1      41.394  29.192  32.802  1.00  0.00    -0.248 NA
ATOM     37  C   UNL A   1      42.393  27.411  31.676  1.00  0.00     0.031 C 
ATOM     38  C   UNL A   1      38.525  29.703  29.412  1.00  0.00     0.029 A 
ATOM     39  N   UNL A   1      39.276  30.575  31.325  1.00  0.00    -0.354 N 
ATOM     40  C   UNL A   1      42.447  28.698  33.569  1.00  0.00     0.074 A 
ATOM     41  C   UNL A   1      42.984  27.561  32.851  1.00  0.00     0.031 C 
ATOM     42  C   UNL A   1      37.843  30.837  29.630  1.00  0.00     0.029 A 
ATOM     43  C   UNL A   1      38.252  31.396  30.912  1.00  0.00     0.049 A 
ATOM     44  H   UNL A   1      39.802  30.738  32.141  1.00  0.00     0.167 HD
ATOM     45  C   UNL A   1      42.924  29.152  34.755  1.00  0.00     0.037 A 
ATOM     46  C   UNL A   1      37.669  32.453  31.510  1.00  0.00     0.037 A 
ATOM     47  C   UNL A   1      42.392  30.299  35.453  1.00  0.00     0.049 A 
ATOM     48  C   UNL A   1      38.153  32.887  32.865  1.00  0.00     0.074 A 
ATOM     49  C   UNL A   1      42.809  30.845  36.655  1.00  0.00     0.029 A 
ATOM     50  N   UNL A   1      41.325  31.073  35.016  1.00  0.00    -0.354 N 
ATOM     51  N   UNL A   1      39.131  32.395  33.588  1.00  0.00    -0.248 NA
ATOM     52  C   UNL A   1      37.449  34.013  33.490  1.00  0.00     0.031 C 
ATOM     53  C   UNL A   1      41.956  31.906  36.975  1.00  0.00     0.029 A 
ATOM     54  C   UNL A   1      41.053  32.073  35.936  1.00  0.00     0.049 A 
ATOM     55  H   UNL A   1      40.834  30.932  34.175  1.00  0.00     0.167 HD
ATOM     56  C   UNL A   1      39.182  33.175  34.738  1.00  0.00     0.074 A 
ATOM     57  C   UNL A   1      38.142  34.174  34.609  1.00  0.00     0.031 C 
ATOM     58  C   UNL A   1      40.020  33.073  35.799  1.00  0.00     0.037 A 
BRANCH  45  59
ATOM     59  C   UNL A   1      44.055  28.383  35.394  1.00  0.00     0.058 A 
ATOM     60  C   UNL A   1      45.402  28.644  35.095  1.00  0.00     0.135 A 
ATOM     61  C   UNL A   1      43.785  27.367  36.328  1.00  0.00     0.135 A 
ATOM     62  F   UNL A   1      45.725  29.598  34.207  1.00  0.00    -0.206 F 
ATOM     63  C   UNL A   1      46.434  27.892  35.651  1.00  0.00     0.059 A 
ATOM     64  C   UNL A   1      44.803  26.628  36.926  1.00  0.00     0.059 A 
ATOM     65  F   UNL A   1      42.519  27.075  36.665  1.00  0.00    -0.206 F 
ATOM     66  C   UNL A   1      46.123  26.881  36.561  1.00  0.00     0.060 A 
BRANCH  66  67
ATOM     67  S   UNL A   1      47.470  25.892  37.244  1.00  0.00     0.124 S 
ATOM     68  O   UNL A   1      48.275  25.635  36.054  1.00  0.00    -0.237 OA
ATOM     69  O   UNL A   1      48.058  26.800  38.224  1.00  0.00    -0.237 OA
ATOM     70  O   UNL A   1      46.789  24.727  37.802  1.00  0.00    -0.744 OA
ENDBRANCH  66  67
ENDBRANCH  45  59
BRANCH  46  71
ATOM     71  C   UNL A   1      36.553  33.166  30.830  1.00  0.00     0.058 A 
ATOM     72  C   UNL A   1      35.230  33.007  31.265  1.00  0.00     0.135 A 
ATOM     73  C   UNL A   1      36.785  34.039  29.754  1.00  0.00     0.135 A 
ATOM     74  F   UNL A   1      34.953  32.174  32.280  1.00  0.00    -0.206 F 
ATOM     75  C   UNL A   1      34.177  33.685  30.660  1.00  0.00     0.059 A 
ATOM     76  C   UNL A   1      35.753  34.754  29.154  1.00  0.00     0.059 A 
ATOM     77  F   UNL A   1      38.033  34.235  29.303  1.00  0.00    -0.206 F 
ATOM     78  C   UNL A   1      34.450  34.565  29.612  1.00  0.00     0.060 A 
BRANCH  78  79
ATOM     79  S   UNL A   1      33.080  35.489  28.885  1.00  0.00     0.124 S 
ATOM     80  O   UNL A   1      33.786  36.509  28.118  1.00  0.00    -0.237 OA
ATOM     81  O   UNL A   1      32.400  34.461  28.106  1.00  0.00    -0.237 OA
ATOM     82  O   UNL A   1      32.345  35.973  30.050  1.00  0.00    -0.744 OA
ENDBRANCH  78  79
ENDBRANCH  46  71
BRANCH  58  83
ATOM     83  C   UNL A   1      39.888  34.104  36.890  1.00  0.00     0.058 A 
ATOM     84  C   UNL A   1      40.556  35.338  36.837  1.00  0.00     0.135 A 
ATOM     85  C   UNL A   1      39.038  33.868  37.984  1.00  0.00     0.135 A 
ATOM     86  F   UNL A   1      41.389  35.614  35.822  1.00  0.00    -0.206 F 
ATOM     87  C   UNL A   1      40.404  36.289  37.842  1.00  0.00     0.059 A 
ATOM     88  C   UNL A   1      38.844  34.819  38.980  1.00  0.00     0.059 A 
ATOM     89  F   UNL A   1      38.370  32.708  38.083  1.00  0.00    -0.206 F 
ATOM     90  C   UNL A   1      39.541  36.022  38.906  1.00  0.00     0.060 A 
BRANCH  90  91
ATOM     91  S   UNL A   1      39.322  37.285  40.179  1.00  0.00     0.124 S 
ATOM     92  O   UNL A   1      38.539  38.289  39.466  1.00  0.00    -0.237 OA
ATOM     93  O   UNL A   1      38.613  36.552  41.223  1.00  0.00    -0.237 OA
ATOM     94  O   UNL A   1      40.689  37.674  40.511  1.00  0.00    -0.744 OA
ENDBRANCH  90  91
ENDBRANCH  58  83
ENDBRANCH  32  33
ENDBRANCH  25  27
ENDBRANCH  24  25
ENDBRANCH  23  24
ENDBRANCH   1  23
TORSDOF 17
ENDMDL
MODEL 2
REMARK VINA RESULT:     -11.1      1.621      2.723
REMARK SMILES C[C@@H](Nc1ccc(C(=O)OCCOC(=O)c2ccc(-c3c4nc(c(-c5c(F)cc(S(=O)(=O)[O-])cc5F)c5ccc([nH]5)c(-c5c(F)cc(S(=O)(=O)[O-])cc5F)c5nc(c(-c6c(F)cc(S(=O)(=O)[O-])cc6F)c6ccc3[nH]6)C=C5)C=C4)cc2)cc1)C1CC[NH+](C)CC1
REMARK SMILES IDX 11 1 10 2 8 3 9 4 7 5 4 6 5 7 83 8 6 9 82 10 3 11 2 13 1 14
REMARK SMILES IDX 84 15 85 16 90 17 86 18 89 19 87 20 88 21 12 23 13 24 14 25
REMARK SMILES IDX 15 26 16 27 17 28 81 29 18 30 80 31 19 32 20 33 21 34 74 35
REMARK SMILES IDX 22 36 79 37 73 38 75 39 23 40 78 41 72 42 71 43 24 45 58 46
REMARK SMILES IDX 37 47 57 48 38 49 41 50 56 51 76 52 39 53 40 54 55 56 77 57
REMARK SMILES IDX 42 58 25 59 26 60 35 61 27 62 28 63 34 64 36 65 29 66 30 67
REMARK SMILES IDX 31 68 32 69 33 70 59 71 60 72 69 73 61 74 62 75 68 76 70 77
REMARK SMILES IDX 63 78 64 79 65 80 66 81 67 82 43 83 44 84 53 85 45 86 46 87
REMARK SMILES IDX 52 88 54 89 47 90 48 91 49 92 50 93 51 94
REMARK H PARENT 3 12 87 22 75 44 41 55
REMARK Flexibility Score: inf
ROOT
ATOM      1  C   UNL A   1      42.644  21.632  25.980  1.00  0.00     0.275 C 
ENDROOT
BRANCH   1   2
ATOM      2  O   UNL A   1      41.339  21.228  25.527  1.00  0.00    -0.458 OA
BRANCH   2   3
ATOM      3  C   UNL A   1      40.419  21.107  26.509  1.00  0.00     0.338 C 
ATOM      4  O   UNL A   1      40.625  20.833  27.680  1.00  0.00    -0.246 OA
BRANCH   3   5
ATOM      5  C   UNL A   1      39.092  21.488  26.023  1.00  0.00     0.060 A 
ATOM      6  C   UNL A   1      35.769  22.624  25.103  1.00  0.00     0.034 A 
ATOM      7  C   UNL A   1      36.976  23.820  25.750  1.00  0.00     0.026 A 
ATOM      8  C   UNL A   1      36.257  20.907  24.754  1.00  0.00     0.026 A 
ATOM      9  C   UNL A   1      38.637  23.242  26.229  1.00  0.00     0.018 A 
ATOM     10  C   UNL A   1      37.948  20.333  25.225  1.00  0.00     0.018 A 
BRANCH   6  11
ATOM     11  N   UNL A   1      34.423  22.965  25.211  1.00  0.00    -0.382 N 
ATOM     12  H   UNL A   1      34.062  23.345  26.044  1.00  0.00     0.160 HD
BRANCH  11  13
ATOM     13  C   UNL A   1      33.551  22.741  24.040  1.00  0.00     0.079 C 
ATOM     14  C   UNL A   1      34.030  23.628  22.883  1.00  0.00     0.031 C 
BRANCH  13  15
ATOM     15  C   UNL A   1      31.990  22.782  24.157  1.00  0.00     0.022 C 
ATOM     16  C   UNL A   1      31.189  23.813  23.362  1.00  0.00     0.067 C 
ATOM     17  C   UNL A   1      31.438  22.774  25.574  1.00  0.00     0.067 C 
ATOM     18  C   UNL A   1      31.179  25.238  23.939  1.00  0.00     0.262 C 
ATOM     19  C   UNL A   1      31.007  24.169  26.066  1.00  0.00     0.262 C 
ATOM     20  N   UNL A   1      31.801  25.398  25.406  1.00  0.00    -0.337 N 
ATOM     21  C   UNL A   1      33.277  26.659  26.153  1.00  0.00     0.332 C 
ATOM     22  H   UNL A   1      32.315  26.167  25.838  1.00  0.00     0.347 HD
ENDBRANCH  13  15
ENDBRANCH  11  13
ENDBRANCH   6  11
ENDBRANCH   3   5
ENDBRANCH   2   3
ENDBRANCH   1   2
BRANCH   1  23
ATOM     23  C   UNL A   1      42.938  23.066  25.531  1.00  0.00     0.275 C 
BRANCH  23  24
ATOM     24  O   UNL A   1      42.172  24.031  26.281  1.00  0.00    -0.458 OA
BRANCH  24  25
ATOM     25  C   UNL A   1      42.252  25.302  25.824  1.00  0.00     0.338 C 
ATOM     26  O   UNL A   1      42.610  25.667  24.716  1.00  0.00    -0.246 OA
BRANCH  25  27
ATOM     27  C   UNL A   1      41.772  26.253  26.838  1.00  0.00     0.060 A 
ATOM     28  C   UNL A   1      42.291  27.542  26.822  1.00  0.00     0.016 A 
ATOM     29  C   UNL A   1      40.993  25.834  27.910  1.00  0.00     0.016 A 
ATOM     30  C   UNL A   1      42.157  28.376  27.929  1.00  0.00     0.010 A 
ATOM     31  C   UNL A   1      40.745  26.722  28.966  1.00  0.00     0.010 A 
ATOM     32  C   UNL A   1      41.358  27.990  29.012  1.00  0.00    -0.014 A 
BRANCH  32  33
ATOM     33  C   UNL A   1      41.169  28.900  30.184  1.00  0.00     0.031 A 
ATOM     34  C   UNL A   1      42.073  28.798  31.389  1.00  0.00     0.074 A 
ATOM     35  C   UNL A   1      40.176  29.815  30.182  1.00  0.00     0.049 A 
ATOM     36  N   UNL A   1      41.961  29.368  32.562  1.00  0.00    -0.248 NA
ATOM     37  C   UNL A   1      43.249  27.923  31.261  1.00  0.00     0.031 C 
ATOM     38  C   UNL A   1      39.253  30.065  29.073  1.00  0.00     0.029 A 
ATOM     39  N   UNL A   1      39.771  30.704  31.149  1.00  0.00    -0.354 N 
ATOM     40  C   UNL A   1      43.022  28.889  33.326  1.00  0.00     0.074 A 
ATOM     41  C   UNL A   1      43.746  27.954  32.489  1.00  0.00     0.031 C 
ATOM     42  C   UNL A   1      38.418  31.059  29.405  1.00  0.00     0.029 A 
ATOM     43  C   UNL A   1      38.674  31.451  30.785  1.00  0.00     0.049 A 
ATOM     44  H   UNL A   1      40.222  30.796  32.019  1.00  0.00     0.167 HD
ATOM     45  C   UNL A   1      43.365  29.201  34.600  1.00  0.00     0.037 A 
ATOM     46  C   UNL A   1      37.922  32.320  31.489  1.00  0.00     0.037 A 
ATOM     47  C   UNL A   1      42.647  30.149  35.419  1.00  0.00     0.049 A 
ATOM     48  C   UNL A   1      38.265  32.587  32.927  1.00  0.00     0.074 A 
ATOM     49  C   UNL A   1      42.918  30.543  36.719  1.00  0.00     0.029 A 
ATOM     50  N   UNL A   1      41.516  30.849  35.022  1.00  0.00    -0.354 N 
ATOM     51  N   UNL A   1      39.254  32.108  33.642  1.00  0.00    -0.248 NA
ATOM     52  C   UNL A   1      37.384  33.506  33.658  1.00  0.00     0.031 C 
ATOM     53  C   UNL A   1      41.915  31.429  37.128  1.00  0.00     0.029 A 
ATOM     54  C   UNL A   1      41.061  31.650  36.059  1.00  0.00     0.049 A 
ATOM     55  H   UNL A   1      41.097  30.786  34.133  1.00  0.00     0.167 HD
ATOM     56  C   UNL A   1      39.135  32.695  34.897  1.00  0.00     0.074 A 
ATOM     57  C   UNL A   1      37.982  33.569  34.839  1.00  0.00     0.031 C 
ATOM     58  C   UNL A   1      39.916  32.526  35.993  1.00  0.00     0.037 A 
BRANCH  45  59
ATOM     59  C   UNL A   1      44.548  28.482  35.203  1.00  0.00     0.058 A 
ATOM     60  C   UNL A   1      45.853  28.996  35.132  1.00  0.00     0.135 A 
ATOM     61  C   UNL A   1      44.371  27.256  35.868  1.00  0.00     0.135 A 
ATOM     62  F   UNL A   1      46.089  30.160  34.506  1.00  0.00    -0.206 F 
ATOM     63  C   UNL A   1      46.943  28.297  35.646  1.00  0.00     0.059 A 
ATOM     64  C   UNL A   1      45.440  26.558  36.423  1.00  0.00     0.059 A 
ATOM     65  F   UNL A   1      43.147  26.716  35.979  1.00  0.00    -0.206 F 
ATOM     66  C   UNL A   1      46.726  27.075  36.284  1.00  0.00     0.060 A 
BRANCH  66  67
ATOM     67  S   UNL A   1      48.154  26.165  36.910  1.00  0.00     0.124 S 
ATOM     68  O   UNL A   1      48.136  24.976  36.063  1.00  0.00    -0.237 OA
ATOM     69  O   UNL A   1      49.250  27.098  36.669  1.00  0.00    -0.237 OA
ATOM     70  O   UNL A   1      47.825  25.937  38.314  1.00  0.00    -0.744 OA
ENDBRANCH  66  67
ENDBRANCH  45  59
BRANCH  46  71
ATOM     71  C   UNL A   1      36.764  32.993  30.838  1.00  0.00     0.058 A 
ATOM     72  C   UNL A   1      35.451  32.593  31.121  1.00  0.00     0.135 A 
ATOM     73  C   UNL A   1      36.941  34.065  29.946  1.00  0.00     0.135 A 
ATOM     74  F   UNL A   1      35.228  31.565  31.955  1.00  0.00    -0.206 F 
ATOM     75  C   UNL A   1      34.355  33.225  30.544  1.00  0.00     0.059 A 
ATOM     76  C   UNL A   1      35.861  34.736  29.383  1.00  0.00     0.059 A 
ATOM     77  F   UNL A   1      38.177  34.495  29.648  1.00  0.00    -0.206 F 
ATOM     78  C   UNL A   1      34.571  34.304  29.685  1.00  0.00     0.060 A 
BRANCH  78  79
ATOM     79  S   UNL A   1      33.135  35.159  29.001  1.00  0.00     0.124 S 
ATOM     80  O   UNL A   1      32.578  34.141  28.118  1.00  0.00    -0.237 OA
ATOM     81  O   UNL A   1      32.360  35.458  30.200  1.00  0.00    -0.237 OA
ATOM     82  O   UNL A   1      33.720  36.319  28.335  1.00  0.00    -0.744 OA
ENDBRANCH  78  79
ENDBRANCH  46  71
BRANCH  58  83
ATOM     83  C   UNL A   1      39.586  33.346  37.213  1.00  0.00     0.058 A 
ATOM     84  C   UNL A   1      38.659  32.916  38.176  1.00  0.00     0.135 A 
ATOM     85  C   UNL A   1      40.248  34.564  37.444  1.00  0.00     0.135 A 
ATOM     86  F   UNL A   1      37.988  31.767  38.003  1.00  0.00    -0.206 F 
ATOM     87  C   UNL A   1      38.383  33.675  39.310  1.00  0.00     0.059 A 
ATOM     88  C   UNL A   1      40.014  35.320  38.588  1.00  0.00     0.059 A 
ATOM     89  F   UNL A   1      41.150  35.022  36.560  1.00  0.00    -0.206 F 
ATOM     90  C   UNL A   1      39.071  34.873  39.509  1.00  0.00     0.060 A 
BRANCH  90  91
ATOM     91  S   UNL A   1      38.733  35.824  41.006  1.00  0.00     0.124 S 
ATOM     92  O   UNL A   1      39.961  35.620  41.769  1.00  0.00    -0.237 OA
ATOM     93  O   UNL A   1      38.530  37.170  40.480  1.00  0.00    -0.237 OA
ATOM     94  O   UNL A   1      37.541  35.185  41.555  1.00  0.00    -0.744 OA
ENDBRANCH  90  91
ENDBRANCH  58  83
ENDBRANCH  32  33
ENDBRANCH  25  27
ENDBRANCH  24  25
ENDBRANCH  23  24
ENDBRANCH   1  23
TORSDOF 17
ENDMDL
MODEL 3
REMARK VINA RESULT:     -11.1      2.297      2.942
REMARK SMILES C[C@@H](Nc1ccc(C(=O)OCCOC(=O)c2ccc(-c3c4nc(c(-c5c(F)cc(S(=O)(=O)[O-])cc5F)c5ccc([nH]5)c(-c5c(F)cc(S(=O)(=O)[O-])cc5F)c5nc(c(-c6c(F)cc(S(=O)(=O)[O-])cc6F)c6ccc3[nH]6)C=C5)C=C4)cc2)cc1)C1CC[NH+](C)CC1
REMARK SMILES IDX 11 1 10 2 8 3 9 4 7 5 4 6 5 7 83 8 6 9 82 10 3 11 2 13 1 14
REMARK SMILES IDX 84 15 85 16 90 17 86 18 89 19 87 20 88 21 12 23 13 24 14 25
REMARK SMILES IDX 15 26 16 27 17 28 81 29 18 30 80 31 19 32 20 33 21 34 74 35
REMARK SMILES IDX 22 36 79 37 73 38 75 39 23 40 78 41 72 42 71 43 24 45 58 46
REMARK SMILES IDX 37 47 57 48 38 49 41 50 56 51 76 52 39 53 40 54 55 56 77 57
REMARK SMILES IDX 42 58 25 59 26 60 35 61 27 62 28 63 34 64 36 65 29 66 30 67
REMARK SMILES IDX 31 68 32 69 33 70 59 71 60 72 69 73 61 74 62 75 68 76 70 77
REMARK SMILES IDX 63 78 64 79 65 80 66 81 67 82 43 83 44 84 53 85 45 86 46 87
REMARK SMILES IDX 52 88 54 89 47 90 48 91 49 92 50 93 51 94
REMARK H PARENT 3 12 87 22 75 44 41 55
REMARK Flexibility Score: inf
ROOT
ATOM      1  C   UNL A   1      35.501  22.698  24.770  1.00  0.00     0.275 C 
ENDROOT
BRANCH   1   2
ATOM      2  O   UNL A   1      35.393  21.322  25.177  1.00  0.00    -0.458 OA
BRANCH   2   3
ATOM      3  C   UNL A   1      34.209  20.743  24.883  1.00  0.00     0.338 C 
ATOM      4  O   UNL A   1      34.010  19.566  24.628  1.00  0.00    -0.246 OA
BRANCH   3   5
ATOM      5  C   UNL A   1      33.112  21.699  25.042  1.00  0.00     0.060 A 
ATOM      6  C   UNL A   1      30.520  24.237  25.168  1.00  0.00     0.034 A 
ATOM      7  C   UNL A   1      30.995  23.521  23.565  1.00  0.00     0.026 A 
ATOM      8  C   UNL A   1      31.205  23.579  26.719  1.00  0.00     0.026 A 
ATOM      9  C   UNL A   1      32.311  22.262  23.505  1.00  0.00     0.018 A 
ATOM     10  C   UNL A   1      32.525  22.289  26.651  1.00  0.00     0.018 A 
BRANCH   6  11
ATOM     11  N   UNL A   1      29.906  25.487  25.144  1.00  0.00    -0.382 N 
ATOM     12  H   UNL A   1      28.932  25.575  25.249  1.00  0.00     0.160 HD
BRANCH  11  13
ATOM     13  C   UNL A   1      30.758  26.678  24.955  1.00  0.00     0.079 C 
ATOM     14  C   UNL A   1      30.161  27.549  23.841  1.00  0.00     0.031 C 
BRANCH  13  15
ATOM     15  C   UNL A   1      32.311  26.562  24.793  1.00  0.00     0.022 C 
ATOM     16  C   UNL A   1      33.212  26.552  26.029  1.00  0.00     0.067 C 
ATOM     17  C   UNL A   1      32.938  27.512  23.784  1.00  0.00     0.067 C 
ATOM     18  C   UNL A   1      33.472  27.921  26.675  1.00  0.00     0.262 C 
ATOM     19  C   UNL A   1      33.604  28.739  24.437  1.00  0.00     0.262 C 
ATOM     20  N   UNL A   1      32.969  29.192  25.840  1.00  0.00    -0.337 N 
ATOM     21  C   UNL A   1      31.749  30.794  26.359  1.00  0.00     0.332 C 
ATOM     22  H   UNL A   1      32.604  30.095  26.145  1.00  0.00     0.347 HD
ENDBRANCH  13  15
ENDBRANCH  11  13
ENDBRANCH   6  11
ENDBRANCH   3   5
ENDBRANCH   2   3
ENDBRANCH   1   2
BRANCH   1  23
ATOM     23  C   UNL A   1      36.899  22.975  24.211  1.00  0.00     0.275 C 
BRANCH  23  24
ATOM     24  O   UNL A   1      37.649  23.868  25.061  1.00  0.00    -0.458 OA
BRANCH  24  25
ATOM     25  C   UNL A   1      38.600  23.273  25.816  1.00  0.00     0.338 C 
ATOM     26  O   UNL A   1      38.931  22.098  25.796  1.00  0.00    -0.246 OA
BRANCH  25  27
ATOM     27  C   UNL A   1      39.284  24.258  26.669  1.00  0.00     0.060 A 
ATOM     28  C   UNL A   1      38.972  24.278  28.022  1.00  0.00     0.016 A 
ATOM     29  C   UNL A   1      40.053  25.277  26.119  1.00  0.00     0.016 A 
ATOM     30  C   UNL A   1      39.302  25.377  28.811  1.00  0.00     0.010 A 
ATOM     31  C   UNL A   1      40.501  26.318  26.945  1.00  0.00     0.010 A 
ATOM     32  C   UNL A   1      40.096  26.407  28.292  1.00  0.00    -0.014 A 
BRANCH  32  33
ATOM     33  C   UNL A   1      40.497  27.567  29.146  1.00  0.00     0.031 A 
ATOM     34  C   UNL A   1      41.798  27.544  29.912  1.00  0.00     0.074 A 
ATOM     35  C   UNL A   1      39.691  28.645  29.252  1.00  0.00     0.049 A 
ATOM     36  N   UNL A   1      42.234  28.364  30.834  1.00  0.00    -0.248 NA
ATOM     37  C   UNL A   1      42.722  26.439  29.612  1.00  0.00     0.031 C 
ATOM     38  C   UNL A   1      38.427  28.834  28.537  1.00  0.00     0.029 A 
ATOM     39  N   UNL A   1      39.809  29.785  30.009  1.00  0.00    -0.354 N 
ATOM     40  C   UNL A   1      43.459  27.854  31.256  1.00  0.00     0.074 A 
ATOM     41  C   UNL A   1      43.677  26.631  30.510  1.00  0.00     0.031 C 
ATOM     42  C   UNL A   1      37.908  30.027  28.859  1.00  0.00     0.029 A 
ATOM     43  C   UNL A   1      38.743  30.646  29.879  1.00  0.00     0.049 A 
ATOM     44  H   UNL A   1      40.583  29.969  30.589  1.00  0.00     0.167 HD
ATOM     45  C   UNL A   1      44.323  28.357  32.172  1.00  0.00     0.037 A 
ATOM     46  C   UNL A   1      38.439  31.783  30.536  1.00  0.00     0.037 A 
ATOM     47  C   UNL A   1      44.103  29.587  32.897  1.00  0.00     0.049 A 
ATOM     48  C   UNL A   1      39.365  32.278  31.611  1.00  0.00     0.074 A 
ATOM     49  C   UNL A   1      44.920  30.188  33.840  1.00  0.00     0.029 A 
ATOM     50  N   UNL A   1      42.988  30.402  32.763  1.00  0.00    -0.354 N 
ATOM     51  N   UNL A   1      40.504  31.771  32.016  1.00  0.00    -0.248 NA
ATOM     52  C   UNL A   1      38.958  33.495  32.325  1.00  0.00     0.031 C 
ATOM     53  C   UNL A   1      44.269  31.328  34.322  1.00  0.00     0.029 A 
ATOM     54  C   UNL A   1      43.081  31.484  33.625  1.00  0.00     0.049 A 
ATOM     55  H   UNL A   1      42.239  30.236  32.146  1.00  0.00     0.167 HD
ATOM     56  C   UNL A   1      40.969  32.627  33.008  1.00  0.00     0.074 A 
ATOM     57  C   UNL A   1      39.990  33.687  33.135  1.00  0.00     0.031 C 
ATOM     58  C   UNL A   1      42.106  32.542  33.742  1.00  0.00     0.037 A 
BRANCH  45  59
ATOM     59  C   UNL A   1      45.567  27.557  32.475  1.00  0.00     0.058 A 
ATOM     60  C   UNL A   1      46.772  27.755  31.782  1.00  0.00     0.135 A 
ATOM     61  C   UNL A   1      45.553  26.575  33.481  1.00  0.00     0.135 A 
ATOM     62  F   UNL A   1      46.849  28.674  30.806  1.00  0.00    -0.206 F 
ATOM     63  C   UNL A   1      47.897  26.974  32.034  1.00  0.00     0.059 A 
ATOM     64  C   UNL A   1      46.678  25.808  33.777  1.00  0.00     0.059 A 
ATOM     65  F   UNL A   1      44.435  26.343  34.187  1.00  0.00    -0.206 F 
ATOM     66  C   UNL A   1      47.838  25.998  33.029  1.00  0.00     0.060 A 
BRANCH  66  67
ATOM     67  S   UNL A   1      49.294  24.970  33.317  1.00  0.00     0.124 S 
ATOM     68  O   UNL A   1      49.823  24.831  31.964  1.00  0.00    -0.237 OA
ATOM     69  O   UNL A   1      50.084  25.795  34.225  1.00  0.00    -0.237 OA
ATOM     70  O   UNL A   1      48.741  23.751  33.901  1.00  0.00    -0.744 OA
ENDBRANCH  66  67
ENDBRANCH  45  59
BRANCH  46  71
ATOM     71  C   UNL A   1      37.193  32.523  30.194  1.00  0.00     0.058 A 
ATOM     72  C   UNL A   1      35.987  32.235  30.848  1.00  0.00     0.135 A 
ATOM     73  C   UNL A   1      37.185  33.550  29.235  1.00  0.00     0.135 A 
ATOM     74  F   UNL A   1      35.937  31.255  31.763  1.00  0.00    -0.206 F 
ATOM     75  C   UNL A   1      34.818  32.933  30.563  1.00  0.00     0.059 A 
ATOM     76  C   UNL A   1      36.037  34.285  28.957  1.00  0.00     0.059 A 
ATOM     77  F   UNL A   1      38.315  33.873  28.586  1.00  0.00    -0.206 F 
ATOM     78  C   UNL A   1      34.857  33.964  29.624  1.00  0.00     0.060 A 
BRANCH  78  79
ATOM     79  S   UNL A   1      33.347  34.906  29.318  1.00  0.00     0.124 S 
ATOM     80  O   UNL A   1      33.881  36.158  28.794  1.00  0.00    -0.237 OA
ATOM     81  O   UNL A   1      32.649  34.058  28.358  1.00  0.00    -0.237 OA
ATOM     82  O   UNL A   1      32.728  34.989  30.637  1.00  0.00    -0.744 OA
ENDBRANCH  78  79
ENDBRANCH  46  71
BRANCH  58  83
ATOM     83  C   UNL A   1      42.390  33.657  34.715  1.00  0.00     0.058 A 
ATOM     84  C   UNL A   1      42.881  34.905  34.301  1.00  0.00     0.135 A 
ATOM     85  C   UNL A   1      42.117  33.485  36.083  1.00  0.00     0.135 A 
ATOM     86  F   UNL A   1      43.170  35.123  33.009  1.00  0.00    -0.206 F 
ATOM     87  C   UNL A   1      43.115  35.933  35.210  1.00  0.00     0.059 A 
ATOM     88  C   UNL A   1      42.309  34.510  37.004  1.00  0.00     0.059 A 
ATOM     89  F   UNL A   1      41.639  32.314  36.535  1.00  0.00    -0.206 F 
ATOM     90  C   UNL A   1      42.820  35.726  36.560  1.00  0.00     0.060 A 
BRANCH  90  91
ATOM     91  S   UNL A   1      43.089  37.083  37.720  1.00  0.00     0.124 S 
ATOM     92  O   UNL A   1      43.705  38.089  36.860  1.00  0.00    -0.237 OA
ATOM     93  O   UNL A   1      41.733  37.380  38.170  1.00  0.00    -0.237 OA
ATOM     94  O   UNL A   1      43.965  36.500  38.730  1.00  0.00    -0.744 OA
ENDBRANCH  90  91
ENDBRANCH  58  83
ENDBRANCH  32  33
ENDBRANCH  25  27
ENDBRANCH  24  25
ENDBRANCH  23  24
ENDBRANCH   1  23
TORSDOF 17
ENDMDL
