MODEL 1
REMARK VINA RESULT:     -11.4      0.000      0.000
REMARK SMILES O=C(OCCOC(=O)c1ccc(-c2c(F)cccc2F)cn1)c1ccc(-c2c3nc(c(-c4c(F)cc(S(=O)(=O)[O-])cc4F)c4ccc([nH]4)c(-c4c(F)cc(S(=O)(=O)[O-])cc4F)c4nc(c(-c5c(F)cc(S(=O)(=O)[O-])cc5F)c5ccc2[nH]5)C=C4)C=C3)cc1
REMARK SMILES IDX 4 1 3 2 2 3 1 4 23 5 24 6 88 7 25 8 87 9 26 10 27 11 28 12
REMARK SMILES IDX 81 13 29 14 86 15 80 16 82 17 30 18 85 19 79 20 78 21 31 23
REMARK SMILES IDX 65 24 44 25 64 26 45 27 48 28 63 29 83 30 46 31 47 32 62 34
REMARK SMILES IDX 84 35 49 36 32 37 33 38 42 39 34 40 35 41 41 42 43 43 36 44
REMARK SMILES IDX 37 45 38 46 39 47 40 48 66 49 67 50 76 51 68 52 69 53 75 54
REMARK SMILES IDX 77 55 70 56 71 57 72 58 73 59 74 60 50 61 51 62 60 63 52 64
REMARK SMILES IDX 53 65 59 66 61 67 54 68 55 69 56 70 57 71 58 72 5 73 6 74
REMARK SMILES IDX 7 75 8 76 9 77 10 78 22 79 11 80 21 81 12 82 13 83 14 84
REMARK SMILES IDX 19 85 15 86 16 87 18 88 20 89 17 90
REMARK H PARENT 82 22 48 33
REMARK Flexibility Score: inf
ROOT
ATOM      1  C   UNL A   1      42.990  23.396  26.641  1.00  0.00     0.275 C 
ENDROOT
BRANCH   1   2
ATOM      2  O   UNL A   1      42.162  24.272  25.855  1.00  0.00    -0.458 OA
BRANCH   2   3
ATOM      3  C   UNL A   1      42.054  25.622  25.906  1.00  0.00     0.338 C 
ATOM      4  O   UNL A   1      42.348  26.284  24.911  1.00  0.00    -0.246 OA
BRANCH   3   5
ATOM      5  C   UNL A   1      41.718  26.364  27.160  1.00  0.00     0.060 A 
ATOM      6  C   UNL A   1      40.645  26.078  28.006  1.00  0.00     0.016 A 
ATOM      7  C   UNL A   1      42.524  27.476  27.470  1.00  0.00     0.016 A 
ATOM      8  C   UNL A   1      40.422  26.828  29.162  1.00  0.00     0.010 A 
ATOM      9  C   UNL A   1      42.301  28.238  28.624  1.00  0.00     0.010 A 
ATOM     10  C   UNL A   1      41.245  27.913  29.478  1.00  0.00    -0.014 A 
BRANCH  10  11
ATOM     11  C   UNL A   1      40.901  28.748  30.650  1.00  0.00     0.031 A 
ATOM     12  C   UNL A   1      41.697  28.586  31.910  1.00  0.00     0.074 A 
ATOM     13  C   UNL A   1      39.966  29.711  30.542  1.00  0.00     0.049 A 
ATOM     14  N   UNL A   1      41.661  29.304  33.000  1.00  0.00    -0.248 NA
ATOM     15  C   UNL A   1      42.695  27.502  31.932  1.00  0.00     0.031 C 
ATOM     16  C   UNL A   1      39.204  30.003  29.330  1.00  0.00     0.029 A 
ATOM     17  N   UNL A   1      39.507  30.631  31.448  1.00  0.00    -0.354 N 
ATOM     18  C   UNL A   1      42.668  28.799  33.812  1.00  0.00     0.074 A 
ATOM     19  C   UNL A   1      43.252  27.673  33.122  1.00  0.00     0.031 C 
ATOM     20  C   UNL A   1      38.342  31.002  29.575  1.00  0.00     0.029 A 
ATOM     21  C   UNL A   1      38.503  31.435  30.957  1.00  0.00     0.049 A 
ATOM     22  H   UNL A   1      39.860  30.709  32.364  1.00  0.00     0.167 HD
ATOM     23  C   UNL A   1      43.087  29.264  35.011  1.00  0.00     0.037 A 
ATOM     24  C   UNL A   1      37.803  32.417  31.559  1.00  0.00     0.037 A 
ATOM     25  C   UNL A   1      42.467  30.362  35.703  1.00  0.00     0.049 A 
ATOM     26  C   UNL A   1      38.193  32.816  32.956  1.00  0.00     0.074 A 
ATOM     27  C   UNL A   1      42.780  30.886  36.943  1.00  0.00     0.029 A 
ATOM     28  N   UNL A   1      41.398  31.098  35.212  1.00  0.00    -0.354 N 
ATOM     29  N   UNL A   1      39.163  32.343  33.704  1.00  0.00    -0.248 NA
ATOM     30  C   UNL A   1      37.421  33.895  33.584  1.00  0.00     0.031 C 
ATOM     31  C   UNL A   1      41.871  31.913  37.222  1.00  0.00     0.029 A 
ATOM     32  C   UNL A   1      41.022  32.059  36.135  1.00  0.00     0.049 A 
ATOM     33  H   UNL A   1      40.969  30.959  34.337  1.00  0.00     0.167 HD
ATOM     34  C   UNL A   1      39.144  33.094  34.872  1.00  0.00     0.074 A 
ATOM     35  C   UNL A   1      38.067  34.054  34.731  1.00  0.00     0.031 C 
ATOM     36  C   UNL A   1      39.948  33.005  35.961  1.00  0.00     0.037 A 
BRANCH  23  37
ATOM     37  C   UNL A   1      44.267  28.584  35.640  1.00  0.00     0.058 A 
ATOM     38  C   UNL A   1      44.093  27.514  36.529  1.00  0.00     0.135 A 
ATOM     39  C   UNL A   1      45.578  29.017  35.381  1.00  0.00     0.135 A 
ATOM     40  F   UNL A   1      42.861  27.054  36.800  1.00  0.00    -0.206 F 
ATOM     41  C   UNL A   1      45.177  26.898  37.151  1.00  0.00     0.059 A 
ATOM     42  C   UNL A   1      46.676  28.405  35.976  1.00  0.00     0.059 A 
ATOM     43  F   UNL A   1      45.800  30.022  34.518  1.00  0.00    -0.206 F 
ATOM     44  C   UNL A   1      46.465  27.349  36.864  1.00  0.00     0.060 A 
BRANCH  44  45
ATOM     45  S   UNL A   1      47.902  26.580  37.640  1.00  0.00     0.124 S 
ATOM     46  O   UNL A   1      48.135  27.470  38.772  1.00  0.00    -0.237 OA
ATOM     47  O   UNL A   1      47.398  25.251  37.973  1.00  0.00    -0.237 OA
ATOM     48  O   UNL A   1      48.917  26.619  36.593  1.00  0.00    -0.744 OA
ENDBRANCH  44  45
ENDBRANCH  23  37
BRANCH  24  49
ATOM     49  C   UNL A   1      36.686  33.093  30.846  1.00  0.00     0.058 A 
ATOM     50  C   UNL A   1      35.349  32.835  31.194  1.00  0.00     0.135 A 
ATOM     51  C   UNL A   1      36.922  34.024  29.823  1.00  0.00     0.135 A 
ATOM     52  F   UNL A   1      35.065  31.940  32.153  1.00  0.00    -0.206 F 
ATOM     53  C   UNL A   1      34.288  33.478  30.562  1.00  0.00     0.059 A 
ATOM     54  C   UNL A   1      35.878  34.697  29.192  1.00  0.00     0.059 A 
ATOM     55  F   UNL A   1      38.180  34.307  29.451  1.00  0.00    -0.206 F 
ATOM     56  C   UNL A   1      34.564  34.420  29.573  1.00  0.00     0.060 A 
BRANCH  56  57
ATOM     57  S   UNL A   1      33.219  35.298  28.745  1.00  0.00     0.124 S 
ATOM     58  O   UNL A   1      33.953  36.262  27.934  1.00  0.00    -0.237 OA
ATOM     59  O   UNL A   1      32.558  34.219  28.017  1.00  0.00    -0.237 OA
ATOM     60  O   UNL A   1      32.452  35.859  29.853  1.00  0.00    -0.744 OA
ENDBRANCH  56  57
ENDBRANCH  24  49
BRANCH  36  61
ATOM     61  C   UNL A   1      39.708  33.989  37.069  1.00  0.00     0.058 A 
ATOM     62  C   UNL A   1      40.287  35.267  37.020  1.00  0.00     0.135 A 
ATOM     63  C   UNL A   1      38.956  33.647  38.203  1.00  0.00     0.135 A 
ATOM     64  F   UNL A   1      41.024  35.636  35.961  1.00  0.00    -0.206 F 
ATOM     65  C   UNL A   1      40.133  36.175  38.062  1.00  0.00     0.059 A 
ATOM     66  C   UNL A   1      38.767  34.548  39.243  1.00  0.00     0.059 A 
ATOM     67  F   UNL A   1      38.378  32.439  38.291  1.00  0.00    -0.206 F 
ATOM     68  C   UNL A   1      39.362  35.809  39.164  1.00  0.00     0.060 A 
BRANCH  68  69
ATOM     69  S   UNL A   1      39.134  36.956  40.538  1.00  0.00     0.124 S 
ATOM     70  O   UNL A   1      38.520  36.093  41.542  1.00  0.00    -0.237 OA
ATOM     71  O   UNL A   1      40.503  37.381  40.818  1.00  0.00    -0.237 OA
ATOM     72  O   UNL A   1      38.265  37.988  39.981  1.00  0.00    -0.744 OA
ENDBRANCH  68  69
ENDBRANCH  36  61
ENDBRANCH  10  11
ENDBRANCH   3   5
ENDBRANCH   2   3
ENDBRANCH   1   2
BRANCH   1  73
ATOM     73  C   UNL A   1      42.860  21.909  26.302  1.00  0.00     0.275 C 
BRANCH  73  74
ATOM     74  O   UNL A   1      41.584  21.559  25.750  1.00  0.00    -0.457 OA
BRANCH  74  75
ATOM     75  C   UNL A   1      40.631  21.255  26.675  1.00  0.00     0.357 C 
ATOM     76  O   UNL A   1      40.817  20.689  27.741  1.00  0.00    -0.244 OA
BRANCH  75  77
ATOM     77  C   UNL A   1      39.319  21.782  26.217  1.00  0.00     0.148 A 
ATOM     78  C   UNL A   1      38.958  23.096  26.473  1.00  0.00     0.037 A 
ATOM     79  N   UNL A   1      38.535  20.908  25.537  1.00  0.00    -0.249 NA
ATOM     80  C   UNL A   1      37.717  23.538  26.009  1.00  0.00     0.013 A 
ATOM     81  C   UNL A   1      37.326  21.366  25.130  1.00  0.00     0.121 A 
ATOM     82  C   UNL A   1      36.858  22.665  25.327  1.00  0.00     0.006 A 
BRANCH  82  83
ATOM     83  C   UNL A   1      35.552  23.102  24.817  1.00  0.00     0.055 A 
ATOM     84  C   UNL A   1      34.506  23.434  25.692  1.00  0.00     0.134 A 
ATOM     85  C   UNL A   1      35.291  23.232  23.446  1.00  0.00     0.134 A 
ATOM     86  F   UNL A   1      34.693  23.360  27.019  1.00  0.00    -0.206 F 
ATOM     87  C   UNL A   1      33.267  23.878  25.230  1.00  0.00     0.040 A 
ATOM     88  C   UNL A   1      34.054  23.670  22.966  1.00  0.00     0.040 A 
ATOM     89  F   UNL A   1      36.246  22.941  22.549  1.00  0.00    -0.206 F 
ATOM     90  C   UNL A   1      33.039  23.997  23.862  1.00  0.00     0.006 A 
ENDBRANCH  82  83
ENDBRANCH  75  77
ENDBRANCH  74  75
ENDBRANCH  73  74
ENDBRANCH   1  73
TORSDOF 15
ENDMDL
MODEL 2
REMARK VINA RESULT:     -11.3      4.728     11.251
REMARK SMILES O=C(OCCOC(=O)c1ccc(-c2c(F)cccc2F)cn1)c1ccc(-c2c3nc(c(-c4c(F)cc(S(=O)(=O)[O-])cc4F)c4ccc([nH]4)c(-c4c(F)cc(S(=O)(=O)[O-])cc4F)c4nc(c(-c5c(F)cc(S(=O)(=O)[O-])cc5F)c5ccc2[nH]5)C=C4)C=C3)cc1
REMARK SMILES IDX 4 1 3 2 2 3 1 4 23 5 24 6 88 7 25 8 87 9 26 10 27 11 28 12
REMARK SMILES IDX 81 13 29 14 86 15 80 16 82 17 30 18 85 19 79 20 78 21 31 23
REMARK SMILES IDX 65 24 44 25 64 26 45 27 48 28 63 29 83 30 46 31 47 32 62 34
REMARK SMILES IDX 84 35 49 36 32 37 33 38 42 39 34 40 35 41 41 42 43 43 36 44
REMARK SMILES IDX 37 45 38 46 39 47 40 48 66 49 67 50 76 51 68 52 69 53 75 54
REMARK SMILES IDX 77 55 70 56 71 57 72 58 73 59 74 60 50 61 51 62 60 63 52 64
REMARK SMILES IDX 53 65 59 66 61 67 54 68 55 69 56 70 57 71 58 72 5 73 6 74
REMARK SMILES IDX 7 75 8 76 9 77 10 78 22 79 11 80 21 81 12 82 13 83 14 84
REMARK SMILES IDX 19 85 15 86 16 87 18 88 20 89 17 90
REMARK H PARENT 82 22 48 33
REMARK Flexibility Score: inf
ROOT
ATOM      1  C   UNL A   1      32.644  31.773  27.254  1.00  0.00     0.275 C 
ENDROOT
BRANCH   1   2
ATOM      2  O   UNL A   1      33.885  31.289  27.796  1.00  0.00    -0.458 OA
BRANCH   2   3
ATOM      3  C   UNL A   1      34.396  30.032  27.780  1.00  0.00     0.338 C 
ATOM      4  O   UNL A   1      33.660  29.092  27.486  1.00  0.00    -0.246 OA
BRANCH   3   5
ATOM      5  C   UNL A   1      35.786  29.714  28.229  1.00  0.00     0.060 A 
ATOM      6  C   UNL A   1      36.158  29.380  29.533  1.00  0.00     0.016 A 
ATOM      7  C   UNL A   1      36.802  29.819  27.260  1.00  0.00     0.016 A 
ATOM      8  C   UNL A   1      37.486  29.090  29.849  1.00  0.00     0.010 A 
ATOM      9  C   UNL A   1      38.138  29.537  27.572  1.00  0.00     0.010 A 
ATOM     10  C   UNL A   1      38.484  29.168  28.874  1.00  0.00    -0.014 A 
BRANCH  10  11
ATOM     11  C   UNL A   1      39.893  28.965  29.281  1.00  0.00     0.031 A 
ATOM     12  C   UNL A   1      40.536  27.637  29.015  1.00  0.00     0.074 A 
ATOM     13  C   UNL A   1      40.608  29.994  29.773  1.00  0.00     0.049 A 
ATOM     14  N   UNL A   1      41.785  27.289  29.160  1.00  0.00    -0.248 NA
ATOM     15  C   UNL A   1      39.669  26.574  28.479  1.00  0.00     0.031 C 
ATOM     16  C   UNL A   1      40.094  31.345  29.981  1.00  0.00     0.029 A 
ATOM     17  N   UNL A   1      41.916  30.075  30.172  1.00  0.00    -0.354 N 
ATOM     18  C   UNL A   1      41.868  25.990  28.676  1.00  0.00     0.074 A 
ATOM     19  C   UNL A   1      40.533  25.586  28.298  1.00  0.00     0.031 C 
ATOM     20  C   UNL A   1      41.059  32.115  30.508  1.00  0.00     0.029 A 
ATOM     21  C   UNL A   1      42.269  31.315  30.658  1.00  0.00     0.049 A 
ATOM     22  H   UNL A   1      42.545  29.319  30.119  1.00  0.00     0.167 HD
ATOM     23  C   UNL A   1      42.971  25.221  28.528  1.00  0.00     0.037 A 
ATOM     24  C   UNL A   1      43.441  31.752  31.157  1.00  0.00     0.037 A 
ATOM     25  C   UNL A   1      44.287  25.624  28.946  1.00  0.00     0.049 A 
ATOM     26  C   UNL A   1      44.623  30.821  31.118  1.00  0.00     0.074 A 
ATOM     27  C   UNL A   1      45.468  24.907  28.887  1.00  0.00     0.029 A 
ATOM     28  N   UNL A   1      44.591  26.854  29.512  1.00  0.00    -0.354 N 
ATOM     29  N   UNL A   1      44.691  29.601  30.637  1.00  0.00    -0.248 NA
ATOM     30  C   UNL A   1      45.891  31.326  31.659  1.00  0.00     0.031 C 
ATOM     31  C   UNL A   1      46.479  25.689  29.457  1.00  0.00     0.029 A 
ATOM     32  C   UNL A   1      45.937  26.911  29.829  1.00  0.00     0.049 A 
ATOM     33  H   UNL A   1      43.944  27.582  29.666  1.00  0.00     0.167 HD
ATOM     34  C   UNL A   1      46.016  29.209  30.780  1.00  0.00     0.074 A 
ATOM     35  C   UNL A   1      46.715  30.322  31.389  1.00  0.00     0.031 C 
ATOM     36  C   UNL A   1      46.604  28.038  30.431  1.00  0.00     0.037 A 
BRANCH  23  37
ATOM     37  C   UNL A   1      42.794  23.876  27.889  1.00  0.00     0.058 A 
ATOM     38  C   UNL A   1      42.594  22.728  28.668  1.00  0.00     0.135 A 
ATOM     39  C   UNL A   1      42.853  23.721  26.494  1.00  0.00     0.135 A 
ATOM     40  F   UNL A   1      42.517  22.824  30.005  1.00  0.00    -0.206 F 
ATOM     41  C   UNL A   1      42.466  21.467  28.091  1.00  0.00     0.059 A 
ATOM     42  C   UNL A   1      42.710  22.474  25.894  1.00  0.00     0.059 A 
ATOM     43  F   UNL A   1      43.017  24.793  25.700  1.00  0.00    -0.206 F 
ATOM     44  C   UNL A   1      42.521  21.352  26.702  1.00  0.00     0.060 A 
BRANCH  44  45
ATOM     45  S   UNL A   1      42.356  19.740  25.906  1.00  0.00     0.124 S 
ATOM     46  O   UNL A   1      43.358  19.831  24.850  1.00  0.00    -0.237 OA
ATOM     47  O   UNL A   1      42.669  18.823  26.998  1.00  0.00    -0.237 OA
ATOM     48  O   UNL A   1      40.969  19.723  25.455  1.00  0.00    -0.744 OA
ENDBRANCH  44  45
ENDBRANCH  23  37
BRANCH  24  49
ATOM     49  C   UNL A   1      43.559  33.126  31.715  1.00  0.00     0.058 A 
ATOM     50  C   UNL A   1      43.923  34.207  30.895  1.00  0.00     0.135 A 
ATOM     51  C   UNL A   1      43.290  33.397  33.065  1.00  0.00     0.135 A 
ATOM     52  F   UNL A   1      44.210  34.002  29.600  1.00  0.00    -0.206 F 
ATOM     53  C   UNL A   1      44.011  35.506  31.388  1.00  0.00     0.059 A 
ATOM     54  C   UNL A   1      43.348  34.691  33.576  1.00  0.00     0.059 A 
ATOM     55  F   UNL A   1      42.938  32.401  33.892  1.00  0.00    -0.206 F 
ATOM     56  C   UNL A   1      43.705  35.741  32.727  1.00  0.00     0.060 A 
BRANCH  56  57
ATOM     57  S   UNL A   1      43.779  37.414  33.403  1.00  0.00     0.124 S 
ATOM     58  O   UNL A   1      42.589  37.445  34.244  1.00  0.00    -0.237 OA
ATOM     59  O   UNL A   1      45.060  37.400  34.104  1.00  0.00    -0.237 OA
ATOM     60  O   UNL A   1      43.733  38.260  32.213  1.00  0.00    -0.744 OA
ENDBRANCH  56  57
ENDBRANCH  24  49
BRANCH  36  61
ATOM     61  C   UNL A   1      48.080  27.915  30.677  1.00  0.00     0.058 A 
ATOM     62  C   UNL A   1      48.998  28.263  29.673  1.00  0.00     0.135 A 
ATOM     63  C   UNL A   1      48.582  27.402  31.881  1.00  0.00     0.135 A 
ATOM     64  F   UNL A   1      48.564  28.748  28.498  1.00  0.00    -0.206 F 
ATOM     65  C   UNL A   1      50.367  28.100  29.850  1.00  0.00     0.059 A 
ATOM     66  C   UNL A   1      49.949  27.256  32.091  1.00  0.00     0.059 A 
ATOM     67  F   UNL A   1      47.744  27.063  32.873  1.00  0.00    -0.206 F 
ATOM     68  C   UNL A   1      50.832  27.606  31.068  1.00  0.00     0.060 A 
BRANCH  68  69
ATOM     69  S   UNL A   1      52.601  27.380  31.344  1.00  0.00     0.124 S 
ATOM     70  O   UNL A   1      53.007  28.719  31.760  1.00  0.00    -0.237 OA
ATOM     71  O   UNL A   1      52.626  26.357  32.385  1.00  0.00    -0.237 OA
ATOM     72  O   UNL A   1      53.097  26.951  30.040  1.00  0.00    -0.744 OA
ENDBRANCH  68  69
ENDBRANCH  36  61
ENDBRANCH  10  11
ENDBRANCH   3   5
ENDBRANCH   2   3
ENDBRANCH   1   2
BRANCH   1  73
ATOM     73  C   UNL A   1      32.420  33.280  27.401  1.00  0.00     0.275 C 
BRANCH  73  74
ATOM     74  O   UNL A   1      33.585  33.990  27.836  1.00  0.00    -0.457 OA
BRANCH  74  75
ATOM     75  C   UNL A   1      33.493  34.517  29.090  1.00  0.00     0.357 C 
ATOM     76  O   UNL A   1      32.634  35.291  29.484  1.00  0.00    -0.244 OA
BRANCH  75  77
ATOM     77  C   UNL A   1      34.572  33.949  29.939  1.00  0.00     0.148 A 
ATOM     78  C   UNL A   1      35.792  33.591  29.386  1.00  0.00     0.037 A 
ATOM     79  N   UNL A   1      34.283  33.826  31.260  1.00  0.00    -0.249 NA
ATOM     80  C   UNL A   1      36.771  33.072  30.236  1.00  0.00     0.013 A 
ATOM     81  C   UNL A   1      35.248  33.290  32.045  1.00  0.00     0.121 A 
ATOM     82  C   UNL A   1      36.511  32.897  31.602  1.00  0.00     0.006 A 
BRANCH  82  83
ATOM     83  C   UNL A   1      37.523  32.364  32.522  1.00  0.00     0.055 A 
ATOM     84  C   UNL A   1      38.607  33.149  32.943  1.00  0.00     0.134 A 
ATOM     85  C   UNL A   1      37.447  31.065  33.043  1.00  0.00     0.134 A 
ATOM     86  F   UNL A   1      38.728  34.413  32.507  1.00  0.00    -0.206 F 
ATOM     87  C   UNL A   1      39.564  32.672  33.838  1.00  0.00     0.040 A 
ATOM     88  C   UNL A   1      38.401  30.569  33.936  1.00  0.00     0.040 A 
ATOM     89  F   UNL A   1      36.434  30.257  32.694  1.00  0.00    -0.206 F 
ATOM     90  C   UNL A   1      39.462  31.377  34.338  1.00  0.00     0.006 A 
ENDBRANCH  82  83
ENDBRANCH  75  77
ENDBRANCH  74  75
ENDBRANCH  73  74
ENDBRANCH   1  73
TORSDOF 15
ENDMDL
MODEL 3
REMARK VINA RESULT:     -11.2      6.333     12.481
REMARK SMILES O=C(OCCOC(=O)c1ccc(-c2c(F)cccc2F)cn1)c1ccc(-c2c3nc(c(-c4c(F)cc(S(=O)(=O)[O-])cc4F)c4ccc([nH]4)c(-c4c(F)cc(S(=O)(=O)[O-])cc4F)c4nc(c(-c5c(F)cc(S(=O)(=O)[O-])cc5F)c5ccc2[nH]5)C=C4)C=C3)cc1
REMARK SMILES IDX 4 1 3 2 2 3 1 4 23 5 24 6 88 7 25 8 87 9 26 10 27 11 28 12
REMARK SMILES IDX 81 13 29 14 86 15 80 16 82 17 30 18 85 19 79 20 78 21 31 23
REMARK SMILES IDX 65 24 44 25 64 26 45 27 48 28 63 29 83 30 46 31 47 32 62 34
REMARK SMILES IDX 84 35 49 36 32 37 33 38 42 39 34 40 35 41 41 42 43 43 36 44
REMARK SMILES IDX 37 45 38 46 39 47 40 48 66 49 67 50 76 51 68 52 69 53 75 54
REMARK SMILES IDX 77 55 70 56 71 57 72 58 73 59 74 60 50 61 51 62 60 63 52 64
REMARK SMILES IDX 53 65 59 66 61 67 54 68 55 69 56 70 57 71 58 72 5 73 6 74
REMARK SMILES IDX 7 75 8 76 9 77 10 78 22 79 11 80 21 81 12 82 13 83 14 84
REMARK SMILES IDX 19 85 15 86 16 87 18 88 20 89 17 90
REMARK H PARENT 82 22 48 33
REMARK Flexibility Score: inf
ROOT
ATOM      1  C   UNL A   1      36.257  32.879  30.914  1.00  0.00     0.275 C 
ENDROOT
BRANCH   1   2
ATOM      2  O   UNL A   1      35.901  31.486  30.966  1.00  0.00    -0.458 OA
BRANCH   2   3
ATOM      3  C   UNL A   1      36.668  30.418  31.295  1.00  0.00     0.338 C 
ATOM      4  O   UNL A   1      36.337  29.716  32.249  1.00  0.00    -0.246 OA
BRANCH   3   5
ATOM      5  C   UNL A   1      37.976  30.121  30.634  1.00  0.00     0.060 A 
ATOM      6  C   UNL A   1      38.187  30.047  29.256  1.00  0.00     0.016 A 
ATOM      7  C   UNL A   1      39.062  29.839  31.484  1.00  0.00     0.016 A 
ATOM      8  C   UNL A   1      39.454  29.771  28.738  1.00  0.00     0.010 A 
ATOM      9  C   UNL A   1      40.334  29.554  30.970  1.00  0.00     0.010 A 
ATOM     10  C   UNL A   1      40.534  29.521  29.589  1.00  0.00    -0.014 A 
BRANCH  10  11
ATOM     11  C   UNL A   1      41.829  29.120  28.995  1.00  0.00     0.031 A 
ATOM     12  C   UNL A   1      42.932  30.133  28.919  1.00  0.00     0.074 A 
ATOM     13  C   UNL A   1      42.041  27.840  28.639  1.00  0.00     0.049 A 
ATOM     14  N   UNL A   1      44.178  29.962  28.569  1.00  0.00    -0.248 NA
ATOM     15  C   UNL A   1      42.600  31.509  29.328  1.00  0.00     0.031 C 
ATOM     16  C   UNL A   1      41.058  26.765  28.761  1.00  0.00     0.029 A 
ATOM     17  N   UNL A   1      43.145  27.216  28.120  1.00  0.00    -0.354 N 
ATOM     18  C   UNL A   1      44.794  31.190  28.775  1.00  0.00     0.074 A 
ATOM     19  C   UNL A   1      43.773  32.115  29.211  1.00  0.00     0.031 C 
ATOM     20  C   UNL A   1      41.584  25.622  28.292  1.00  0.00     0.029 A 
ATOM     21  C   UNL A   1      42.950  25.880  27.853  1.00  0.00     0.049 A 
ATOM     22  H   UNL A   1      43.997  27.681  27.952  1.00  0.00     0.167 HD
ATOM     23  C   UNL A   1      46.103  31.501  28.643  1.00  0.00     0.037 A 
ATOM     24  C   UNL A   1      43.788  24.968  27.322  1.00  0.00     0.037 A 
ATOM     25  C   UNL A   1      47.099  30.578  28.168  1.00  0.00     0.049 A 
ATOM     26  C   UNL A   1      45.208  25.383  27.044  1.00  0.00     0.074 A 
ATOM     27  C   UNL A   1      48.447  30.800  27.952  1.00  0.00     0.029 A 
ATOM     28  N   UNL A   1      46.849  29.257  27.826  1.00  0.00    -0.354 N 
ATOM     29  N   UNL A   1      45.782  26.543  27.263  1.00  0.00    -0.248 NA
ATOM     30  C   UNL A   1      46.102  24.367  26.475  1.00  0.00     0.031 C 
ATOM     31  C   UNL A   1      49.003  29.623  27.438  1.00  0.00     0.029 A 
ATOM     32  C   UNL A   1      48.011  28.655  27.379  1.00  0.00     0.049 A 
ATOM     33  H   UNL A   1      45.973  28.811  27.893  1.00  0.00     0.167 HD
ATOM     34  C   UNL A   1      47.113  26.385  26.898  1.00  0.00     0.074 A 
ATOM     35  C   UNL A   1      47.259  25.016  26.447  1.00  0.00     0.031 C 
ATOM     36  C   UNL A   1      48.125  27.286  26.941  1.00  0.00     0.037 A 
BRANCH  23  37
ATOM     37  C   UNL A   1      46.524  32.891  29.019  1.00  0.00     0.058 A 
ATOM     38  C   UNL A   1      46.547  33.919  28.067  1.00  0.00     0.135 A 
ATOM     39  C   UNL A   1      46.933  33.196  30.327  1.00  0.00     0.135 A 
ATOM     40  F   UNL A   1      46.153  33.682  26.806  1.00  0.00    -0.206 F 
ATOM     41  C   UNL A   1      46.972  35.206  28.393  1.00  0.00     0.059 A 
ATOM     42  C   UNL A   1      47.344  34.478  30.680  1.00  0.00     0.059 A 
ATOM     43  F   UNL A   1      46.905  32.253  31.284  1.00  0.00    -0.206 F 
ATOM     44  C   UNL A   1      47.364  35.475  29.704  1.00  0.00     0.060 A 
BRANCH  44  45
ATOM     45  S   UNL A   1      47.917  37.127  30.176  1.00  0.00     0.124 S 
ATOM     46  O   UNL A   1      46.880  37.524  31.122  1.00  0.00    -0.237 OA
ATOM     47  O   UNL A   1      49.231  36.860  30.752  1.00  0.00    -0.237 OA
ATOM     48  O   UNL A   1      47.925  37.858  28.913  1.00  0.00    -0.744 OA
ENDBRANCH  44  45
ENDBRANCH  23  37
BRANCH  24  49
ATOM     49  C   UNL A   1      43.318  23.585  27.037  1.00  0.00     0.058 A 
ATOM     50  C   UNL A   1      43.040  23.177  25.722  1.00  0.00     0.135 A 
ATOM     51  C   UNL A   1      43.158  22.637  28.059  1.00  0.00     0.135 A 
ATOM     52  F   UNL A   1      43.158  24.048  24.708  1.00  0.00    -0.206 F 
ATOM     53  C   UNL A   1      42.627  21.880  25.427  1.00  0.00     0.059 A 
ATOM     54  C   UNL A   1      42.769  21.328  27.787  1.00  0.00     0.059 A 
ATOM     55  F   UNL A   1      43.410  22.976  29.332  1.00  0.00    -0.206 F 
ATOM     56  C   UNL A   1      42.511  20.958  26.465  1.00  0.00     0.060 A 
BRANCH  56  57
ATOM     57  S   UNL A   1      42.004  19.258  26.126  1.00  0.00     0.124 S 
ATOM     58  O   UNL A   1      42.388  18.584  27.360  1.00  0.00    -0.237 OA
ATOM     59  O   UNL A   1      40.570  19.410  25.898  1.00  0.00    -0.237 OA
ATOM     60  O   UNL A   1      42.786  18.904  24.944  1.00  0.00    -0.744 OA
ENDBRANCH  56  57
ENDBRANCH  24  49
BRANCH  36  61
ATOM     61  C   UNL A   1      49.483  26.809  26.512  1.00  0.00     0.058 A 
ATOM     62  C   UNL A   1      49.883  26.922  25.171  1.00  0.00     0.135 A 
ATOM     63  C   UNL A   1      50.361  26.191  27.414  1.00  0.00     0.135 A 
ATOM     64  F   UNL A   1      49.071  27.496  24.269  1.00  0.00    -0.206 F 
ATOM     65  C   UNL A   1      51.108  26.432  24.734  1.00  0.00     0.059 A 
ATOM     66  C   UNL A   1      51.603  25.719  27.005  1.00  0.00     0.059 A 
ATOM     67  F   UNL A   1      50.025  26.067  28.707  1.00  0.00    -0.206 F 
ATOM     68  C   UNL A   1      51.966  25.842  25.662  1.00  0.00     0.060 A 
BRANCH  68  69
ATOM     69  S   UNL A   1      53.567  25.194  25.140  1.00  0.00     0.124 S 
ATOM     70  O   UNL A   1      53.365  23.757  25.293  1.00  0.00    -0.237 OA
ATOM     71  O   UNL A   1      53.665  25.678  23.766  1.00  0.00    -0.237 OA
ATOM     72  O   UNL A   1      54.503  25.800  26.081  1.00  0.00    -0.744 OA
ENDBRANCH  68  69
ENDBRANCH  36  61
ENDBRANCH  10  11
ENDBRANCH   3   5
ENDBRANCH   2   3
ENDBRANCH   1   2
BRANCH   1  73
ATOM     73  C   UNL A   1      35.164  33.806  30.376  1.00  0.00     0.275 C 
BRANCH  73  74
ATOM     74  O   UNL A   1      34.171  33.124  29.599  1.00  0.00    -0.457 OA
BRANCH  74  75
ATOM     75  C   UNL A   1      34.426  33.088  28.260  1.00  0.00     0.357 C 
ATOM     76  O   UNL A   1      34.940  33.977  27.600  1.00  0.00    -0.244 OA
BRANCH  75  77
ATOM     77  C   UNL A   1      34.040  31.756  27.726  1.00  0.00     0.148 A 
ATOM     78  C   UNL A   1      34.912  30.681  27.808  1.00  0.00     0.037 A 
ATOM     79  N   UNL A   1      32.799  31.674  27.181  1.00  0.00    -0.249 NA
ATOM     80  C   UNL A   1      34.489  29.452  27.298  1.00  0.00     0.013 A 
ATOM     81  C   UNL A   1      32.438  30.473  26.670  1.00  0.00     0.121 A 
ATOM     82  C   UNL A   1      33.228  29.323  26.699  1.00  0.00     0.006 A 
BRANCH  82  83
ATOM     83  C   UNL A   1      32.751  28.042  26.162  1.00  0.00     0.055 A 
ATOM     84  C   UNL A   1      31.685  27.357  26.763  1.00  0.00     0.134 A 
ATOM     85  C   UNL A   1      33.313  27.456  25.020  1.00  0.00     0.134 A 
ATOM     86  F   UNL A   1      31.080  27.873  27.844  1.00  0.00    -0.206 F 
ATOM     87  C   UNL A   1      31.198  26.153  26.254  1.00  0.00     0.040 A 
ATOM     88  C   UNL A   1      32.841  26.248  24.500  1.00  0.00     0.040 A 
ATOM     89  F   UNL A   1      34.331  28.058  24.386  1.00  0.00    -0.206 F 
ATOM     90  C   UNL A   1      31.777  25.595  25.118  1.00  0.00     0.006 A 
ENDBRANCH  82  83
ENDBRANCH  75  77
ENDBRANCH  74  75
ENDBRANCH  73  74
ENDBRANCH   1  73
TORSDOF 15
ENDMDL
