MODEL 1
REMARK VINA RESULT:     -13.8      0.000      0.000
REMARK SMILES Cc1ccccc1C(=O)Nc1cc(NC(=O)c2ccccc2C)cc(C(=O)OCCOC(=O)c2ccc(-c3c4nc(c(-c5c(F)cc(S(=O)(=O)[O-])cc5F)c5ccc([nH]5)c(-c5c(F)cc(S(=O)(=O)[O-])cc5F)c5nc(c(-c6c(F)cc(S(=O)(=O)[O-])cc6F)c6ccc3[nH]6)C=C5)C=C4)cc2)c1
REMARK SMILES IDX 30 1 29 2 28 3 26 4 27 5 25 6 11 7 12 8 100 9 13 10 24 11
REMARK SMILES IDX 10 12 8 13 9 14 7 16 1 17 2 18 3 19 4 20 6 21 5 22 14 23
REMARK SMILES IDX 15 24 16 26 17 27 18 28 22 29 19 30 21 31 23 32 20 33 31 34
REMARK SMILES IDX 32 35 33 36 34 37 35 38 99 39 36 40 98 41 37 42 38 43 39 44
REMARK SMILES IDX 92 45 40 46 97 47 91 48 93 49 41 50 96 51 90 52 89 53 42 55
REMARK SMILES IDX 76 56 55 57 75 58 56 59 59 60 74 61 94 62 57 63 58 64 73 66
REMARK SMILES IDX 95 67 60 68 43 69 44 70 53 71 45 72 46 73 52 74 54 75 47 76
REMARK SMILES IDX 48 77 49 78 50 79 51 80 77 81 78 82 87 83 79 84 80 85 86 86
REMARK SMILES IDX 88 87 81 88 82 89 83 90 84 91 85 92 61 93 62 94 71 95 63 96
REMARK SMILES IDX 64 97 70 98 72 99 65 100 66 101 67 102 68 103 69 104
REMARK H PARENT 10 15 14 25 93 54 59 65
REMARK Flexibility Score: inf
ROOT
ATOM      1  C   UNL A   1      38.661  22.767  26.123  1.00  0.00     0.275 C 
ENDROOT
BRANCH   1   2
ATOM      2  C   UNL A   1      37.240  22.340  25.709  1.00  0.00     0.275 C 
BRANCH   2   3
ATOM      3  O   UNL A   1      36.195  23.214  26.182  1.00  0.00    -0.458 OA
BRANCH   3   4
ATOM      4  C   UNL A   1      35.572  23.855  25.157  1.00  0.00     0.338 C 
ATOM      5  O   UNL A   1      35.997  23.913  24.023  1.00  0.00    -0.246 OA
BRANCH   4   6
ATOM      6  C   UNL A   1      34.410  24.688  25.534  1.00  0.00     0.064 A 
ATOM      7  C   UNL A   1      33.329  26.739  26.242  1.00  0.00     0.044 A 
ATOM      8  C   UNL A   1      32.251  25.990  26.717  1.00  0.00     0.052 A 
ATOM      9  C   UNL A   1      34.344  26.088  25.517  1.00  0.00     0.042 A 
ATOM     10  C   UNL A   1      32.261  24.600  26.614  1.00  0.00     0.044 A 
ATOM     11  C   UNL A   1      33.388  23.954  26.131  1.00  0.00     0.042 A 
BRANCH   7  12
ATOM     12  N   UNL A   1      33.455  28.120  26.505  1.00  0.00    -0.322 N 
ATOM     13  C   UNL A   1      33.151  29.219  25.712  1.00  0.00     0.255 C 
ATOM     14  O   UNL A   1      33.579  30.333  26.022  1.00  0.00    -0.269 OA
ATOM     15  H   UNL A   1      33.816  28.339  27.394  1.00  0.00     0.170 HD
BRANCH  13  16
ATOM     16  C   UNL A   1      32.289  29.126  24.489  1.00  0.00     0.043 A 
ATOM     17  C   UNL A   1      34.191  28.585  22.838  1.00  0.00     0.045 C 
ATOM     18  C   UNL A   1      32.764  28.916  23.179  1.00  0.00    -0.038 A 
ATOM     19  C   UNL A   1      31.852  28.984  22.106  1.00  0.00     0.004 A 
ATOM     20  C   UNL A   1      30.484  29.125  22.330  1.00  0.00     0.000 A 
ATOM     21  C   UNL A   1      30.898  29.201  24.703  1.00  0.00     0.014 A 
ATOM     22  C   UNL A   1      30.001  29.190  23.632  1.00  0.00     0.001 A 
ENDBRANCH  13  16
ENDBRANCH   7  12
BRANCH  10  23
ATOM     23  N   UNL A   1      31.174  23.782  26.925  1.00  0.00    -0.322 N 
ATOM     24  C   UNL A   1      30.627  22.750  26.204  1.00  0.00     0.255 C 
ATOM     25  H   UNL A   1      30.737  23.972  27.788  1.00  0.00     0.170 HD
ATOM     26  O   UNL A   1      29.619  22.181  26.625  1.00  0.00    -0.269 OA
BRANCH  24  27
ATOM     27  C   UNL A   1      31.244  22.265  24.943  1.00  0.00     0.043 A 
ATOM     28  C   UNL A   1      31.939  21.051  25.062  1.00  0.00     0.014 A 
ATOM     29  C   UNL A   1      31.194  22.932  23.698  1.00  0.00    -0.038 A 
ATOM     30  C   UNL A   1      32.529  20.460  23.948  1.00  0.00     0.001 A 
ATOM     31  C   UNL A   1      31.759  22.294  22.580  1.00  0.00     0.004 A 
ATOM     32  C   UNL A   1      30.558  24.275  23.461  1.00  0.00     0.045 C 
ATOM     33  C   UNL A   1      32.420  21.071  22.704  1.00  0.00     0.000 A 
ENDBRANCH  24  27
ENDBRANCH  10  23
ENDBRANCH   4   6
ENDBRANCH   3   4
ENDBRANCH   2   3
ENDBRANCH   1   2
BRANCH   1  34
ATOM     34  O   UNL A   1      38.841  23.742  27.176  1.00  0.00    -0.458 OA
BRANCH  34  35
ATOM     35  C   UNL A   1      39.991  24.463  27.172  1.00  0.00     0.338 C 
ATOM     36  O   UNL A   1      40.991  24.138  26.538  1.00  0.00    -0.246 OA
BRANCH  35  37
ATOM     37  C   UNL A   1      39.718  25.813  27.735  1.00  0.00     0.060 A 
ATOM     38  C   UNL A   1      39.231  25.926  29.043  1.00  0.00     0.016 A 
ATOM     39  C   UNL A   1      40.269  26.924  27.092  1.00  0.00     0.016 A 
ATOM     40  C   UNL A   1      39.422  27.095  29.768  1.00  0.00     0.010 A 
ATOM     41  C   UNL A   1      40.585  28.029  27.837  1.00  0.00     0.010 A 
ATOM     42  C   UNL A   1      40.134  28.125  29.161  1.00  0.00    -0.014 A 
BRANCH  42  43
ATOM     43  C   UNL A   1      40.142  29.484  29.666  1.00  0.00     0.031 A 
ATOM     44  C   UNL A   1      39.043  30.428  29.420  1.00  0.00     0.074 A 
ATOM     45  C   UNL A   1      41.210  29.676  30.472  1.00  0.00     0.049 A 
ATOM     46  N   UNL A   1      39.139  31.702  29.560  1.00  0.00    -0.248 NA
ATOM     47  C   UNL A   1      37.727  30.025  28.941  1.00  0.00     0.031 C 
ATOM     48  C   UNL A   1      41.550  30.731  31.399  1.00  0.00     0.029 A 
ATOM     49  N   UNL A   1      42.373  28.889  30.415  1.00  0.00    -0.354 N 
ATOM     50  C   UNL A   1      37.859  32.231  29.524  1.00  0.00     0.074 A 
ATOM     51  C   UNL A   1      37.043  31.174  28.994  1.00  0.00     0.031 C 
ATOM     52  C   UNL A   1      42.892  30.730  31.554  1.00  0.00     0.029 A 
ATOM     53  C   UNL A   1      43.443  29.750  30.616  1.00  0.00     0.049 A 
ATOM     54  H   UNL A   1      42.420  27.917  30.262  1.00  0.00     0.167 HD
ATOM     55  C   UNL A   1      37.646  33.436  30.134  1.00  0.00     0.037 A 
ATOM     56  C   UNL A   1      44.223  30.027  29.526  1.00  0.00     0.037 A 
ATOM     57  C   UNL A   1      38.937  33.968  30.574  1.00  0.00     0.049 A 
ATOM     58  C   UNL A   1      44.060  31.480  29.150  1.00  0.00     0.074 A 
ATOM     59  C   UNL A   1      39.600  33.863  31.787  1.00  0.00     0.029 A 
ATOM     60  N   UNL A   1      39.894  34.310  29.625  1.00  0.00    -0.354 N 
ATOM     61  N   UNL A   1      42.946  32.158  29.270  1.00  0.00    -0.248 NA
ATOM     62  C   UNL A   1      45.196  32.310  28.771  1.00  0.00     0.031 C 
ATOM     63  C   UNL A   1      40.990  34.000  31.527  1.00  0.00     0.029 A 
ATOM     64  C   UNL A   1      41.163  34.206  30.166  1.00  0.00     0.049 A 
ATOM     65  H   UNL A   1      39.697  34.586  28.700  1.00  0.00     0.167 HD
ATOM     66  C   UNL A   1      43.225  33.493  29.121  1.00  0.00     0.074 A 
ATOM     67  C   UNL A   1      44.637  33.530  28.773  1.00  0.00     0.031 C 
ATOM     68  C   UNL A   1      42.333  34.503  29.359  1.00  0.00     0.037 A 
BRANCH  55  69
ATOM     69  C   UNL A   1      36.309  33.971  30.639  1.00  0.00     0.058 A 
ATOM     70  C   UNL A   1      35.291  34.308  29.713  1.00  0.00     0.135 A 
ATOM     71  C   UNL A   1      35.975  34.246  31.981  1.00  0.00     0.135 A 
ATOM     72  F   UNL A   1      35.416  34.041  28.406  1.00  0.00    -0.206 F 
ATOM     73  C   UNL A   1      34.096  34.941  30.074  1.00  0.00     0.059 A 
ATOM     74  C   UNL A   1      34.795  34.903  32.365  1.00  0.00     0.059 A 
ATOM     75  F   UNL A   1      36.754  33.855  32.995  1.00  0.00    -0.206 F 
ATOM     76  C   UNL A   1      33.865  35.260  31.402  1.00  0.00     0.060 A 
BRANCH  76  77
ATOM     77  S   UNL A   1      32.332  36.102  31.842  1.00  0.00     0.124 S 
ATOM     78  O   UNL A   1      32.812  37.187  32.693  1.00  0.00    -0.237 OA
ATOM     79  O   UNL A   1      31.814  36.501  30.537  1.00  0.00    -0.237 OA
ATOM     80  O   UNL A   1      31.560  35.070  32.529  1.00  0.00    -0.744 OA
ENDBRANCH  76  77
ENDBRANCH  55  69
BRANCH  56  81
ATOM     81  C   UNL A   1      44.449  28.860  28.595  1.00  0.00     0.058 A 
ATOM     82  C   UNL A   1      43.969  28.964  27.264  1.00  0.00     0.135 A 
ATOM     83  C   UNL A   1      45.301  27.778  28.854  1.00  0.00     0.135 A 
ATOM     84  F   UNL A   1      43.130  29.959  26.929  1.00  0.00    -0.206 F 
ATOM     85  C   UNL A   1      44.397  28.127  26.233  1.00  0.00     0.059 A 
ATOM     86  C   UNL A   1      45.726  26.902  27.837  1.00  0.00     0.059 A 
ATOM     87  F   UNL A   1      45.802  27.590  30.083  1.00  0.00    -0.206 F 
ATOM     88  C   UNL A   1      45.298  27.109  26.522  1.00  0.00     0.060 A 
BRANCH  88  89
ATOM     89  S   UNL A   1      46.047  26.206  25.135  1.00  0.00     0.124 S 
ATOM     90  O   UNL A   1      46.310  27.277  24.181  1.00  0.00    -0.237 OA
ATOM     91  O   UNL A   1      47.228  25.618  25.764  1.00  0.00    -0.237 OA
ATOM     92  O   UNL A   1      45.000  25.260  24.758  1.00  0.00    -0.744 OA
ENDBRANCH  88  89
ENDBRANCH  56  81
BRANCH  68  93
ATOM     93  C   UNL A   1      42.530  35.932  28.932  1.00  0.00     0.058 A 
ATOM     94  C   UNL A   1      43.341  36.834  29.638  1.00  0.00     0.135 A 
ATOM     95  C   UNL A   1      42.055  36.379  27.675  1.00  0.00     0.135 A 
ATOM     96  F   UNL A   1      43.942  36.484  30.785  1.00  0.00    -0.206 F 
ATOM     97  C   UNL A   1      43.604  38.116  29.167  1.00  0.00     0.059 A 
ATOM     98  C   UNL A   1      42.366  37.627  27.154  1.00  0.00     0.059 A 
ATOM     99  F   UNL A   1      41.284  35.607  26.893  1.00  0.00    -0.206 F 
ATOM    100  C   UNL A   1      43.116  38.502  27.923  1.00  0.00     0.060 A 
BRANCH 100 101
ATOM    101  S   UNL A   1      43.501  40.137  27.285  1.00  0.00     0.124 S 
ATOM    102  O   UNL A   1      42.175  40.744  27.240  1.00  0.00    -0.237 OA
ATOM    103  O   UNL A   1      44.408  40.672  28.297  1.00  0.00    -0.237 OA
ATOM    104  O   UNL A   1      44.115  39.855  25.992  1.00  0.00    -0.744 OA
ENDBRANCH 100 101
ENDBRANCH  68  93
ENDBRANCH  42  43
ENDBRANCH  35  37
ENDBRANCH  34  35
ENDBRANCH   1  34
TORSDOF 18
ENDMDL
MODEL 2
REMARK VINA RESULT:     -13.6      4.642     11.141
REMARK SMILES Cc1ccccc1C(=O)Nc1cc(NC(=O)c2ccccc2C)cc(C(=O)OCCOC(=O)c2ccc(-c3c4nc(c(-c5c(F)cc(S(=O)(=O)[O-])cc5F)c5ccc([nH]5)c(-c5c(F)cc(S(=O)(=O)[O-])cc5F)c5nc(c(-c6c(F)cc(S(=O)(=O)[O-])cc6F)c6ccc3[nH]6)C=C5)C=C4)cc2)c1
REMARK SMILES IDX 30 1 29 2 28 3 26 4 27 5 25 6 11 7 12 8 100 9 13 10 24 11
REMARK SMILES IDX 10 12 8 13 9 14 7 16 1 17 2 18 3 19 4 20 6 21 5 22 14 23
REMARK SMILES IDX 15 24 16 26 17 27 18 28 22 29 19 30 21 31 23 32 20 33 31 34
REMARK SMILES IDX 32 35 33 36 34 37 35 38 99 39 36 40 98 41 37 42 38 43 39 44
REMARK SMILES IDX 92 45 40 46 97 47 91 48 93 49 41 50 96 51 90 52 89 53 42 55
REMARK SMILES IDX 76 56 55 57 75 58 56 59 59 60 74 61 94 62 57 63 58 64 73 66
REMARK SMILES IDX 95 67 60 68 43 69 44 70 53 71 45 72 46 73 52 74 54 75 47 76
REMARK SMILES IDX 48 77 49 78 50 79 51 80 77 81 78 82 87 83 79 84 80 85 86 86
REMARK SMILES IDX 88 87 81 88 82 89 83 90 84 91 85 92 61 93 62 94 71 95 63 96
REMARK SMILES IDX 64 97 70 98 72 99 65 100 66 101 67 102 68 103 69 104
REMARK H PARENT 10 15 14 25 93 54 59 65
REMARK Flexibility Score: inf
ROOT
ATOM      1  C   UNL A   1      34.553  30.073  27.238  1.00  0.00     0.275 C 
ENDROOT
BRANCH   1   2
ATOM      2  C   UNL A   1      33.302  30.877  27.639  1.00  0.00     0.275 C 
BRANCH   2   3
ATOM      3  O   UNL A   1      32.069  30.376  27.084  1.00  0.00    -0.458 OA
BRANCH   3   4
ATOM      4  C   UNL A   1      32.031  29.017  27.089  1.00  0.00     0.338 C 
ATOM      5  O   UNL A   1      32.000  28.333  28.089  1.00  0.00    -0.246 OA
BRANCH   4   6
ATOM      6  C   UNL A   1      32.246  28.366  25.778  1.00  0.00     0.064 A 
ATOM      7  C   UNL A   1      33.337  26.830  24.253  1.00  0.00     0.044 A 
ATOM      8  C   UNL A   1      32.898  27.606  23.180  1.00  0.00     0.052 A 
ATOM      9  C   UNL A   1      32.882  27.138  25.548  1.00  0.00     0.042 A 
ATOM     10  C   UNL A   1      32.152  28.761  23.406  1.00  0.00     0.044 A 
ATOM     11  C   UNL A   1      31.931  29.194  24.703  1.00  0.00     0.042 A 
BRANCH   7  12
ATOM     12  N   UNL A   1      34.260  25.774  24.086  1.00  0.00    -0.322 N 
ATOM     13  C   UNL A   1      34.269  24.493  24.624  1.00  0.00     0.255 C 
ATOM     14  O   UNL A   1      35.297  23.814  24.566  1.00  0.00    -0.269 OA
ATOM     15  H   UNL A   1      35.019  25.979  23.493  1.00  0.00     0.170 HD
BRANCH  13  16
ATOM     16  C   UNL A   1      33.063  23.869  25.258  1.00  0.00     0.043 A 
ATOM     17  C   UNL A   1      31.648  23.732  23.109  1.00  0.00     0.045 C 
ATOM     18  C   UNL A   1      31.851  23.594  24.593  1.00  0.00    -0.038 A 
ATOM     19  C   UNL A   1      30.753  23.128  25.345  1.00  0.00     0.004 A 
ATOM     20  C   UNL A   1      30.887  22.814  26.697  1.00  0.00     0.000 A 
ATOM     21  C   UNL A   1      33.200  23.484  26.607  1.00  0.00     0.014 A 
ATOM     22  C   UNL A   1      32.122  22.952  27.318  1.00  0.00     0.001 A 
ENDBRANCH  13  16
ENDBRANCH   7  12
BRANCH  10  23
ATOM     23  N   UNL A   1      31.549  29.516  22.399  1.00  0.00    -0.322 N 
ATOM     24  C   UNL A   1      30.246  29.509  21.968  1.00  0.00     0.255 C 
ATOM     25  H   UNL A   1      32.145  30.146  21.930  1.00  0.00     0.170 HD
ATOM     26  O   UNL A   1      29.917  30.215  21.014  1.00  0.00    -0.269 OA
BRANCH  24  27
ATOM     27  C   UNL A   1      29.201  28.705  22.652  1.00  0.00     0.043 A 
ATOM     28  C   UNL A   1      29.567  27.375  22.914  1.00  0.00     0.014 A 
ATOM     29  C   UNL A   1      27.918  29.170  23.017  1.00  0.00    -0.038 A 
ATOM     30  C   UNL A   1      28.699  26.521  23.589  1.00  0.00     0.001 A 
ATOM     31  C   UNL A   1      27.077  28.303  23.736  1.00  0.00     0.004 A 
ATOM     32  C   UNL A   1      27.377  30.542  22.716  1.00  0.00     0.045 C 
ATOM     33  C   UNL A   1      27.463  26.992  24.019  1.00  0.00     0.000 A 
ENDBRANCH  24  27
ENDBRANCH  10  23
ENDBRANCH   4   6
ENDBRANCH   3   4
ENDBRANCH   2   3
ENDBRANCH   1   2
BRANCH   1  34
ATOM     34  O   UNL A   1      35.489  29.644  28.255  1.00  0.00    -0.458 OA
BRANCH  34  35
ATOM     35  C   UNL A   1      36.627  30.367  28.403  1.00  0.00     0.338 C 
ATOM     36  O   UNL A   1      36.643  31.530  28.794  1.00  0.00    -0.246 OA
BRANCH  35  37
ATOM     37  C   UNL A   1      37.795  29.446  28.363  1.00  0.00     0.060 A 
ATOM     38  C   UNL A   1      38.855  29.717  27.488  1.00  0.00     0.016 A 
ATOM     39  C   UNL A   1      37.967  28.548  29.419  1.00  0.00     0.016 A 
ATOM     40  C   UNL A   1      40.125  29.216  27.744  1.00  0.00     0.010 A 
ATOM     41  C   UNL A   1      39.237  28.161  29.757  1.00  0.00     0.010 A 
ATOM     42  C   UNL A   1      40.306  28.469  28.903  1.00  0.00    -0.014 A 
BRANCH  42  43
ATOM     43  C   UNL A   1      41.474  27.641  29.136  1.00  0.00     0.031 A 
ATOM     44  C   UNL A   1      41.561  26.248  28.676  1.00  0.00     0.074 A 
ATOM     45  C   UNL A   1      42.462  28.374  29.694  1.00  0.00     0.049 A 
ATOM     46  N   UNL A   1      42.410  25.392  29.122  1.00  0.00    -0.248 NA
ATOM     47  C   UNL A   1      40.659  25.666  27.691  1.00  0.00     0.031 C 
ATOM     48  C   UNL A   1      43.869  28.114  29.895  1.00  0.00     0.029 A 
ATOM     49  N   UNL A   1      42.234  29.568  30.401  1.00  0.00    -0.354 N 
ATOM     50  C   UNL A   1      42.393  24.296  28.275  1.00  0.00     0.074 A 
ATOM     51  C   UNL A   1      41.194  24.454  27.499  1.00  0.00     0.031 C 
ATOM     52  C   UNL A   1      44.292  28.891  30.916  1.00  0.00     0.029 A 
ATOM     53  C   UNL A   1      43.118  29.566  31.472  1.00  0.00     0.049 A 
ATOM     54  H   UNL A   1      41.577  30.267  30.181  1.00  0.00     0.167 HD
ATOM     55  C   UNL A   1      43.507  23.505  28.225  1.00  0.00     0.037 A 
ATOM     56  C   UNL A   1      42.580  29.358  32.713  1.00  0.00     0.037 A 
ATOM     57  C   UNL A   1      44.445  23.962  29.252  1.00  0.00     0.049 A 
ATOM     58  C   UNL A   1      43.060  28.031  33.251  1.00  0.00     0.074 A 
ATOM     59  C   UNL A   1      45.501  24.858  29.189  1.00  0.00     0.029 A 
ATOM     60  N   UNL A   1      44.095  23.853  30.593  1.00  0.00    -0.354 N 
ATOM     61  N   UNL A   1      43.287  26.970  32.517  1.00  0.00    -0.248 NA
ATOM     62  C   UNL A   1      43.478  27.867  34.637  1.00  0.00     0.031 C 
ATOM     63  C   UNL A   1      45.681  25.398  30.490  1.00  0.00     0.029 A 
ATOM     64  C   UNL A   1      44.752  24.816  31.339  1.00  0.00     0.049 A 
ATOM     65  H   UNL A   1      43.470  23.186  30.961  1.00  0.00     0.167 HD
ATOM     66  C   UNL A   1      43.981  26.055  33.268  1.00  0.00     0.074 A 
ATOM     67  C   UNL A   1      44.040  26.649  34.594  1.00  0.00     0.031 C 
ATOM     68  C   UNL A   1      44.538  24.908  32.772  1.00  0.00     0.037 A 
BRANCH  55  69
ATOM     69  C   UNL A   1      43.911  22.581  27.081  1.00  0.00     0.058 A 
ATOM     70  C   UNL A   1      43.066  21.504  26.713  1.00  0.00     0.135 A 
ATOM     71  C   UNL A   1      45.118  22.633  26.352  1.00  0.00     0.135 A 
ATOM     72  F   UNL A   1      41.849  21.353  27.254  1.00  0.00    -0.206 F 
ATOM     73  C   UNL A   1      43.423  20.523  25.782  1.00  0.00     0.059 A 
ATOM     74  C   UNL A   1      45.509  21.649  25.431  1.00  0.00     0.059 A 
ATOM     75  F   UNL A   1      45.962  23.664  26.463  1.00  0.00    -0.206 F 
ATOM     76  C   UNL A   1      44.660  20.587  25.162  1.00  0.00     0.060 A 
BRANCH  76  77
ATOM     77  S   UNL A   1      45.113  19.297  23.986  1.00  0.00     0.124 S 
ATOM     78  O   UNL A   1      46.569  19.395  23.969  1.00  0.00    -0.237 OA
ATOM     79  O   UNL A   1      44.565  18.100  24.616  1.00  0.00    -0.237 OA
ATOM     80  O   UNL A   1      44.449  19.710  22.753  1.00  0.00    -0.744 OA
ENDBRANCH  76  77
ENDBRANCH  55  69
BRANCH  56  81
ATOM     81  C   UNL A   1      41.233  30.002  32.937  1.00  0.00     0.058 A 
ATOM     82  C   UNL A   1      41.163  31.418  32.959  1.00  0.00     0.135 A 
ATOM     83  C   UNL A   1      40.002  29.331  32.887  1.00  0.00     0.135 A 
ATOM     84  F   UNL A   1      42.293  32.144  33.028  1.00  0.00    -0.206 F 
ATOM     85  C   UNL A   1      39.968  32.125  32.820  1.00  0.00     0.059 A 
ATOM     86  C   UNL A   1      38.780  30.022  32.774  1.00  0.00     0.059 A 
ATOM     87  F   UNL A   1      39.962  27.992  32.868  1.00  0.00    -0.206 F 
ATOM     88  C   UNL A   1      38.778  31.418  32.703  1.00  0.00     0.060 A 
BRANCH  88  89
ATOM     89  S   UNL A   1      37.276  32.336  32.255  1.00  0.00     0.124 S 
ATOM     90  O   UNL A   1      37.748  33.180  31.164  1.00  0.00    -0.237 OA
ATOM     91  O   UNL A   1      36.370  31.255  31.869  1.00  0.00    -0.237 OA
ATOM     92  O   UNL A   1      36.934  33.027  33.495  1.00  0.00    -0.744 OA
ENDBRANCH  88  89
ENDBRANCH  56  81
BRANCH  68  93
ATOM     93  C   UNL A   1      45.044  23.772  33.619  1.00  0.00     0.058 A 
ATOM     94  C   UNL A   1      46.378  23.673  34.043  1.00  0.00     0.135 A 
ATOM     95  C   UNL A   1      44.141  22.845  34.194  1.00  0.00     0.135 A 
ATOM     96  F   UNL A   1      47.303  24.565  33.657  1.00  0.00    -0.206 F 
ATOM     97  C   UNL A   1      46.804  22.680  34.920  1.00  0.00     0.059 A 
ATOM     98  C   UNL A   1      44.531  21.895  35.125  1.00  0.00     0.059 A 
ATOM     99  F   UNL A   1      42.835  22.844  33.885  1.00  0.00    -0.206 F 
ATOM    100  C   UNL A   1      45.873  21.798  35.458  1.00  0.00     0.060 A 
BRANCH 100 101
ATOM    101  S   UNL A   1      46.408  20.551  36.635  1.00  0.00     0.124 S 
ATOM    102  O   UNL A   1      45.807  19.348  36.067  1.00  0.00    -0.237 OA
ATOM    103  O   UNL A   1      47.864  20.630  36.549  1.00  0.00    -0.237 OA
ATOM    104  O   UNL A   1      45.836  21.013  37.895  1.00  0.00    -0.744 OA
ENDBRANCH 100 101
ENDBRANCH  68  93
ENDBRANCH  42  43
ENDBRANCH  35  37
ENDBRANCH  34  35
ENDBRANCH   1  34
TORSDOF 18
ENDMDL
MODEL 3
REMARK VINA RESULT:     -13.4      4.635     11.086
REMARK SMILES Cc1ccccc1C(=O)Nc1cc(NC(=O)c2ccccc2C)cc(C(=O)OCCOC(=O)c2ccc(-c3c4nc(c(-c5c(F)cc(S(=O)(=O)[O-])cc5F)c5ccc([nH]5)c(-c5c(F)cc(S(=O)(=O)[O-])cc5F)c5nc(c(-c6c(F)cc(S(=O)(=O)[O-])cc6F)c6ccc3[nH]6)C=C5)C=C4)cc2)c1
REMARK SMILES IDX 30 1 29 2 28 3 26 4 27 5 25 6 11 7 12 8 100 9 13 10 24 11
REMARK SMILES IDX 10 12 8 13 9 14 7 16 1 17 2 18 3 19 4 20 6 21 5 22 14 23
REMARK SMILES IDX 15 24 16 26 17 27 18 28 22 29 19 30 21 31 23 32 20 33 31 34
REMARK SMILES IDX 32 35 33 36 34 37 35 38 99 39 36 40 98 41 37 42 38 43 39 44
REMARK SMILES IDX 92 45 40 46 97 47 91 48 93 49 41 50 96 51 90 52 89 53 42 55
REMARK SMILES IDX 76 56 55 57 75 58 56 59 59 60 74 61 94 62 57 63 58 64 73 66
REMARK SMILES IDX 95 67 60 68 43 69 44 70 53 71 45 72 46 73 52 74 54 75 47 76
REMARK SMILES IDX 48 77 49 78 50 79 51 80 77 81 78 82 87 83 79 84 80 85 86 86
REMARK SMILES IDX 88 87 81 88 82 89 83 90 84 91 85 92 61 93 62 94 71 95 63 96
REMARK SMILES IDX 64 97 70 98 72 99 65 100 66 101 67 102 68 103 69 104
REMARK H PARENT 10 15 14 25 93 54 59 65
REMARK Flexibility Score: inf
ROOT
ATOM      1  C   UNL A   1      34.363  31.004  27.379  1.00  0.00     0.275 C 
ENDROOT
BRANCH   1   2
ATOM      2  C   UNL A   1      32.944  30.419  27.242  1.00  0.00     0.275 C 
BRANCH   2   3
ATOM      3  O   UNL A   1      32.889  29.144  26.570  1.00  0.00    -0.458 OA
BRANCH   3   4
ATOM      4  C   UNL A   1      32.027  28.289  27.183  1.00  0.00     0.338 C 
ATOM      5  O   UNL A   1      31.873  28.211  28.383  1.00  0.00    -0.246 OA
BRANCH   4   6
ATOM      6  C   UNL A   1      31.406  27.270  26.309  1.00  0.00     0.064 A 
ATOM      7  C   UNL A   1      30.247  25.190  25.860  1.00  0.00     0.044 A 
ATOM      8  C   UNL A   1      30.750  25.208  24.558  1.00  0.00     0.052 A 
ATOM      9  C   UNL A   1      30.463  26.305  26.689  1.00  0.00     0.042 A 
ATOM     10  C   UNL A   1      31.587  26.241  24.141  1.00  0.00     0.044 A 
ATOM     11  C   UNL A   1      32.000  27.200  25.052  1.00  0.00     0.042 A 
BRANCH   7  12
ATOM     12  N   UNL A   1      29.568  24.069  26.385  1.00  0.00    -0.322 N 
ATOM     13  C   UNL A   1      30.027  22.786  26.658  1.00  0.00     0.255 C 
ATOM     14  O   UNL A   1      29.216  21.880  26.865  1.00  0.00    -0.269 OA
ATOM     15  H   UNL A   1      28.618  24.221  26.591  1.00  0.00     0.170 HD
BRANCH  13  16
ATOM     16  C   UNL A   1      31.483  22.444  26.744  1.00  0.00     0.043 A 
ATOM     17  C   UNL A   1      31.653  21.323  24.431  1.00  0.00     0.045 C 
ATOM     18  C   UNL A   1      32.202  21.716  25.775  1.00  0.00    -0.038 A 
ATOM     19  C   UNL A   1      33.536  21.352  26.049  1.00  0.00     0.004 A 
ATOM     20  C   UNL A   1      34.187  21.806  27.195  1.00  0.00     0.000 A 
ATOM     21  C   UNL A   1      32.174  22.950  27.864  1.00  0.00     0.014 A 
ATOM     22  C   UNL A   1      33.519  22.642  28.082  1.00  0.00     0.001 A 
ENDBRANCH  13  16
ENDBRANCH   7  12
BRANCH  10  23
ATOM     23  N   UNL A   1      32.017  26.421  22.826  1.00  0.00    -0.322 N 
ATOM     24  C   UNL A   1      33.072  25.839  22.168  1.00  0.00     0.255 C 
ATOM     25  H   UNL A   1      31.487  27.058  22.292  1.00  0.00     0.170 HD
ATOM     26  O   UNL A   1      33.328  26.177  21.011  1.00  0.00    -0.269 OA
BRANCH  24  27
ATOM     27  C   UNL A   1      33.892  24.772  22.797  1.00  0.00     0.043 A 
ATOM     28  C   UNL A   1      34.709  25.209  23.851  1.00  0.00     0.014 A 
ATOM     29  C   UNL A   1      33.913  23.416  22.401  1.00  0.00    -0.038 A 
ATOM     30  C   UNL A   1      35.497  24.306  24.559  1.00  0.00     0.001 A 
ATOM     31  C   UNL A   1      34.683  22.515  23.159  1.00  0.00     0.004 A 
ATOM     32  C   UNL A   1      33.152  22.843  21.237  1.00  0.00     0.045 C 
ATOM     33  C   UNL A   1      35.467  22.956  24.226  1.00  0.00     0.000 A 
ENDBRANCH  24  27
ENDBRANCH  10  23
ENDBRANCH   4   6
ENDBRANCH   3   4
ENDBRANCH   2   3
ENDBRANCH   1   2
BRANCH   1  34
ATOM     34  O   UNL A   1      35.483  30.123  27.626  1.00  0.00    -0.458 OA
BRANCH  34  35
ATOM     35  C   UNL A   1      36.497  30.599  28.393  1.00  0.00     0.338 C 
ATOM     36  O   UNL A   1      36.369  31.533  29.179  1.00  0.00    -0.246 OA
BRANCH  35  37
ATOM     37  C   UNL A   1      37.614  29.616  28.383  1.00  0.00     0.060 A 
ATOM     38  C   UNL A   1      38.560  29.662  27.351  1.00  0.00     0.016 A 
ATOM     39  C   UNL A   1      37.889  28.913  29.558  1.00  0.00     0.016 A 
ATOM     40  C   UNL A   1      39.833  29.138  27.539  1.00  0.00     0.010 A 
ATOM     41  C   UNL A   1      39.177  28.517  29.805  1.00  0.00     0.010 A 
ATOM     42  C   UNL A   1      40.136  28.601  28.785  1.00  0.00    -0.014 A 
BRANCH  42  43
ATOM     43  C   UNL A   1      41.292  27.759  29.023  1.00  0.00     0.031 A 
ATOM     44  C   UNL A   1      41.330  26.340  28.644  1.00  0.00     0.074 A 
ATOM     45  C   UNL A   1      42.318  28.499  29.499  1.00  0.00     0.049 A 
ATOM     46  N   UNL A   1      42.175  25.491  29.109  1.00  0.00    -0.248 NA
ATOM     47  C   UNL A   1      40.377  25.724  27.730  1.00  0.00     0.031 C 
ATOM     48  C   UNL A   1      43.726  28.215  29.663  1.00  0.00     0.029 A 
ATOM     49  N   UNL A   1      42.146  29.737  30.142  1.00  0.00    -0.354 N 
ATOM     50  C   UNL A   1      42.100  24.347  28.330  1.00  0.00     0.074 A 
ATOM     51  C   UNL A   1      40.876  24.490  27.591  1.00  0.00     0.031 C 
ATOM     52  C   UNL A   1      44.205  29.040  30.619  1.00  0.00     0.029 A 
ATOM     53  C   UNL A   1      43.070  29.776  31.177  1.00  0.00     0.049 A 
ATOM     54  H   UNL A   1      41.497  30.439  29.905  1.00  0.00     0.167 HD
ATOM     55  C   UNL A   1      43.193  23.527  28.286  1.00  0.00     0.037 A 
ATOM     56  C   UNL A   1      42.575  29.655  32.447  1.00  0.00     0.037 A 
ATOM     57  C   UNL A   1      44.180  24.019  29.248  1.00  0.00     0.049 A 
ATOM     58  C   UNL A   1      43.045  28.350  33.045  1.00  0.00     0.074 A 
ATOM     59  C   UNL A   1      45.253  24.883  29.092  1.00  0.00     0.029 A 
ATOM     60  N   UNL A   1      43.880  23.998  30.606  1.00  0.00    -0.354 N 
ATOM     61  N   UNL A   1      43.219  27.243  32.369  1.00  0.00    -0.248 NA
ATOM     62  C   UNL A   1      43.512  28.257  34.422  1.00  0.00     0.031 C 
ATOM     63  C   UNL A   1      45.496  25.494  30.351  1.00  0.00     0.029 A 
ATOM     64  C   UNL A   1      44.587  24.986  31.267  1.00  0.00     0.049 A 
ATOM     65  H   UNL A   1      43.254  23.370  31.035  1.00  0.00     0.167 HD
ATOM     66  C   UNL A   1      43.920  26.356  33.146  1.00  0.00     0.074 A 
ATOM     67  C   UNL A   1      44.044  27.025  34.432  1.00  0.00     0.031 C 
ATOM     68  C   UNL A   1      44.431  25.168  32.700  1.00  0.00     0.037 A 
BRANCH  55  69
ATOM     69  C   UNL A   1      43.530  22.527  27.184  1.00  0.00     0.058 A 
ATOM     70  C   UNL A   1      42.744  21.358  27.029  1.00  0.00     0.135 A 
ATOM     71  C   UNL A   1      44.628  22.598  26.301  1.00  0.00     0.135 A 
ATOM     72  F   UNL A   1      41.622  21.170  27.737  1.00  0.00    -0.206 F 
ATOM     73  C   UNL A   1      43.067  20.319  26.149  1.00  0.00     0.059 A 
ATOM     74  C   UNL A   1      44.986  21.560  25.427  1.00  0.00     0.059 A 
ATOM     75  F   UNL A   1      45.385  23.696  26.207  1.00  0.00    -0.206 F 
ATOM     76  C   UNL A   1      44.207  20.415  25.367  1.00  0.00     0.060 A 
BRANCH  76  77
ATOM     77  S   UNL A   1      44.621  19.052  24.261  1.00  0.00     0.124 S 
ATOM     78  O   UNL A   1      44.376  19.639  22.947  1.00  0.00    -0.237 OA
ATOM     79  O   UNL A   1      46.020  18.800  24.593  1.00  0.00    -0.237 OA
ATOM     80  O   UNL A   1      43.689  17.999  24.653  1.00  0.00    -0.744 OA
ENDBRANCH  76  77
ENDBRANCH  55  69
BRANCH  56  81
ATOM     81  C   UNL A   1      41.253  30.345  32.683  1.00  0.00     0.058 A 
ATOM     82  C   UNL A   1      40.175  29.575  33.187  1.00  0.00     0.135 A 
ATOM     83  C   UNL A   1      41.060  31.734  32.674  1.00  0.00     0.135 A 
ATOM     84  F   UNL A   1      40.265  28.233  33.213  1.00  0.00    -0.206 F 
ATOM     85  C   UNL A   1      39.034  30.141  33.755  1.00  0.00     0.059 A 
ATOM     86  C   UNL A   1      39.904  32.329  33.217  1.00  0.00     0.059 A 
ATOM     87  F   UNL A   1      42.018  32.549  32.212  1.00  0.00    -0.206 F 
ATOM     88  C   UNL A   1      38.915  31.525  33.790  1.00  0.00     0.060 A 
BRANCH  88  89
ATOM     89  S   UNL A   1      37.563  32.246  34.766  1.00  0.00     0.124 S 
ATOM     90  O   UNL A   1      37.620  31.460  35.993  1.00  0.00    -0.237 OA
ATOM     91  O   UNL A   1      37.993  33.638  34.888  1.00  0.00    -0.237 OA
ATOM     92  O   UNL A   1      36.394  32.022  33.919  1.00  0.00    -0.744 OA
ENDBRANCH  88  89
ENDBRANCH  56  81
BRANCH  68  93
ATOM     93  C   UNL A   1      44.943  24.072  33.594  1.00  0.00     0.058 A 
ATOM     94  C   UNL A   1      44.147  22.993  34.010  1.00  0.00     0.135 A 
ATOM     95  C   UNL A   1      46.323  23.978  33.900  1.00  0.00     0.135 A 
ATOM     96  F   UNL A   1      42.850  22.913  33.681  1.00  0.00    -0.206 F 
ATOM     97  C   UNL A   1      44.667  21.930  34.740  1.00  0.00     0.059 A 
ATOM     98  C   UNL A   1      46.873  22.891  34.563  1.00  0.00     0.059 A 
ATOM     99  F   UNL A   1      47.193  24.935  33.543  1.00  0.00    -0.206 F 
ATOM    100  C   UNL A   1      46.031  21.886  35.009  1.00  0.00     0.060 A 
BRANCH 100 101
ATOM    101  S   UNL A   1      46.716  20.486  35.902  1.00  0.00     0.124 S 
ATOM    102  O   UNL A   1      46.155  20.695  37.233  1.00  0.00    -0.237 OA
ATOM    103  O   UNL A   1      46.186  19.342  35.165  1.00  0.00    -0.237 OA
ATOM    104  O   UNL A   1      48.157  20.685  35.782  1.00  0.00    -0.744 OA
ENDBRANCH 100 101
ENDBRANCH  68  93
ENDBRANCH  42  43
ENDBRANCH  35  37
ENDBRANCH  34  35
ENDBRANCH   1  34
TORSDOF 18
ENDMDL
