MODEL 1
REMARK VINA RESULT:     -12.2      0.000      0.000
REMARK SMILES NC(=O)c1c(-c2ccc(Cl)cc2)csc1NC(=O)[C@H]1[C@@H](C(=O)OCCOC(=O)c2ccc(-c3c4nc(c(-c5c(F)cc(S(=O)(=O)[O-])cc5F)c5ccc([nH]5)c(-c5c(F)cc(S(=O)(=O)[O-])cc5F)c5nc(c(-c6c(F)cc(S(=O)(=O)[O-])cc6F)c6ccc3[nH]6)C=C5)C=C4)cc2)[C@@H]2CC[C@H]1O2
REMARK SMILES IDX 24 1 23 2 21 3 22 4 20 5 19 6 98 7 95 8 97 9 99 10 96 11
REMARK SMILES IDX 17 12 16 13 18 15 15 16 4 17 5 18 13 19 14 20 2 21 1 22 3 25
REMARK SMILES IDX 6 26 7 27 12 28 8 29 11 30 9 31 10 32 25 33 26 34 27 35
REMARK SMILES IDX 28 36 29 37 30 38 94 39 31 40 93 41 32 42 33 43 34 44 87 45
REMARK SMILES IDX 35 46 92 47 86 48 88 49 36 50 91 51 85 52 84 53 37 55 71 56
REMARK SMILES IDX 50 57 70 58 51 59 54 60 69 61 89 62 52 63 53 64 68 66 90 67
REMARK SMILES IDX 55 68 38 69 39 70 48 71 40 72 41 73 47 74 49 75 42 76 43 77
REMARK SMILES IDX 44 78 45 79 46 80 72 81 73 82 82 83 74 84 75 85 81 86 83 87
REMARK SMILES IDX 76 88 77 89 78 90 79 91 80 92 56 93 57 94 66 95 58 96 59 97
REMARK SMILES IDX 65 98 67 99 60 100 61 101 62 102 63 103 64 104
REMARK H PARENT 16 14 1 23 1 24 88 54 54 65
REMARK Flexibility Score: inf
ROOT
ATOM      1  C   UNL A   1      33.354  30.111  27.500  1.00  0.00     0.274 C 
ENDROOT
BRANCH   1   2
ATOM      2  O   UNL A   1      32.683  29.648  26.311  1.00  0.00    -0.462 OA
BRANCH   2   3
ATOM      3  C   UNL A   1      31.917  28.543  26.454  1.00  0.00     0.312 C 
ATOM      4  O   UNL A   1      31.716  27.971  27.521  1.00  0.00    -0.252 OA
BRANCH   3   5
ATOM      5  C   UNL A   1      31.288  28.051  25.174  1.00  0.00     0.143 C 
ATOM      6  C   UNL A   1      32.061  27.073  24.278  1.00  0.00     0.124 C 
ATOM      7  C   UNL A   1      31.868  27.730  22.901  1.00  0.00     0.132 C 
ATOM      8  C   UNL A   1      30.940  29.187  24.202  1.00  0.00     0.133 C 
ATOM      9  C   UNL A   1      30.393  27.672  22.469  1.00  0.00     0.035 C 
ATOM     10  O   UNL A   1      31.996  29.127  23.224  1.00  0.00    -0.373 OA
ATOM     11  C   UNL A   1      29.755  28.761  23.339  1.00  0.00     0.036 C 
BRANCH   6  12
ATOM     12  C   UNL A   1      33.534  26.918  24.604  1.00  0.00     0.231 C 
ATOM     13  N   UNL A   1      34.075  25.775  25.102  1.00  0.00    -0.317 N 
ATOM     14  H   UNL A   1      35.025  25.882  25.341  1.00  0.00     0.170 HD
ATOM     15  O   UNL A   1      34.340  27.828  24.383  1.00  0.00    -0.274 OA
BRANCH  13  16
ATOM     16  C   UNL A   1      33.609  24.500  25.351  1.00  0.00     0.108 A 
ATOM     17  C   UNL A   1      34.018  23.367  24.655  1.00  0.00     0.082 A 
ATOM     18  C   UNL A   1      33.305  22.194  25.112  1.00  0.00     0.007 A 
ATOM     19  C   UNL A   1      32.439  22.491  26.144  1.00  0.00     0.076 A 
ATOM     20  S   UNL A   1      32.466  24.147  26.543  1.00  0.00    -0.125 S 
BRANCH  17  21
ATOM     21  C   UNL A   1      35.008  23.461  23.582  1.00  0.00     0.252 C 
ATOM     22  N   UNL A   1      36.298  23.169  23.907  1.00  0.00    -0.365 N 
ATOM     23  H   UNL A   1      37.002  23.217  23.220  1.00  0.00     0.159 HD
ATOM     24  H   UNL A   1      36.527  22.908  24.828  1.00  0.00     0.159 HD
ATOM     25  O   UNL A   1      34.708  23.716  22.420  1.00  0.00    -0.269 OA
ENDBRANCH  17  21
BRANCH  18  26
ATOM     26  C   UNL A   1      33.430  20.828  24.626  1.00  0.00    -0.017 A 
ATOM     27  C   UNL A   1      34.540  20.053  24.988  1.00  0.00     0.010 A 
ATOM     28  C   UNL A   1      32.402  20.258  23.866  1.00  0.00     0.010 A 
ATOM     29  C   UNL A   1      34.609  18.710  24.608  1.00  0.00     0.021 A 
ATOM     30  C   UNL A   1      32.473  18.915  23.488  1.00  0.00     0.021 A 
ATOM     31  C   UNL A   1      33.573  18.146  23.866  1.00  0.00     0.041 A 
ATOM     32  Cl  UNL A   1      33.643  16.484  23.428  1.00  0.00    -0.084 Cl
ENDBRANCH  18  26
ENDBRANCH  13  16
ENDBRANCH   6  12
ENDBRANCH   3   5
ENDBRANCH   2   3
ENDBRANCH   1   2
BRANCH   1  33
ATOM     33  C   UNL A   1      34.731  29.471  27.620  1.00  0.00     0.275 C 
BRANCH  33  34
ATOM     34  O   UNL A   1      35.620  30.379  28.292  1.00  0.00    -0.458 OA
BRANCH  34  35
ATOM     35  C   UNL A   1      36.315  29.843  29.320  1.00  0.00     0.338 C 
ATOM     36  O   UNL A   1      35.876  29.434  30.380  1.00  0.00    -0.246 OA
BRANCH  35  37
ATOM     37  C   UNL A   1      37.751  29.805  28.997  1.00  0.00     0.060 A 
ATOM     38  C   UNL A   1      38.171  29.753  27.670  1.00  0.00     0.016 A 
ATOM     39  C   UNL A   1      38.671  29.654  30.033  1.00  0.00     0.016 A 
ATOM     40  C   UNL A   1      39.488  29.406  27.378  1.00  0.00     0.010 A 
ATOM     41  C   UNL A   1      40.018  29.432  29.735  1.00  0.00     0.010 A 
ATOM     42  C   UNL A   1      40.432  29.254  28.405  1.00  0.00    -0.014 A 
BRANCH  42  43
ATOM     43  C   UNL A   1      41.843  28.900  28.081  1.00  0.00     0.031 A 
ATOM     44  C   UNL A   1      42.213  27.487  27.699  1.00  0.00     0.074 A 
ATOM     45  C   UNL A   1      42.793  29.856  28.113  1.00  0.00     0.049 A 
ATOM     46  N   UNL A   1      43.401  26.970  27.507  1.00  0.00    -0.248 NA
ATOM     47  C   UNL A   1      41.111  26.529  27.521  1.00  0.00     0.031 C 
ATOM     48  C   UNL A   1      42.568  31.263  28.458  1.00  0.00     0.029 A 
ATOM     49  N   UNL A   1      44.137  29.798  27.842  1.00  0.00    -0.354 N 
ATOM     50  C   UNL A   1      43.192  25.622  27.227  1.00  0.00     0.074 A 
ATOM     51  C   UNL A   1      41.764  25.398  27.286  1.00  0.00     0.031 C 
ATOM     52  C   UNL A   1      43.720  31.939  28.335  1.00  0.00     0.029 A 
ATOM     53  C   UNL A   1      44.780  31.005  27.983  1.00  0.00     0.049 A 
ATOM     54  H   UNL A   1      44.597  28.969  27.572  1.00  0.00     0.167 HD
ATOM     55  C   UNL A   1      44.107  24.664  26.944  1.00  0.00     0.037 A 
ATOM     56  C   UNL A   1      46.084  31.323  27.874  1.00  0.00     0.037 A 
ATOM     57  C   UNL A   1      45.526  24.903  26.841  1.00  0.00     0.049 A 
ATOM     58  C   UNL A   1      47.075  30.243  27.551  1.00  0.00     0.074 A 
ATOM     59  C   UNL A   1      46.535  23.997  26.564  1.00  0.00     0.029 A 
ATOM     60  N   UNL A   1      46.133  26.140  26.991  1.00  0.00    -0.354 N 
ATOM     61  N   UNL A   1      46.860  28.965  27.345  1.00  0.00    -0.248 NA
ATOM     62  C   UNL A   1      48.483  30.643  27.456  1.00  0.00     0.031 C 
ATOM     63  C   UNL A   1      47.755  24.683  26.564  1.00  0.00     0.029 A 
ATOM     64  C   UNL A   1      47.502  26.022  26.808  1.00  0.00     0.049 A 
ATOM     65  H   UNL A   1      45.662  26.980  27.195  1.00  0.00     0.167 HD
ATOM     66  C   UNL A   1      48.109  28.409  27.097  1.00  0.00     0.074 A 
ATOM     67  C   UNL A   1      49.067  29.495  27.145  1.00  0.00     0.031 C 
ATOM     68  C   UNL A   1      48.437  27.115  26.865  1.00  0.00     0.037 A 
BRANCH  55  69
ATOM     69  C   UNL A   1      43.613  23.259  26.728  1.00  0.00     0.058 A 
ATOM     70  C   UNL A   1      43.574  22.678  25.452  1.00  0.00     0.135 A 
ATOM     71  C   UNL A   1      43.238  22.461  27.821  1.00  0.00     0.135 A 
ATOM     72  F   UNL A   1      43.905  23.400  24.370  1.00  0.00    -0.206 F 
ATOM     73  C   UNL A   1      43.172  21.357  25.265  1.00  0.00     0.059 A 
ATOM     74  C   UNL A   1      42.853  21.133  27.661  1.00  0.00     0.059 A 
ATOM     75  F   UNL A   1      43.256  22.967  29.065  1.00  0.00    -0.206 F 
ATOM     76  C   UNL A   1      42.817  20.591  26.377  1.00  0.00     0.060 A 
BRANCH  76  77
ATOM     77  S   UNL A   1      42.335  18.869  26.124  1.00  0.00     0.124 S 
ATOM     78  O   UNL A   1      43.277  18.449  25.093  1.00  0.00    -0.237 OA
ATOM     79  O   UNL A   1      42.541  18.288  27.447  1.00  0.00    -0.237 OA
ATOM     80  O   UNL A   1      40.941  18.966  25.699  1.00  0.00    -0.744 OA
ENDBRANCH  76  77
ENDBRANCH  55  69
BRANCH  56  81
ATOM     81  C   UNL A   1      46.531  32.721  28.116  1.00  0.00     0.058 A 
ATOM     82  C   UNL A   1      47.016  33.121  29.368  1.00  0.00     0.135 A 
ATOM     83  C   UNL A   1      46.480  33.682  27.094  1.00  0.00     0.135 A 
ATOM     84  F   UNL A   1      47.077  32.238  30.377  1.00  0.00    -0.206 F 
ATOM     85  C   UNL A   1      47.418  34.431  29.609  1.00  0.00     0.059 A 
ATOM     86  C   UNL A   1      46.904  34.990  27.301  1.00  0.00     0.059 A 
ATOM     87  F   UNL A   1      46.040  33.344  25.872  1.00  0.00    -0.206 F 
ATOM     88  C   UNL A   1      47.357  35.359  28.567  1.00  0.00     0.060 A 
BRANCH  88  89
ATOM     89  S   UNL A   1      47.915  37.050  28.868  1.00  0.00     0.124 S 
ATOM     90  O   UNL A   1      46.973  37.816  28.062  1.00  0.00    -0.237 OA
ATOM     91  O   UNL A   1      47.768  37.174  30.314  1.00  0.00    -0.237 OA
ATOM     92  O   UNL A   1      49.293  37.033  28.386  1.00  0.00    -0.744 OA
ENDBRANCH  88  89
ENDBRANCH  56  81
BRANCH  68  93
ATOM     93  C   UNL A   1      49.891  26.821  26.632  1.00  0.00     0.058 A 
ATOM     94  C   UNL A   1      50.424  26.748  25.335  1.00  0.00     0.135 A 
ATOM     95  C   UNL A   1      50.757  26.596  27.714  1.00  0.00     0.135 A 
ATOM     96  F   UNL A   1      49.633  26.947  24.268  1.00  0.00    -0.206 F 
ATOM     97  C   UNL A   1      51.756  26.419  25.116  1.00  0.00     0.059 A 
ATOM     98  C   UNL A   1      52.099  26.289  27.518  1.00  0.00     0.059 A 
ATOM     99  F   UNL A   1      50.297  26.665  28.973  1.00  0.00    -0.206 F 
ATOM    100  C   UNL A   1      52.584  26.182  26.215  1.00  0.00     0.060 A 
BRANCH 100 101
ATOM    101  S   UNL A   1      54.310  25.737  25.925  1.00  0.00     0.124 S 
ATOM    102  O   UNL A   1      54.239  25.141  24.595  1.00  0.00    -0.237 OA
ATOM    103  O   UNL A   1      54.987  27.028  26.008  1.00  0.00    -0.237 OA
ATOM    104  O   UNL A   1      54.607  24.811  27.015  1.00  0.00    -0.744 OA
ENDBRANCH 100 101
ENDBRANCH  68  93
ENDBRANCH  42  43
ENDBRANCH  35  37
ENDBRANCH  34  35
ENDBRANCH  33  34
ENDBRANCH   1  33
TORSDOF 18
ENDMDL
MODEL 2
REMARK VINA RESULT:     -12.1      0.777      7.973
REMARK SMILES NC(=O)c1c(-c2ccc(Cl)cc2)csc1NC(=O)[C@H]1[C@@H](C(=O)OCCOC(=O)c2ccc(-c3c4nc(c(-c5c(F)cc(S(=O)(=O)[O-])cc5F)c5ccc([nH]5)c(-c5c(F)cc(S(=O)(=O)[O-])cc5F)c5nc(c(-c6c(F)cc(S(=O)(=O)[O-])cc6F)c6ccc3[nH]6)C=C5)C=C4)cc2)[C@@H]2CC[C@H]1O2
REMARK SMILES IDX 24 1 23 2 21 3 22 4 20 5 19 6 98 7 95 8 97 9 99 10 96 11
REMARK SMILES IDX 17 12 16 13 18 15 15 16 4 17 5 18 13 19 14 20 2 21 1 22 3 25
REMARK SMILES IDX 6 26 7 27 12 28 8 29 11 30 9 31 10 32 25 33 26 34 27 35
REMARK SMILES IDX 28 36 29 37 30 38 94 39 31 40 93 41 32 42 33 43 34 44 87 45
REMARK SMILES IDX 35 46 92 47 86 48 88 49 36 50 91 51 85 52 84 53 37 55 71 56
REMARK SMILES IDX 50 57 70 58 51 59 54 60 69 61 89 62 52 63 53 64 68 66 90 67
REMARK SMILES IDX 55 68 38 69 39 70 48 71 40 72 41 73 47 74 49 75 42 76 43 77
REMARK SMILES IDX 44 78 45 79 46 80 72 81 73 82 82 83 74 84 75 85 81 86 83 87
REMARK SMILES IDX 76 88 77 89 78 90 79 91 80 92 56 93 57 94 66 95 58 96 59 97
REMARK SMILES IDX 65 98 67 99 60 100 61 101 62 102 63 103 64 104
REMARK H PARENT 16 14 1 23 1 24 88 54 54 65
REMARK Flexibility Score: inf
ROOT
ATOM      1  C   UNL A   1      34.133  29.090  27.173  1.00  0.00     0.274 C 
ENDROOT
BRANCH   1   2
ATOM      2  O   UNL A   1      32.758  28.741  26.914  1.00  0.00    -0.462 OA
BRANCH   2   3
ATOM      3  C   UNL A   1      32.309  28.989  25.663  1.00  0.00     0.312 C 
ATOM      4  O   UNL A   1      32.625  29.967  24.993  1.00  0.00    -0.252 OA
BRANCH   3   5
ATOM      5  C   UNL A   1      31.373  27.939  25.117  1.00  0.00     0.143 C 
ATOM      6  C   UNL A   1      31.943  26.606  24.612  1.00  0.00     0.124 C 
ATOM      7  C   UNL A   1      31.212  26.472  23.266  1.00  0.00     0.132 C 
ATOM      8  C   UNL A   1      30.560  28.430  23.912  1.00  0.00     0.133 C 
ATOM      9  C   UNL A   1      29.703  26.267  23.482  1.00  0.00     0.035 C 
ATOM     10  O   UNL A   1      31.231  27.829  22.788  1.00  0.00    -0.373 OA
ATOM     11  C   UNL A   1      29.233  27.675  23.863  1.00  0.00     0.036 C 
BRANCH   6  12
ATOM     12  C   UNL A   1      33.447  26.574  24.419  1.00  0.00     0.231 C 
ATOM     13  N   UNL A   1      34.222  25.507  24.746  1.00  0.00    -0.317 N 
ATOM     14  H   UNL A   1      35.183  25.693  24.640  1.00  0.00     0.170 HD
ATOM     15  O   UNL A   1      34.048  27.519  23.898  1.00  0.00    -0.274 OA
BRANCH  13  16
ATOM     16  C   UNL A   1      33.980  24.223  25.192  1.00  0.00     0.108 A 
ATOM     17  C   UNL A   1      34.117  23.083  24.406  1.00  0.00     0.082 A 
ATOM     18  C   UNL A   1      33.736  21.898  25.144  1.00  0.00     0.007 A 
ATOM     19  C   UNL A   1      33.378  22.196  26.442  1.00  0.00     0.076 A 
ATOM     20  S   UNL A   1      33.478  23.865  26.765  1.00  0.00    -0.125 S 
BRANCH  17  21
ATOM     21  C   UNL A   1      34.546  23.179  23.011  1.00  0.00     0.252 C 
ATOM     22  N   UNL A   1      33.566  23.230  22.067  1.00  0.00    -0.365 N 
ATOM     23  H   UNL A   1      33.804  23.295  21.113  1.00  0.00     0.159 HD
ATOM     24  H   UNL A   1      32.620  23.202  22.337  1.00  0.00     0.159 HD
ATOM     25  O   UNL A   1      35.724  23.287  22.682  1.00  0.00    -0.269 OA
ENDBRANCH  17  21
BRANCH  18  26
ATOM     26  C   UNL A   1      33.719  20.521  24.673  1.00  0.00    -0.017 A 
ATOM     27  C   UNL A   1      34.838  19.699  24.866  1.00  0.00     0.010 A 
ATOM     28  C   UNL A   1      32.557  19.990  24.102  1.00  0.00     0.010 A 
ATOM     29  C   UNL A   1      34.784  18.349  24.509  1.00  0.00     0.021 A 
ATOM     30  C   UNL A   1      32.505  18.640  23.746  1.00  0.00     0.021 A 
ATOM     31  C   UNL A   1      33.616  17.824  23.957  1.00  0.00     0.041 A 
ATOM     32  Cl  UNL A   1      33.541  16.155  23.549  1.00  0.00    -0.084 Cl
ENDBRANCH  18  26
ENDBRANCH  13  16
ENDBRANCH   6  12
ENDBRANCH   3   5
ENDBRANCH   2   3
ENDBRANCH   1   2
BRANCH   1  33
ATOM     33  C   UNL A   1      34.213  30.381  27.980  1.00  0.00     0.275 C 
BRANCH  33  34
ATOM     34  O   UNL A   1      35.569  30.859  27.974  1.00  0.00    -0.458 OA
BRANCH  34  35
ATOM     35  C   UNL A   1      36.229  30.719  29.146  1.00  0.00     0.338 C 
ATOM     36  O   UNL A   1      35.866  31.082  30.251  1.00  0.00    -0.246 OA
BRANCH  35  37
ATOM     37  C   UNL A   1      37.515  30.039  28.926  1.00  0.00     0.060 A 
ATOM     38  C   UNL A   1      38.363  29.774  30.000  1.00  0.00     0.016 A 
ATOM     39  C   UNL A   1      37.944  29.814  27.618  1.00  0.00     0.016 A 
ATOM     40  C   UNL A   1      39.689  29.424  29.759  1.00  0.00     0.010 A 
ATOM     41  C   UNL A   1      39.237  29.338  27.387  1.00  0.00     0.010 A 
ATOM     42  C   UNL A   1      40.141  29.187  28.452  1.00  0.00    -0.014 A 
BRANCH  42  43
ATOM     43  C   UNL A   1      41.557  28.794  28.206  1.00  0.00     0.031 A 
ATOM     44  C   UNL A   1      42.664  29.818  28.281  1.00  0.00     0.074 A 
ATOM     45  C   UNL A   1      41.854  27.507  27.934  1.00  0.00     0.049 A 
ATOM     46  N   UNL A   1      43.930  29.687  27.977  1.00  0.00    -0.248 NA
ATOM     47  C   UNL A   1      42.300  31.168  28.743  1.00  0.00     0.031 C 
ATOM     48  C   UNL A   1      40.880  26.415  27.842  1.00  0.00     0.029 A 
ATOM     49  N   UNL A   1      43.056  26.892  27.695  1.00  0.00    -0.354 N 
ATOM     50  C   UNL A   1      44.505  30.940  28.171  1.00  0.00     0.074 A 
ATOM     51  C   UNL A   1      43.445  31.823  28.607  1.00  0.00     0.031 C 
ATOM     52  C   UNL A   1      41.526  25.263  27.611  1.00  0.00     0.029 A 
ATOM     53  C   UNL A   1      42.948  25.542  27.459  1.00  0.00     0.049 A 
ATOM     54  H   UNL A   1      43.916  27.373  27.693  1.00  0.00     0.167 HD
ATOM     55  C   UNL A   1      45.796  31.315  28.004  1.00  0.00     0.037 A 
ATOM     56  C   UNL A   1      43.880  24.631  27.122  1.00  0.00     0.037 A 
ATOM     57  C   UNL A   1      46.856  30.420  27.613  1.00  0.00     0.049 A 
ATOM     58  C   UNL A   1      45.305  25.074  26.953  1.00  0.00     0.074 A 
ATOM     59  C   UNL A   1      48.197  30.705  27.412  1.00  0.00     0.029 A 
ATOM     60  N   UNL A   1      46.701  29.061  27.384  1.00  0.00    -0.354 N 
ATOM     61  N   UNL A   1      45.814  26.275  27.088  1.00  0.00    -0.248 NA
ATOM     62  C   UNL A   1      46.278  24.043  26.575  1.00  0.00     0.031 C 
ATOM     63  C   UNL A   1      48.848  29.523  27.044  1.00  0.00     0.029 A 
ATOM     64  C   UNL A   1      47.921  28.494  27.048  1.00  0.00     0.049 A 
ATOM     65  H   UNL A   1      45.851  28.570  27.452  1.00  0.00     0.167 HD
ATOM     66  C   UNL A   1      47.169  26.143  26.810  1.00  0.00     0.074 A 
ATOM     67  C   UNL A   1      47.404  24.740  26.533  1.00  0.00     0.031 C 
ATOM     68  C   UNL A   1      48.131  27.097  26.772  1.00  0.00     0.037 A 
BRANCH  55  69
ATOM     69  C   UNL A   1      46.146  32.760  28.237  1.00  0.00     0.058 A 
ATOM     70  C   UNL A   1      46.032  33.721  27.221  1.00  0.00     0.135 A 
ATOM     71  C   UNL A   1      46.534  33.201  29.513  1.00  0.00     0.135 A 
ATOM     72  F   UNL A   1      45.680  33.352  25.979  1.00  0.00    -0.206 F 
ATOM     73  C   UNL A   1      46.299  35.067  27.458  1.00  0.00     0.059 A 
ATOM     74  C   UNL A   1      46.787  34.544  29.778  1.00  0.00     0.059 A 
ATOM     75  F   UNL A   1      46.660  32.324  30.521  1.00  0.00    -0.206 F 
ATOM     76  C   UNL A   1      46.673  35.470  28.741  1.00  0.00     0.060 A 
BRANCH  76  77
ATOM     77  S   UNL A   1      46.980  37.224  29.043  1.00  0.00     0.124 S 
ATOM     78  O   UNL A   1      46.900  37.772  27.693  1.00  0.00    -0.237 OA
ATOM     79  O   UNL A   1      45.887  37.584  29.940  1.00  0.00    -0.237 OA
ATOM     80  O   UNL A   1      48.310  37.236  29.648  1.00  0.00    -0.744 OA
ENDBRANCH  76  77
ENDBRANCH  55  69
BRANCH  56  81
ATOM     81  C   UNL A   1      43.487  23.217  26.883  1.00  0.00     0.058 A 
ATOM     82  C   UNL A   1      43.383  22.704  25.583  1.00  0.00     0.135 A 
ATOM     83  C   UNL A   1      43.210  22.354  27.954  1.00  0.00     0.135 A 
ATOM     84  F   UNL A   1      43.633  23.494  24.528  1.00  0.00    -0.206 F 
ATOM     85  C   UNL A   1      42.997  21.388  25.349  1.00  0.00     0.059 A 
ATOM     86  C   UNL A   1      42.850  21.026  27.747  1.00  0.00     0.059 A 
ATOM     87  F   UNL A   1      43.313  22.793  29.218  1.00  0.00    -0.206 F 
ATOM     88  C   UNL A   1      42.732  20.557  26.440  1.00  0.00     0.060 A 
BRANCH  88  89
ATOM     89  S   UNL A   1      42.269  18.838  26.137  1.00  0.00     0.124 S 
ATOM     90  O   UNL A   1      43.267  18.436  25.154  1.00  0.00    -0.237 OA
ATOM     91  O   UNL A   1      42.403  18.241  27.463  1.00  0.00    -0.237 OA
ATOM     92  O   UNL A   1      40.900  18.946  25.644  1.00  0.00    -0.744 OA
ENDBRANCH  88  89
ENDBRANCH  56  81
BRANCH  68  93
ATOM     93  C   UNL A   1      49.520  26.639  26.433  1.00  0.00     0.058 A 
ATOM     94  C   UNL A   1      50.030  26.749  25.130  1.00  0.00     0.135 A 
ATOM     95  C   UNL A   1      50.344  26.072  27.418  1.00  0.00     0.135 A 
ATOM     96  F   UNL A   1      49.276  27.277  24.152  1.00  0.00    -0.206 F 
ATOM     97  C   UNL A   1      51.294  26.272  24.804  1.00  0.00     0.059 A 
ATOM     98  C   UNL A   1      51.621  25.610  27.118  1.00  0.00     0.059 A 
ATOM     99  F   UNL A   1      49.906  25.955  28.681  1.00  0.00    -0.206 F 
ATOM    100  C   UNL A   1      52.079  25.695  25.803  1.00  0.00     0.060 A 
BRANCH 100 101
ATOM    101  S   UNL A   1      53.713  25.061  25.371  1.00  0.00     0.124 S 
ATOM    102  O   UNL A   1      53.906  25.633  24.042  1.00  0.00    -0.237 OA
ATOM    103  O   UNL A   1      54.556  25.611  26.428  1.00  0.00    -0.237 OA
ATOM    104  O   UNL A   1      53.534  23.612  25.413  1.00  0.00    -0.744 OA
ENDBRANCH 100 101
ENDBRANCH  68  93
ENDBRANCH  42  43
ENDBRANCH  35  37
ENDBRANCH  34  35
ENDBRANCH  33  34
ENDBRANCH   1  33
TORSDOF 18
ENDMDL
MODEL 3
REMARK VINA RESULT:     -11.9      2.671      8.847
REMARK SMILES NC(=O)c1c(-c2ccc(Cl)cc2)csc1NC(=O)[C@H]1[C@@H](C(=O)OCCOC(=O)c2ccc(-c3c4nc(c(-c5c(F)cc(S(=O)(=O)[O-])cc5F)c5ccc([nH]5)c(-c5c(F)cc(S(=O)(=O)[O-])cc5F)c5nc(c(-c6c(F)cc(S(=O)(=O)[O-])cc6F)c6ccc3[nH]6)C=C5)C=C4)cc2)[C@@H]2CC[C@H]1O2
REMARK SMILES IDX 24 1 23 2 21 3 22 4 20 5 19 6 98 7 95 8 97 9 99 10 96 11
REMARK SMILES IDX 17 12 16 13 18 15 15 16 4 17 5 18 13 19 14 20 2 21 1 22 3 25
REMARK SMILES IDX 6 26 7 27 12 28 8 29 11 30 9 31 10 32 25 33 26 34 27 35
REMARK SMILES IDX 28 36 29 37 30 38 94 39 31 40 93 41 32 42 33 43 34 44 87 45
REMARK SMILES IDX 35 46 92 47 86 48 88 49 36 50 91 51 85 52 84 53 37 55 71 56
REMARK SMILES IDX 50 57 70 58 51 59 54 60 69 61 89 62 52 63 53 64 68 66 90 67
REMARK SMILES IDX 55 68 38 69 39 70 48 71 40 72 41 73 47 74 49 75 42 76 43 77
REMARK SMILES IDX 44 78 45 79 46 80 72 81 73 82 82 83 74 84 75 85 81 86 83 87
REMARK SMILES IDX 76 88 77 89 78 90 79 91 80 92 56 93 57 94 66 95 58 96 59 97
REMARK SMILES IDX 65 98 67 99 60 100 61 101 62 102 63 103 64 104
REMARK H PARENT 16 14 1 23 1 24 88 54 54 65
REMARK Flexibility Score: inf
ROOT
ATOM      1  C   UNL A   1      38.007  20.822  25.239  1.00  0.00     0.274 C 
ENDROOT
BRANCH   1   2
ATOM      2  O   UNL A   1      36.808  21.470  25.707  1.00  0.00    -0.462 OA
BRANCH   2   3
ATOM      3  C   UNL A   1      36.115  22.174  24.784  1.00  0.00     0.312 C 
ATOM      4  O   UNL A   1      36.553  23.148  24.180  1.00  0.00    -0.252 OA
BRANCH   3   5
ATOM      5  C   UNL A   1      34.723  21.654  24.520  1.00  0.00     0.143 C 
ATOM      6  C   UNL A   1      33.517  22.365  25.150  1.00  0.00     0.124 C 
ATOM      7  C   UNL A   1      32.738  21.165  25.713  1.00  0.00     0.132 C 
ATOM      8  C   UNL A   1      34.529  20.202  24.978  1.00  0.00     0.133 C 
ATOM      9  C   UNL A   1      32.199  20.281  24.576  1.00  0.00     0.035 C 
ATOM     10  O   UNL A   1      33.801  20.335  26.214  1.00  0.00    -0.373 OA
ATOM     11  C   UNL A   1      33.459  19.543  24.110  1.00  0.00     0.036 C 
BRANCH   6  12
ATOM     12  C   UNL A   1      33.849  23.359  26.246  1.00  0.00     0.231 C 
ATOM     13  N   UNL A   1      33.758  24.706  26.089  1.00  0.00    -0.317 N 
ATOM     14  H   UNL A   1      34.099  25.200  26.870  1.00  0.00     0.170 HD
ATOM     15  O   UNL A   1      34.180  22.984  27.376  1.00  0.00    -0.274 OA
BRANCH  13  16
ATOM     16  C   UNL A   1      33.299  25.545  25.094  1.00  0.00     0.108 A 
ATOM     17  C   UNL A   1      32.170  26.351  25.208  1.00  0.00     0.082 A 
ATOM     18  C   UNL A   1      31.920  27.069  23.977  1.00  0.00     0.007 A 
ATOM     19  C   UNL A   1      32.883  26.803  23.026  1.00  0.00     0.076 A 
ATOM     20  S   UNL A   1      34.053  25.702  23.590  1.00  0.00    -0.125 S 
BRANCH  17  21
ATOM     21  C   UNL A   1      31.377  26.363  26.437  1.00  0.00     0.252 C 
ATOM     22  N   UNL A   1      31.423  27.497  27.190  1.00  0.00    -0.365 N 
ATOM     23  H   UNL A   1      30.907  27.555  28.026  1.00  0.00     0.159 HD
ATOM     24  H   UNL A   1      31.973  28.261  26.897  1.00  0.00     0.159 HD
ATOM     25  O   UNL A   1      30.638  25.439  26.762  1.00  0.00    -0.269 OA
ENDBRANCH  17  21
BRANCH  18  26
ATOM     26  C   UNL A   1      30.833  27.991  23.687  1.00  0.00    -0.017 A 
ATOM     27  C   UNL A   1      29.603  27.503  23.224  1.00  0.00     0.010 A 
ATOM     28  C   UNL A   1      30.984  29.358  23.950  1.00  0.00     0.010 A 
ATOM     29  C   UNL A   1      28.527  28.376  23.046  1.00  0.00     0.021 A 
ATOM     30  C   UNL A   1      29.906  30.229  23.771  1.00  0.00     0.021 A 
ATOM     31  C   UNL A   1      28.681  29.733  23.326  1.00  0.00     0.041 A 
ATOM     32  Cl  UNL A   1      27.345  30.800  23.138  1.00  0.00    -0.084 Cl
ENDBRANCH  18  26
ENDBRANCH  13  16
ENDBRANCH   6  12
ENDBRANCH   3   5
ENDBRANCH   2   3
ENDBRANCH   1   2
BRANCH   1  33
ATOM     33  C   UNL A   1      39.226  21.349  25.986  1.00  0.00     0.275 C 
BRANCH  33  34
ATOM     34  O   UNL A   1      39.869  20.262  26.672  1.00  0.00    -0.458 OA
BRANCH  34  35
ATOM     35  C   UNL A   1      41.131  19.996  26.267  1.00  0.00     0.338 C 
ATOM     36  O   UNL A   1      41.545  18.974  25.749  1.00  0.00    -0.246 OA
BRANCH  35  37
ATOM     37  C   UNL A   1      42.004  21.149  26.539  1.00  0.00     0.060 A 
ATOM     38  C   UNL A   1      42.310  21.506  27.851  1.00  0.00     0.016 A 
ATOM     39  C   UNL A   1      42.383  21.973  25.479  1.00  0.00     0.016 A 
ATOM     40  C   UNL A   1      42.864  22.756  28.113  1.00  0.00     0.010 A 
ATOM     41  C   UNL A   1      43.055  23.169  25.740  1.00  0.00     0.010 A 
ATOM     42  C   UNL A   1      43.258  23.599  27.061  1.00  0.00    -0.014 A 
BRANCH  42  43
ATOM     43  C   UNL A   1      43.868  24.927  27.352  1.00  0.00     0.031 A 
ATOM     44  C   UNL A   1      43.023  26.064  27.872  1.00  0.00     0.074 A 
ATOM     45  C   UNL A   1      45.191  25.107  27.166  1.00  0.00     0.049 A 
ATOM     46  N   UNL A   1      43.352  27.317  28.061  1.00  0.00    -0.248 NA
ATOM     47  C   UNL A   1      41.622  25.761  28.210  1.00  0.00     0.031 C 
ATOM     48  C   UNL A   1      46.124  24.087  26.677  1.00  0.00     0.029 A 
ATOM     49  N   UNL A   1      45.988  26.204  27.374  1.00  0.00    -0.354 N 
ATOM     50  C   UNL A   1      42.198  27.958  28.500  1.00  0.00     0.074 A 
ATOM     51  C   UNL A   1      41.153  26.957  28.538  1.00  0.00     0.031 C 
ATOM     52  C   UNL A   1      47.367  24.592  26.666  1.00  0.00     0.029 A 
ATOM     53  C   UNL A   1      47.311  25.991  27.068  1.00  0.00     0.049 A 
ATOM     54  H   UNL A   1      45.644  27.064  27.712  1.00  0.00     0.167 HD
ATOM     55  C   UNL A   1      42.027  29.257  28.844  1.00  0.00     0.037 A 
ATOM     56  C   UNL A   1      48.361  26.833  27.074  1.00  0.00     0.037 A 
ATOM     57  C   UNL A   1      43.083  30.239  28.848  1.00  0.00     0.049 A 
ATOM     58  C   UNL A   1      48.144  28.266  27.468  1.00  0.00     0.074 A 
ATOM     59  C   UNL A   1      43.010  31.583  29.175  1.00  0.00     0.029 A 
ATOM     60  N   UNL A   1      44.408  29.980  28.530  1.00  0.00    -0.354 N 
ATOM     61  N   UNL A   1      47.032  28.861  27.826  1.00  0.00    -0.248 NA
ATOM     62  C   UNL A   1      49.321  29.143  27.446  1.00  0.00     0.031 C 
ATOM     63  C   UNL A   1      44.287  32.140  29.037  1.00  0.00     0.029 A 
ATOM     64  C   UNL A   1      45.162  31.136  28.657  1.00  0.00     0.049 A 
ATOM     65  H   UNL A   1      44.761  29.103  28.257  1.00  0.00     0.167 HD
ATOM     66  C   UNL A   1      47.376  30.185  28.072  1.00  0.00     0.074 A 
ATOM     67  C   UNL A   1      48.805  30.293  27.855  1.00  0.00     0.031 C 
ATOM     68  C   UNL A   1      46.580  31.222  28.431  1.00  0.00     0.037 A 
BRANCH  55  69
ATOM     69  C   UNL A   1      40.647  29.706  29.240  1.00  0.00     0.058 A 
ATOM     70  C   UNL A   1      39.601  29.790  28.310  1.00  0.00     0.135 A 
ATOM     71  C   UNL A   1      40.351  29.992  30.584  1.00  0.00     0.135 A 
ATOM     72  F   UNL A   1      39.831  29.544  27.010  1.00  0.00    -0.206 F 
ATOM     73  C   UNL A   1      38.311  30.148  28.694  1.00  0.00     0.059 A 
ATOM     74  C   UNL A   1      39.065  30.332  30.994  1.00  0.00     0.059 A 
ATOM     75  F   UNL A   1      41.315  29.929  31.516  1.00  0.00    -0.206 F 
ATOM     76  C   UNL A   1      38.052  30.415  30.040  1.00  0.00     0.060 A 
BRANCH  76  77
ATOM     77  S   UNL A   1      36.367  30.842  30.529  1.00  0.00     0.124 S 
ATOM     78  O   UNL A   1      35.651  30.705  29.265  1.00  0.00    -0.237 OA
ATOM     79  O   UNL A   1      36.068  29.832  31.540  1.00  0.00    -0.237 OA
ATOM     80  O   UNL A   1      36.496  32.207  31.034  1.00  0.00    -0.744 OA
ENDBRANCH  76  77
ENDBRANCH  55  69
BRANCH  56  81
ATOM     81  C   UNL A   1      49.704  26.351  26.656  1.00  0.00     0.058 A 
ATOM     82  C   UNL A   1      50.628  25.876  27.596  1.00  0.00     0.135 A 
ATOM     83  C   UNL A   1      50.085  26.357  25.305  1.00  0.00     0.135 A 
ATOM     84  F   UNL A   1      50.311  25.857  28.900  1.00  0.00    -0.206 F 
ATOM     85  C   UNL A   1      51.894  25.441  27.216  1.00  0.00     0.059 A 
ATOM     86  C   UNL A   1      51.334  25.901  24.897  1.00  0.00     0.059 A 
ATOM     87  F   UNL A   1      49.229  26.786  24.365  1.00  0.00    -0.206 F 
ATOM     88  C   UNL A   1      52.237  25.459  25.863  1.00  0.00     0.060 A 
BRANCH  88  89
ATOM     89  S   UNL A   1      53.866  24.857  25.365  1.00  0.00     0.124 S 
ATOM     90  O   UNL A   1      54.559  24.799  26.646  1.00  0.00    -0.237 OA
ATOM     91  O   UNL A   1      53.549  23.572  24.750  1.00  0.00    -0.237 OA
ATOM     92  O   UNL A   1      54.329  25.887  24.439  1.00  0.00    -0.744 OA
ENDBRANCH  88  89
ENDBRANCH  56  81
BRANCH  68  93
ATOM     93  C   UNL A   1      47.253  32.551  28.623  1.00  0.00     0.058 A 
ATOM     94  C   UNL A   1      47.791  32.925  29.864  1.00  0.00     0.135 A 
ATOM     95  C   UNL A   1      47.347  33.463  27.561  1.00  0.00     0.135 A 
ATOM     96  F   UNL A   1      47.717  32.089  30.913  1.00  0.00    -0.206 F 
ATOM     97  C   UNL A   1      48.362  34.178  30.058  1.00  0.00     0.059 A 
ATOM     98  C   UNL A   1      47.936  34.712  27.727  1.00  0.00     0.059 A 
ATOM     99  F   UNL A   1      46.857  33.147  26.352  1.00  0.00    -0.206 F 
ATOM    100  C   UNL A   1      48.421  35.068  28.985  1.00  0.00     0.060 A 
BRANCH 100 101
ATOM    101  S   UNL A   1      49.147  36.700  29.247  1.00  0.00     0.124 S 
ATOM    102  O   UNL A   1      49.950  36.474  30.444  1.00  0.00    -0.237 OA
ATOM    103  O   UNL A   1      49.895  36.916  28.012  1.00  0.00    -0.237 OA
ATOM    104  O   UNL A   1      47.982  37.563  29.424  1.00  0.00    -0.744 OA
ENDBRANCH 100 101
ENDBRANCH  68  93
ENDBRANCH  42  43
ENDBRANCH  35  37
ENDBRANCH  34  35
ENDBRANCH  33  34
ENDBRANCH   1  33
TORSDOF 18
ENDMDL
