MODEL 1
REMARK VINA RESULT:     -11.0      0.000      0.000
REMARK SMILES O=C(Cc1cc[nH]n1)Nc1nc(CC(=O)OCCOC(=O)c2ccc(-c3c4nc(c(-c5c(F)cc(S(=O)(=O)[O-])cc5F)c5ccc([nH]5)c(-c5c(F)cc(S(=O)(=O)[O-])cc5F)c5nc(c(-c6c(F)cc(S(=O)(=O)[O-])cc6F)c6ccc3[nH]6)C=C5)C=C4)cc2)cs1
REMARK SMILES IDX 17 1 16 2 14 3 15 4 13 5 12 6 10 7 11 8 89 9 88 10 9 11 1 12
REMARK SMILES IDX 2 13 3 15 4 16 5 17 8 18 6 19 7 20 18 22 19 23 20 24 21 25
REMARK SMILES IDX 22 26 23 27 87 28 24 29 86 30 25 31 26 32 27 33 80 34 28 35
REMARK SMILES IDX 85 36 79 37 81 38 29 39 84 40 78 41 77 42 30 44 64 45 43 46
REMARK SMILES IDX 63 47 44 48 47 49 62 50 82 51 45 52 46 53 61 55 83 56 48 57
REMARK SMILES IDX 31 58 32 59 41 60 33 61 34 62 40 63 42 64 35 65 36 66 37 67
REMARK SMILES IDX 38 68 39 69 65 70 66 71 75 72 67 73 68 74 74 75 76 76 69 77
REMARK SMILES IDX 70 78 71 79 72 80 73 81 49 82 50 83 59 84 51 85 52 86 58 87
REMARK SMILES IDX 60 88 53 89 54 90 55 91 56 92 57 93
REMARK H PARENT 9 14 7 21 81 43 47 54
REMARK Flexibility Score: inf
ROOT
ATOM      1  C   UNL A   1      33.200  30.234  27.181  1.00  0.00     0.274 C 
ENDROOT
BRANCH   1   2
ATOM      2  O   UNL A   1      33.647  28.882  26.964  1.00  0.00    -0.462 OA
BRANCH   2   3
ATOM      3  C   UNL A   1      32.692  27.921  27.087  1.00  0.00     0.312 C 
ATOM      4  O   UNL A   1      31.734  27.995  27.851  1.00  0.00    -0.252 OA
BRANCH   3   5
ATOM      5  C   UNL A   1      32.932  26.701  26.238  1.00  0.00     0.179 C 
BRANCH   5   6
ATOM      6  C   UNL A   1      31.850  26.327  25.281  1.00  0.00     0.065 A 
ATOM      7  C   UNL A   1      30.065  26.856  24.094  1.00  0.00     0.189 A 
ATOM      8  N   UNL A   1      30.876  27.280  25.024  1.00  0.00    -0.224 NA
ATOM      9  S   UNL A   1      30.353  25.285  23.499  1.00  0.00    -0.105 S 
ATOM     10  C   UNL A   1      31.727  25.174  24.527  1.00  0.00     0.093 A 
BRANCH   7  11
ATOM     11  N   UNL A   1      28.983  27.483  23.544  1.00  0.00    -0.302 N 
ATOM     12  O   UNL A   1      30.185  28.975  22.234  1.00  0.00    -0.274 OA
ATOM     13  C   UNL A   1      29.119  28.550  22.683  1.00  0.00     0.232 C 
ATOM     14  H   UNL A   1      28.079  27.163  23.768  1.00  0.00     0.172 HD
BRANCH  13  15
ATOM     15  C   UNL A   1      27.847  29.331  22.402  1.00  0.00     0.158 C 
BRANCH  15  16
ATOM     16  C   UNL A   1      28.012  30.801  22.228  1.00  0.00     0.071 A 
ATOM     17  C   UNL A   1      28.313  31.767  23.221  1.00  0.00     0.045 A 
ATOM     18  N   UNL A   1      27.927  31.361  21.016  1.00  0.00    -0.180 NA
ATOM     19  C   UNL A   1      28.399  32.958  22.542  1.00  0.00     0.105 A 
ATOM     20  N   UNL A   1      28.172  32.662  21.230  1.00  0.00    -0.285 N 
ATOM     21  H   UNL A   1      28.188  33.336  20.513  1.00  0.00     0.189 HD
ENDBRANCH  15  16
ENDBRANCH  13  15
ENDBRANCH   7  11
ENDBRANCH   5   6
ENDBRANCH   3   5
ENDBRANCH   2   3
ENDBRANCH   1   2
BRANCH   1  22
ATOM     22  C   UNL A   1      34.259  31.055  27.916  1.00  0.00     0.275 C 
BRANCH  22  23
ATOM     23  O   UNL A   1      35.291  30.199  28.435  1.00  0.00    -0.458 OA
BRANCH  23  24
ATOM     24  C   UNL A   1      36.165  30.783  29.285  1.00  0.00     0.338 C 
ATOM     25  O   UNL A   1      35.937  31.642  30.117  1.00  0.00    -0.246 OA
BRANCH  24  26
ATOM     26  C   UNL A   1      37.497  30.191  29.093  1.00  0.00     0.060 A 
ATOM     27  C   UNL A   1      38.375  30.111  30.175  1.00  0.00     0.016 A 
ATOM     28  C   UNL A   1      37.906  29.823  27.813  1.00  0.00     0.016 A 
ATOM     29  C   UNL A   1      39.685  29.678  29.973  1.00  0.00     0.010 A 
ATOM     30  C   UNL A   1      39.209  29.358  27.618  1.00  0.00     0.010 A 
ATOM     31  C   UNL A   1      40.113  29.298  28.694  1.00  0.00    -0.014 A 
BRANCH  31  32
ATOM     32  C   UNL A   1      41.515  28.873  28.460  1.00  0.00     0.031 A 
ATOM     33  C   UNL A   1      42.623  29.889  28.500  1.00  0.00     0.074 A 
ATOM     34  C   UNL A   1      41.791  27.582  28.199  1.00  0.00     0.049 A 
ATOM     35  N   UNL A   1      43.883  29.752  28.177  1.00  0.00    -0.248 NA
ATOM     36  C   UNL A   1      42.263  31.239  28.962  1.00  0.00     0.031 C 
ATOM     37  C   UNL A   1      40.811  26.495  28.172  1.00  0.00     0.029 A 
ATOM     38  N   UNL A   1      42.980  26.967  27.894  1.00  0.00    -0.354 N 
ATOM     39  C   UNL A   1      44.463  30.999  28.375  1.00  0.00     0.074 A 
ATOM     40  C   UNL A   1      43.415  31.885  28.836  1.00  0.00     0.031 C 
ATOM     41  C   UNL A   1      41.438  25.346  27.867  1.00  0.00     0.029 A 
ATOM     42  C   UNL A   1      42.851  25.625  27.628  1.00  0.00     0.049 A 
ATOM     43  H   UNL A   1      43.843  27.441  27.869  1.00  0.00     0.167 HD
ATOM     44  C   UNL A   1      45.753  31.369  28.192  1.00  0.00     0.037 A 
ATOM     45  C   UNL A   1      43.763  24.727  27.207  1.00  0.00     0.037 A 
ATOM     46  C   UNL A   1      46.796  30.481  27.747  1.00  0.00     0.049 A 
ATOM     47  C   UNL A   1      45.179  25.175  26.961  1.00  0.00     0.074 A 
ATOM     48  C   UNL A   1      48.130  30.765  27.513  1.00  0.00     0.029 A 
ATOM     49  N   UNL A   1      46.623  29.132  27.478  1.00  0.00    -0.354 N 
ATOM     50  N   UNL A   1      45.704  26.367  27.111  1.00  0.00    -0.248 NA
ATOM     51  C   UNL A   1      46.122  24.156  26.475  1.00  0.00     0.031 C 
ATOM     52  C   UNL A   1      48.760  29.591  27.083  1.00  0.00     0.029 A 
ATOM     53  C   UNL A   1      47.824  28.571  27.078  1.00  0.00     0.049 A 
ATOM     54  H   UNL A   1      45.772  28.644  27.560  1.00  0.00     0.167 HD
ATOM     55  C   UNL A   1      47.041  26.239  26.756  1.00  0.00     0.074 A 
ATOM     56  C   UNL A   1      47.248  24.852  26.392  1.00  0.00     0.031 C 
ATOM     57  C   UNL A   1      48.011  27.186  26.729  1.00  0.00     0.037 A 
BRANCH  44  58
ATOM     58  C   UNL A   1      46.108  32.803  28.456  1.00  0.00     0.058 A 
ATOM     59  C   UNL A   1      46.564  33.226  29.714  1.00  0.00     0.135 A 
ATOM     60  C   UNL A   1      46.027  33.759  27.431  1.00  0.00     0.135 A 
ATOM     61  F   UNL A   1      46.642  32.356  30.732  1.00  0.00    -0.206 F 
ATOM     62  C   UNL A   1      46.912  34.552  29.951  1.00  0.00     0.059 A 
ATOM     63  C   UNL A   1      46.386  35.087  27.641  1.00  0.00     0.059 A 
ATOM     64  F   UNL A   1      45.594  33.405  26.210  1.00  0.00    -0.206 F 
ATOM     65  C   UNL A   1      46.816  35.476  28.909  1.00  0.00     0.060 A 
BRANCH  65  66
ATOM     66  S   UNL A   1      47.275  37.194  29.228  1.00  0.00     0.124 S 
ATOM     67  O   UNL A   1      48.356  37.030  30.194  1.00  0.00    -0.237 OA
ATOM     68  O   UNL A   1      47.673  37.666  27.906  1.00  0.00    -0.237 OA
ATOM     69  O   UNL A   1      46.046  37.780  29.755  1.00  0.00    -0.744 OA
ENDBRANCH  65  66
ENDBRANCH  44  58
BRANCH  45  70
ATOM     70  C   UNL A   1      43.362  23.318  26.959  1.00  0.00     0.058 A 
ATOM     71  C   UNL A   1      43.234  22.825  25.653  1.00  0.00     0.135 A 
ATOM     72  C   UNL A   1      43.094  22.442  28.022  1.00  0.00     0.135 A 
ATOM     73  F   UNL A   1      43.470  23.631  24.606  1.00  0.00    -0.206 F 
ATOM     74  C   UNL A   1      42.837  21.515  25.405  1.00  0.00     0.059 A 
ATOM     75  C   UNL A   1      42.717  21.122  27.800  1.00  0.00     0.059 A 
ATOM     76  F   UNL A   1      43.216  22.866  29.289  1.00  0.00    -0.206 F 
ATOM     77  C   UNL A   1      42.578  20.672  26.488  1.00  0.00     0.060 A 
BRANCH  77  78
ATOM     78  S   UNL A   1      42.097  18.960  26.167  1.00  0.00     0.124 S 
ATOM     79  O   UNL A   1      42.312  18.348  27.473  1.00  0.00    -0.237 OA
ATOM     80  O   UNL A   1      40.705  19.099  25.749  1.00  0.00    -0.237 OA
ATOM     81  O   UNL A   1      43.021  18.549  25.115  1.00  0.00    -0.744 OA
ENDBRANCH  77  78
ENDBRANCH  45  70
BRANCH  57  82
ATOM     82  C   UNL A   1      49.388  26.746  26.326  1.00  0.00     0.058 A 
ATOM     83  C   UNL A   1      50.258  26.134  27.242  1.00  0.00     0.135 A 
ATOM     84  C   UNL A   1      49.824  26.897  25.001  1.00  0.00     0.135 A 
ATOM     85  F   UNL A   1      49.888  25.974  28.523  1.00  0.00    -0.206 F 
ATOM     86  C   UNL A   1      51.523  25.702  26.860  1.00  0.00     0.059 A 
ATOM     87  C   UNL A   1      51.078  26.455  24.593  1.00  0.00     0.059 A 
ATOM     88  F   UNL A   1      49.024  27.468  24.088  1.00  0.00    -0.206 F 
ATOM     89  C   UNL A   1      51.925  25.868  25.533  1.00  0.00     0.060 A 
BRANCH  89  90
ATOM     90  S   UNL A   1      53.556  25.273  25.035  1.00  0.00     0.124 S 
ATOM     91  O   UNL A   1      53.469  23.858  25.379  1.00  0.00    -0.237 OA
ATOM     92  O   UNL A   1      53.582  25.577  23.607  1.00  0.00    -0.237 OA
ATOM     93  O   UNL A   1      54.469  26.067  25.853  1.00  0.00    -0.744 OA
ENDBRANCH  89  90
ENDBRANCH  57  82
ENDBRANCH  31  32
ENDBRANCH  24  26
ENDBRANCH  23  24
ENDBRANCH  22  23
ENDBRANCH   1  22
TORSDOF 18
ENDMDL
MODEL 2
REMARK VINA RESULT:     -10.9      1.650      8.815
REMARK SMILES O=C(Cc1cc[nH]n1)Nc1nc(CC(=O)OCCOC(=O)c2ccc(-c3c4nc(c(-c5c(F)cc(S(=O)(=O)[O-])cc5F)c5ccc([nH]5)c(-c5c(F)cc(S(=O)(=O)[O-])cc5F)c5nc(c(-c6c(F)cc(S(=O)(=O)[O-])cc6F)c6ccc3[nH]6)C=C5)C=C4)cc2)cs1
REMARK SMILES IDX 17 1 16 2 14 3 15 4 13 5 12 6 10 7 11 8 89 9 88 10 9 11 1 12
REMARK SMILES IDX 2 13 3 15 4 16 5 17 8 18 6 19 7 20 18 22 19 23 20 24 21 25
REMARK SMILES IDX 22 26 23 27 87 28 24 29 86 30 25 31 26 32 27 33 80 34 28 35
REMARK SMILES IDX 85 36 79 37 81 38 29 39 84 40 78 41 77 42 30 44 64 45 43 46
REMARK SMILES IDX 63 47 44 48 47 49 62 50 82 51 45 52 46 53 61 55 83 56 48 57
REMARK SMILES IDX 31 58 32 59 41 60 33 61 34 62 40 63 42 64 35 65 36 66 37 67
REMARK SMILES IDX 38 68 39 69 65 70 66 71 75 72 67 73 68 74 74 75 76 76 69 77
REMARK SMILES IDX 70 78 71 79 72 80 73 81 49 82 50 83 59 84 51 85 52 86 58 87
REMARK SMILES IDX 60 88 53 89 54 90 55 91 56 92 57 93
REMARK H PARENT 9 14 7 21 81 43 47 54
REMARK Flexibility Score: inf
ROOT
ATOM      1  C   UNL A   1      35.356  33.974  31.227  1.00  0.00     0.274 C 
ENDROOT
BRANCH   1   2
ATOM      2  O   UNL A   1      34.315  33.228  30.567  1.00  0.00    -0.462 OA
BRANCH   2   3
ATOM      3  C   UNL A   1      33.883  33.742  29.384  1.00  0.00     0.312 C 
ATOM      4  O   UNL A   1      32.959  34.543  29.278  1.00  0.00    -0.252 OA
BRANCH   3   5
ATOM      5  C   UNL A   1      34.600  33.200  28.177  1.00  0.00     0.179 C 
BRANCH   5   6
ATOM      6  C   UNL A   1      34.342  31.772  27.829  1.00  0.00     0.065 A 
ATOM      7  C   UNL A   1      33.084  30.216  26.895  1.00  0.00     0.189 A 
ATOM      8  N   UNL A   1      33.124  31.474  27.238  1.00  0.00    -0.224 NA
ATOM      9  S   UNL A   1      34.452  29.281  27.293  1.00  0.00    -0.105 S 
ATOM     10  C   UNL A   1      35.201  30.691  27.930  1.00  0.00     0.093 A 
BRANCH   7  11
ATOM     11  N   UNL A   1      32.080  29.523  26.282  1.00  0.00    -0.302 N 
ATOM     12  O   UNL A   1      33.098  29.371  24.202  1.00  0.00    -0.274 OA
ATOM     13  C   UNL A   1      32.132  29.192  24.945  1.00  0.00     0.232 C 
ATOM     14  H   UNL A   1      31.295  29.250  26.811  1.00  0.00     0.172 HD
BRANCH  13  15
ATOM     15  C   UNL A   1      30.827  28.704  24.340  1.00  0.00     0.158 C 
BRANCH  15  16
ATOM     16  C   UNL A   1      30.185  29.618  23.355  1.00  0.00     0.071 A 
ATOM     17  C   UNL A   1      29.340  30.725  23.617  1.00  0.00     0.045 A 
ATOM     18  N   UNL A   1      30.413  29.480  22.044  1.00  0.00    -0.180 NA
ATOM     19  C   UNL A   1      29.056  31.254  22.381  1.00  0.00     0.105 A 
ATOM     20  N   UNL A   1      29.728  30.485  21.478  1.00  0.00    -0.285 N 
ATOM     21  H   UNL A   1      29.712  30.650  20.507  1.00  0.00     0.189 HD
ENDBRANCH  15  16
ENDBRANCH  13  15
ENDBRANCH   7  11
ENDBRANCH   5   6
ENDBRANCH   3   5
ENDBRANCH   2   3
ENDBRANCH   1   2
BRANCH   1  22
ATOM     22  C   UNL A   1      36.274  33.053  32.029  1.00  0.00     0.275 C 
BRANCH  22  23
ATOM     23  O   UNL A   1      37.173  32.350  31.155  1.00  0.00    -0.458 OA
BRANCH  23  24
ATOM     24  C   UNL A   1      37.215  31.008  31.313  1.00  0.00     0.338 C 
ATOM     25  O   UNL A   1      36.390  30.294  31.854  1.00  0.00    -0.246 OA
BRANCH  24  26
ATOM     26  C   UNL A   1      38.433  30.482  30.680  1.00  0.00     0.060 A 
ATOM     27  C   UNL A   1      39.472  30.005  31.481  1.00  0.00     0.016 A 
ATOM     28  C   UNL A   1      38.581  30.572  29.297  1.00  0.00     0.016 A 
ATOM     29  C   UNL A   1      40.682  29.632  30.896  1.00  0.00     0.010 A 
ATOM     30  C   UNL A   1      39.782  30.167  28.710  1.00  0.00     0.010 A 
ATOM     31  C   UNL A   1      40.847  29.710  29.507  1.00  0.00    -0.014 A 
BRANCH  31  32
ATOM     32  C   UNL A   1      42.143  29.353  28.878  1.00  0.00     0.031 A 
ATOM     33  C   UNL A   1      42.378  27.948  28.395  1.00  0.00     0.074 A 
ATOM     34  C   UNL A   1      43.109  30.282  28.754  1.00  0.00     0.049 A 
ATOM     35  N   UNL A   1      43.482  27.398  27.959  1.00  0.00    -0.248 NA
ATOM     36  C   UNL A   1      41.218  27.043  28.407  1.00  0.00     0.031 C 
ATOM     37  C   UNL A   1      42.988  31.687  29.146  1.00  0.00     0.029 A 
ATOM     38  N   UNL A   1      44.390  30.179  28.271  1.00  0.00    -0.354 N 
ATOM     39  C   UNL A   1      43.159  26.079  27.666  1.00  0.00     0.074 A 
ATOM     40  C   UNL A   1      41.756  25.908  27.983  1.00  0.00     0.031 C 
ATOM     41  C   UNL A   1      44.148  32.315  28.890  1.00  0.00     0.029 A 
ATOM     42  C   UNL A   1      45.107  31.348  28.364  1.00  0.00     0.049 A 
ATOM     43  H   UNL A   1      44.760  29.348  27.895  1.00  0.00     0.167 HD
ATOM     44  C   UNL A   1      43.958  25.103  27.173  1.00  0.00     0.037 A 
ATOM     45  C   UNL A   1      46.400  31.603  28.086  1.00  0.00     0.037 A 
ATOM     46  C   UNL A   1      45.349  25.282  26.846  1.00  0.00     0.049 A 
ATOM     47  C   UNL A   1      47.280  30.488  27.589  1.00  0.00     0.074 A 
ATOM     48  C   UNL A   1      46.247  24.349  26.358  1.00  0.00     0.029 A 
ATOM     49  N   UNL A   1      46.040  26.478  26.963  1.00  0.00    -0.354 N 
ATOM     50  N   UNL A   1      46.971  29.236  27.355  1.00  0.00    -0.248 NA
ATOM     51  C   UNL A   1      48.689  30.821  27.329  1.00  0.00     0.031 C 
ATOM     52  C   UNL A   1      47.489  24.977  26.200  1.00  0.00     0.029 A 
ATOM     53  C   UNL A   1      47.354  26.307  26.561  1.00  0.00     0.049 A 
ATOM     54  H   UNL A   1      45.654  27.325  27.284  1.00  0.00     0.167 HD
ATOM     55  C   UNL A   1      48.141  28.634  26.907  1.00  0.00     0.074 A 
ATOM     56  C   UNL A   1      49.161  29.662  26.891  1.00  0.00     0.031 C 
ATOM     57  C   UNL A   1      48.352  27.346  26.544  1.00  0.00     0.037 A 
BRANCH  44  58
ATOM     58  C   UNL A   1      43.351  23.744  26.974  1.00  0.00     0.058 A 
ATOM     59  C   UNL A   1      42.911  23.315  25.713  1.00  0.00     0.135 A 
ATOM     60  C   UNL A   1      43.244  22.847  28.049  1.00  0.00     0.135 A 
ATOM     61  F   UNL A   1      42.975  24.141  24.658  1.00  0.00    -0.206 F 
ATOM     62  C   UNL A   1      42.368  22.048  25.527  1.00  0.00     0.059 A 
ATOM     63  C   UNL A   1      42.720  21.568  27.882  1.00  0.00     0.059 A 
ATOM     64  F   UNL A   1      43.648  23.210  29.276  1.00  0.00    -0.206 F 
ATOM     65  C   UNL A   1      42.274  21.182  26.618  1.00  0.00     0.060 A 
BRANCH  65  66
ATOM     66  S   UNL A   1      41.571  19.539  26.363  1.00  0.00     0.124 S 
ATOM     67  O   UNL A   1      42.385  19.044  25.258  1.00  0.00    -0.237 OA
ATOM     68  O   UNL A   1      41.796  18.894  27.653  1.00  0.00    -0.237 OA
ATOM     69  O   UNL A   1      40.174  19.814  26.039  1.00  0.00    -0.744 OA
ENDBRANCH  65  66
ENDBRANCH  44  58
BRANCH  45  70
ATOM     70  C   UNL A   1      46.953  32.965  28.300  1.00  0.00     0.058 A 
ATOM     71  C   UNL A   1      47.522  33.326  29.529  1.00  0.00     0.135 A 
ATOM     72  C   UNL A   1      46.917  33.931  27.283  1.00  0.00     0.135 A 
ATOM     73  F   UNL A   1      47.568  32.437  30.533  1.00  0.00    -0.206 F 
ATOM     74  C   UNL A   1      48.023  34.604  29.752  1.00  0.00     0.059 A 
ATOM     75  C   UNL A   1      47.431  35.209  27.474  1.00  0.00     0.059 A 
ATOM     76  F   UNL A   1      46.393  33.628  26.086  1.00  0.00    -0.206 F 
ATOM     77  C   UNL A   1      47.970  35.540  28.716  1.00  0.00     0.060 A 
BRANCH  77  78
ATOM     78  S   UNL A   1      48.653  37.189  28.993  1.00  0.00     0.124 S 
ATOM     79  O   UNL A   1      49.809  37.179  28.105  1.00  0.00    -0.237 OA
ATOM     80  O   UNL A   1      47.549  38.057  28.594  1.00  0.00    -0.237 OA
ATOM     81  O   UNL A   1      48.953  37.188  30.422  1.00  0.00    -0.744 OA
ENDBRANCH  77  78
ENDBRANCH  45  70
BRANCH  57  82
ATOM     82  C   UNL A   1      49.729  26.985  26.067  1.00  0.00     0.058 A 
ATOM     83  C   UNL A   1      50.097  27.125  24.719  1.00  0.00     0.135 A 
ATOM     84  C   UNL A   1      50.701  26.536  26.973  1.00  0.00     0.135 A 
ATOM     85  F   UNL A   1      49.198  27.544  23.814  1.00  0.00    -0.206 F 
ATOM     86  C   UNL A   1      51.380  26.816  24.284  1.00  0.00     0.059 A 
ATOM     87  C   UNL A   1      51.996  26.239  26.562  1.00  0.00     0.059 A 
ATOM     88  F   UNL A   1      50.399  26.394  28.273  1.00  0.00    -0.206 F 
ATOM     89  C   UNL A   1      52.323  26.372  25.213  1.00  0.00     0.060 A 
BRANCH  89  90
ATOM     90  S   UNL A   1      53.999  26.007  24.648  1.00  0.00     0.124 S 
ATOM     91  O   UNL A   1      54.789  26.931  25.454  1.00  0.00    -0.237 OA
ATOM     92  O   UNL A   1      54.144  24.593  24.981  1.00  0.00    -0.237 OA
ATOM     93  O   UNL A   1      53.945  26.303  23.219  1.00  0.00    -0.744 OA
ENDBRANCH  89  90
ENDBRANCH  57  82
ENDBRANCH  31  32
ENDBRANCH  24  26
ENDBRANCH  23  24
ENDBRANCH  22  23
ENDBRANCH   1  22
TORSDOF 18
ENDMDL
MODEL 3
REMARK VINA RESULT:     -10.8      2.712      4.718
REMARK SMILES O=C(Cc1cc[nH]n1)Nc1nc(CC(=O)OCCOC(=O)c2ccc(-c3c4nc(c(-c5c(F)cc(S(=O)(=O)[O-])cc5F)c5ccc([nH]5)c(-c5c(F)cc(S(=O)(=O)[O-])cc5F)c5nc(c(-c6c(F)cc(S(=O)(=O)[O-])cc6F)c6ccc3[nH]6)C=C5)C=C4)cc2)cs1
REMARK SMILES IDX 17 1 16 2 14 3 15 4 13 5 12 6 10 7 11 8 89 9 88 10 9 11 1 12
REMARK SMILES IDX 2 13 3 15 4 16 5 17 8 18 6 19 7 20 18 22 19 23 20 24 21 25
REMARK SMILES IDX 22 26 23 27 87 28 24 29 86 30 25 31 26 32 27 33 80 34 28 35
REMARK SMILES IDX 85 36 79 37 81 38 29 39 84 40 78 41 77 42 30 44 64 45 43 46
REMARK SMILES IDX 63 47 44 48 47 49 62 50 82 51 45 52 46 53 61 55 83 56 48 57
REMARK SMILES IDX 31 58 32 59 41 60 33 61 34 62 40 63 42 64 35 65 36 66 37 67
REMARK SMILES IDX 38 68 39 69 65 70 66 71 75 72 67 73 68 74 74 75 76 76 69 77
REMARK SMILES IDX 70 78 71 79 72 80 73 81 49 82 50 83 59 84 51 85 52 86 58 87
REMARK SMILES IDX 60 88 53 89 54 90 55 91 56 92 57 93
REMARK H PARENT 9 14 7 21 81 43 47 54
REMARK Flexibility Score: inf
ROOT
ATOM      1  C   UNL A   1      32.305  30.003  25.735  1.00  0.00     0.274 C 
ENDROOT
BRANCH   1   2
ATOM      2  O   UNL A   1      33.376  29.284  25.093  1.00  0.00    -0.462 OA
BRANCH   2   3
ATOM      3  C   UNL A   1      33.097  28.793  23.856  1.00  0.00     0.312 C 
ATOM      4  O   UNL A   1      33.804  28.969  22.869  1.00  0.00    -0.252 OA
BRANCH   3   5
ATOM      5  C   UNL A   1      31.793  28.045  23.770  1.00  0.00     0.179 C 
BRANCH   5   6
ATOM      6  C   UNL A   1      31.852  26.570  23.984  1.00  0.00     0.065 A 
ATOM      7  C   UNL A   1      32.983  24.743  24.494  1.00  0.00     0.189 A 
ATOM      8  N   UNL A   1      33.100  26.013  24.220  1.00  0.00    -0.224 NA
ATOM      9  S   UNL A   1      31.406  24.099  24.436  1.00  0.00    -0.105 S 
ATOM     10  C   UNL A   1      30.805  25.669  24.072  1.00  0.00     0.093 A 
BRANCH   7  11
ATOM     11  N   UNL A   1      33.958  23.834  24.794  1.00  0.00    -0.302 N 
ATOM     12  O   UNL A   1      34.905  23.759  22.676  1.00  0.00    -0.274 OA
ATOM     13  C   UNL A   1      34.828  23.357  23.838  1.00  0.00     0.232 C 
ATOM     14  H   UNL A   1      34.043  23.511  25.720  1.00  0.00     0.172 HD
BRANCH  13  15
ATOM     15  C   UNL A   1      35.641  22.139  24.242  1.00  0.00     0.158 C 
BRANCH  15  16
ATOM     16  C   UNL A   1      36.810  22.402  25.127  1.00  0.00     0.071 A 
ATOM     17  C   UNL A   1      37.997  21.638  25.253  1.00  0.00     0.045 A 
ATOM     18  N   UNL A   1      36.850  23.494  25.900  1.00  0.00    -0.180 NA
ATOM     19  C   UNL A   1      38.766  22.326  26.160  1.00  0.00     0.105 A 
ATOM     20  N   UNL A   1      38.044  23.430  26.508  1.00  0.00    -0.285 N 
ATOM     21  H   UNL A   1      38.367  24.111  27.140  1.00  0.00     0.189 HD
ENDBRANCH  15  16
ENDBRANCH  13  15
ENDBRANCH   7  11
ENDBRANCH   5   6
ENDBRANCH   3   5
ENDBRANCH   2   3
ENDBRANCH   1   2
BRANCH   1  22
ATOM     22  C   UNL A   1      32.472  30.005  27.254  1.00  0.00     0.275 C 
BRANCH  22  23
ATOM     23  O   UNL A   1      33.802  29.595  27.616  1.00  0.00    -0.458 OA
BRANCH  23  24
ATOM     24  C   UNL A   1      34.527  30.502  28.309  1.00  0.00     0.338 C 
ATOM     25  O   UNL A   1      34.142  31.550  28.795  1.00  0.00    -0.246 OA
BRANCH  24  26
ATOM     26  C   UNL A   1      35.908  30.019  28.443  1.00  0.00     0.060 A 
ATOM     27  C   UNL A   1      36.394  29.668  29.704  1.00  0.00     0.016 A 
ATOM     28  C   UNL A   1      36.748  30.025  27.331  1.00  0.00     0.016 A 
ATOM     29  C   UNL A   1      37.740  29.339  29.861  1.00  0.00     0.010 A 
ATOM     30  C   UNL A   1      38.088  29.664  27.484  1.00  0.00     0.010 A 
ATOM     31  C   UNL A   1      38.599  29.335  28.752  1.00  0.00    -0.014 A 
BRANCH  31  32
ATOM     32  C   UNL A   1      40.040  29.025  28.914  1.00  0.00     0.031 A 
ATOM     33  C   UNL A   1      40.989  30.094  29.382  1.00  0.00     0.074 A 
ATOM     34  C   UNL A   1      40.500  27.793  28.627  1.00  0.00     0.049 A 
ATOM     35  N   UNL A   1      42.295  30.072  29.443  1.00  0.00    -0.248 NA
ATOM     36  C   UNL A   1      40.386  31.357  29.838  1.00  0.00     0.031 C 
ATOM     37  C   UNL A   1      39.675  26.659  28.204  1.00  0.00     0.029 A 
ATOM     38  N   UNL A   1      41.777  27.290  28.639  1.00  0.00    -0.354 N 
ATOM     39  C   UNL A   1      42.674  31.320  29.923  1.00  0.00     0.074 A 
ATOM     40  C   UNL A   1      41.459  32.080  30.128  1.00  0.00     0.031 C 
ATOM     41  C   UNL A   1      40.468  25.595  27.995  1.00  0.00     0.029 A 
ATOM     42  C   UNL A   1      41.857  25.983  28.221  1.00  0.00     0.049 A 
ATOM     43  H   UNL A   1      42.561  27.815  28.921  1.00  0.00     0.167 HD
ATOM     44  C   UNL A   1      43.921  31.785  30.174  1.00  0.00     0.037 A 
ATOM     45  C   UNL A   1      42.931  25.198  28.012  1.00  0.00     0.037 A 
ATOM     46  C   UNL A   1      45.126  31.020  29.982  1.00  0.00     0.049 A 
ATOM     47  C   UNL A   1      44.308  25.756  28.248  1.00  0.00     0.074 A 
ATOM     48  C   UNL A   1      46.438  31.410  30.191  1.00  0.00     0.029 A 
ATOM     49  N   UNL A   1      45.165  29.704  29.548  1.00  0.00    -0.354 N 
ATOM     50  N   UNL A   1      44.654  26.951  28.662  1.00  0.00    -0.248 NA
ATOM     51  C   UNL A   1      45.442  24.860  27.976  1.00  0.00     0.031 C 
ATOM     52  C   UNL A   1      47.271  30.335  29.862  1.00  0.00     0.029 A 
ATOM     53  C   UNL A   1      46.477  29.267  29.478  1.00  0.00     0.049 A 
ATOM     54  H   UNL A   1      44.376  29.160  29.322  1.00  0.00     0.167 HD
ATOM     55  C   UNL A   1      46.042  26.947  28.716  1.00  0.00     0.074 A 
ATOM     56  C   UNL A   1      46.474  25.627  28.303  1.00  0.00     0.031 C 
ATOM     57  C   UNL A   1      46.885  27.947  29.073  1.00  0.00     0.037 A 
BRANCH  44  58
ATOM     58  C   UNL A   1      44.048  33.198  30.667  1.00  0.00     0.058 A 
ATOM     59  C   UNL A   1      44.150  34.278  29.779  1.00  0.00     0.135 A 
ATOM     60  C   UNL A   1      44.028  33.477  32.043  1.00  0.00     0.135 A 
ATOM     61  F   UNL A   1      44.191  34.064  28.455  1.00  0.00    -0.206 F 
ATOM     62  C   UNL A   1      44.246  35.588  30.238  1.00  0.00     0.059 A 
ATOM     63  C   UNL A   1      44.106  34.780  32.524  1.00  0.00     0.059 A 
ATOM     64  F   UNL A   1      43.935  32.477  32.934  1.00  0.00    -0.206 F 
ATOM     65  C   UNL A   1      44.227  35.829  31.613  1.00  0.00     0.060 A 
BRANCH  65  66
ATOM     66  S   UNL A   1      44.348  37.533  32.197  1.00  0.00     0.124 S 
ATOM     67  O   UNL A   1      43.639  37.455  33.470  1.00  0.00    -0.237 OA
ATOM     68  O   UNL A   1      45.790  37.735  32.288  1.00  0.00    -0.237 OA
ATOM     69  O   UNL A   1      43.676  38.299  31.150  1.00  0.00    -0.744 OA
ENDBRANCH  65  66
ENDBRANCH  44  58
BRANCH  45  70
ATOM     70  C   UNL A   1      42.752  23.807  27.523  1.00  0.00     0.058 A 
ATOM     71  C   UNL A   1      42.621  22.739  28.421  1.00  0.00     0.135 A 
ATOM     72  C   UNL A   1      42.715  23.520  26.150  1.00  0.00     0.135 A 
ATOM     73  F   UNL A   1      42.662  22.966  29.743  1.00  0.00    -0.206 F 
ATOM     74  C   UNL A   1      42.477  21.428  27.977  1.00  0.00     0.059 A 
ATOM     75  C   UNL A   1      42.549  22.220  25.681  1.00  0.00     0.059 A 
ATOM     76  F   UNL A   1      42.824  24.511  25.252  1.00  0.00    -0.206 F 
ATOM     77  C   UNL A   1      42.445  21.180  26.603  1.00  0.00     0.060 A 
BRANCH  77  78
ATOM     78  S   UNL A   1      42.221  19.483  26.027  1.00  0.00     0.124 S 
ATOM     79  O   UNL A   1      43.097  19.453  24.862  1.00  0.00    -0.237 OA
ATOM     80  O   UNL A   1      42.663  18.700  27.177  1.00  0.00    -0.237 OA
ATOM     81  O   UNL A   1      40.790  19.415  25.745  1.00  0.00    -0.744 OA
ENDBRANCH  77  78
ENDBRANCH  45  70
BRANCH  57  82
ATOM     82  C   UNL A   1      48.354  27.640  29.064  1.00  0.00     0.058 A 
ATOM     83  C   UNL A   1      48.977  27.012  30.154  1.00  0.00     0.135 A 
ATOM     84  C   UNL A   1      49.137  27.939  27.939  1.00  0.00     0.135 A 
ATOM     85  F   UNL A   1      48.271  26.713  31.256  1.00  0.00    -0.206 F 
ATOM     86  C   UNL A   1      50.333  26.704  30.133  1.00  0.00     0.059 A 
ATOM     87  C   UNL A   1      50.490  27.624  27.890  1.00  0.00     0.059 A 
ATOM     88  F   UNL A   1      48.584  28.533  26.870  1.00  0.00    -0.206 F 
ATOM     89  C   UNL A   1      51.082  27.015  28.996  1.00  0.00     0.060 A 
BRANCH  89  90
ATOM     90  S   UNL A   1      52.835  26.581  28.962  1.00  0.00     0.124 S 
ATOM     91  O   UNL A   1      53.456  27.885  28.760  1.00  0.00    -0.237 OA
ATOM     92  O   UNL A   1      53.038  25.980  30.277  1.00  0.00    -0.237 OA
ATOM     93  O   UNL A   1      52.931  25.655  27.837  1.00  0.00    -0.744 OA
ENDBRANCH  89  90
ENDBRANCH  57  82
ENDBRANCH  31  32
ENDBRANCH  24  26
ENDBRANCH  23  24
ENDBRANCH  22  23
ENDBRANCH   1  22
TORSDOF 18
ENDMDL
