MODEL 1
REMARK VINA RESULT:     -11.6      0.000      0.000
REMARK SMILES Cc1nc2scc(-c3cccs3)c2c(=O)n1CC(=O)OCCOC(=O)c1ccc(-c2c3nc(c(-c4c(F)cc(S(=O)(=O)[O-])cc4F)c4ccc([nH]4)c(-c4c(F)cc(S(=O)(=O)[O-])cc4F)c4nc(c(-c5c(F)cc(S(=O)(=O)[O-])cc5F)c5ccc2[nH]5)C=C4)C=C3)cc1
REMARK SMILES IDX 22 1 21 2 20 3 18 4 19 5 17 6 16 7 1 8 2 9 3 10 4 11 14 12
REMARK SMILES IDX 5 13 13 14 15 15 6 16 7 17 8 18 9 19 12 20 10 21 11 22 23 23
REMARK SMILES IDX 24 24 25 25 26 26 27 27 91 28 28 29 90 30 29 31 30 32 31 33
REMARK SMILES IDX 84 34 32 35 89 36 83 37 85 38 33 39 88 40 82 41 81 42 34 44
REMARK SMILES IDX 68 45 47 46 67 47 48 48 51 49 66 50 86 51 49 52 50 53 65 55
REMARK SMILES IDX 87 56 52 57 35 58 36 59 45 60 37 61 38 62 44 63 46 64 39 65
REMARK SMILES IDX 40 66 41 67 42 68 43 69 69 70 70 71 79 72 71 73 72 74 78 75
REMARK SMILES IDX 80 76 73 77 74 78 75 79 76 80 77 81 53 82 54 83 63 84 55 85
REMARK SMILES IDX 56 86 62 87 64 88 57 89 58 90 59 91 60 92 61 93
REMARK H PARENT 85 43 51 54
REMARK Flexibility Score: inf
ROOT
ATOM      1  C   UNL A   1      32.577  30.543  26.550  1.00  0.00     0.275 C 
ENDROOT
BRANCH   1   2
ATOM      2  C   UNL A   1      32.069  29.704  25.373  1.00  0.00     0.274 C 
BRANCH   2   3
ATOM      3  O   UNL A   1      32.988  28.656  24.980  1.00  0.00    -0.461 OA
BRANCH   3   4
ATOM      4  C   UNL A   1      33.194  28.522  23.641  1.00  0.00     0.326 C 
ATOM      5  O   UNL A   1      33.732  29.383  22.947  1.00  0.00    -0.250 OA
BRANCH   4   6
ATOM      6  C   UNL A   1      32.650  27.228  23.025  1.00  0.00     0.249 C 
BRANCH   6   7
ATOM      7  N   UNL A   1      32.293  26.104  23.904  1.00  0.00    -0.285 N 
ATOM      8  C   UNL A   1      29.942  26.898  24.052  1.00  0.00     0.088 C 
ATOM      9  C   UNL A   1      31.031  25.936  24.456  1.00  0.00     0.110 A 
ATOM     10  N   UNL A   1      30.687  24.969  25.254  1.00  0.00    -0.224 NA
ATOM     11  C   UNL A   1      31.673  24.092  25.557  1.00  0.00     0.131 A 
ATOM     12  C   UNL A   1      33.233  25.068  24.008  1.00  0.00     0.263 A 
ATOM     13  S   UNL A   1      31.421  22.794  26.638  1.00  0.00    -0.123 S 
ATOM     14  C   UNL A   1      32.944  24.091  25.037  1.00  0.00     0.085 A 
ATOM     15  O   UNL A   1      34.138  24.908  23.189  1.00  0.00    -0.268 OA
ATOM     16  C   UNL A   1      33.027  22.238  26.446  1.00  0.00     0.077 A 
ATOM     17  C   UNL A   1      33.749  23.061  25.609  1.00  0.00     0.017 A 
BRANCH  17  18
ATOM     18  C   UNL A   1      35.224  22.918  25.496  1.00  0.00     0.036 A 
ATOM     19  C   UNL A   1      36.068  23.926  25.891  1.00  0.00     0.020 A 
ATOM     20  S   UNL A   1      36.059  21.501  25.059  1.00  0.00    -0.144 S 
ATOM     21  C   UNL A   1      37.421  23.517  25.840  1.00  0.00     0.012 A 
ATOM     22  C   UNL A   1      37.577  22.248  25.328  1.00  0.00     0.065 A 
ENDBRANCH  17  18
ENDBRANCH   6   7
ENDBRANCH   4   6
ENDBRANCH   3   4
ENDBRANCH   2   3
ENDBRANCH   1   2
BRANCH   1  23
ATOM     23  O   UNL A   1      33.974  30.372  26.824  1.00  0.00    -0.458 OA
BRANCH  23  24
ATOM     24  C   UNL A   1      34.439  31.305  27.685  1.00  0.00     0.338 C 
ATOM     25  O   UNL A   1      34.102  32.474  27.709  1.00  0.00    -0.246 OA
BRANCH  24  26
ATOM     26  C   UNL A   1      35.595  30.830  28.443  1.00  0.00     0.060 A 
ATOM     27  C   UNL A   1      36.491  31.788  28.920  1.00  0.00     0.016 A 
ATOM     28  C   UNL A   1      35.946  29.480  28.338  1.00  0.00     0.016 A 
ATOM     29  C   UNL A   1      37.800  31.416  29.143  1.00  0.00     0.010 A 
ATOM     30  C   UNL A   1      37.258  29.110  28.562  1.00  0.00     0.010 A 
ATOM     31  C   UNL A   1      38.191  30.093  28.887  1.00  0.00    -0.014 A 
BRANCH  31  32
ATOM     32  C   UNL A   1      39.582  29.742  29.149  1.00  0.00     0.031 A 
ATOM     33  C   UNL A   1      39.855  29.731  30.610  1.00  0.00     0.074 A 
ATOM     34  C   UNL A   1      40.461  29.370  28.194  1.00  0.00     0.049 A 
ATOM     35  N   UNL A   1      40.689  30.449  31.284  1.00  0.00    -0.248 NA
ATOM     36  C   UNL A   1      38.915  28.958  31.448  1.00  0.00     0.031 C 
ATOM     37  C   UNL A   1      40.177  29.112  26.779  1.00  0.00     0.029 A 
ATOM     38  N   UNL A   1      41.784  29.046  28.290  1.00  0.00    -0.354 N 
ATOM     39  C   UNL A   1      40.542  30.027  32.603  1.00  0.00     0.074 A 
ATOM     40  C   UNL A   1      39.304  29.302  32.674  1.00  0.00     0.031 C 
ATOM     41  C   UNL A   1      41.236  28.514  26.201  1.00  0.00     0.029 A 
ATOM     42  C   UNL A   1      42.279  28.349  27.189  1.00  0.00     0.049 A 
ATOM     43  H   UNL A   1      42.340  29.284  29.068  1.00  0.00     0.167 HD
ATOM     44  C   UNL A   1      41.602  30.017  33.452  1.00  0.00     0.037 A 
ATOM     45  C   UNL A   1      43.394  27.573  27.124  1.00  0.00     0.037 A 
ATOM     46  C   UNL A   1      42.616  30.944  33.024  1.00  0.00     0.049 A 
ATOM     47  C   UNL A   1      44.266  27.977  28.255  1.00  0.00     0.074 A 
ATOM     48  C   UNL A   1      42.657  32.308  32.818  1.00  0.00     0.029 A 
ATOM     49  N   UNL A   1      43.707  30.422  32.375  1.00  0.00    -0.354 N 
ATOM     50  N   UNL A   1      44.830  29.151  28.356  1.00  0.00    -0.248 NA
ATOM     51  C   UNL A   1      44.132  27.244  29.505  1.00  0.00     0.031 C 
ATOM     52  C   UNL A   1      43.524  32.492  31.705  1.00  0.00     0.029 A 
ATOM     53  C   UNL A   1      44.020  31.242  31.325  1.00  0.00     0.049 A 
ATOM     54  H   UNL A   1      44.183  29.596  32.623  1.00  0.00     0.167 HD
ATOM     55  C   UNL A   1      44.716  29.484  29.698  1.00  0.00     0.074 A 
ATOM     56  C   UNL A   1      44.366  28.235  30.369  1.00  0.00     0.031 C 
ATOM     57  C   UNL A   1      44.637  30.787  30.096  1.00  0.00     0.037 A 
BRANCH  44  58
ATOM     58  C   UNL A   1      41.886  28.859  34.383  1.00  0.00     0.058 A 
ATOM     59  C   UNL A   1      42.017  29.107  35.764  1.00  0.00     0.135 A 
ATOM     60  C   UNL A   1      42.315  27.580  33.953  1.00  0.00     0.135 A 
ATOM     61  F   UNL A   1      41.662  30.293  36.281  1.00  0.00    -0.206 F 
ATOM     62  C   UNL A   1      42.590  28.180  36.635  1.00  0.00     0.059 A 
ATOM     63  C   UNL A   1      42.833  26.623  34.813  1.00  0.00     0.059 A 
ATOM     64  F   UNL A   1      42.352  27.221  32.666  1.00  0.00    -0.206 F 
ATOM     65  C   UNL A   1      43.005  26.944  36.146  1.00  0.00     0.060 A 
BRANCH  65  66
ATOM     66  S   UNL A   1      43.824  25.778  37.244  1.00  0.00     0.124 S 
ATOM     67  O   UNL A   1      43.600  26.399  38.544  1.00  0.00    -0.237 OA
ATOM     68  O   UNL A   1      43.081  24.550  36.982  1.00  0.00    -0.237 OA
ATOM     69  O   UNL A   1      45.204  25.783  36.769  1.00  0.00    -0.744 OA
ENDBRANCH  65  66
ENDBRANCH  44  58
BRANCH  45  70
ATOM     70  C   UNL A   1      43.531  26.274  26.391  1.00  0.00     0.058 A 
ATOM     71  C   UNL A   1      44.560  26.054  25.456  1.00  0.00     0.135 A 
ATOM     72  C   UNL A   1      42.797  25.125  26.763  1.00  0.00     0.135 A 
ATOM     73  F   UNL A   1      45.338  27.072  25.058  1.00  0.00    -0.206 F 
ATOM     74  C   UNL A   1      44.860  24.777  24.953  1.00  0.00     0.059 A 
ATOM     75  C   UNL A   1      43.060  23.854  26.259  1.00  0.00     0.059 A 
ATOM     76  F   UNL A   1      41.848  25.170  27.707  1.00  0.00    -0.206 F 
ATOM     77  C   UNL A   1      44.111  23.678  25.375  1.00  0.00     0.060 A 
BRANCH  77  78
ATOM     78  S   UNL A   1      44.580  22.008  24.868  1.00  0.00     0.124 S 
ATOM     79  O   UNL A   1      44.632  22.133  23.416  1.00  0.00    -0.237 OA
ATOM     80  O   UNL A   1      45.863  21.833  25.541  1.00  0.00    -0.237 OA
ATOM     81  O   UNL A   1      43.493  21.177  25.382  1.00  0.00    -0.744 OA
ENDBRANCH  77  78
ENDBRANCH  45  70
BRANCH  57  82
ATOM     82  C   UNL A   1      45.032  31.865  29.120  1.00  0.00     0.058 A 
ATOM     83  C   UNL A   1      46.349  32.302  28.891  1.00  0.00     0.135 A 
ATOM     84  C   UNL A   1      44.039  32.331  28.243  1.00  0.00     0.135 A 
ATOM     85  F   UNL A   1      47.369  31.836  29.627  1.00  0.00    -0.206 F 
ATOM     86  C   UNL A   1      46.659  33.177  27.844  1.00  0.00     0.059 A 
ATOM     87  C   UNL A   1      44.330  33.174  27.177  1.00  0.00     0.059 A 
ATOM     88  F   UNL A   1      42.772  31.906  28.378  1.00  0.00    -0.206 F 
ATOM     89  C   UNL A   1      45.641  33.599  26.985  1.00  0.00     0.060 A 
BRANCH  89  90
ATOM     90  S   UNL A   1      46.051  34.649  25.573  1.00  0.00     0.124 S 
ATOM     91  O   UNL A   1      45.100  34.194  24.566  1.00  0.00    -0.237 OA
ATOM     92  O   UNL A   1      45.824  35.992  26.100  1.00  0.00    -0.237 OA
ATOM     93  O   UNL A   1      47.449  34.325  25.300  1.00  0.00    -0.744 OA
ENDBRANCH  89  90
ENDBRANCH  57  82
ENDBRANCH  31  32
ENDBRANCH  24  26
ENDBRANCH  23  24
ENDBRANCH   1  23
TORSDOF 16
ENDMDL
MODEL 2
REMARK VINA RESULT:     -11.5      1.147      1.814
REMARK SMILES Cc1nc2scc(-c3cccs3)c2c(=O)n1CC(=O)OCCOC(=O)c1ccc(-c2c3nc(c(-c4c(F)cc(S(=O)(=O)[O-])cc4F)c4ccc([nH]4)c(-c4c(F)cc(S(=O)(=O)[O-])cc4F)c4nc(c(-c5c(F)cc(S(=O)(=O)[O-])cc5F)c5ccc2[nH]5)C=C4)C=C3)cc1
REMARK SMILES IDX 22 1 21 2 20 3 18 4 19 5 17 6 16 7 1 8 2 9 3 10 4 11 14 12
REMARK SMILES IDX 5 13 13 14 15 15 6 16 7 17 8 18 9 19 12 20 10 21 11 22 23 23
REMARK SMILES IDX 24 24 25 25 26 26 27 27 91 28 28 29 90 30 29 31 30 32 31 33
REMARK SMILES IDX 84 34 32 35 89 36 83 37 85 38 33 39 88 40 82 41 81 42 34 44
REMARK SMILES IDX 68 45 47 46 67 47 48 48 51 49 66 50 86 51 49 52 50 53 65 55
REMARK SMILES IDX 87 56 52 57 35 58 36 59 45 60 37 61 38 62 44 63 46 64 39 65
REMARK SMILES IDX 40 66 41 67 42 68 43 69 69 70 70 71 79 72 71 73 72 74 78 75
REMARK SMILES IDX 80 76 73 77 74 78 75 79 76 80 77 81 53 82 54 83 63 84 55 85
REMARK SMILES IDX 56 86 62 87 64 88 57 89 58 90 59 91 60 92 61 93
REMARK H PARENT 85 43 51 54
REMARK Flexibility Score: inf
ROOT
ATOM      1  C   UNL A   1      32.761  30.867  26.940  1.00  0.00     0.275 C 
ENDROOT
BRANCH   1   2
ATOM      2  C   UNL A   1      31.981  29.792  26.176  1.00  0.00     0.274 C 
BRANCH   2   3
ATOM      3  O   UNL A   1      31.401  28.785  27.042  1.00  0.00    -0.461 OA
BRANCH   3   4
ATOM      4  C   UNL A   1      31.428  27.511  26.565  1.00  0.00     0.326 C 
ATOM      5  O   UNL A   1      31.369  26.514  27.284  1.00  0.00    -0.250 OA
BRANCH   4   6
ATOM      6  C   UNL A   1      31.598  27.388  25.046  1.00  0.00     0.249 C 
BRANCH   6   7
ATOM      7  N   UNL A   1      31.603  26.055  24.426  1.00  0.00    -0.285 N 
ATOM      8  C   UNL A   1      29.220  26.299  23.761  1.00  0.00     0.088 C 
ATOM      9  C   UNL A   1      30.482  25.477  23.847  1.00  0.00     0.110 A 
ATOM     10  N   UNL A   1      30.444  24.294  23.311  1.00  0.00    -0.224 NA
ATOM     11  C   UNL A   1      31.606  23.600  23.358  1.00  0.00     0.131 A 
ATOM     12  C   UNL A   1      32.857  25.452  24.248  1.00  0.00     0.263 A 
ATOM     13  S   UNL A   1      31.726  22.006  22.759  1.00  0.00    -0.123 S 
ATOM     14  C   UNL A   1      32.808  24.065  23.834  1.00  0.00     0.085 A 
ATOM     15  O   UNL A   1      33.911  26.088  24.280  1.00  0.00    -0.268 OA
ATOM     16  C   UNL A   1      33.386  21.911  23.164  1.00  0.00     0.077 A 
ATOM     17  C   UNL A   1      33.819  23.060  23.789  1.00  0.00     0.017 A 
BRANCH  17  18
ATOM     18  C   UNL A   1      35.149  23.105  24.451  1.00  0.00     0.036 A 
ATOM     19  C   UNL A   1      36.309  23.116  23.716  1.00  0.00     0.020 A 
ATOM     20  S   UNL A   1      35.429  23.323  26.115  1.00  0.00    -0.144 S 
ATOM     21  C   UNL A   1      37.441  23.317  24.539  1.00  0.00     0.012 A 
ATOM     22  C   UNL A   1      37.126  23.365  25.879  1.00  0.00     0.065 A 
ENDBRANCH  17  18
ENDBRANCH   6   7
ENDBRANCH   4   6
ENDBRANCH   3   4
ENDBRANCH   2   3
ENDBRANCH   1   2
BRANCH   1  23
ATOM     23  O   UNL A   1      34.183  30.689  26.902  1.00  0.00    -0.458 OA
BRANCH  23  24
ATOM     24  C   UNL A   1      34.830  31.613  27.647  1.00  0.00     0.338 C 
ATOM     25  O   UNL A   1      34.657  32.816  27.584  1.00  0.00    -0.246 OA
BRANCH  24  26
ATOM     26  C   UNL A   1      35.962  31.044  28.375  1.00  0.00     0.060 A 
ATOM     27  C   UNL A   1      36.888  31.931  28.925  1.00  0.00     0.016 A 
ATOM     28  C   UNL A   1      36.264  29.693  28.176  1.00  0.00     0.016 A 
ATOM     29  C   UNL A   1      38.181  31.496  29.128  1.00  0.00     0.010 A 
ATOM     30  C   UNL A   1      37.560  29.259  28.380  1.00  0.00     0.010 A 
ATOM     31  C   UNL A   1      38.525  30.181  28.781  1.00  0.00    -0.014 A 
BRANCH  31  32
ATOM     32  C   UNL A   1      39.901  29.762  29.025  1.00  0.00     0.031 A 
ATOM     33  C   UNL A   1      40.211  29.798  30.478  1.00  0.00     0.074 A 
ATOM     34  C   UNL A   1      40.731  29.298  28.066  1.00  0.00     0.049 A 
ATOM     35  N   UNL A   1      41.102  30.494  31.099  1.00  0.00    -0.248 NA
ATOM     36  C   UNL A   1      39.250  29.118  31.371  1.00  0.00     0.031 C 
ATOM     37  C   UNL A   1      40.395  28.996  26.672  1.00  0.00     0.029 A 
ATOM     38  N   UNL A   1      42.036  28.902  28.146  1.00  0.00    -0.354 N 
ATOM     39  C   UNL A   1      40.965  30.139  32.438  1.00  0.00     0.074 A 
ATOM     40  C   UNL A   1      39.691  29.491  32.571  1.00  0.00     0.031 C 
ATOM     41  C   UNL A   1      41.403  28.313  26.096  1.00  0.00     0.029 A 
ATOM     42  C   UNL A   1      42.461  28.130  27.065  1.00  0.00     0.049 A 
ATOM     43  H   UNL A   1      42.624  29.140  28.899  1.00  0.00     0.167 HD
ATOM     44  C   UNL A   1      42.046  30.104  33.262  1.00  0.00     0.037 A 
ATOM     45  C   UNL A   1      43.527  27.289  27.008  1.00  0.00     0.037 A 
ATOM     46  C   UNL A   1      43.099  30.951  32.768  1.00  0.00     0.049 A 
ATOM     47  C   UNL A   1      44.451  27.689  28.099  1.00  0.00     0.074 A 
ATOM     48  C   UNL A   1      43.212  32.300  32.501  1.00  0.00     0.029 A 
ATOM     49  N   UNL A   1      44.140  30.338  32.118  1.00  0.00    -0.354 N 
ATOM     50  N   UNL A   1      45.083  28.832  28.133  1.00  0.00    -0.248 NA
ATOM     51  C   UNL A   1      44.308  27.020  29.383  1.00  0.00     0.031 C 
ATOM     52  C   UNL A   1      44.059  32.385  31.360  1.00  0.00     0.029 A 
ATOM     53  C   UNL A   1      44.473  31.093  31.025  1.00  0.00     0.049 A 
ATOM     54  H   UNL A   1      44.575  29.498  32.391  1.00  0.00     0.167 HD
ATOM     55  C   UNL A   1      45.024  29.229  29.462  1.00  0.00     0.074 A 
ATOM     56  C   UNL A   1      44.620  28.032  30.196  1.00  0.00     0.031 C 
ATOM     57  C   UNL A   1      45.030  30.550  29.803  1.00  0.00     0.037 A 
BRANCH  44  58
ATOM     58  C   UNL A   1      42.287  28.973  34.236  1.00  0.00     0.058 A 
ATOM     59  C   UNL A   1      42.504  27.673  33.737  1.00  0.00     0.135 A 
ATOM     60  C   UNL A   1      42.030  29.053  35.627  1.00  0.00     0.135 A 
ATOM     61  F   UNL A   1      42.735  27.474  32.431  1.00  0.00    -0.206 F 
ATOM     62  C   UNL A   1      42.408  26.539  34.545  1.00  0.00     0.059 A 
ATOM     63  C   UNL A   1      41.990  27.943  36.458  1.00  0.00     0.059 A 
ATOM     64  F   UNL A   1      41.705  30.196  36.241  1.00  0.00    -0.206 F 
ATOM     65  C   UNL A   1      42.140  26.687  35.903  1.00  0.00     0.060 A 
BRANCH  65  66
ATOM     66  S   UNL A   1      41.929  25.228  36.935  1.00  0.00     0.124 S 
ATOM     67  O   UNL A   1      40.938  25.695  37.897  1.00  0.00    -0.237 OA
ATOM     68  O   UNL A   1      41.469  24.241  35.965  1.00  0.00    -0.237 OA
ATOM     69  O   UNL A   1      43.269  24.998  37.467  1.00  0.00    -0.744 OA
ENDBRANCH  65  66
ENDBRANCH  44  58
BRANCH  45  70
ATOM     70  C   UNL A   1      43.571  25.953  26.331  1.00  0.00     0.058 A 
ATOM     71  C   UNL A   1      44.506  25.664  25.319  1.00  0.00     0.135 A 
ATOM     72  C   UNL A   1      42.850  24.841  26.824  1.00  0.00     0.135 A 
ATOM     73  F   UNL A   1      45.265  26.642  24.804  1.00  0.00    -0.206 F 
ATOM     74  C   UNL A   1      44.733  24.357  24.855  1.00  0.00     0.059 A 
ATOM     75  C   UNL A   1      43.039  23.542  26.361  1.00  0.00     0.059 A 
ATOM     76  F   UNL A   1      41.991  24.956  27.845  1.00  0.00    -0.206 F 
ATOM     77  C   UNL A   1      44.002  23.299  25.397  1.00  0.00     0.060 A 
BRANCH  77  78
ATOM     78  S   UNL A   1      44.389  21.595  24.933  1.00  0.00     0.124 S 
ATOM     79  O   UNL A   1      44.499  21.691  23.481  1.00  0.00    -0.237 OA
ATOM     80  O   UNL A   1      45.634  21.356  25.654  1.00  0.00    -0.237 OA
ATOM     81  O   UNL A   1      43.237  20.839  25.419  1.00  0.00    -0.744 OA
ENDBRANCH  77  78
ENDBRANCH  45  70
BRANCH  57  82
ATOM     82  C   UNL A   1      45.460  31.560  28.771  1.00  0.00     0.058 A 
ATOM     83  C   UNL A   1      44.623  32.114  27.787  1.00  0.00     0.135 A 
ATOM     84  C   UNL A   1      46.736  32.128  28.923  1.00  0.00     0.135 A 
ATOM     85  F   UNL A   1      43.360  31.689  27.636  1.00  0.00    -0.206 F 
ATOM     86  C   UNL A   1      45.045  33.176  26.980  1.00  0.00     0.059 A 
ATOM     87  C   UNL A   1      47.163  33.205  28.155  1.00  0.00     0.059 A 
ATOM     88  F   UNL A   1      47.561  31.677  29.883  1.00  0.00    -0.206 F 
ATOM     89  C   UNL A   1      46.315  33.722  27.180  1.00  0.00     0.060 A 
BRANCH  89  90
ATOM     90  S   UNL A   1      46.827  35.157  26.210  1.00  0.00     0.124 S 
ATOM     91  O   UNL A   1      46.946  34.596  24.869  1.00  0.00    -0.237 OA
ATOM     92  O   UNL A   1      45.721  36.089  26.414  1.00  0.00    -0.237 OA
ATOM     93  O   UNL A   1      48.089  35.557  26.830  1.00  0.00    -0.744 OA
ENDBRANCH  89  90
ENDBRANCH  57  82
ENDBRANCH  31  32
ENDBRANCH  24  26
ENDBRANCH  23  24
ENDBRANCH   1  23
TORSDOF 16
ENDMDL
MODEL 3
REMARK VINA RESULT:     -11.5      4.458     11.098
REMARK SMILES Cc1nc2scc(-c3cccs3)c2c(=O)n1CC(=O)OCCOC(=O)c1ccc(-c2c3nc(c(-c4c(F)cc(S(=O)(=O)[O-])cc4F)c4ccc([nH]4)c(-c4c(F)cc(S(=O)(=O)[O-])cc4F)c4nc(c(-c5c(F)cc(S(=O)(=O)[O-])cc5F)c5ccc2[nH]5)C=C4)C=C3)cc1
REMARK SMILES IDX 22 1 21 2 20 3 18 4 19 5 17 6 16 7 1 8 2 9 3 10 4 11 14 12
REMARK SMILES IDX 5 13 13 14 15 15 6 16 7 17 8 18 9 19 12 20 10 21 11 22 23 23
REMARK SMILES IDX 24 24 25 25 26 26 27 27 91 28 28 29 90 30 29 31 30 32 31 33
REMARK SMILES IDX 84 34 32 35 89 36 83 37 85 38 33 39 88 40 82 41 81 42 34 44
REMARK SMILES IDX 68 45 47 46 67 47 48 48 51 49 66 50 86 51 49 52 50 53 65 55
REMARK SMILES IDX 87 56 52 57 35 58 36 59 45 60 37 61 38 62 44 63 46 64 39 65
REMARK SMILES IDX 40 66 41 67 42 68 43 69 69 70 70 71 79 72 71 73 72 74 78 75
REMARK SMILES IDX 80 76 73 77 74 78 75 79 76 80 77 81 53 82 54 83 63 84 55 85
REMARK SMILES IDX 56 86 62 87 64 88 57 89 58 90 59 91 60 92 61 93
REMARK H PARENT 85 43 51 54
REMARK Flexibility Score: inf
ROOT
ATOM      1  C   UNL A   1      40.961  20.347  26.090  1.00  0.00     0.275 C 
ENDROOT
BRANCH   1   2
ATOM      2  C   UNL A   1      42.484  20.494  26.165  1.00  0.00     0.274 C 
BRANCH   2   3
ATOM      3  O   UNL A   1      43.021  21.390  25.162  1.00  0.00    -0.461 OA
BRANCH   3   4
ATOM      4  C   UNL A   1      44.209  21.978  25.471  1.00  0.00     0.326 C 
ATOM      5  O   UNL A   1      45.262  21.355  25.604  1.00  0.00    -0.250 OA
BRANCH   4   6
ATOM      6  C   UNL A   1      44.144  23.492  25.707  1.00  0.00     0.249 C 
BRANCH   6   7
ATOM      7  N   UNL A   1      45.311  24.185  26.270  1.00  0.00    -0.285 N 
ATOM      8  C   UNL A   1      44.844  23.249  28.525  1.00  0.00     0.088 C 
ATOM      9  C   UNL A   1      45.653  24.139  27.615  1.00  0.00     0.110 A 
ATOM     10  N   UNL A   1      46.663  24.758  28.151  1.00  0.00    -0.224 NA
ATOM     11  C   UNL A   1      47.400  25.507  27.298  1.00  0.00     0.131 A 
ATOM     12  C   UNL A   1      46.211  24.745  25.351  1.00  0.00     0.263 A 
ATOM     13  S   UNL A   1      48.727  26.438  27.836  1.00  0.00    -0.123 S 
ATOM     14  C   UNL A   1      47.226  25.595  25.938  1.00  0.00     0.085 A 
ATOM     15  O   UNL A   1      46.242  24.413  24.166  1.00  0.00    -0.268 OA
ATOM     16  C   UNL A   1      49.059  26.996  26.253  1.00  0.00     0.077 A 
ATOM     17  C   UNL A   1      48.141  26.516  25.345  1.00  0.00     0.017 A 
BRANCH  17  18
ATOM     18  C   UNL A   1      48.082  27.065  23.966  1.00  0.00     0.036 A 
ATOM     19  C   UNL A   1      47.078  27.920  23.584  1.00  0.00     0.020 A 
ATOM     20  S   UNL A   1      49.276  26.883  22.767  1.00  0.00    -0.144 S 
ATOM     21  C   UNL A   1      47.305  28.437  22.287  1.00  0.00     0.012 A 
ATOM     22  C   UNL A   1      48.420  27.899  21.685  1.00  0.00     0.065 A 
ENDBRANCH  17  18
ENDBRANCH   6   7
ENDBRANCH   4   6
ENDBRANCH   3   4
ENDBRANCH   2   3
ENDBRANCH   1   2
BRANCH   1  23
ATOM     23  O   UNL A   1      40.257  21.076  27.103  1.00  0.00    -0.458 OA
BRANCH  23  24
ATOM     24  C   UNL A   1      39.488  22.057  26.579  1.00  0.00     0.338 C 
ATOM     25  O   UNL A   1      38.547  21.889  25.826  1.00  0.00    -0.246 OA
BRANCH  24  26
ATOM     26  C   UNL A   1      40.056  23.385  26.803  1.00  0.00     0.060 A 
ATOM     27  C   UNL A   1      41.297  23.458  27.436  1.00  0.00     0.016 A 
ATOM     28  C   UNL A   1      39.203  24.491  26.723  1.00  0.00     0.016 A 
ATOM     29  C   UNL A   1      41.618  24.603  28.134  1.00  0.00     0.010 A 
ATOM     30  C   UNL A   1      39.526  25.637  27.424  1.00  0.00     0.010 A 
ATOM     31  C   UNL A   1      40.693  25.657  28.186  1.00  0.00    -0.014 A 
BRANCH  31  32
ATOM     32  C   UNL A   1      41.080  26.853  28.926  1.00  0.00     0.031 A 
ATOM     33  C   UNL A   1      42.293  27.470  28.329  1.00  0.00     0.074 A 
ATOM     34  C   UNL A   1      40.362  27.380  29.941  1.00  0.00     0.049 A 
ATOM     35  N   UNL A   1      43.448  27.671  28.867  1.00  0.00    -0.248 NA
ATOM     36  C   UNL A   1      42.263  27.699  26.870  1.00  0.00     0.031 C 
ATOM     37  C   UNL A   1      39.031  26.964  30.395  1.00  0.00     0.029 A 
ATOM     38  N   UNL A   1      40.616  28.464  30.731  1.00  0.00    -0.354 N 
ATOM     39  C   UNL A   1      44.207  28.282  27.872  1.00  0.00     0.074 A 
ATOM     40  C   UNL A   1      43.522  28.060  26.630  1.00  0.00     0.031 C 
ATOM     41  C   UNL A   1      38.532  27.880  31.247  1.00  0.00     0.029 A 
ATOM     42  C   UNL A   1      39.497  28.944  31.411  1.00  0.00     0.049 A 
ATOM     43  H   UNL A   1      41.509  28.871  30.814  1.00  0.00     0.167 HD
ATOM     44  C   UNL A   1      45.155  29.203  28.187  1.00  0.00     0.037 A 
ATOM     45  C   UNL A   1      39.315  30.178  31.953  1.00  0.00     0.037 A 
ATOM     46  C   UNL A   1      45.611  29.031  29.540  1.00  0.00     0.049 A 
ATOM     47  C   UNL A   1      40.664  30.768  32.144  1.00  0.00     0.074 A 
ATOM     48  C   UNL A   1      46.223  28.007  30.234  1.00  0.00     0.029 A 
ATOM     49  N   UNL A   1      45.107  29.890  30.484  1.00  0.00    -0.354 N 
ATOM     50  N   UNL A   1      41.552  30.297  32.979  1.00  0.00    -0.248 NA
ATOM     51  C   UNL A   1      41.198  31.592  31.070  1.00  0.00     0.031 C 
ATOM     52  C   UNL A   1      45.689  28.076  31.551  1.00  0.00     0.029 A 
ATOM     53  C   UNL A   1      44.828  29.175  31.617  1.00  0.00     0.049 A 
ATOM     54  H   UNL A   1      44.970  30.859  30.366  1.00  0.00     0.167 HD
ATOM     55  C   UNL A   1      42.759  30.389  32.301  1.00  0.00     0.074 A 
ATOM     56  C   UNL A   1      42.492  31.279  31.174  1.00  0.00     0.031 C 
ATOM     57  C   UNL A   1      43.777  29.517  32.555  1.00  0.00     0.037 A 
BRANCH  44  58
ATOM     58  C   UNL A   1      45.314  30.497  27.422  1.00  0.00     0.058 A 
ATOM     59  C   UNL A   1      46.581  30.837  26.907  1.00  0.00     0.135 A 
ATOM     60  C   UNL A   1      44.360  31.543  27.420  1.00  0.00     0.135 A 
ATOM     61  F   UNL A   1      47.571  29.931  26.879  1.00  0.00    -0.206 F 
ATOM     62  C   UNL A   1      46.892  32.130  26.486  1.00  0.00     0.059 A 
ATOM     63  C   UNL A   1      44.631  32.820  26.951  1.00  0.00     0.059 A 
ATOM     64  F   UNL A   1      43.144  31.418  27.964  1.00  0.00    -0.206 F 
ATOM     65  C   UNL A   1      45.910  33.117  26.523  1.00  0.00     0.060 A 
BRANCH  65  66
ATOM     66  S   UNL A   1      46.325  34.806  26.064  1.00  0.00     0.124 S 
ATOM     67  O   UNL A   1      47.474  34.595  25.191  1.00  0.00    -0.237 OA
ATOM     68  O   UNL A   1      45.096  35.249  25.414  1.00  0.00    -0.237 OA
ATOM     69  O   UNL A   1      46.613  35.441  27.347  1.00  0.00    -0.744 OA
ENDBRANCH  65  66
ENDBRANCH  44  58
BRANCH  45  70
ATOM     70  C   UNL A   1      38.053  30.983  31.927  1.00  0.00     0.058 A 
ATOM     71  C   UNL A   1      37.364  31.323  33.106  1.00  0.00     0.135 A 
ATOM     72  C   UNL A   1      37.613  31.646  30.758  1.00  0.00     0.135 A 
ATOM     73  F   UNL A   1      37.721  30.775  34.277  1.00  0.00    -0.206 F 
ATOM     74  C   UNL A   1      36.335  32.280  33.128  1.00  0.00     0.059 A 
ATOM     75  C   UNL A   1      36.579  32.578  30.751  1.00  0.00     0.059 A 
ATOM     76  F   UNL A   1      38.233  31.485  29.582  1.00  0.00    -0.206 F 
ATOM     77  C   UNL A   1      35.960  32.914  31.943  1.00  0.00     0.060 A 
BRANCH  77  78
ATOM     78  S   UNL A   1      34.754  34.260  31.973  1.00  0.00     0.124 S 
ATOM     79  O   UNL A   1      34.564  34.531  30.553  1.00  0.00    -0.237 OA
ATOM     80  O   UNL A   1      33.627  33.645  32.664  1.00  0.00    -0.237 OA
ATOM     81  O   UNL A   1      35.438  35.314  32.720  1.00  0.00    -0.744 OA
ENDBRANCH  77  78
ENDBRANCH  45  70
BRANCH  57  82
ATOM     82  C   UNL A   1      43.722  28.687  33.811  1.00  0.00     0.058 A 
ATOM     83  C   UNL A   1      43.996  29.164  35.105  1.00  0.00     0.135 A 
ATOM     84  C   UNL A   1      43.174  27.398  33.705  1.00  0.00     0.135 A 
ATOM     85  F   UNL A   1      44.438  30.416  35.300  1.00  0.00    -0.206 F 
ATOM     86  C   UNL A   1      43.750  28.386  36.240  1.00  0.00     0.059 A 
ATOM     87  C   UNL A   1      42.891  26.621  34.821  1.00  0.00     0.059 A 
ATOM     88  F   UNL A   1      42.840  26.909  32.499  1.00  0.00    -0.206 F 
ATOM     89  C   UNL A   1      43.186  27.117  36.087  1.00  0.00     0.060 A 
BRANCH  89  90
ATOM     90  S   UNL A   1      42.774  26.146  37.554  1.00  0.00     0.124 S 
ATOM     91  O   UNL A   1      43.608  26.764  38.578  1.00  0.00    -0.237 OA
ATOM     92  O   UNL A   1      41.336  26.367  37.686  1.00  0.00    -0.237 OA
ATOM     93  O   UNL A   1      43.153  24.785  37.181  1.00  0.00    -0.744 OA
ENDBRANCH  89  90
ENDBRANCH  57  82
ENDBRANCH  31  32
ENDBRANCH  24  26
ENDBRANCH  23  24
ENDBRANCH   1  23
TORSDOF 16
ENDMDL
