MODEL 1
REMARK VINA RESULT:     -15.2      0.000      0.000
REMARK SMILES CCC(CC)([NH2+]CC(=O)Nc1ccc(C)cc1)C(=O)OCCOC(=O)c1ccc(-c2c3nc(c(-c4c(F)cc(S(=O)(=O)[O-])cc4F)c4ccc([nH]4)c(-c4c(F)cc(S(=O)(=O)[O-])cc4F)c4nc(c(-c5c(F)cc(S(=O)(=O)[O-])cc5F)c5ccc2[nH]5)C=C4)C=C3)cc1
REMARK SMILES IDX 21 1 20 2 18 3 19 4 3 5 2 6 1 7 4 8 5 9 6 10 7 13 8 14 9 15
REMARK SMILES IDX 10 16 11 18 12 19 17 20 13 21 16 22 14 23 15 24 22 25 23 26
REMARK SMILES IDX 24 27 25 28 26 29 27 30 91 31 28 32 90 33 29 34 30 35 31 36
REMARK SMILES IDX 84 37 32 38 89 39 83 40 85 41 33 42 88 43 82 44 81 45 34 47
REMARK SMILES IDX 68 48 47 49 67 50 48 51 51 52 66 53 86 54 49 55 50 56 65 58
REMARK SMILES IDX 87 59 52 60 35 61 36 62 45 63 37 64 38 65 44 66 46 67 39 68
REMARK SMILES IDX 40 69 41 70 42 71 43 72 69 73 70 74 79 75 71 76 72 77 78 78
REMARK SMILES IDX 80 79 73 80 74 81 75 82 76 83 77 84 53 85 54 86 63 87 55 88
REMARK SMILES IDX 56 89 62 90 64 91 57 92 58 93 59 94 60 95 61 96
REMARK H PARENT 6 11 6 12 10 17 85 46 51 57
REMARK Flexibility Score: inf
ROOT
ATOM      1  C   UNL A   1      33.976  27.663  25.805  1.00  0.00     0.274 C 
ENDROOT
BRANCH   1   2
ATOM      2  O   UNL A   1      33.509  25.965  25.306  1.00  0.00    -0.457 OA
BRANCH   2   3
ATOM      3  C   UNL A   1      34.091  24.520  25.214  1.00  0.00     0.368 C 
ATOM      4  O   UNL A   1      35.184  24.272  25.759  1.00  0.00    -0.245 OA
BRANCH   3   5
ATOM      5  C   UNL A   1      33.103  22.959  24.643  1.00  0.00     0.194 C 
BRANCH   5   6
ATOM      6  C   UNL A   1      31.495  23.192  24.834  1.00  0.00     0.077 C 
ATOM      7  C   UNL A   1      30.823  23.662  26.196  1.00  0.00     0.011 C 
ENDBRANCH   5   6
BRANCH   5   8
ATOM      8  C   UNL A   1      33.137  21.285  23.896  1.00  0.00     0.077 C 
ATOM      9  C   UNL A   1      33.262  19.969  24.677  1.00  0.00     0.011 C 
ENDBRANCH   5   8
BRANCH   5  10
ATOM     10  N   UNL A   1      33.775  23.291  23.404  1.00  0.00    -0.324 N 
ATOM     11  H   UNL A   1      34.185  22.463  22.973  1.00  0.00     0.347 HD
ATOM     12  H   UNL A   1      34.551  23.941  23.522  1.00  0.00     0.347 HD
BRANCH  10  13
ATOM     13  C   UNL A   1      32.652  23.840  22.566  1.00  0.00     0.363 C 
BRANCH  13  14
ATOM     14  C   UNL A   1      32.618  25.535  22.021  1.00  0.00     0.279 C 
ATOM     15  O   UNL A   1      33.276  25.645  20.968  1.00  0.00    -0.268 OA
ATOM     16  N   UNL A   1      31.860  26.765  22.871  1.00  0.00    -0.321 N 
ATOM     17  H   UNL A   1      31.693  26.409  23.773  1.00  0.00     0.170 HD
BRANCH  16  18
ATOM     18  C   UNL A   1      31.126  28.682  22.868  1.00  0.00     0.041 A 
ATOM     19  C   UNL A   1      30.948  29.703  24.084  1.00  0.00     0.026 A 
ATOM     20  C   UNL A   1      30.308  29.336  21.968  1.00  0.00     0.026 A 
ATOM     21  C   UNL A   1      29.904  30.621  24.348  1.00  0.00     0.005 A 
ATOM     22  C   UNL A   1      29.246  30.234  22.192  1.00  0.00     0.005 A 
ATOM     23  C   UNL A   1      28.958  30.795  23.394  1.00  0.00    -0.051 A 
ATOM     24  C   UNL A   1      27.693  31.553  23.503  1.00  0.00     0.044 C 
ENDBRANCH  16  18
ENDBRANCH  13  14
ENDBRANCH  10  13
ENDBRANCH   5  10
ENDBRANCH   3   5
ENDBRANCH   2   3
ENDBRANCH   1   2
BRANCH   1  25
ATOM     25  C   UNL A   1      33.120  28.725  27.252  1.00  0.00     0.275 C 
BRANCH  25  26
ATOM     26  O   UNL A   1      32.896  30.612  26.989  1.00  0.00    -0.458 OA
BRANCH  26  27
ATOM     27  C   UNL A   1      33.978  31.929  27.630  1.00  0.00     0.338 C 
ATOM     28  O   UNL A   1      33.373  32.970  27.878  1.00  0.00    -0.246 OA
BRANCH  27  29
ATOM     29  C   UNL A   1      35.845  31.655  28.021  1.00  0.00     0.060 A 
ATOM     30  C   UNL A   1      36.488  29.961  28.340  1.00  0.00     0.016 A 
ATOM     31  C   UNL A   1      36.772  32.969  28.872  1.00  0.00     0.016 A 
ATOM     32  C   UNL A   1      37.740  29.618  29.733  1.00  0.00     0.010 A 
ATOM     33  C   UNL A   1      37.930  32.687  30.229  1.00  0.00     0.010 A 
ATOM     34  C   UNL A   1      38.331  31.036  30.749  1.00  0.00    -0.014 A 
BRANCH  34  35
ATOM     35  C   UNL A   1      38.300  31.234  32.342  1.00  0.00     0.031 A 
ATOM     36  C   UNL A   1      39.085  30.057  32.892  1.00  0.00     0.074 A 
ATOM     37  C   UNL A   1      38.891  32.393  32.855  1.00  0.00     0.049 A 
ATOM     38  N   UNL A   1      40.241  30.126  33.460  1.00  0.00    -0.248 NA
ATOM     39  C   UNL A   1      38.652  28.685  32.650  1.00  0.00     0.031 C 
ATOM     40  C   UNL A   1      38.220  33.669  33.125  1.00  0.00     0.029 A 
ATOM     41  N   UNL A   1      40.256  32.787  32.835  1.00  0.00    -0.354 N 
ATOM     42  C   UNL A   1      40.716  28.845  33.659  1.00  0.00     0.074 A 
ATOM     43  C   UNL A   1      39.721  27.985  33.062  1.00  0.00     0.031 C 
ATOM     44  C   UNL A   1      39.131  34.677  33.159  1.00  0.00     0.029 A 
ATOM     45  C   UNL A   1      40.501  34.155  32.837  1.00  0.00     0.049 A 
ATOM     46  H   UNL A   1      40.987  32.127  32.821  1.00  0.00     0.167 HD
ATOM     47  C   UNL A   1      41.864  28.657  34.370  1.00  0.00     0.037 A 
ATOM     48  C   UNL A   1      41.594  34.957  32.487  1.00  0.00     0.037 A 
ATOM     49  C   UNL A   1      42.330  29.894  34.975  1.00  0.00     0.049 A 
ATOM     50  C   UNL A   1      41.891  35.200  34.019  1.00  0.00     0.074 A 
ATOM     51  C   UNL A   1      43.505  30.609  35.042  1.00  0.00     0.029 A 
ATOM     52  N   UNL A   1      41.396  30.602  35.708  1.00  0.00    -0.354 N 
ATOM     53  N   UNL A   1      42.272  34.213  34.803  1.00  0.00    -0.248 NA
ATOM     54  C   UNL A   1      41.054  36.159  34.828  1.00  0.00     0.031 C 
ATOM     55  C   UNL A   1      43.224  31.803  35.756  1.00  0.00     0.029 A 
ATOM     56  C   UNL A   1      41.863  31.848  36.020  1.00  0.00     0.049 A 
ATOM     57  H   UNL A   1      40.512  30.257  35.970  1.00  0.00     0.167 HD
ATOM     58  C   UNL A   1      41.285  34.104  35.831  1.00  0.00     0.074 A 
ATOM     59  C   UNL A   1      40.669  35.409  35.881  1.00  0.00     0.031 C 
ATOM     60  C   UNL A   1      40.925  32.898  36.407  1.00  0.00     0.037 A 
BRANCH  47  61
ATOM     61  C   UNL A   1      42.560  27.360  34.691  1.00  0.00     0.058 A 
ATOM     62  C   UNL A   1      43.656  26.951  33.891  1.00  0.00     0.135 A 
ATOM     63  C   UNL A   1      42.169  26.449  35.687  1.00  0.00     0.135 A 
ATOM     64  F   UNL A   1      44.153  27.740  32.926  1.00  0.00    -0.206 F 
ATOM     65  C   UNL A   1      44.294  25.728  34.043  1.00  0.00     0.059 A 
ATOM     66  C   UNL A   1      42.830  25.230  35.889  1.00  0.00     0.059 A 
ATOM     67  F   UNL A   1      41.113  26.697  36.476  1.00  0.00    -0.206 F 
ATOM     68  C   UNL A   1      43.879  24.870  35.048  1.00  0.00     0.060 A 
BRANCH  68  69
ATOM     69  S   UNL A   1      44.737  23.294  35.209  1.00  0.00     0.124 S 
ATOM     70  O   UNL A   1      43.765  22.361  34.648  1.00  0.00    -0.237 OA
ATOM     71  O   UNL A   1      45.939  23.514  34.409  1.00  0.00    -0.237 OA
ATOM     72  O   UNL A   1      44.963  23.174  36.647  1.00  0.00    -0.744 OA
ENDBRANCH  68  69
ENDBRANCH  47  61
BRANCH  48  73
ATOM     73  C   UNL A   1      42.623  34.879  31.049  1.00  0.00     0.058 A 
ATOM     74  C   UNL A   1      42.087  34.616  29.796  1.00  0.00     0.135 A 
ATOM     75  C   UNL A   1      43.820  34.094  30.907  1.00  0.00     0.135 A 
ATOM     76  F   UNL A   1      41.082  35.377  29.318  1.00  0.00    -0.206 F 
ATOM     77  C   UNL A   1      42.457  33.329  28.963  1.00  0.00     0.059 A 
ATOM     78  C   UNL A   1      44.437  33.029  29.760  1.00  0.00     0.059 A 
ATOM     79  F   UNL A   1      44.064  33.572  32.107  1.00  0.00    -0.206 F 
ATOM     80  C   UNL A   1      43.584  32.094  29.084  1.00  0.00     0.060 A 
BRANCH  80  81
ATOM     81  S   UNL A   1      43.511  29.945  27.786  1.00  0.00     0.124 S 
ATOM     82  O   UNL A   1      44.264  28.839  28.459  1.00  0.00    -0.237 OA
ATOM     83  O   UNL A   1      42.177  29.336  27.672  1.00  0.00    -0.237 OA
ATOM     84  O   UNL A   1      44.186  30.127  26.501  1.00  0.00    -0.744 OA
ENDBRANCH  80  81
ENDBRANCH  48  73
BRANCH  60  85
ATOM     85  C   UNL A   1      39.680  32.556  37.304  1.00  0.00     0.058 A 
ATOM     86  C   UNL A   1      38.532  31.825  36.919  1.00  0.00     0.135 A 
ATOM     87  C   UNL A   1      39.658  32.927  38.682  1.00  0.00     0.135 A 
ATOM     88  F   UNL A   1      38.459  31.240  35.715  1.00  0.00    -0.206 F 
ATOM     89  C   UNL A   1      37.405  31.645  37.762  1.00  0.00     0.059 A 
ATOM     90  C   UNL A   1      38.574  32.715  39.552  1.00  0.00     0.059 A 
ATOM     91  F   UNL A   1      40.710  33.531  39.253  1.00  0.00    -0.206 F 
ATOM     92  C   UNL A   1      37.415  32.144  39.062  1.00  0.00     0.060 A 
BRANCH  92  93
ATOM     93  S   UNL A   1      35.900  32.154  40.062  1.00  0.00     0.124 S 
ATOM     94  O   UNL A   1      35.692  30.728  40.293  1.00  0.00    -0.237 OA
ATOM     95  O   UNL A   1      36.287  32.933  41.234  1.00  0.00    -0.237 OA
ATOM     96  O   UNL A   1      34.912  32.790  39.193  1.00  0.00    -0.744 OA
ENDBRANCH  92  93
ENDBRANCH  60  85
ENDBRANCH  34  35
ENDBRANCH  27  29
ENDBRANCH  26  27
ENDBRANCH  25  26
ENDBRANCH   1  25
TORSDOF 20
ENDMDL
MODEL 2
REMARK VINA RESULT:     -14.0      1.647      2.096
REMARK SMILES CCC(CC)([NH2+]CC(=O)Nc1ccc(C)cc1)C(=O)OCCOC(=O)c1ccc(-c2c3nc(c(-c4c(F)cc(S(=O)(=O)[O-])cc4F)c4ccc([nH]4)c(-c4c(F)cc(S(=O)(=O)[O-])cc4F)c4nc(c(-c5c(F)cc(S(=O)(=O)[O-])cc5F)c5ccc2[nH]5)C=C4)C=C3)cc1
REMARK SMILES IDX 21 1 20 2 18 3 19 4 3 5 2 6 1 7 4 8 5 9 6 10 7 13 8 14 9 15
REMARK SMILES IDX 10 16 11 18 12 19 17 20 13 21 16 22 14 23 15 24 22 25 23 26
REMARK SMILES IDX 24 27 25 28 26 29 27 30 91 31 28 32 90 33 29 34 30 35 31 36
REMARK SMILES IDX 84 37 32 38 89 39 83 40 85 41 33 42 88 43 82 44 81 45 34 47
REMARK SMILES IDX 68 48 47 49 67 50 48 51 51 52 66 53 86 54 49 55 50 56 65 58
REMARK SMILES IDX 87 59 52 60 35 61 36 62 45 63 37 64 38 65 44 66 46 67 39 68
REMARK SMILES IDX 40 69 41 70 42 71 43 72 69 73 70 74 79 75 71 76 72 77 78 78
REMARK SMILES IDX 80 79 73 80 74 81 75 82 76 83 77 84 53 85 54 86 63 87 55 88
REMARK SMILES IDX 56 89 62 90 64 91 57 92 58 93 59 94 60 95 61 96
REMARK H PARENT 6 11 6 12 10 17 85 46 51 57
REMARK Flexibility Score: inf
ROOT
ATOM      1  C   UNL A   1      34.022  27.480  26.010  1.00  0.00     0.274 C 
ENDROOT
BRANCH   1   2
ATOM      2  O   UNL A   1      33.762  25.859  25.201  1.00  0.00    -0.457 OA
BRANCH   2   3
ATOM      3  C   UNL A   1      34.039  24.337  25.408  1.00  0.00     0.368 C 
ATOM      4  O   UNL A   1      34.862  23.985  26.275  1.00  0.00    -0.245 OA
BRANCH   3   5
ATOM      5  C   UNL A   1      32.953  22.904  24.698  1.00  0.00     0.194 C 
BRANCH   5   6
ATOM      6  C   UNL A   1      31.362  23.246  24.867  1.00  0.00     0.077 C 
ATOM      7  C   UNL A   1      30.532  22.969  26.194  1.00  0.00     0.011 C 
ENDBRANCH   5   6
BRANCH   5   8
ATOM      8  C   UNL A   1      32.883  21.291  23.828  1.00  0.00     0.077 C 
ATOM      9  C   UNL A   1      33.131  19.923  24.479  1.00  0.00     0.011 C 
ENDBRANCH   5   8
BRANCH   5  10
ATOM     10  N   UNL A   1      33.685  23.272  23.503  1.00  0.00    -0.324 N 
ATOM     11  H   UNL A   1      34.145  22.462  23.088  1.00  0.00     0.347 HD
ATOM     12  H   UNL A   1      34.433  23.944  23.674  1.00  0.00     0.347 HD
BRANCH  10  13
ATOM     13  C   UNL A   1      32.596  23.797  22.608  1.00  0.00     0.363 C 
BRANCH  13  14
ATOM     14  C   UNL A   1      32.567  25.485  22.043  1.00  0.00     0.279 C 
ATOM     15  O   UNL A   1      33.233  25.583  20.994  1.00  0.00    -0.268 OA
ATOM     16  N   UNL A   1      31.804  26.726  22.872  1.00  0.00    -0.321 N 
ATOM     17  H   UNL A   1      31.629  26.381  23.777  1.00  0.00     0.170 HD
BRANCH  16  18
ATOM     18  C   UNL A   1      31.070  28.642  22.841  1.00  0.00     0.041 A 
ATOM     19  C   UNL A   1      30.904  29.686  24.040  1.00  0.00     0.026 A 
ATOM     20  C   UNL A   1      30.243  29.280  21.938  1.00  0.00     0.026 A 
ATOM     21  C   UNL A   1      29.863  30.609  24.297  1.00  0.00     0.005 A 
ATOM     22  C   UNL A   1      29.184  30.183  22.156  1.00  0.00     0.005 A 
ATOM     23  C   UNL A   1      28.908  30.766  23.350  1.00  0.00    -0.051 A 
ATOM     24  C   UNL A   1      27.645  31.527  23.457  1.00  0.00     0.044 C 
ENDBRANCH  16  18
ENDBRANCH  13  14
ENDBRANCH  10  13
ENDBRANCH   5  10
ENDBRANCH   3   5
ENDBRANCH   2   3
ENDBRANCH   1   2
BRANCH   1  25
ATOM     25  C   UNL A   1      32.690  28.447  27.127  1.00  0.00     0.275 C 
BRANCH  25  26
ATOM     26  O   UNL A   1      32.598  30.358  26.987  1.00  0.00    -0.458 OA
BRANCH  26  27
ATOM     27  C   UNL A   1      33.759  31.553  27.721  1.00  0.00     0.338 C 
ATOM     28  O   UNL A   1      33.206  32.578  28.118  1.00  0.00    -0.246 OA
BRANCH  27  29
ATOM     29  C   UNL A   1      35.628  31.173  27.985  1.00  0.00     0.060 A 
ATOM     30  C   UNL A   1      36.177  29.473  28.427  1.00  0.00     0.016 A 
ATOM     31  C   UNL A   1      36.718  32.488  28.614  1.00  0.00     0.016 A 
ATOM     32  C   UNL A   1      37.522  29.172  29.741  1.00  0.00     0.010 A 
ATOM     33  C   UNL A   1      37.971  32.250  29.893  1.00  0.00     0.010 A 
ATOM     34  C   UNL A   1      38.300  30.632  30.550  1.00  0.00    -0.014 A 
BRANCH  34  35
ATOM     35  C   UNL A   1      38.426  30.990  32.111  1.00  0.00     0.031 A 
ATOM     36  C   UNL A   1      39.207  29.834  32.708  1.00  0.00     0.074 A 
ATOM     37  C   UNL A   1      39.110  32.161  32.446  1.00  0.00     0.049 A 
ATOM     38  N   UNL A   1      40.413  29.899  33.162  1.00  0.00    -0.248 NA
ATOM     39  C   UNL A   1      38.696  28.469  32.649  1.00  0.00     0.031 C 
ATOM     40  C   UNL A   1      38.523  33.492  32.640  1.00  0.00     0.029 A 
ATOM     41  N   UNL A   1      40.483  32.480  32.265  1.00  0.00    -0.354 N 
ATOM     42  C   UNL A   1      40.850  28.622  33.450  1.00  0.00     0.074 A 
ATOM     43  C   UNL A   1      39.768  27.759  33.036  1.00  0.00     0.031 C 
ATOM     44  C   UNL A   1      39.474  34.449  32.489  1.00  0.00     0.029 A 
ATOM     45  C   UNL A   1      40.785  33.827  32.103  1.00  0.00     0.049 A 
ATOM     46  H   UNL A   1      41.181  31.786  32.256  1.00  0.00     0.167 HD
ATOM     47  C   UNL A   1      42.050  28.445  34.072  1.00  0.00     0.037 A 
ATOM     48  C   UNL A   1      41.874  34.533  31.577  1.00  0.00     0.037 A 
ATOM     49  C   UNL A   1      42.622  29.711  34.502  1.00  0.00     0.049 A 
ATOM     50  C   UNL A   1      42.323  34.912  33.043  1.00  0.00     0.074 A 
ATOM     51  C   UNL A   1      43.828  30.367  34.391  1.00  0.00     0.029 A 
ATOM     52  N   UNL A   1      41.792  30.536  35.238  1.00  0.00    -0.354 N 
ATOM     53  N   UNL A   1      42.732  33.989  33.889  1.00  0.00    -0.248 NA
ATOM     54  C   UNL A   1      41.607  35.988  33.818  1.00  0.00     0.031 C 
ATOM     55  C   UNL A   1      43.666  31.639  34.999  1.00  0.00     0.029 A 
ATOM     56  C   UNL A   1      42.339  31.781  35.376  1.00  0.00     0.049 A 
ATOM     57  H   UNL A   1      40.922  30.265  35.611  1.00  0.00     0.167 HD
ATOM     58  C   UNL A   1      41.842  34.034  35.005  1.00  0.00     0.074 A 
ATOM     59  C   UNL A   1      41.289  35.368  34.974  1.00  0.00     0.031 C 
ATOM     60  C   UNL A   1      41.486  32.912  35.733  1.00  0.00     0.037 A 
BRANCH  47  61
ATOM     61  C   UNL A   1      42.717  27.153  34.463  1.00  0.00     0.058 A 
ATOM     62  C   UNL A   1      43.881  26.742  33.768  1.00  0.00     0.135 A 
ATOM     63  C   UNL A   1      42.240  26.248  35.427  1.00  0.00     0.135 A 
ATOM     64  F   UNL A   1      44.461  27.526  32.847  1.00  0.00    -0.206 F 
ATOM     65  C   UNL A   1      44.505  25.521  33.985  1.00  0.00     0.059 A 
ATOM     66  C   UNL A   1      42.883  25.032  35.697  1.00  0.00     0.059 A 
ATOM     67  F   UNL A   1      41.117  26.498  36.116  1.00  0.00    -0.206 F 
ATOM     68  C   UNL A   1      44.004  24.669  34.955  1.00  0.00     0.060 A 
BRANCH  68  69
ATOM     69  S   UNL A   1      44.847  23.096  35.204  1.00  0.00     0.124 S 
ATOM     70  O   UNL A   1      46.069  23.282  34.429  1.00  0.00    -0.237 OA
ATOM     71  O   UNL A   1      45.016  23.064  36.655  1.00  0.00    -0.237 OA
ATOM     72  O   UNL A   1      43.908  22.117  34.667  1.00  0.00    -0.744 OA
ENDBRANCH  68  69
ENDBRANCH  47  61
BRANCH  48  73
ATOM     73  C   UNL A   1      42.760  34.259  30.069  1.00  0.00     0.058 A 
ATOM     74  C   UNL A   1      43.442  33.072  29.842  1.00  0.00     0.135 A 
ATOM     75  C   UNL A   1      43.732  35.145  29.487  1.00  0.00     0.135 A 
ATOM     76  F   UNL A   1      42.797  31.892  29.947  1.00  0.00    -0.206 F 
ATOM     77  C   UNL A   1      45.007  33.008  29.660  1.00  0.00     0.059 A 
ATOM     78  C   UNL A   1      45.285  34.989  28.857  1.00  0.00     0.059 A 
ATOM     79  F   UNL A   1      43.712  36.253  30.224  1.00  0.00    -0.206 F 
ATOM     80  C   UNL A   1      46.248  34.119  29.469  1.00  0.00     0.060 A 
BRANCH  80  81
ATOM     81  S   UNL A   1      48.694  33.602  29.702  1.00  0.00     0.124 S 
ATOM     82  O   UNL A   1      49.174  32.613  28.684  1.00  0.00    -0.237 OA
ATOM     83  O   UNL A   1      49.595  34.732  29.429  1.00  0.00    -0.237 OA
ATOM     84  O   UNL A   1      48.936  32.955  30.992  1.00  0.00    -0.744 OA
ENDBRANCH  80  81
ENDBRANCH  48  73
BRANCH  60  85
ATOM     85  C   UNL A   1      40.317  32.726  36.767  1.00  0.00     0.058 A 
ATOM     86  C   UNL A   1      40.262  33.233  38.086  1.00  0.00     0.135 A 
ATOM     87  C   UNL A   1      39.120  32.044  36.391  1.00  0.00     0.135 A 
ATOM     88  F   UNL A   1      41.216  34.053  38.550  1.00  0.00    -0.206 F 
ATOM     89  C   UNL A   1      39.211  32.935  38.991  1.00  0.00     0.059 A 
ATOM     90  C   UNL A   1      38.043  31.780  37.254  1.00  0.00     0.059 A 
ATOM     91  F   UNL A   1      38.947  31.589  35.142  1.00  0.00    -0.206 F 
ATOM     92  C   UNL A   1      38.130  32.159  38.580  1.00  0.00     0.060 A 
BRANCH  92  93
ATOM     93  S   UNL A   1      36.913  31.553  39.784  1.00  0.00     0.124 S 
ATOM     94  O   UNL A   1      37.632  30.435  40.387  1.00  0.00    -0.237 OA
ATOM     95  O   UNL A   1      36.704  32.709  40.649  1.00  0.00    -0.237 OA
ATOM     96  O   UNL A   1      35.766  31.178  38.961  1.00  0.00    -0.744 OA
ENDBRANCH  92  93
ENDBRANCH  60  85
ENDBRANCH  34  35
ENDBRANCH  27  29
ENDBRANCH  26  27
ENDBRANCH  25  26
ENDBRANCH   1  25
TORSDOF 20
ENDMDL
MODEL 3
REMARK VINA RESULT:     -13.6      4.241     11.229
REMARK SMILES CCC(CC)([NH2+]CC(=O)Nc1ccc(C)cc1)C(=O)OCCOC(=O)c1ccc(-c2c3nc(c(-c4c(F)cc(S(=O)(=O)[O-])cc4F)c4ccc([nH]4)c(-c4c(F)cc(S(=O)(=O)[O-])cc4F)c4nc(c(-c5c(F)cc(S(=O)(=O)[O-])cc5F)c5ccc2[nH]5)C=C4)C=C3)cc1
REMARK SMILES IDX 21 1 20 2 18 3 19 4 3 5 2 6 1 7 4 8 5 9 6 10 7 13 8 14 9 15
REMARK SMILES IDX 10 16 11 18 12 19 17 20 13 21 16 22 14 23 15 24 22 25 23 26
REMARK SMILES IDX 24 27 25 28 26 29 27 30 91 31 28 32 90 33 29 34 30 35 31 36
REMARK SMILES IDX 84 37 32 38 89 39 83 40 85 41 33 42 88 43 82 44 81 45 34 47
REMARK SMILES IDX 68 48 47 49 67 50 48 51 51 52 66 53 86 54 49 55 50 56 65 58
REMARK SMILES IDX 87 59 52 60 35 61 36 62 45 63 37 64 38 65 44 66 46 67 39 68
REMARK SMILES IDX 40 69 41 70 42 71 43 72 69 73 70 74 79 75 71 76 72 77 78 78
REMARK SMILES IDX 80 79 73 80 74 81 75 82 76 83 77 84 53 85 54 86 63 87 55 88
REMARK SMILES IDX 56 89 62 90 64 91 57 92 58 93 59 94 60 95 61 96
REMARK H PARENT 6 11 6 12 10 17 85 46 51 57
REMARK Flexibility Score: inf
ROOT
ATOM      1  C   UNL A   1      45.178  24.824  30.229  1.00  0.00     0.274 C 
ENDROOT
BRANCH   1   2
ATOM      2  O   UNL A   1      45.504  25.241  31.980  1.00  0.00    -0.457 OA
BRANCH   2   3
ATOM      3  C   UNL A   1      44.801  25.831  33.242  1.00  0.00     0.368 C 
ATOM      4  O   UNL A   1      43.811  25.239  33.716  1.00  0.00    -0.245 OA
BRANCH   3   5
ATOM      5  C   UNL A   1      45.536  27.209  34.381  1.00  0.00     0.194 C 
BRANCH   5   6
ATOM      6  C   UNL A   1      46.896  26.681  35.123  1.00  0.00     0.077 C 
ATOM      7  C   UNL A   1      46.910  25.566  36.256  1.00  0.00     0.011 C 
ENDBRANCH   5   6
BRANCH   5   8
ATOM      8  C   UNL A   1      45.442  28.935  34.994  1.00  0.00     0.077 C 
ATOM      9  C   UNL A   1      45.076  29.347  36.427  1.00  0.00     0.011 C 
ENDBRANCH   5   8
BRANCH   5  10
ATOM     10  N   UNL A   1      45.587  27.893  33.106  1.00  0.00    -0.324 N 
ATOM     11  H   UNL A   1      45.163  28.819  33.166  1.00  0.00     0.347 HD
ATOM     12  H   UNL A   1      45.074  27.414  32.366  1.00  0.00     0.347 HD
BRANCH  10  13
ATOM     13  C   UNL A   1      47.066  27.988  32.849  1.00  0.00     0.363 C 
BRANCH  13  14
ATOM     14  C   UNL A   1      47.736  28.967  31.520  1.00  0.00     0.279 C 
ATOM     15  O   UNL A   1      48.979  28.991  31.609  1.00  0.00    -0.268 OA
ATOM     16  N   UNL A   1      46.789  29.767  30.392  1.00  0.00    -0.321 N 
ATOM     17  H   UNL A   1      45.877  29.782  30.764  1.00  0.00     0.170 HD
BRANCH  16  18
ATOM     18  C   UNL A   1      46.683  30.728  28.582  1.00  0.00     0.041 A 
ATOM     19  C   UNL A   1      46.779  32.289  28.254  1.00  0.00     0.026 A 
ATOM     20  C   UNL A   1      46.144  30.328  27.375  1.00  0.00     0.026 A 
ATOM     21  C   UNL A   1      46.060  33.060  27.310  1.00  0.00     0.005 A 
ATOM     22  C   UNL A   1      45.403  31.058  26.424  1.00  0.00     0.005 A 
ATOM     23  C   UNL A   1      45.254  32.406  26.441  1.00  0.00    -0.051 A 
ATOM     24  C   UNL A   1      44.281  32.992  25.493  1.00  0.00     0.044 C 
ENDBRANCH  16  18
ENDBRANCH  13  14
ENDBRANCH  10  13
ENDBRANCH   5  10
ENDBRANCH   3   5
ENDBRANCH   2   3
ENDBRANCH   1   2
BRANCH   1  25
ATOM     25  C   UNL A   1      46.461  25.045  28.725  1.00  0.00     0.275 C 
BRANCH  25  26
ATOM     26  O   UNL A   1      46.306  26.600  27.613  1.00  0.00    -0.458 OA
BRANCH  26  27
ATOM     27  C   UNL A   1      44.931  26.989  26.484  1.00  0.00     0.338 C 
ATOM     28  O   UNL A   1      45.304  27.224  25.336  1.00  0.00    -0.246 OA
BRANCH  27  29
ATOM     29  C   UNL A   1      43.081  26.885  27.009  1.00  0.00     0.060 A 
ATOM     30  C   UNL A   1      41.859  28.093  26.351  1.00  0.00     0.016 A 
ATOM     31  C   UNL A   1      42.666  26.238  28.659  1.00  0.00     0.016 A 
ATOM     32  C   UNL A   1      40.525  28.867  27.468  1.00  0.00     0.010 A 
ATOM     33  C   UNL A   1      41.441  26.973  29.765  1.00  0.00     0.010 A 
ATOM     34  C   UNL A   1      40.454  28.353  29.235  1.00  0.00    -0.014 A 
BRANCH  34  35
ATOM     35  C   UNL A   1      40.505  29.253  30.564  1.00  0.00     0.031 A 
ATOM     36  C   UNL A   1      41.427  30.406  30.212  1.00  0.00     0.074 A 
ATOM     37  C   UNL A   1      39.303  29.813  31.005  1.00  0.00     0.049 A 
ATOM     38  N   UNL A   1      41.066  31.636  30.057  1.00  0.00    -0.248 NA
ATOM     39  C   UNL A   1      42.816  30.171  29.833  1.00  0.00     0.031 C 
ATOM     40  C   UNL A   1      38.367  29.225  31.970  1.00  0.00     0.029 A 
ATOM     41  N   UNL A   1      38.486  30.791  30.376  1.00  0.00    -0.354 N 
ATOM     42  C   UNL A   1      42.136  32.355  29.564  1.00  0.00     0.074 A 
ATOM     43  C   UNL A   1      43.179  31.377  29.366  1.00  0.00     0.031 C 
ATOM     44  C   UNL A   1      37.134  29.772  31.817  1.00  0.00     0.029 A 
ATOM     45  C   UNL A   1      37.128  30.737  30.667  1.00  0.00     0.049 A 
ATOM     46  H   UNL A   1      38.861  31.470  29.770  1.00  0.00     0.167 HD
ATOM     47  C   UNL A   1      42.038  33.710  29.447  1.00  0.00     0.037 A 
ATOM     48  C   UNL A   1      35.971  31.231  30.051  1.00  0.00     0.037 A 
ATOM     49  C   UNL A   1      40.816  34.214  30.052  1.00  0.00     0.049 A 
ATOM     50  C   UNL A   1      35.865  32.342  31.169  1.00  0.00     0.074 A 
ATOM     51  C   UNL A   1      39.773  35.039  29.692  1.00  0.00     0.029 A 
ATOM     52  N   UNL A   1      40.563  33.803  31.348  1.00  0.00    -0.354 N 
ATOM     53  N   UNL A   1      36.775  33.288  31.276  1.00  0.00    -0.248 NA
ATOM     54  C   UNL A   1      35.358  32.006  32.548  1.00  0.00     0.031 C 
ATOM     55  C   UNL A   1      38.851  35.036  30.771  1.00  0.00     0.029 A 
ATOM     56  C   UNL A   1      39.291  34.130  31.724  1.00  0.00     0.049 A 
ATOM     57  H   UNL A   1      41.212  33.336  31.922  1.00  0.00     0.167 HD
ATOM     58  C   UNL A   1      37.345  33.160  32.580  1.00  0.00     0.074 A 
ATOM     59  C   UNL A   1      36.334  32.476  33.352  1.00  0.00     0.031 C 
ATOM     60  C   UNL A   1      38.671  33.445  32.855  1.00  0.00     0.037 A 
BRANCH  47  61
ATOM     61  C   UNL A   1      43.068  34.677  28.926  1.00  0.00     0.058 A 
ATOM     62  C   UNL A   1      44.229  34.926  29.699  1.00  0.00     0.135 A 
ATOM     63  C   UNL A   1      42.952  35.439  27.751  1.00  0.00     0.135 A 
ATOM     64  F   UNL A   1      44.481  34.244  30.826  1.00  0.00    -0.206 F 
ATOM     65  C   UNL A   1      45.183  35.875  29.354  1.00  0.00     0.059 A 
ATOM     66  C   UNL A   1      43.927  36.367  27.359  1.00  0.00     0.059 A 
ATOM     67  F   UNL A   1      41.874  35.333  26.961  1.00  0.00    -0.206 F 
ATOM     68  C   UNL A   1      45.030  36.592  28.179  1.00  0.00     0.060 A 
BRANCH  68  69
ATOM     69  S   UNL A   1      46.293  37.810  27.771  1.00  0.00     0.124 S 
ATOM     70  O   UNL A   1      47.310  37.542  28.783  1.00  0.00    -0.237 OA
ATOM     71  O   UNL A   1      46.647  37.439  26.404  1.00  0.00    -0.237 OA
ATOM     72  O   UNL A   1      45.594  39.084  27.908  1.00  0.00    -0.744 OA
ENDBRANCH  68  69
ENDBRANCH  47  61
BRANCH  48  73
ATOM     73  C   UNL A   1      35.504  31.177  28.344  1.00  0.00     0.058 A 
ATOM     74  C   UNL A   1      34.203  31.449  27.947  1.00  0.00     0.135 A 
ATOM     75  C   UNL A   1      35.752  30.092  27.434  1.00  0.00     0.135 A 
ATOM     76  F   UNL A   1      33.614  32.607  28.310  1.00  0.00    -0.206 F 
ATOM     77  C   UNL A   1      33.280  30.377  27.249  1.00  0.00     0.059 A 
ATOM     78  C   UNL A   1      34.842  29.214  26.323  1.00  0.00     0.059 A 
ATOM     79  F   UNL A   1      36.520  29.225  28.090  1.00  0.00    -0.206 F 
ATOM     80  C   UNL A   1      33.486  28.841  26.607  1.00  0.00     0.060 A 
BRANCH  80  81
ATOM     81  S   UNL A   1      31.621  27.265  26.020  1.00  0.00     0.124 S 
ATOM     82  O   UNL A   1      32.118  25.921  25.584  1.00  0.00    -0.237 OA
ATOM     83  O   UNL A   1      30.756  26.883  27.146  1.00  0.00    -0.237 OA
ATOM     84  O   UNL A   1      30.889  27.784  24.865  1.00  0.00    -0.744 OA
ENDBRANCH  80  81
ENDBRANCH  48  73
BRANCH  60  85
ATOM     85  C   UNL A   1      39.524  33.079  34.123  1.00  0.00     0.058 A 
ATOM     86  C   UNL A   1      39.630  31.810  34.738  1.00  0.00     0.135 A 
ATOM     87  C   UNL A   1      40.362  34.058  34.738  1.00  0.00     0.135 A 
ATOM     88  F   UNL A   1      39.059  30.728  34.190  1.00  0.00    -0.206 F 
ATOM     89  C   UNL A   1      40.346  31.585  35.943  1.00  0.00     0.059 A 
ATOM     90  C   UNL A   1      41.120  33.847  35.903  1.00  0.00     0.059 A 
ATOM     91  F   UNL A   1      40.475  35.292  34.225  1.00  0.00    -0.206 F 
ATOM     92  C   UNL A   1      41.044  32.628  36.548  1.00  0.00     0.060 A 
BRANCH  92  93
ATOM     93  S   UNL A   1      41.744  32.431  38.212  1.00  0.00     0.124 S 
ATOM     94  O   UNL A   1      40.538  32.391  39.033  1.00  0.00    -0.237 OA
ATOM     95  O   UNL A   1      42.480  31.175  38.110  1.00  0.00    -0.237 OA
ATOM     96  O   UNL A   1      42.572  33.622  38.385  1.00  0.00    -0.744 OA
ENDBRANCH  92  93
ENDBRANCH  60  85
ENDBRANCH  34  35
ENDBRANCH  27  29
ENDBRANCH  26  27
ENDBRANCH  25  26
ENDBRANCH   1  25
TORSDOF 20
ENDMDL
