MODEL 1
REMARK VINA RESULT:     -11.8      0.000      0.000
REMARK SMILES O=C(OCCOC(=O)[C@H]1CSCN1C(=O)Nc1ccc(F)cc1F)c1ccc(-c2c3nc(c(-c4c(F)cc(S(=O)(=O)[O-])cc4F)c4ccc([nH]4)c(-c4c(F)cc(S(=O)(=O)[O-])cc4F)c4nc(c(-c5c(F)cc(S(=O)(=O)[O-])cc5F)c5ccc2[nH]5)C=C4)C=C3)cc1
REMARK SMILES IDX 4 1 3 2 2 3 1 4 25 5 26 6 90 7 27 8 89 9 28 10 29 11 30 12
REMARK SMILES IDX 83 13 31 14 88 15 82 16 84 17 32 18 87 19 81 20 80 21 33 23
REMARK SMILES IDX 67 24 46 25 66 26 47 27 50 28 65 29 85 30 48 31 49 32 64 34
REMARK SMILES IDX 86 35 51 36 34 37 35 38 44 39 36 40 37 41 43 42 45 43 38 44
REMARK SMILES IDX 39 45 40 46 41 47 42 48 68 49 69 50 78 51 70 52 71 53 77 54
REMARK SMILES IDX 79 55 72 56 73 57 74 58 75 59 76 60 52 61 53 62 62 63 54 64
REMARK SMILES IDX 55 65 61 66 63 67 56 68 57 69 58 70 59 71 60 72 5 73 6 74
REMARK SMILES IDX 7 75 8 76 9 77 10 78 13 79 11 80 12 81 14 82 15 83 16 84
REMARK SMILES IDX 17 86 18 87 23 88 19 89 22 90 24 91 20 92 21 93
REMARK H PARENT 84 22 50 33 16 85
REMARK Flexibility Score: inf
ROOT
ATOM      1  C   UNL A   1      32.203  29.046  27.262  1.00  0.00     0.275 C 
ENDROOT
BRANCH   1   2
ATOM      2  O   UNL A   1      33.594  28.950  27.648  1.00  0.00    -0.458 OA
BRANCH   2   3
ATOM      3  C   UNL A   1      34.449  29.915  28.074  1.00  0.00     0.338 C 
ATOM      4  O   UNL A   1      34.028  31.035  28.350  1.00  0.00    -0.246 OA
BRANCH   3   5
ATOM      5  C   UNL A   1      35.918  29.721  28.117  1.00  0.00     0.060 A 
ATOM      6  C   UNL A   1      37.004  29.886  26.671  1.00  0.00     0.016 A 
ATOM      7  C   UNL A   1      36.674  29.322  29.736  1.00  0.00     0.016 A 
ATOM      8  C   UNL A   1      38.793  29.677  26.813  1.00  0.00     0.010 A 
ATOM      9  C   UNL A   1      38.538  29.059  29.848  1.00  0.00     0.010 A 
ATOM     10  C   UNL A   1      39.549  29.234  28.358  1.00  0.00    -0.014 A 
BRANCH  10  11
ATOM     11  C   UNL A   1      40.965  28.837  28.262  1.00  0.00     0.031 A 
ATOM     12  C   UNL A   1      42.058  29.806  28.598  1.00  0.00     0.074 A 
ATOM     13  C   UNL A   1      41.277  27.546  28.092  1.00  0.00     0.049 A 
ATOM     14  N   UNL A   1      43.299  29.830  28.194  1.00  0.00    -0.248 NA
ATOM     15  C   UNL A   1      41.715  30.901  29.511  1.00  0.00     0.031 C 
ATOM     16  C   UNL A   1      40.320  26.444  28.076  1.00  0.00     0.029 A 
ATOM     17  N   UNL A   1      42.492  26.944  27.925  1.00  0.00    -0.354 N 
ATOM     18  C   UNL A   1      43.812  31.051  28.637  1.00  0.00     0.074 A 
ATOM     19  C   UNL A   1      42.783  31.680  29.426  1.00  0.00     0.031 C 
ATOM     20  C   UNL A   1      40.982  25.296  27.870  1.00  0.00     0.029 A 
ATOM     21  C   UNL A   1      42.395  25.600  27.666  1.00  0.00     0.049 A 
ATOM     22  H   UNL A   1      43.350  27.425  27.985  1.00  0.00     0.167 HD
ATOM     23  C   UNL A   1      45.027  31.577  28.354  1.00  0.00     0.037 A 
ATOM     24  C   UNL A   1      43.339  24.738  27.246  1.00  0.00     0.037 A 
ATOM     25  C   UNL A   1      46.083  30.762  27.809  1.00  0.00     0.049 A 
ATOM     26  C   UNL A   1      44.729  25.268  27.033  1.00  0.00     0.074 A 
ATOM     27  C   UNL A   1      47.392  31.100  27.527  1.00  0.00     0.029 A 
ATOM     28  N   UNL A   1      45.953  29.400  27.549  1.00  0.00    -0.354 N 
ATOM     29  N   UNL A   1      45.163  26.502  27.173  1.00  0.00    -0.248 NA
ATOM     30  C   UNL A   1      45.753  24.314  26.599  1.00  0.00     0.031 C 
ATOM     31  C   UNL A   1      48.049  29.944  27.088  1.00  0.00     0.029 A 
ATOM     32  C   UNL A   1      47.161  28.877  27.139  1.00  0.00     0.049 A 
ATOM     33  H   UNL A   1      45.119  28.886  27.645  1.00  0.00     0.167 HD
ATOM     34  C   UNL A   1      46.515  26.473  26.860  1.00  0.00     0.074 A 
ATOM     35  C   UNL A   1      46.827  25.093  26.526  1.00  0.00     0.031 C 
ATOM     36  C   UNL A   1      47.418  27.486  26.846  1.00  0.00     0.037 A 
BRANCH  23  37
ATOM     37  C   UNL A   1      45.244  33.062  28.533  1.00  0.00     0.058 A 
ATOM     38  C   UNL A   1      45.808  33.526  29.740  1.00  0.00     0.135 A 
ATOM     39  C   UNL A   1      44.933  34.032  27.568  1.00  0.00     0.135 A 
ATOM     40  F   UNL A   1      46.125  32.660  30.715  1.00  0.00    -0.206 F 
ATOM     41  C   UNL A   1      46.065  34.876  29.975  1.00  0.00     0.059 A 
ATOM     42  C   UNL A   1      45.224  35.385  27.762  1.00  0.00     0.059 A 
ATOM     43  F   UNL A   1      44.379  33.674  26.399  1.00  0.00    -0.206 F 
ATOM     44  C   UNL A   1      45.797  35.796  28.967  1.00  0.00     0.060 A 
BRANCH  44  45
ATOM     45  S   UNL A   1      46.184  37.546  29.200  1.00  0.00     0.124 S 
ATOM     46  O   UNL A   1      44.972  38.031  29.851  1.00  0.00    -0.237 OA
ATOM     47  O   UNL A   1      47.376  37.494  30.042  1.00  0.00    -0.237 OA
ATOM     48  O   UNL A   1      46.404  38.032  27.841  1.00  0.00    -0.744 OA
ENDBRANCH  44  45
ENDBRANCH  23  37
BRANCH  24  49
ATOM     49  C   UNL A   1      42.948  23.331  26.978  1.00  0.00     0.058 A 
ATOM     50  C   UNL A   1      42.785  22.416  28.034  1.00  0.00     0.135 A 
ATOM     51  C   UNL A   1      42.887  22.833  25.670  1.00  0.00     0.135 A 
ATOM     52  F   UNL A   1      42.860  22.839  29.306  1.00  0.00    -0.206 F 
ATOM     53  C   UNL A   1      42.633  21.052  27.806  1.00  0.00     0.059 A 
ATOM     54  C   UNL A   1      42.713  21.475  25.417  1.00  0.00     0.059 A 
ATOM     55  F   UNL A   1      43.035  23.665  24.628  1.00  0.00    -0.206 F 
ATOM     56  C   UNL A   1      42.610  20.589  26.492  1.00  0.00     0.060 A 
BRANCH  56  57
ATOM     57  S   UNL A   1      42.532  18.818  26.147  1.00  0.00     0.124 S 
ATOM     58  O   UNL A   1      43.519  18.679  25.082  1.00  0.00    -0.237 OA
ATOM     59  O   UNL A   1      42.899  18.244  27.438  1.00  0.00    -0.237 OA
ATOM     60  O   UNL A   1      41.142  18.613  25.751  1.00  0.00    -0.744 OA
ENDBRANCH  56  57
ENDBRANCH  24  49
BRANCH  36  61
ATOM     61  C   UNL A   1      48.837  27.144  26.507  1.00  0.00     0.058 A 
ATOM     62  C   UNL A   1      49.292  27.273  25.185  1.00  0.00     0.135 A 
ATOM     63  C   UNL A   1      49.684  26.543  27.448  1.00  0.00     0.135 A 
ATOM     64  F   UNL A   1      48.506  27.833  24.252  1.00  0.00    -0.206 F 
ATOM     65  C   UNL A   1      50.531  26.781  24.795  1.00  0.00     0.059 A 
ATOM     66  C   UNL A   1      50.935  26.063  27.084  1.00  0.00     0.059 A 
ATOM     67  F   UNL A   1      49.289  26.406  28.724  1.00  0.00    -0.206 F 
ATOM     68  C   UNL A   1      51.342  26.172  25.752  1.00  0.00     0.060 A 
BRANCH  68  69
ATOM     69  S   UNL A   1      52.927  25.451  25.278  1.00  0.00     0.124 S 
ATOM     70  O   UNL A   1      52.778  24.078  25.751  1.00  0.00    -0.237 OA
ATOM     71  O   UNL A   1      52.925  25.629  23.830  1.00  0.00    -0.237 OA
ATOM     72  O   UNL A   1      53.901  26.262  26.004  1.00  0.00    -0.744 OA
ENDBRANCH  68  69
ENDBRANCH  36  61
ENDBRANCH  10  11
ENDBRANCH   3   5
ENDBRANCH   2   3
ENDBRANCH   1   2
BRANCH   1  73
ATOM     73  C   UNL A   1      31.731  27.942  26.287  1.00  0.00     0.274 C 
BRANCH  73  74
ATOM     74  O   UNL A   1      31.478  26.668  26.906  1.00  0.00    -0.461 OA
BRANCH  74  75
ATOM     75  C   UNL A   1      31.723  25.577  26.120  1.00  0.00     0.329 C 
ATOM     76  O   UNL A   1      30.859  24.774  25.799  1.00  0.00    -0.250 OA
BRANCH  75  77
ATOM     77  C   UNL A   1      33.210  25.611  25.600  1.00  0.00     0.207 C 
ATOM     78  C   UNL A   1      33.629  24.144  25.904  1.00  0.00     0.108 C 
ATOM     79  N   UNL A   1      33.595  26.052  23.924  1.00  0.00    -0.301 N 
ATOM     80  S   UNL A   1      33.301  23.215  24.432  1.00  0.00    -0.138 SA
ATOM     81  C   UNL A   1      34.136  24.455  23.472  1.00  0.00     0.192 C 
BRANCH  79  82
ATOM     82  C   UNL A   1      33.405  27.739  22.871  1.00  0.00     0.323 C 
ATOM     83  O   UNL A   1      34.236  28.577  22.371  1.00  0.00    -0.248 OA
ATOM     84  N   UNL A   1      32.135  28.494  22.417  1.00  0.00    -0.305 N 
ATOM     85  H   UNL A   1      32.442  29.283  21.914  1.00  0.00     0.171 HD
BRANCH  84  86
ATOM     86  C   UNL A   1      30.691  28.536  22.413  1.00  0.00     0.079 A 
ATOM     87  C   UNL A   1      29.927  29.631  22.006  1.00  0.00     0.032 A 
ATOM     88  C   UNL A   1      30.002  27.439  22.957  1.00  0.00     0.149 A 
ATOM     89  C   UNL A   1      28.590  29.741  22.402  1.00  0.00     0.041 A 
ATOM     90  C   UNL A   1      28.674  27.531  23.357  1.00  0.00     0.080 A 
ATOM     91  F   UNL A   1      30.648  26.298  23.197  1.00  0.00    -0.205 F 
ATOM     92  C   UNL A   1      27.994  28.713  23.123  1.00  0.00     0.126 A 
ATOM     93  F   UNL A   1      26.748  28.869  23.587  1.00  0.00    -0.207 F 
ENDBRANCH  84  86
ENDBRANCH  79  82
ENDBRANCH  75  77
ENDBRANCH  74  75
ENDBRANCH  73  74
ENDBRANCH   1  73
TORSDOF 16
ENDMDL
MODEL 2
REMARK VINA RESULT:     -11.5      2.721      4.189
REMARK SMILES O=C(OCCOC(=O)[C@H]1CSCN1C(=O)Nc1ccc(F)cc1F)c1ccc(-c2c3nc(c(-c4c(F)cc(S(=O)(=O)[O-])cc4F)c4ccc([nH]4)c(-c4c(F)cc(S(=O)(=O)[O-])cc4F)c4nc(c(-c5c(F)cc(S(=O)(=O)[O-])cc5F)c5ccc2[nH]5)C=C4)C=C3)cc1
REMARK SMILES IDX 4 1 3 2 2 3 1 4 25 5 26 6 90 7 27 8 89 9 28 10 29 11 30 12
REMARK SMILES IDX 83 13 31 14 88 15 82 16 84 17 32 18 87 19 81 20 80 21 33 23
REMARK SMILES IDX 67 24 46 25 66 26 47 27 50 28 65 29 85 30 48 31 49 32 64 34
REMARK SMILES IDX 86 35 51 36 34 37 35 38 44 39 36 40 37 41 43 42 45 43 38 44
REMARK SMILES IDX 39 45 40 46 41 47 42 48 68 49 69 50 78 51 70 52 71 53 77 54
REMARK SMILES IDX 79 55 72 56 73 57 74 58 75 59 76 60 52 61 53 62 62 63 54 64
REMARK SMILES IDX 55 65 61 66 63 67 56 68 57 69 58 70 59 71 60 72 5 73 6 74
REMARK SMILES IDX 7 75 8 76 9 77 10 78 13 79 11 80 12 81 14 82 15 83 16 84
REMARK SMILES IDX 17 86 18 87 23 88 19 89 22 90 24 91 20 92 21 93
REMARK H PARENT 84 22 50 33 16 85
REMARK Flexibility Score: inf
ROOT
ATOM      1  C   UNL A   1      32.667  28.306  26.403  1.00  0.00     0.275 C 
ENDROOT
BRANCH   1   2
ATOM      2  O   UNL A   1      33.228  28.743  27.663  1.00  0.00    -0.458 OA
BRANCH   2   3
ATOM      3  C   UNL A   1      34.051  29.788  27.935  1.00  0.00     0.338 C 
ATOM      4  O   UNL A   1      33.603  30.931  27.976  1.00  0.00    -0.246 OA
BRANCH   3   5
ATOM      5  C   UNL A   1      35.518  29.637  28.078  1.00  0.00     0.060 A 
ATOM      6  C   UNL A   1      36.690  29.781  26.699  1.00  0.00     0.016 A 
ATOM      7  C   UNL A   1      36.178  29.317  29.755  1.00  0.00     0.016 A 
ATOM      8  C   UNL A   1      38.470  29.626  26.960  1.00  0.00     0.010 A 
ATOM      9  C   UNL A   1      38.038  29.110  29.994  1.00  0.00     0.010 A 
ATOM     10  C   UNL A   1      39.137  29.260  28.565  1.00  0.00    -0.014 A 
BRANCH  10  11
ATOM     11  C   UNL A   1      40.566  28.899  28.574  1.00  0.00     0.031 A 
ATOM     12  C   UNL A   1      41.604  29.885  29.018  1.00  0.00     0.074 A 
ATOM     13  C   UNL A   1      40.924  27.620  28.399  1.00  0.00     0.049 A 
ATOM     14  N   UNL A   1      42.872  29.948  28.716  1.00  0.00    -0.248 NA
ATOM     15  C   UNL A   1      41.162  30.948  29.926  1.00  0.00     0.031 C 
ATOM     16  C   UNL A   1      39.999  26.497  28.282  1.00  0.00     0.029 A 
ATOM     17  N   UNL A   1      42.163  27.052  28.317  1.00  0.00    -0.354 N 
ATOM     18  C   UNL A   1      43.317  31.170  29.226  1.00  0.00     0.074 A 
ATOM     19  C   UNL A   1      42.213  31.755  29.944  1.00  0.00     0.031 C 
ATOM     20  C   UNL A   1      40.705  25.370  28.103  1.00  0.00     0.029 A 
ATOM     21  C   UNL A   1      42.121  25.713  28.019  1.00  0.00     0.049 A 
ATOM     22  H   UNL A   1      43.001  27.551  28.456  1.00  0.00     0.167 HD
ATOM     23  C   UNL A   1      44.537  31.731  29.053  1.00  0.00     0.037 A 
ATOM     24  C   UNL A   1      43.118  24.885  27.656  1.00  0.00     0.037 A 
ATOM     25  C   UNL A   1      45.653  30.956  28.576  1.00  0.00     0.049 A 
ATOM     26  C   UNL A   1      44.506  25.453  27.567  1.00  0.00     0.074 A 
ATOM     27  C   UNL A   1      46.971  31.332  28.407  1.00  0.00     0.029 A 
ATOM     28  N   UNL A   1      45.579  29.598  28.275  1.00  0.00    -0.354 N 
ATOM     29  N   UNL A   1      44.896  26.692  27.770  1.00  0.00    -0.248 NA
ATOM     30  C   UNL A   1      45.586  24.535  27.195  1.00  0.00     0.031 C 
ATOM     31  C   UNL A   1      47.690  30.203  27.996  1.00  0.00     0.029 A 
ATOM     32  C   UNL A   1      46.829  29.114  27.951  1.00  0.00     0.049 A 
ATOM     33  H   UNL A   1      44.753  29.062  28.292  1.00  0.00     0.167 HD
ATOM     34  C   UNL A   1      46.268  26.703  27.566  1.00  0.00     0.074 A 
ATOM     35  C   UNL A   1      46.641  25.340  27.226  1.00  0.00     0.031 C 
ATOM     36  C   UNL A   1      47.144  27.737  27.647  1.00  0.00     0.037 A 
BRANCH  23  37
ATOM     37  C   UNL A   1      44.701  33.216  29.283  1.00  0.00     0.058 A 
ATOM     38  C   UNL A   1      44.412  34.104  28.226  1.00  0.00     0.135 A 
ATOM     39  C   UNL A   1      45.116  33.792  30.494  1.00  0.00     0.135 A 
ATOM     40  F   UNL A   1      44.017  33.630  27.034  1.00  0.00    -0.206 F 
ATOM     41  C   UNL A   1      44.512  35.488  28.363  1.00  0.00     0.059 A 
ATOM     42  C   UNL A   1      45.179  35.176  30.669  1.00  0.00     0.059 A 
ATOM     43  F   UNL A   1      45.425  33.014  31.544  1.00  0.00    -0.206 F 
ATOM     44  C   UNL A   1      44.868  36.017  29.599  1.00  0.00     0.060 A 
BRANCH  44  45
ATOM     45  S   UNL A   1      44.936  37.806  29.842  1.00  0.00     0.124 S 
ATOM     46  O   UNL A   1      46.310  37.988  30.299  1.00  0.00    -0.237 OA
ATOM     47  O   UNL A   1      44.642  38.316  28.506  1.00  0.00    -0.237 OA
ATOM     48  O   UNL A   1      43.904  38.056  30.844  1.00  0.00    -0.744 OA
ENDBRANCH  44  45
ENDBRANCH  23  37
BRANCH  24  49
ATOM     49  C   UNL A   1      42.785  23.475  27.325  1.00  0.00     0.058 A 
ATOM     50  C   UNL A   1      42.742  22.491  28.330  1.00  0.00     0.135 A 
ATOM     51  C   UNL A   1      42.664  23.054  25.995  1.00  0.00     0.135 A 
ATOM     52  F   UNL A   1      42.879  22.842  29.618  1.00  0.00    -0.206 F 
ATOM     53  C   UNL A   1      42.648  21.137  28.027  1.00  0.00     0.059 A 
ATOM     54  C   UNL A   1      42.547  21.705  25.668  1.00  0.00     0.059 A 
ATOM     55  F   UNL A   1      42.698  23.953  25.001  1.00  0.00    -0.206 F 
ATOM     56  C   UNL A   1      42.563  20.752  26.691  1.00  0.00     0.060 A 
BRANCH  56  57
ATOM     57  S   UNL A   1      42.557  19.003  26.240  1.00  0.00     0.124 S 
ATOM     58  O   UNL A   1      41.262  18.870  25.583  1.00  0.00    -0.237 OA
ATOM     59  O   UNL A   1      43.727  18.913  25.372  1.00  0.00    -0.237 OA
ATOM     60  O   UNL A   1      42.686  18.324  27.526  1.00  0.00    -0.744 OA
ENDBRANCH  56  57
ENDBRANCH  24  49
BRANCH  36  61
ATOM     61  C   UNL A   1      48.594  27.438  27.415  1.00  0.00     0.058 A 
ATOM     62  C   UNL A   1      49.135  27.553  26.125  1.00  0.00     0.135 A 
ATOM     63  C   UNL A   1      49.392  26.888  28.426  1.00  0.00     0.135 A 
ATOM     64  F   UNL A   1      48.397  28.065  25.127  1.00  0.00    -0.206 F 
ATOM     65  C   UNL A   1      50.413  27.097  25.833  1.00  0.00     0.059 A 
ATOM     66  C   UNL A   1      50.681  26.444  28.161  1.00  0.00     0.059 A 
ATOM     67  F   UNL A   1      48.915  26.765  29.675  1.00  0.00    -0.206 F 
ATOM     68  C   UNL A   1      51.176  26.537  26.857  1.00  0.00     0.060 A 
BRANCH  68  69
ATOM     69  S   UNL A   1      52.813  25.863  26.512  1.00  0.00     0.124 S 
ATOM     70  O   UNL A   1      53.445  25.940  27.825  1.00  0.00    -0.237 OA
ATOM     71  O   UNL A   1      52.498  24.520  26.036  1.00  0.00    -0.237 OA
ATOM     72  O   UNL A   1      53.350  26.771  25.503  1.00  0.00    -0.744 OA
ENDBRANCH  68  69
ENDBRANCH  36  61
ENDBRANCH  10  11
ENDBRANCH   3   5
ENDBRANCH   2   3
ENDBRANCH   1   2
BRANCH   1  73
ATOM     73  C   UNL A   1      33.648  27.515  25.505  1.00  0.00     0.274 C 
BRANCH  73  74
ATOM     74  O   UNL A   1      33.957  26.193  25.980  1.00  0.00    -0.461 OA
BRANCH  74  75
ATOM     75  C   UNL A   1      33.272  25.178  25.372  1.00  0.00     0.329 C 
ATOM     76  O   UNL A   1      32.054  25.081  25.401  1.00  0.00    -0.250 OA
BRANCH  75  77
ATOM     77  C   UNL A   1      34.265  24.279  24.542  1.00  0.00     0.207 C 
ATOM     78  C   UNL A   1      35.571  24.510  25.356  1.00  0.00     0.108 C 
ATOM     79  N   UNL A   1      33.962  22.547  24.298  1.00  0.00    -0.301 N 
ATOM     80  S   UNL A   1      35.647  23.212  26.559  1.00  0.00    -0.138 SA
ATOM     81  C   UNL A   1      35.302  22.022  25.285  1.00  0.00     0.192 C 
BRANCH  79  82
ATOM     82  C   UNL A   1      32.548  21.526  23.323  1.00  0.00     0.323 C 
ATOM     83  O   UNL A   1      31.611  21.853  22.513  1.00  0.00    -0.248 OA
ATOM     84  N   UNL A   1      32.209  20.018  23.350  1.00  0.00    -0.305 N 
ATOM     85  H   UNL A   1      31.450  19.891  22.735  1.00  0.00     0.171 HD
BRANCH  84  86
ATOM     86  C   UNL A   1      32.529  18.717  23.888  1.00  0.00     0.079 A 
ATOM     87  C   UNL A   1      32.486  18.383  25.243  1.00  0.00     0.032 A 
ATOM     88  C   UNL A   1      33.021  17.744  23.003  1.00  0.00     0.149 A 
ATOM     89  C   UNL A   1      33.179  17.262  25.712  1.00  0.00     0.041 A 
ATOM     90  C   UNL A   1      33.713  16.625  23.451  1.00  0.00     0.080 A 
ATOM     91  F   UNL A   1      32.922  17.929  21.686  1.00  0.00    -0.205 F 
ATOM     92  C   UNL A   1      33.832  16.426  24.815  1.00  0.00     0.126 A 
ATOM     93  F   UNL A   1      34.577  15.415  25.279  1.00  0.00    -0.207 F 
ENDBRANCH  84  86
ENDBRANCH  79  82
ENDBRANCH  75  77
ENDBRANCH  74  75
ENDBRANCH  73  74
ENDBRANCH   1  73
TORSDOF 16
ENDMDL
MODEL 3
REMARK VINA RESULT:     -11.5      1.823      3.804
REMARK SMILES O=C(OCCOC(=O)[C@H]1CSCN1C(=O)Nc1ccc(F)cc1F)c1ccc(-c2c3nc(c(-c4c(F)cc(S(=O)(=O)[O-])cc4F)c4ccc([nH]4)c(-c4c(F)cc(S(=O)(=O)[O-])cc4F)c4nc(c(-c5c(F)cc(S(=O)(=O)[O-])cc5F)c5ccc2[nH]5)C=C4)C=C3)cc1
REMARK SMILES IDX 4 1 3 2 2 3 1 4 25 5 26 6 90 7 27 8 89 9 28 10 29 11 30 12
REMARK SMILES IDX 83 13 31 14 88 15 82 16 84 17 32 18 87 19 81 20 80 21 33 23
REMARK SMILES IDX 67 24 46 25 66 26 47 27 50 28 65 29 85 30 48 31 49 32 64 34
REMARK SMILES IDX 86 35 51 36 34 37 35 38 44 39 36 40 37 41 43 42 45 43 38 44
REMARK SMILES IDX 39 45 40 46 41 47 42 48 68 49 69 50 78 51 70 52 71 53 77 54
REMARK SMILES IDX 79 55 72 56 73 57 74 58 75 59 76 60 52 61 53 62 62 63 54 64
REMARK SMILES IDX 55 65 61 66 63 67 56 68 57 69 58 70 59 71 60 72 5 73 6 74
REMARK SMILES IDX 7 75 8 76 9 77 10 78 13 79 11 80 12 81 14 82 15 83 16 84
REMARK SMILES IDX 17 86 18 87 23 88 19 89 22 90 24 91 20 92 21 93
REMARK H PARENT 84 22 50 33 16 85
REMARK Flexibility Score: inf
ROOT
ATOM      1  C   UNL A   1      32.531  28.529  26.962  1.00  0.00     0.275 C 
ENDROOT
BRANCH   1   2
ATOM      2  O   UNL A   1      33.493  28.860  27.991  1.00  0.00    -0.458 OA
BRANCH   2   3
ATOM      3  C   UNL A   1      34.376  29.889  28.061  1.00  0.00     0.338 C 
ATOM      4  O   UNL A   1      33.982  31.048  27.966  1.00  0.00    -0.246 OA
BRANCH   3   5
ATOM      5  C   UNL A   1      35.842  29.682  28.133  1.00  0.00     0.060 A 
ATOM      6  C   UNL A   1      36.951  29.791  26.700  1.00  0.00     0.016 A 
ATOM      7  C   UNL A   1      36.569  29.328  29.776  1.00  0.00     0.016 A 
ATOM      8  C   UNL A   1      38.735  29.569  26.875  1.00  0.00     0.010 A 
ATOM      9  C   UNL A   1      38.429  29.051  29.924  1.00  0.00     0.010 A 
ATOM     10  C   UNL A   1      39.464  29.169  28.445  1.00  0.00    -0.014 A 
BRANCH  10  11
ATOM     11  C   UNL A   1      40.877  28.755  28.384  1.00  0.00     0.031 A 
ATOM     12  C   UNL A   1      41.971  29.703  28.770  1.00  0.00     0.074 A 
ATOM     13  C   UNL A   1      41.178  27.463  28.198  1.00  0.00     0.049 A 
ATOM     14  N   UNL A   1      43.224  29.719  28.405  1.00  0.00    -0.248 NA
ATOM     15  C   UNL A   1      41.615  30.786  29.693  1.00  0.00     0.031 C 
ATOM     16  C   UNL A   1      40.208  26.375  28.133  1.00  0.00     0.029 A 
ATOM     17  N   UNL A   1      42.390  26.849  28.057  1.00  0.00    -0.354 N 
ATOM     18  C   UNL A   1      43.738  30.924  28.885  1.00  0.00     0.074 A 
ATOM     19  C   UNL A   1      42.695  31.552  29.655  1.00  0.00     0.031 C 
ATOM     20  C   UNL A   1      40.862  25.222  27.925  1.00  0.00     0.029 A 
ATOM     21  C   UNL A   1      42.284  25.512  27.769  1.00  0.00     0.049 A 
ATOM     22  H   UNL A   1      43.251  27.318  28.151  1.00  0.00     0.167 HD
ATOM     23  C   UNL A   1      44.968  31.440  28.649  1.00  0.00     0.037 A 
ATOM     24  C   UNL A   1      43.230  24.646  27.360  1.00  0.00     0.037 A 
ATOM     25  C   UNL A   1      46.030  30.622  28.120  1.00  0.00     0.049 A 
ATOM     26  C   UNL A   1      44.631  25.161  27.199  1.00  0.00     0.074 A 
ATOM     27  C   UNL A   1      47.350  30.948  27.883  1.00  0.00     0.029 A 
ATOM     28  N   UNL A   1      45.891  29.267  27.830  1.00  0.00    -0.354 N 
ATOM     29  N   UNL A   1      45.076  26.386  27.375  1.00  0.00    -0.248 NA
ATOM     30  C   UNL A   1      45.657  24.203  26.778  1.00  0.00     0.031 C 
ATOM     31  C   UNL A   1      48.006  29.792  27.442  1.00  0.00     0.029 A 
ATOM     32  C   UNL A   1      47.104  28.736  27.446  1.00  0.00     0.049 A 
ATOM     33  H   UNL A   1      45.048  28.762  27.892  1.00  0.00     0.167 HD
ATOM     34  C   UNL A   1      46.436  26.346  27.103  1.00  0.00     0.074 A 
ATOM     35  C   UNL A   1      46.741  24.969  26.752  1.00  0.00     0.031 C 
ATOM     36  C   UNL A   1      47.352  27.347  27.134  1.00  0.00     0.037 A 
BRANCH  23  37
ATOM     37  C   UNL A   1      45.198  32.919  28.863  1.00  0.00     0.058 A 
ATOM     38  C   UNL A   1      44.847  33.816  27.833  1.00  0.00     0.135 A 
ATOM     39  C   UNL A   1      45.734  33.478  30.032  1.00  0.00     0.135 A 
ATOM     40  F   UNL A   1      44.336  33.358  26.680  1.00  0.00    -0.206 F 
ATOM     41  C   UNL A   1      45.002  35.197  27.960  1.00  0.00     0.059 A 
ATOM     42  C   UNL A   1      45.856  34.860  30.200  1.00  0.00     0.059 A 
ATOM     43  F   UNL A   1      46.109  32.689  31.052  1.00  0.00    -0.206 F 
ATOM     44  C   UNL A   1      45.480  35.712  29.160  1.00  0.00     0.060 A 
BRANCH  44  45
ATOM     45  S   UNL A   1      45.626  37.497  29.395  1.00  0.00     0.124 S 
ATOM     46  O   UNL A   1      47.064  37.697  29.247  1.00  0.00    -0.237 OA
ATOM     47  O   UNL A   1      44.801  38.025  28.312  1.00  0.00    -0.237 OA
ATOM     48  O   UNL A   1      45.098  37.711  30.739  1.00  0.00    -0.744 OA
ENDBRANCH  44  45
ENDBRANCH  23  37
BRANCH  24  49
ATOM     49  C   UNL A   1      42.829  23.249  27.054  1.00  0.00     0.058 A 
ATOM     50  C   UNL A   1      42.611  22.320  28.088  1.00  0.00     0.135 A 
ATOM     51  C   UNL A   1      42.814  22.772  25.737  1.00  0.00     0.135 A 
ATOM     52  F   UNL A   1      42.640  22.722  29.368  1.00  0.00    -0.206 F 
ATOM     53  C   UNL A   1      42.448  20.962  27.832  1.00  0.00     0.059 A 
ATOM     54  C   UNL A   1      42.631  21.421  25.455  1.00  0.00     0.059 A 
ATOM     55  F   UNL A   1      43.016  23.618  24.716  1.00  0.00    -0.206 F 
ATOM     56  C   UNL A   1      42.472  20.520  26.511  1.00  0.00     0.060 A 
BRANCH  56  57
ATOM     57  S   UNL A   1      42.382  18.756  26.134  1.00  0.00     0.124 S 
ATOM     58  O   UNL A   1      43.355  18.633  25.055  1.00  0.00    -0.237 OA
ATOM     59  O   UNL A   1      42.762  18.157  27.410  1.00  0.00    -0.237 OA
ATOM     60  O   UNL A   1      40.987  18.564  25.751  1.00  0.00    -0.744 OA
ENDBRANCH  56  57
ENDBRANCH  24  49
BRANCH  36  61
ATOM     61  C   UNL A   1      48.777  26.994  26.832  1.00  0.00     0.058 A 
ATOM     62  C   UNL A   1      49.674  26.742  27.882  1.00  0.00     0.135 A 
ATOM     63  C   UNL A   1      49.282  27.066  25.527  1.00  0.00     0.135 A 
ATOM     64  F   UNL A   1      49.230  26.677  29.148  1.00  0.00    -0.206 F 
ATOM     65  C   UNL A   1      51.037  26.609  27.654  1.00  0.00     0.059 A 
ATOM     66  C   UNL A   1      50.639  26.916  25.273  1.00  0.00     0.059 A 
ATOM     67  F   UNL A   1      48.457  27.300  24.493  1.00  0.00    -0.206 F 
ATOM     68  C   UNL A   1      51.510  26.705  26.345  1.00  0.00     0.060 A 
BRANCH  68  69
ATOM     69  S   UNL A   1      53.279  26.613  26.006  1.00  0.00     0.124 S 
ATOM     70  O   UNL A   1      53.547  25.195  26.222  1.00  0.00    -0.237 OA
ATOM     71  O   UNL A   1      53.351  27.070  24.622  1.00  0.00    -0.237 OA
ATOM     72  O   UNL A   1      53.863  27.519  26.991  1.00  0.00    -0.744 OA
ENDBRANCH  68  69
ENDBRANCH  36  61
ENDBRANCH  10  11
ENDBRANCH   3   5
ENDBRANCH   2   3
ENDBRANCH   1   2
BRANCH   1  73
ATOM     73  C   UNL A   1      33.032  27.496  25.926  1.00  0.00     0.274 C 
BRANCH  73  74
ATOM     74  O   UNL A   1      32.091  26.452  25.622  1.00  0.00    -0.461 OA
BRANCH  74  75
ATOM     75  C   UNL A   1      31.189  26.746  24.637  1.00  0.00     0.329 C 
ATOM     76  O   UNL A   1      30.520  27.768  24.625  1.00  0.00    -0.250 OA
BRANCH  75  77
ATOM     77  C   UNL A   1      31.265  25.662  23.496  1.00  0.00     0.207 C 
ATOM     78  C   UNL A   1      31.437  26.592  22.260  1.00  0.00     0.108 C 
ATOM     79  N   UNL A   1      32.500  24.386  23.512  1.00  0.00    -0.301 N 
ATOM     80  S   UNL A   1      33.180  26.761  22.000  1.00  0.00    -0.138 SA
ATOM     81  C   UNL A   1      33.363  24.998  22.125  1.00  0.00     0.192 C 
BRANCH  79  82
ATOM     82  C   UNL A   1      32.857  22.838  24.725  1.00  0.00     0.323 C 
ATOM     83  O   UNL A   1      32.111  22.013  25.360  1.00  0.00    -0.248 OA
ATOM     84  N   UNL A   1      34.196  22.264  25.241  1.00  0.00    -0.305 N 
ATOM     85  H   UNL A   1      33.969  21.497  25.815  1.00  0.00     0.171 HD
BRANCH  84  86
ATOM     86  C   UNL A   1      35.636  22.370  25.240  1.00  0.00     0.079 A 
ATOM     87  C   UNL A   1      36.513  21.317  24.978  1.00  0.00     0.032 A 
ATOM     88  C   UNL A   1      36.203  23.594  25.635  1.00  0.00     0.149 A 
ATOM     89  C   UNL A   1      37.850  21.397  25.383  1.00  0.00     0.041 A 
ATOM     90  C   UNL A   1      37.529  23.692  26.042  1.00  0.00     0.080 A 
ATOM     91  F   UNL A   1      35.441  24.684  25.726  1.00  0.00    -0.205 F 
ATOM     92  C   UNL A   1      38.329  22.566  25.963  1.00  0.00     0.126 A 
ATOM     93  F   UNL A   1      39.579  22.601  26.441  1.00  0.00    -0.207 F 
ENDBRANCH  84  86
ENDBRANCH  79  82
ENDBRANCH  75  77
ENDBRANCH  74  75
ENDBRANCH  73  74
ENDBRANCH   1  73
TORSDOF 16
ENDMDL
