MODEL 1
REMARK VINA RESULT:     -10.9      0.000      0.000
REMARK SMILES CCOc1cccc(OCC)c1-c1ccc([C@@H](C)C(=O)OCCOC(=O)c2ccc(-c3c4nc(c(-c5c(F)cc(S(=O)(=O)[O-])cc5F)c5ccc([nH]5)c(-c5c(F)cc(S(=O)(=O)[O-])cc5F)c5nc(c(-c6c(F)cc(S(=O)(=O)[O-])cc6F)c6ccc3[nH]6)C=C5)C=C4)cc2)cc1F
REMARK SMILES IDX 22 1 21 2 19 3 20 4 17 5 18 6 16 7 13 8 14 9 94 10 15 11
REMARK SMILES IDX 93 12 95 13 12 14 4 15 5 16 6 17 8 18 7 19 3 20 2 21 1 22
REMARK SMILES IDX 9 23 10 24 11 25 23 26 24 27 25 28 26 29 27 30 28 31 92 32
REMARK SMILES IDX 29 33 91 34 30 35 31 36 32 37 85 38 33 39 90 40 84 41 86 42
REMARK SMILES IDX 34 43 89 44 83 45 82 46 35 48 69 49 48 50 68 51 49 52 52 53
REMARK SMILES IDX 67 54 87 55 50 56 51 57 66 59 88 60 53 61 36 62 37 63 46 64
REMARK SMILES IDX 38 65 39 66 45 67 47 68 40 69 41 70 42 71 43 72 44 73 70 74
REMARK SMILES IDX 71 75 80 76 72 77 73 78 79 79 81 80 74 81 75 82 76 83 77 84
REMARK SMILES IDX 78 85 54 86 55 87 64 88 56 89 57 90 63 91 65 92 58 93 59 94
REMARK SMILES IDX 60 95 61 96 62 97
REMARK H PARENT 86 47 52 58
REMARK Flexibility Score: inf
ROOT
ATOM      1  C   UNL A   1      33.243  29.483  27.241  1.00  0.00     0.274 C 
ENDROOT
BRANCH   1   2
ATOM      2  O   UNL A   1      33.488  28.112  26.865  1.00  0.00    -0.462 OA
BRANCH   2   3
ATOM      3  C   UNL A   1      33.506  27.824  25.539  1.00  0.00     0.313 C 
ATOM      4  O   UNL A   1      33.986  28.567  24.688  1.00  0.00    -0.252 OA
BRANCH   3   5
ATOM      5  C   UNL A   1      32.811  26.515  25.168  1.00  0.00     0.126 C 
ATOM      6  C   UNL A   1      31.528  26.356  25.978  1.00  0.00     0.025 C 
BRANCH   5   7
ATOM      7  C   UNL A   1      33.633  25.232  25.185  1.00  0.00    -0.031 A 
ATOM      8  C   UNL A   1      35.034  22.751  25.089  1.00  0.00     0.025 A 
ATOM      9  C   UNL A   1      34.451  23.213  26.276  1.00  0.00     0.012 A 
ATOM     10  C   UNL A   1      34.964  23.587  23.968  1.00  0.00     0.131 A 
ATOM     11  C   UNL A   1      33.720  24.404  26.311  1.00  0.00     0.005 A 
ATOM     12  C   UNL A   1      34.285  24.808  24.013  1.00  0.00     0.044 A 
ATOM     13  F   UNL A   1      35.510  23.206  22.804  1.00  0.00    -0.206 F 
BRANCH   8  14
ATOM     14  C   UNL A   1      35.691  21.433  25.059  1.00  0.00     0.069 A 
ATOM     15  C   UNL A   1      34.864  20.281  24.986  1.00  0.00     0.130 A 
ATOM     16  C   UNL A   1      35.381  18.991  24.836  1.00  0.00     0.047 A 
ATOM     17  C   UNL A   1      36.752  18.814  24.746  1.00  0.00     0.008 A 
ATOM     18  C   UNL A   1      37.089  21.231  25.011  1.00  0.00     0.130 A 
ATOM     19  C   UNL A   1      37.589  19.922  24.847  1.00  0.00     0.047 A 
BRANCH  15  20
ATOM     20  O   UNL A   1      33.510  20.419  25.172  1.00  0.00    -0.493 OA
BRANCH  20  21
ATOM     21  C   UNL A   1      32.744  20.153  23.996  1.00  0.00     0.226 C 
ATOM     22  C   UNL A   1      32.022  21.432  23.624  1.00  0.00     0.049 C 
ENDBRANCH  20  21
ENDBRANCH  15  20
BRANCH  18  23
ATOM     23  O   UNL A   1      38.134  22.110  25.100  1.00  0.00    -0.493 OA
BRANCH  23  24
ATOM     24  C   UNL A   1      38.632  22.647  26.316  1.00  0.00     0.226 C 
ATOM     25  C   UNL A   1      38.257  24.117  26.401  1.00  0.00     0.049 C 
ENDBRANCH  23  24
ENDBRANCH  18  23
ENDBRANCH   8  14
ENDBRANCH   5   7
ENDBRANCH   3   5
ENDBRANCH   2   3
ENDBRANCH   1   2
BRANCH   1  26
ATOM     26  C   UNL A   1      34.549  30.241  27.505  1.00  0.00     0.275 C 
BRANCH  26  27
ATOM     27  O   UNL A   1      35.435  29.497  28.363  1.00  0.00    -0.458 OA
BRANCH  27  28
ATOM     28  C   UNL A   1      36.205  30.265  29.165  1.00  0.00     0.338 C 
ATOM     29  O   UNL A   1      35.807  31.048  30.018  1.00  0.00    -0.246 OA
BRANCH  28  30
ATOM     30  C   UNL A   1      37.625  29.943  28.999  1.00  0.00     0.060 A 
ATOM     31  C   UNL A   1      38.094  29.728  27.700  1.00  0.00     0.016 A 
ATOM     32  C   UNL A   1      38.467  29.771  30.098  1.00  0.00     0.016 A 
ATOM     33  C   UNL A   1      39.414  29.352  27.488  1.00  0.00     0.010 A 
ATOM     34  C   UNL A   1      39.796  29.392  29.883  1.00  0.00     0.010 A 
ATOM     35  C   UNL A   1      40.274  29.181  28.578  1.00  0.00    -0.014 A 
BRANCH  35  36
ATOM     36  C   UNL A   1      41.675  28.770  28.338  1.00  0.00     0.031 A 
ATOM     37  C   UNL A   1      42.778  29.783  28.415  1.00  0.00     0.074 A 
ATOM     38  C   UNL A   1      41.945  27.477  28.077  1.00  0.00     0.049 A 
ATOM     39  N   UNL A   1      44.052  29.635  28.161  1.00  0.00    -0.248 NA
ATOM     40  C   UNL A   1      42.398  31.142  28.829  1.00  0.00     0.031 C 
ATOM     41  C   UNL A   1      40.951  26.404  28.027  1.00  0.00     0.029 A 
ATOM     42  N   UNL A   1      43.132  26.848  27.805  1.00  0.00    -0.354 N 
ATOM     43  C   UNL A   1      44.626  30.883  28.366  1.00  0.00     0.074 A 
ATOM     44  C   UNL A   1      43.558  31.781  28.752  1.00  0.00     0.031 C 
ATOM     45  C   UNL A   1      41.570  25.248  27.741  1.00  0.00     0.029 A 
ATOM     46  C   UNL A   1      42.993  25.506  27.543  1.00  0.00     0.049 A 
ATOM     47  H   UNL A   1      44.000  27.312  27.799  1.00  0.00     0.167 HD
ATOM     48  C   UNL A   1      45.926  31.241  28.240  1.00  0.00     0.037 A 
ATOM     49  C   UNL A   1      43.907  24.595  27.157  1.00  0.00     0.037 A 
ATOM     50  C   UNL A   1      46.979  30.332  27.866  1.00  0.00     0.049 A 
ATOM     51  C   UNL A   1      45.335  25.028  26.980  1.00  0.00     0.074 A 
ATOM     52  C   UNL A   1      48.331  30.592  27.714  1.00  0.00     0.029 A 
ATOM     53  N   UNL A   1      46.799  28.984  27.585  1.00  0.00    -0.354 N 
ATOM     54  N   UNL A   1      45.863  26.216  27.160  1.00  0.00    -0.248 NA
ATOM     55  C   UNL A   1      46.291  24.003  26.542  1.00  0.00     0.031 C 
ATOM     56  C   UNL A   1      48.960  29.410  27.308  1.00  0.00     0.029 A 
ATOM     57  C   UNL A   1      48.009  28.404  27.245  1.00  0.00     0.049 A 
ATOM     58  H   UNL A   1      45.936  28.511  27.623  1.00  0.00     0.167 HD
ATOM     59  C   UNL A   1      47.217  26.078  26.873  1.00  0.00     0.074 A 
ATOM     60  C   UNL A   1      47.427  24.688  26.520  1.00  0.00     0.031 C 
ATOM     61  C   UNL A   1      48.195  27.016  26.898  1.00  0.00     0.037 A 
BRANCH  48  62
ATOM     62  C   UNL A   1      46.275  32.685  28.473  1.00  0.00     0.058 A 
ATOM     63  C   UNL A   1      46.660  33.160  29.737  1.00  0.00     0.135 A 
ATOM     64  C   UNL A   1      46.242  33.602  27.411  1.00  0.00     0.135 A 
ATOM     65  F   UNL A   1      46.692  32.329  30.790  1.00  0.00    -0.206 F 
ATOM     66  C   UNL A   1      46.975  34.500  29.944  1.00  0.00     0.059 A 
ATOM     67  C   UNL A   1      46.575  34.942  27.590  1.00  0.00     0.059 A 
ATOM     68  F   UNL A   1      45.879  33.201  26.182  1.00  0.00    -0.206 F 
ATOM     69  C   UNL A   1      46.925  35.385  28.865  1.00  0.00     0.060 A 
BRANCH  69  70
ATOM     70  S   UNL A   1      47.329  37.122  29.146  1.00  0.00     0.124 S 
ATOM     71  O   UNL A   1      46.403  37.787  28.234  1.00  0.00    -0.237 OA
ATOM     72  O   UNL A   1      47.045  37.286  30.568  1.00  0.00    -0.237 OA
ATOM     73  O   UNL A   1      48.738  37.207  28.779  1.00  0.00    -0.744 OA
ENDBRANCH  69  70
ENDBRANCH  48  62
BRANCH  49  74
ATOM     74  C   UNL A   1      43.487  23.195  26.893  1.00  0.00     0.058 A 
ATOM     75  C   UNL A   1      43.442  22.686  25.588  1.00  0.00     0.135 A 
ATOM     76  C   UNL A   1      43.150  22.329  27.946  1.00  0.00     0.135 A 
ATOM     77  F   UNL A   1      43.747  23.476  24.549  1.00  0.00    -0.206 F 
ATOM     78  C   UNL A   1      43.069  21.369  25.334  1.00  0.00     0.059 A 
ATOM     79  C   UNL A   1      42.797  21.003  27.719  1.00  0.00     0.059 A 
ATOM     80  F   UNL A   1      43.191  22.766  29.215  1.00  0.00    -0.206 F 
ATOM     81  C   UNL A   1      42.752  20.534  26.408  1.00  0.00     0.060 A 
BRANCH  81  82
ATOM     82  S   UNL A   1      42.326  18.811  26.074  1.00  0.00     0.124 S 
ATOM     83  O   UNL A   1      40.915  18.920  25.724  1.00  0.00    -0.237 OA
ATOM     84  O   UNL A   1      43.232  18.475  24.980  1.00  0.00    -0.237 OA
ATOM     85  O   UNL A   1      42.614  18.145  27.341  1.00  0.00    -0.744 OA
ENDBRANCH  81  82
ENDBRANCH  49  74
BRANCH  61  86
ATOM     86  C   UNL A   1      49.586  26.563  26.558  1.00  0.00     0.058 A 
ATOM     87  C   UNL A   1      50.429  25.993  27.526  1.00  0.00     0.135 A 
ATOM     88  C   UNL A   1      50.066  26.659  25.243  1.00  0.00     0.135 A 
ATOM     89  F   UNL A   1      50.020  25.887  28.800  1.00  0.00    -0.206 F 
ATOM     90  C   UNL A   1      51.707  25.551  27.203  1.00  0.00     0.059 A 
ATOM     91  C   UNL A   1      51.331  26.203  24.893  1.00  0.00     0.059 A 
ATOM     92  F   UNL A   1      49.293  27.188  24.279  1.00  0.00    -0.206 F 
ATOM     93  C   UNL A   1      52.150  25.660  25.883  1.00  0.00     0.060 A 
BRANCH  93  94
ATOM     94  S   UNL A   1      53.799  25.055  25.468  1.00  0.00     0.124 S 
ATOM     95  O   UNL A   1      53.561  23.622  25.332  1.00  0.00    -0.237 OA
ATOM     96  O   UNL A   1      54.094  25.768  24.228  1.00  0.00    -0.237 OA
ATOM     97  O   UNL A   1      54.606  25.453  26.618  1.00  0.00    -0.744 OA
ENDBRANCH  93  94
ENDBRANCH  61  86
ENDBRANCH  35  36
ENDBRANCH  28  30
ENDBRANCH  27  28
ENDBRANCH  26  27
ENDBRANCH   1  26
TORSDOF 20
ENDMDL
MODEL 2
REMARK VINA RESULT:     -10.9      2.683      3.594
REMARK SMILES CCOc1cccc(OCC)c1-c1ccc([C@@H](C)C(=O)OCCOC(=O)c2ccc(-c3c4nc(c(-c5c(F)cc(S(=O)(=O)[O-])cc5F)c5ccc([nH]5)c(-c5c(F)cc(S(=O)(=O)[O-])cc5F)c5nc(c(-c6c(F)cc(S(=O)(=O)[O-])cc6F)c6ccc3[nH]6)C=C5)C=C4)cc2)cc1F
REMARK SMILES IDX 22 1 21 2 19 3 20 4 17 5 18 6 16 7 13 8 14 9 94 10 15 11
REMARK SMILES IDX 93 12 95 13 12 14 4 15 5 16 6 17 8 18 7 19 3 20 2 21 1 22
REMARK SMILES IDX 9 23 10 24 11 25 23 26 24 27 25 28 26 29 27 30 28 31 92 32
REMARK SMILES IDX 29 33 91 34 30 35 31 36 32 37 85 38 33 39 90 40 84 41 86 42
REMARK SMILES IDX 34 43 89 44 83 45 82 46 35 48 69 49 48 50 68 51 49 52 52 53
REMARK SMILES IDX 67 54 87 55 50 56 51 57 66 59 88 60 53 61 36 62 37 63 46 64
REMARK SMILES IDX 38 65 39 66 45 67 47 68 40 69 41 70 42 71 43 72 44 73 70 74
REMARK SMILES IDX 71 75 80 76 72 77 73 78 79 79 81 80 74 81 75 82 76 83 77 84
REMARK SMILES IDX 78 85 54 86 55 87 64 88 56 89 57 90 63 91 65 92 58 93 59 94
REMARK SMILES IDX 60 95 61 96 62 97
REMARK H PARENT 86 47 52 58
REMARK Flexibility Score: inf
ROOT
ATOM      1  C   UNL A   1      31.676  29.380  26.283  1.00  0.00     0.274 C 
ENDROOT
BRANCH   1   2
ATOM      2  O   UNL A   1      32.453  29.725  25.118  1.00  0.00    -0.462 OA
BRANCH   2   3
ATOM      3  C   UNL A   1      32.373  28.894  24.048  1.00  0.00     0.313 C 
ATOM      4  O   UNL A   1      31.330  28.665  23.441  1.00  0.00    -0.252 OA
BRANCH   3   5
ATOM      5  C   UNL A   1      33.684  28.198  23.689  1.00  0.00     0.126 C 
ATOM      6  C   UNL A   1      34.067  28.515  22.246  1.00  0.00     0.025 C 
BRANCH   5   7
ATOM      7  C   UNL A   1      33.811  26.706  23.974  1.00  0.00    -0.031 A 
ATOM      8  C   UNL A   1      33.852  23.897  24.456  1.00  0.00     0.025 A 
ATOM      9  C   UNL A   1      34.065  24.817  25.491  1.00  0.00     0.012 A 
ATOM     10  C   UNL A   1      33.689  24.407  23.163  1.00  0.00     0.131 A 
ATOM     11  C   UNL A   1      33.994  26.195  25.264  1.00  0.00     0.005 A 
ATOM     12  C   UNL A   1      33.675  25.784  22.921  1.00  0.00     0.044 A 
ATOM     13  F   UNL A   1      33.489  23.578  22.128  1.00  0.00    -0.206 F 
BRANCH   8  14
ATOM     14  C   UNL A   1      33.811  22.455  24.754  1.00  0.00     0.069 A 
ATOM     15  C   UNL A   1      32.563  21.889  25.125  1.00  0.00     0.130 A 
ATOM     16  C   UNL A   1      32.387  20.515  25.317  1.00  0.00     0.047 A 
ATOM     17  C   UNL A   1      33.460  19.659  25.134  1.00  0.00     0.008 A 
ATOM     18  C   UNL A   1      34.907  21.573  24.616  1.00  0.00     0.130 A 
ATOM     19  C   UNL A   1      34.704  20.190  24.801  1.00  0.00     0.047 A 
BRANCH  15  20
ATOM     20  O   UNL A   1      31.510  22.723  25.410  1.00  0.00    -0.493 OA
BRANCH  20  21
ATOM     21  C   UNL A   1      31.259  22.866  26.809  1.00  0.00     0.226 C 
ATOM     22  C   UNL A   1      29.757  22.876  27.004  1.00  0.00     0.049 C 
ENDBRANCH  20  21
ENDBRANCH  15  20
BRANCH  18  23
ATOM     23  O   UNL A   1      36.223  21.805  24.318  1.00  0.00    -0.493 OA
BRANCH  23  24
ATOM     24  C   UNL A   1      37.254  21.939  25.284  1.00  0.00     0.226 C 
ATOM     25  C   UNL A   1      37.445  23.412  25.604  1.00  0.00     0.049 C 
ENDBRANCH  23  24
ENDBRANCH  18  23
ENDBRANCH   8  14
ENDBRANCH   5   7
ENDBRANCH   3   5
ENDBRANCH   2   3
ENDBRANCH   1   2
BRANCH   1  26
ATOM     26  C   UNL A   1      32.563  28.863  27.422  1.00  0.00     0.275 C 
BRANCH  26  27
ATOM     27  O   UNL A   1      33.960  29.090  27.158  1.00  0.00    -0.458 OA
BRANCH  27  28
ATOM     28  C   UNL A   1      34.478  30.166  27.791  1.00  0.00     0.338 C 
ATOM     29  O   UNL A   1      33.871  31.177  28.116  1.00  0.00    -0.246 OA
BRANCH  28  30
ATOM     30  C   UNL A   1      35.867  29.924  28.192  1.00  0.00     0.060 A 
ATOM     31  C   UNL A   1      36.854  30.033  27.209  1.00  0.00     0.016 A 
ATOM     32  C   UNL A   1      36.192  29.514  29.486  1.00  0.00     0.016 A 
ATOM     33  C   UNL A   1      38.179  29.748  27.514  1.00  0.00     0.010 A 
ATOM     34  C   UNL A   1      37.525  29.227  29.792  1.00  0.00     0.010 A 
ATOM     35  C   UNL A   1      38.523  29.342  28.809  1.00  0.00    -0.014 A 
BRANCH  35  36
ATOM     36  C   UNL A   1      39.936  29.032  29.118  1.00  0.00     0.031 A 
ATOM     37  C   UNL A   1      40.808  30.064  29.770  1.00  0.00     0.074 A 
ATOM     38  C   UNL A   1      40.418  27.808  28.831  1.00  0.00     0.049 A 
ATOM     39  N   UNL A   1      42.084  30.009  30.048  1.00  0.00    -0.248 NA
ATOM     40  C   UNL A   1      40.157  31.325  30.159  1.00  0.00     0.031 C 
ATOM     41  C   UNL A   1      39.642  26.716  28.240  1.00  0.00     0.029 A 
ATOM     42  N   UNL A   1      41.672  27.277  28.995  1.00  0.00    -0.354 N 
ATOM     43  C   UNL A   1      42.397  31.233  30.627  1.00  0.00     0.074 A 
ATOM     44  C   UNL A   1      41.179  32.015  30.648  1.00  0.00     0.031 C 
ATOM     45  C   UNL A   1      40.437  25.645  28.091  1.00  0.00     0.029 A 
ATOM     46  C   UNL A   1      41.786  25.989  28.532  1.00  0.00     0.049 A 
ATOM     47  H   UNL A   1      42.417  27.772  29.406  1.00  0.00     0.167 HD
ATOM     48  C   UNL A   1      43.595  31.659  31.094  1.00  0.00     0.037 A 
ATOM     49  C   UNL A   1      42.865  25.187  28.446  1.00  0.00     0.037 A 
ATOM     50  C   UNL A   1      44.796  30.862  31.077  1.00  0.00     0.049 A 
ATOM     51  C   UNL A   1      44.193  25.700  28.930  1.00  0.00     0.074 A 
ATOM     52  C   UNL A   1      46.060  31.198  31.530  1.00  0.00     0.029 A 
ATOM     53  N   UNL A   1      44.881  29.569  30.579  1.00  0.00    -0.354 N 
ATOM     54  N   UNL A   1      44.480  26.866  29.460  1.00  0.00    -0.248 NA
ATOM     55  C   UNL A   1      45.342  24.796  28.799  1.00  0.00     0.031 C 
ATOM     56  C   UNL A   1      46.916  30.120  31.273  1.00  0.00     0.029 A 
ATOM     57  C   UNL A   1      46.178  29.099  30.698  1.00  0.00     0.049 A 
ATOM     58  H   UNL A   1      44.128  29.061  30.197  1.00  0.00     0.167 HD
ATOM     59  C   UNL A   1      45.841  26.830  29.742  1.00  0.00     0.074 A 
ATOM     60  C   UNL A   1      46.315  25.522  29.334  1.00  0.00     0.031 C 
ATOM     61  C   UNL A   1      46.627  27.791  30.286  1.00  0.00     0.037 A 
BRANCH  48  62
ATOM     62  C   UNL A   1      43.672  33.060  31.631  1.00  0.00     0.058 A 
ATOM     63  C   UNL A   1      43.910  34.163  30.795  1.00  0.00     0.135 A 
ATOM     64  C   UNL A   1      43.485  33.306  33.001  1.00  0.00     0.135 A 
ATOM     65  F   UNL A   1      44.112  33.983  29.481  1.00  0.00    -0.206 F 
ATOM     66  C   UNL A   1      43.985  35.457  31.303  1.00  0.00     0.059 A 
ATOM     67  C   UNL A   1      43.534  34.594  33.527  1.00  0.00     0.059 A 
ATOM     68  F   UNL A   1      43.257  32.287  33.845  1.00  0.00    -0.206 F 
ATOM     69  C   UNL A   1      43.800  35.661  32.672  1.00  0.00     0.060 A 
BRANCH  69  70
ATOM     70  S   UNL A   1      43.907  37.343  33.321  1.00  0.00     0.124 S 
ATOM     71  O   UNL A   1      43.894  38.130  32.092  1.00  0.00    -0.237 OA
ATOM     72  O   UNL A   1      42.708  37.440  34.147  1.00  0.00    -0.237 OA
ATOM     73  O   UNL A   1      45.169  37.346  34.053  1.00  0.00    -0.744 OA
ENDBRANCH  69  70
ENDBRANCH  48  62
BRANCH  49  74
ATOM     74  C   UNL A   1      42.731  23.830  27.858  1.00  0.00     0.058 A 
ATOM     75  C   UNL A   1      42.552  22.702  28.671  1.00  0.00     0.135 A 
ATOM     76  C   UNL A   1      42.751  23.638  26.467  1.00  0.00     0.135 A 
ATOM     77  F   UNL A   1      42.535  22.834  30.005  1.00  0.00    -0.206 F 
ATOM     78  C   UNL A   1      42.406  21.430  28.128  1.00  0.00     0.059 A 
ATOM     79  C   UNL A   1      42.583  22.379  25.900  1.00  0.00     0.059 A 
ATOM     80  F   UNL A   1      42.907  24.688  25.646  1.00  0.00    -0.206 F 
ATOM     81  C   UNL A   1      42.419  21.279  26.739  1.00  0.00     0.060 A 
BRANCH  81  82
ATOM     82  S   UNL A   1      42.169  19.632  26.040  1.00  0.00     0.124 S 
ATOM     83  O   UNL A   1      43.067  19.662  24.892  1.00  0.00    -0.237 OA
ATOM     84  O   UNL A   1      42.569  18.764  27.143  1.00  0.00    -0.237 OA
ATOM     85  O   UNL A   1      40.743  19.616  25.727  1.00  0.00    -0.744 OA
ENDBRANCH  81  82
ENDBRANCH  49  74
BRANCH  61  86
ATOM     86  C   UNL A   1      48.075  27.453  30.496  1.00  0.00     0.058 A 
ATOM     87  C   UNL A   1      48.514  26.795  31.655  1.00  0.00     0.135 A 
ATOM     88  C   UNL A   1      49.027  27.752  29.509  1.00  0.00     0.135 A 
ATOM     89  F   UNL A   1      47.644  26.495  32.633  1.00  0.00    -0.206 F 
ATOM     90  C   UNL A   1      49.852  26.461  31.836  1.00  0.00     0.059 A 
ATOM     91  C   UNL A   1      50.365  27.408  29.658  1.00  0.00     0.059 A 
ATOM     92  F   UNL A   1      48.655  28.374  28.377  1.00  0.00    -0.206 F 
ATOM     93  C   UNL A   1      50.771  26.772  30.831  1.00  0.00     0.060 A 
BRANCH  93  94
ATOM     94  S   UNL A   1      52.500  26.306  31.061  1.00  0.00     0.124 S 
ATOM     95  O   UNL A   1      53.004  27.426  31.849  1.00  0.00    -0.237 OA
ATOM     96  O   UNL A   1      52.391  25.033  31.768  1.00  0.00    -0.237 OA
ATOM     97  O   UNL A   1      53.011  26.215  29.697  1.00  0.00    -0.744 OA
ENDBRANCH  93  94
ENDBRANCH  61  86
ENDBRANCH  35  36
ENDBRANCH  28  30
ENDBRANCH  27  28
ENDBRANCH  26  27
ENDBRANCH   1  26
TORSDOF 20
ENDMDL
MODEL 3
REMARK VINA RESULT:     -10.8      6.585     12.178
REMARK SMILES CCOc1cccc(OCC)c1-c1ccc([C@@H](C)C(=O)OCCOC(=O)c2ccc(-c3c4nc(c(-c5c(F)cc(S(=O)(=O)[O-])cc5F)c5ccc([nH]5)c(-c5c(F)cc(S(=O)(=O)[O-])cc5F)c5nc(c(-c6c(F)cc(S(=O)(=O)[O-])cc6F)c6ccc3[nH]6)C=C5)C=C4)cc2)cc1F
REMARK SMILES IDX 22 1 21 2 19 3 20 4 17 5 18 6 16 7 13 8 14 9 94 10 15 11
REMARK SMILES IDX 93 12 95 13 12 14 4 15 5 16 6 17 8 18 7 19 3 20 2 21 1 22
REMARK SMILES IDX 9 23 10 24 11 25 23 26 24 27 25 28 26 29 27 30 28 31 92 32
REMARK SMILES IDX 29 33 91 34 30 35 31 36 32 37 85 38 33 39 90 40 84 41 86 42
REMARK SMILES IDX 34 43 89 44 83 45 82 46 35 48 69 49 48 50 68 51 49 52 52 53
REMARK SMILES IDX 67 54 87 55 50 56 51 57 66 59 88 60 53 61 36 62 37 63 46 64
REMARK SMILES IDX 38 65 39 66 45 67 47 68 40 69 41 70 42 71 43 72 44 73 70 74
REMARK SMILES IDX 71 75 80 76 72 77 73 78 79 79 81 80 74 81 75 82 76 83 77 84
REMARK SMILES IDX 78 85 54 86 55 87 64 88 56 89 57 90 63 91 65 92 58 93 59 94
REMARK SMILES IDX 60 95 61 96 62 97
REMARK H PARENT 86 47 52 58
REMARK Flexibility Score: inf
ROOT
ATOM      1  C   UNL A   1      37.511  22.615  25.325  1.00  0.00     0.274 C 
ENDROOT
BRANCH   1   2
ATOM      2  O   UNL A   1      36.753  21.515  25.868  1.00  0.00    -0.462 OA
BRANCH   2   3
ATOM      3  C   UNL A   1      35.405  21.551  25.712  1.00  0.00     0.313 C 
ATOM      4  O   UNL A   1      34.793  20.841  24.918  1.00  0.00    -0.252 OA
BRANCH   3   5
ATOM      5  C   UNL A   1      34.699  22.606  26.561  1.00  0.00     0.126 C 
ATOM      6  C   UNL A   1      33.865  21.931  27.647  1.00  0.00     0.025 C 
BRANCH   5   7
ATOM      7  C   UNL A   1      33.896  23.687  25.847  1.00  0.00    -0.031 A 
ATOM      8  C   UNL A   1      32.456  25.840  24.657  1.00  0.00     0.025 A 
ATOM      9  C   UNL A   1      31.794  24.719  25.174  1.00  0.00     0.012 A 
ATOM     10  C   UNL A   1      33.855  25.832  24.683  1.00  0.00     0.131 A 
ATOM     11  C   UNL A   1      32.497  23.687  25.804  1.00  0.00     0.005 A 
ATOM     12  C   UNL A   1      34.566  24.775  25.259  1.00  0.00     0.044 A 
ATOM     13  F   UNL A   1      34.548  26.873  24.196  1.00  0.00    -0.206 F 
BRANCH   8  14
ATOM     14  C   UNL A   1      31.676  26.965  24.113  1.00  0.00     0.069 A 
ATOM     15  C   UNL A   1      31.370  28.044  24.984  1.00  0.00     0.130 A 
ATOM     16  C   UNL A   1      30.737  29.210  24.543  1.00  0.00     0.047 A 
ATOM     17  C   UNL A   1      30.397  29.337  23.207  1.00  0.00     0.008 A 
ATOM     18  C   UNL A   1      31.281  27.091  22.761  1.00  0.00     0.130 A 
ATOM     19  C   UNL A   1      30.656  28.282  22.336  1.00  0.00     0.047 A 
BRANCH  15  20
ATOM     20  O   UNL A   1      31.606  27.903  26.329  1.00  0.00    -0.493 OA
BRANCH  20  21
ATOM     21  C   UNL A   1      32.226  29.046  26.921  1.00  0.00     0.226 C 
ATOM     22  C   UNL A   1      33.725  28.854  26.821  1.00  0.00     0.049 C 
ENDBRANCH  20  21
ENDBRANCH  15  20
BRANCH  18  23
ATOM     23  O   UNL A   1      31.388  26.229  21.704  1.00  0.00    -0.493 OA
BRANCH  23  24
ATOM     24  C   UNL A   1      32.613  25.697  21.222  1.00  0.00     0.226 C 
ATOM     25  C   UNL A   1      32.521  25.525  19.715  1.00  0.00     0.049 C 
ENDBRANCH  23  24
ENDBRANCH  18  23
ENDBRANCH   8  14
ENDBRANCH   5   7
ENDBRANCH   3   5
ENDBRANCH   2   3
ENDBRANCH   1   2
BRANCH   1  26
ATOM     26  C   UNL A   1      38.748  22.925  26.176  1.00  0.00     0.275 C 
BRANCH  26  27
ATOM     27  O   UNL A   1      39.107  24.318  26.113  1.00  0.00    -0.458 OA
BRANCH  27  28
ATOM     28  C   UNL A   1      40.311  24.607  26.653  1.00  0.00     0.338 C 
ATOM     29  O   UNL A   1      41.395  24.178  26.280  1.00  0.00    -0.246 OA
BRANCH  28  30
ATOM     30  C   UNL A   1      40.192  25.643  27.683  1.00  0.00     0.060 A 
ATOM     31  C   UNL A   1      41.123  26.685  27.665  1.00  0.00     0.016 A 
ATOM     32  C   UNL A   1      39.240  25.554  28.700  1.00  0.00     0.016 A 
ATOM     33  C   UNL A   1      41.101  27.658  28.657  1.00  0.00     0.010 A 
ATOM     34  C   UNL A   1      39.220  26.534  29.697  1.00  0.00     0.010 A 
ATOM     35  C   UNL A   1      40.150  27.588  29.680  1.00  0.00    -0.014 A 
BRANCH  35  36
ATOM     36  C   UNL A   1      40.144  28.624  30.736  1.00  0.00     0.031 A 
ATOM     37  C   UNL A   1      41.100  28.529  31.888  1.00  0.00     0.074 A 
ATOM     38  C   UNL A   1      39.291  29.661  30.635  1.00  0.00     0.049 A 
ATOM     39  N   UNL A   1      41.195  29.292  32.945  1.00  0.00    -0.248 NA
ATOM     40  C   UNL A   1      42.076  27.430  31.845  1.00  0.00     0.031 C 
ATOM     41  C   UNL A   1      38.353  29.874  29.531  1.00  0.00     0.029 A 
ATOM     42  N   UNL A   1      39.074  30.727  31.469  1.00  0.00    -0.354 N 
ATOM     43  C   UNL A   1      42.228  28.756  33.705  1.00  0.00     0.074 A 
ATOM     44  C   UNL A   1      42.720  27.596  32.993  1.00  0.00     0.031 C 
ATOM     45  C   UNL A   1      37.661  31.001  29.756  1.00  0.00     0.029 A 
ATOM     46  C   UNL A   1      38.072  31.564  31.039  1.00  0.00     0.049 A 
ATOM     47  H   UNL A   1      39.587  30.879  32.295  1.00  0.00     0.167 HD
ATOM     48  C   UNL A   1      42.715  29.197  34.890  1.00  0.00     0.037 A 
ATOM     49  C   UNL A   1      37.529  32.646  31.629  1.00  0.00     0.037 A 
ATOM     50  C   UNL A   1      42.222  30.362  35.580  1.00  0.00     0.049 A 
ATOM     51  C   UNL A   1      38.057  33.088  32.965  1.00  0.00     0.074 A 
ATOM     52  C   UNL A   1      42.650  30.898  36.783  1.00  0.00     0.029 A 
ATOM     53  N   UNL A   1      41.191  31.174  35.126  1.00  0.00    -0.354 N 
ATOM     54  N   UNL A   1      39.023  32.564  33.682  1.00  0.00    -0.248 NA
ATOM     55  C   UNL A   1      37.420  34.262  33.576  1.00  0.00     0.031 C 
ATOM     56  C   UNL A   1      41.853  32.011  37.073  1.00  0.00     0.029 A 
ATOM     57  C   UNL A   1      40.956  32.194  36.032  1.00  0.00     0.049 A 
ATOM     58  H   UNL A   1      40.698  31.042  34.284  1.00  0.00     0.167 HD
ATOM     59  C   UNL A   1      39.122  33.353  34.822  1.00  0.00     0.074 A 
ATOM     60  C   UNL A   1      38.125  34.398  34.692  1.00  0.00     0.031 C 
ATOM     61  C   UNL A   1      39.959  33.225  35.881  1.00  0.00     0.037 A 
BRANCH  48  62
ATOM     62  C   UNL A   1      43.814  28.396  35.530  1.00  0.00     0.058 A 
ATOM     63  C   UNL A   1      45.168  28.633  35.245  1.00  0.00     0.135 A 
ATOM     64  C   UNL A   1      43.507  27.389  36.459  1.00  0.00     0.135 A 
ATOM     65  F   UNL A   1      45.517  29.573  34.353  1.00  0.00    -0.206 F 
ATOM     66  C   UNL A   1      46.178  27.881  35.839  1.00  0.00     0.059 A 
ATOM     67  C   UNL A   1      44.502  26.639  37.082  1.00  0.00     0.059 A 
ATOM     68  F   UNL A   1      42.228  27.119  36.765  1.00  0.00    -0.206 F 
ATOM     69  C   UNL A   1      45.834  26.883  36.753  1.00  0.00     0.060 A 
BRANCH  69  70
ATOM     70  S   UNL A   1      47.152  25.909  37.512  1.00  0.00     0.124 S 
ATOM     71  O   UNL A   1      48.249  26.122  36.573  1.00  0.00    -0.237 OA
ATOM     72  O   UNL A   1      47.302  26.545  38.817  1.00  0.00    -0.237 OA
ATOM     73  O   UNL A   1      46.604  24.557  37.538  1.00  0.00    -0.744 OA
ENDBRANCH  69  70
ENDBRANCH  48  62
BRANCH  49  74
ATOM     74  C   UNL A   1      36.410  33.364  30.966  1.00  0.00     0.058 A 
ATOM     75  C   UNL A   1      35.111  33.323  31.490  1.00  0.00     0.135 A 
ATOM     76  C   UNL A   1      36.626  34.130  29.809  1.00  0.00     0.135 A 
ATOM     77  F   UNL A   1      34.854  32.599  32.589  1.00  0.00    -0.206 F 
ATOM     78  C   UNL A   1      34.061  34.009  30.886  1.00  0.00     0.059 A 
ATOM     79  C   UNL A   1      35.599  34.843  29.201  1.00  0.00     0.059 A 
ATOM     80  F   UNL A   1      37.855  34.211  29.276  1.00  0.00    -0.206 F 
ATOM     81  C   UNL A   1      34.317  34.770  29.743  1.00  0.00     0.060 A 
BRANCH  81  82
ATOM     82  S   UNL A   1      32.962  35.705  29.000  1.00  0.00     0.124 S 
ATOM     83  O   UNL A   1      33.680  36.794  28.348  1.00  0.00    -0.237 OA
ATOM     84  O   UNL A   1      32.355  34.717  28.112  1.00  0.00    -0.237 OA
ATOM     85  O   UNL A   1      32.147  36.084  30.151  1.00  0.00    -0.744 OA
ENDBRANCH  81  82
ENDBRANCH  49  74
BRANCH  61  86
ATOM     86  C   UNL A   1      39.849  34.255  36.969  1.00  0.00     0.058 A 
ATOM     87  C   UNL A   1      40.393  35.540  36.819  1.00  0.00     0.135 A 
ATOM     88  C   UNL A   1      39.157  33.968  38.155  1.00  0.00     0.135 A 
ATOM     89  F   UNL A   1      41.072  35.862  35.706  1.00  0.00    -0.206 F 
ATOM     90  C   UNL A   1      40.269  36.500  37.817  1.00  0.00     0.059 A 
ATOM     91  C   UNL A   1      39.001  34.919  39.156  1.00  0.00     0.059 A 
ATOM     92  F   UNL A   1      38.611  32.754  38.342  1.00  0.00    -0.206 F 
ATOM     93  C   UNL A   1      39.570  36.180  38.984  1.00  0.00     0.060 A 
BRANCH  93  94
ATOM     94  S   UNL A   1      39.387  37.443  40.260  1.00  0.00     0.124 S 
ATOM     95  O   UNL A   1      38.610  38.460  39.559  1.00  0.00    -0.237 OA
ATOM     96  O   UNL A   1      38.681  36.723  41.317  1.00  0.00    -0.237 OA
ATOM     97  O   UNL A   1      40.765  37.809  40.574  1.00  0.00    -0.744 OA
ENDBRANCH  93  94
ENDBRANCH  61  86
ENDBRANCH  35  36
ENDBRANCH  28  30
ENDBRANCH  27  28
ENDBRANCH  26  27
ENDBRANCH   1  26
TORSDOF 20
ENDMDL
