MODEL 1
REMARK VINA RESULT:      -9.4      0.000      0.000
REMARK SMILES C[NH2+]CCCC(=O)NC[C@@H]1CC[C@H](C(=O)OCCOC(=O)c2ccc(-c3c4nc(c(-c5c(F)cc(S(=O)(=O)[O-])cc5F)c5ccc([nH]5)c(-c5c(F)cc(S(=O)(=O)[O-])cc5F)c5nc(c(-c6c(F)cc(S(=O)(=O)[O-])cc6F)c6ccc3[nH]6)C=C5)C=C4)cc2)O1
REMARK SMILES IDX 16 1 14 2 15 3 13 4 10 5 11 6 88 7 12 8 9 9 8 10 6 11 7 12
REMARK SMILES IDX 5 14 4 15 3 16 2 17 1 18 17 21 18 22 19 23 20 24 21 25 22 26
REMARK SMILES IDX 23 27 87 28 24 29 86 30 25 31 26 32 27 33 80 34 28 35 85 36
REMARK SMILES IDX 79 37 81 38 29 39 84 40 78 41 77 42 30 44 64 45 43 46 63 47
REMARK SMILES IDX 44 48 47 49 62 50 82 51 45 52 46 53 61 55 83 56 48 57 31 58
REMARK SMILES IDX 32 59 41 60 33 61 34 62 40 63 42 64 35 65 36 66 37 67 38 68
REMARK SMILES IDX 39 69 65 70 66 71 75 72 67 73 68 74 74 75 76 76 69 77 70 78
REMARK SMILES IDX 71 79 72 80 73 81 49 82 50 83 59 84 51 85 52 86 58 87 60 88
REMARK SMILES IDX 53 89 54 90 55 91 56 92 57 93
REMARK H PARENT 8 13 2 19 2 20 81 43 47 54
REMARK Flexibility Score: inf
ROOT
ATOM      1  O   UNL A   1      34.878  33.628  32.489  1.00  0.00    -0.460 OA
ENDROOT
BRANCH   1   2
ATOM      2  C   UNL A   1      34.860  34.963  32.756  1.00  0.00     0.335 C 
ATOM      3  O   UNL A   1      35.842  35.610  33.102  1.00  0.00    -0.249 OA
BRANCH   2   4
ATOM      4  C   UNL A   1      33.456  35.578  32.587  1.00  0.00     0.228 C 
ATOM      5  C   UNL A   1      32.699  35.725  30.392  1.00  0.00     0.138 C 
ATOM      6  C   UNL A   1      33.515  36.971  30.705  1.00  0.00     0.037 C 
ATOM      7  O   UNL A   1      32.723  34.893  31.566  1.00  0.00    -0.361 OA
ATOM      8  C   UNL A   1      33.427  37.046  32.207  1.00  0.00     0.047 C 
BRANCH   5   9
ATOM      9  C   UNL A   1      33.224  34.896  29.215  1.00  0.00     0.147 C 
BRANCH   9  10
ATOM     10  N   UNL A   1      34.677  34.979  29.156  1.00  0.00    -0.353 N 
ATOM     11  C   UNL A   1      35.608  33.994  29.251  1.00  0.00     0.220 C 
ATOM     12  O   UNL A   1      36.794  34.300  29.381  1.00  0.00    -0.275 OA
ATOM     13  H   UNL A   1      35.038  35.886  29.027  1.00  0.00     0.163 HD
BRANCH  11  14
ATOM     14  C   UNL A   1      35.189  32.541  29.169  1.00  0.00     0.106 C 
BRANCH  14  15
ATOM     15  C   UNL A   1      35.513  31.880  27.827  1.00  0.00     0.071 C 
BRANCH  15  16
ATOM     16  C   UNL A   1      35.202  30.385  27.721  1.00  0.00     0.260 C 
BRANCH  16  17
ATOM     17  N   UNL A   1      33.773  30.063  27.728  1.00  0.00    -0.349 N 
ATOM     18  C   UNL A   1      33.496  28.727  27.226  1.00  0.00     0.330 C 
ATOM     19  H   UNL A   1      33.428  30.131  28.685  1.00  0.00     0.346 HD
ATOM     20  H   UNL A   1      33.306  30.727  27.110  1.00  0.00     0.346 HD
ENDBRANCH  16  17
ENDBRANCH  15  16
ENDBRANCH  14  15
ENDBRANCH  11  14
ENDBRANCH   9  10
ENDBRANCH   5   9
ENDBRANCH   2   4
ENDBRANCH   1   2
BRANCH   1  21
ATOM     21  C   UNL A   1      35.788  32.817  33.254  1.00  0.00     0.274 C 
BRANCH  21  22
ATOM     22  C   UNL A   1      37.028  32.489  32.423  1.00  0.00     0.275 C 
BRANCH  22  23
ATOM     23  O   UNL A   1      37.452  31.134  32.659  1.00  0.00    -0.458 OA
BRANCH  23  24
ATOM     24  C   UNL A   1      37.085  30.243  31.707  1.00  0.00     0.338 C 
ATOM     25  O   UNL A   1      35.958  29.903  31.403  1.00  0.00    -0.246 OA
BRANCH  24  26
ATOM     26  C   UNL A   1      38.274  29.824  30.953  1.00  0.00     0.060 A 
ATOM     27  C   UNL A   1      39.344  29.294  31.672  1.00  0.00     0.016 A 
ATOM     28  C   UNL A   1      38.386  30.051  29.585  1.00  0.00     0.016 A 
ATOM     29  C   UNL A   1      40.551  29.021  31.043  1.00  0.00     0.010 A 
ATOM     30  C   UNL A   1      39.590  29.736  28.940  1.00  0.00     0.010 A 
ATOM     31  C   UNL A   1      40.685  29.237  29.669  1.00  0.00    -0.014 A 
BRANCH  31  32
ATOM     32  C   UNL A   1      41.992  28.985  29.014  1.00  0.00     0.031 A 
ATOM     33  C   UNL A   1      42.288  27.629  28.440  1.00  0.00     0.074 A 
ATOM     34  C   UNL A   1      42.894  29.980  28.903  1.00  0.00     0.049 A 
ATOM     35  N   UNL A   1      43.413  27.160  27.967  1.00  0.00    -0.248 NA
ATOM     36  C   UNL A   1      41.171  26.671  28.397  1.00  0.00     0.031 C 
ATOM     37  C   UNL A   1      42.696  31.358  29.362  1.00  0.00     0.029 A 
ATOM     38  N   UNL A   1      44.156  29.987  28.366  1.00  0.00    -0.354 N 
ATOM     39  C   UNL A   1      43.156  25.841  27.615  1.00  0.00     0.074 A 
ATOM     40  C   UNL A   1      41.765  25.584  27.924  1.00  0.00     0.031 C 
ATOM     41  C   UNL A   1      43.791  32.078  29.074  1.00  0.00     0.029 A 
ATOM     42  C   UNL A   1      44.791  31.202  28.473  1.00  0.00     0.049 A 
ATOM     43  H   UNL A   1      44.567  29.198  27.946  1.00  0.00     0.167 HD
ATOM     44  C   UNL A   1      44.007  24.928  27.090  1.00  0.00     0.037 A 
ATOM     45  C   UNL A   1      46.052  31.558  28.161  1.00  0.00     0.037 A 
ATOM     46  C   UNL A   1      45.377  25.207  26.749  1.00  0.00     0.049 A 
ATOM     47  C   UNL A   1      46.985  30.523  27.601  1.00  0.00     0.074 A 
ATOM     48  C   UNL A   1      46.327  24.351  26.221  1.00  0.00     0.029 A 
ATOM     49  N   UNL A   1      45.988  26.445  26.890  1.00  0.00    -0.354 N 
ATOM     50  N   UNL A   1      46.749  29.259  27.339  1.00  0.00    -0.248 NA
ATOM     51  C   UNL A   1      48.360  30.953  27.313  1.00  0.00     0.031 C 
ATOM     52  C   UNL A   1      47.520  25.066  26.061  1.00  0.00     0.029 A 
ATOM     53  C   UNL A   1      47.303  26.376  26.462  1.00  0.00     0.049 A 
ATOM     54  H   UNL A   1      45.551  27.255  27.240  1.00  0.00     0.167 HD
ATOM     55  C   UNL A   1      47.943  28.744  26.850  1.00  0.00     0.074 A 
ATOM     56  C   UNL A   1      48.895  29.837  26.836  1.00  0.00     0.031 C 
ATOM     57  C   UNL A   1      48.230  27.479  26.455  1.00  0.00     0.037 A 
BRANCH  44  58
ATOM     58  C   UNL A   1      43.488  23.533  26.892  1.00  0.00     0.058 A 
ATOM     59  C   UNL A   1      43.128  23.048  25.627  1.00  0.00     0.135 A 
ATOM     60  C   UNL A   1      43.365  22.664  27.989  1.00  0.00     0.135 A 
ATOM     61  F   UNL A   1      43.208  23.845  24.549  1.00  0.00    -0.206 F 
ATOM     62  C   UNL A   1      42.640  21.755  25.457  1.00  0.00     0.059 A 
ATOM     63  C   UNL A   1      42.897  21.362  27.840  1.00  0.00     0.059 A 
ATOM     64  F   UNL A   1      43.691  23.082  29.221  1.00  0.00    -0.206 F 
ATOM     65  C   UNL A   1      42.522  20.922  26.572  1.00  0.00     0.060 A 
BRANCH  65  66
ATOM     66  S   UNL A   1      41.880  19.250  26.344  1.00  0.00     0.124 S 
ATOM     67  O   UNL A   1      40.512  19.522  25.912  1.00  0.00    -0.237 OA
ATOM     68  O   UNL A   1      42.769  18.705  25.323  1.00  0.00    -0.237 OA
ATOM     69  O   UNL A   1      42.012  18.653  27.670  1.00  0.00    -0.744 OA
ENDBRANCH  65  66
ENDBRANCH  44  58
BRANCH  45  70
ATOM     70  C   UNL A   1      46.511  32.948  28.413  1.00  0.00     0.058 A 
ATOM     71  C   UNL A   1      47.074  33.313  29.644  1.00  0.00     0.135 A 
ATOM     72  C   UNL A   1      46.417  33.933  27.416  1.00  0.00     0.135 A 
ATOM     73  F   UNL A   1      47.175  32.409  30.630  1.00  0.00    -0.206 F 
ATOM     74  C   UNL A   1      47.525  34.608  29.882  1.00  0.00     0.059 A 
ATOM     75  C   UNL A   1      46.882  35.227  27.622  1.00  0.00     0.059 A 
ATOM     76  F   UNL A   1      45.895  33.630  26.218  1.00  0.00    -0.206 F 
ATOM     77  C   UNL A   1      47.427  35.558  28.863  1.00  0.00     0.060 A 
BRANCH  77  78
ATOM     78  S   UNL A   1      48.069  37.221  29.151  1.00  0.00     0.124 S 
ATOM     79  O   UNL A   1      48.109  37.271  30.608  1.00  0.00    -0.237 OA
ATOM     80  O   UNL A   1      49.365  37.177  28.479  1.00  0.00    -0.237 OA
ATOM     81  O   UNL A   1      47.073  38.077  28.515  1.00  0.00    -0.744 OA
ENDBRANCH  77  78
ENDBRANCH  45  70
BRANCH  57  82
ATOM     82  C   UNL A   1      49.621  27.218  25.957  1.00  0.00     0.058 A 
ATOM     83  C   UNL A   1      50.644  26.814  26.827  1.00  0.00     0.135 A 
ATOM     84  C   UNL A   1      49.921  27.335  24.592  1.00  0.00     0.135 A 
ATOM     85  F   UNL A   1      50.404  26.696  28.143  1.00  0.00    -0.206 F 
ATOM     86  C   UNL A   1      51.926  26.547  26.361  1.00  0.00     0.059 A 
ATOM     87  C   UNL A   1      51.192  27.056  24.101  1.00  0.00     0.059 A 
ATOM     88  F   UNL A   1      48.972  27.712  23.720  1.00  0.00    -0.206 F 
ATOM     89  C   UNL A   1      52.191  26.673  24.996  1.00  0.00     0.060 A 
BRANCH  89  90
ATOM     90  S   UNL A   1      53.850  26.293  24.392  1.00  0.00     0.124 S 
ATOM     91  O   UNL A   1      53.578  25.911  23.010  1.00  0.00    -0.237 OA
ATOM     92  O   UNL A   1      54.551  27.559  24.574  1.00  0.00    -0.237 OA
ATOM     93  O   UNL A   1      54.288  25.211  25.270  1.00  0.00    -0.744 OA
ENDBRANCH  89  90
ENDBRANCH  57  82
ENDBRANCH  31  32
ENDBRANCH  24  26
ENDBRANCH  23  24
ENDBRANCH  22  23
ENDBRANCH  21  22
ENDBRANCH   1  21
TORSDOF 20
ENDMDL
MODEL 2
REMARK VINA RESULT:      -9.3      4.574      9.507
REMARK SMILES C[NH2+]CCCC(=O)NC[C@@H]1CC[C@H](C(=O)OCCOC(=O)c2ccc(-c3c4nc(c(-c5c(F)cc(S(=O)(=O)[O-])cc5F)c5ccc([nH]5)c(-c5c(F)cc(S(=O)(=O)[O-])cc5F)c5nc(c(-c6c(F)cc(S(=O)(=O)[O-])cc6F)c6ccc3[nH]6)C=C5)C=C4)cc2)O1
REMARK SMILES IDX 16 1 14 2 15 3 13 4 10 5 11 6 88 7 12 8 9 9 8 10 6 11 7 12
REMARK SMILES IDX 5 14 4 15 3 16 2 17 1 18 17 21 18 22 19 23 20 24 21 25 22 26
REMARK SMILES IDX 23 27 87 28 24 29 86 30 25 31 26 32 27 33 80 34 28 35 85 36
REMARK SMILES IDX 79 37 81 38 29 39 84 40 78 41 77 42 30 44 64 45 43 46 63 47
REMARK SMILES IDX 44 48 47 49 62 50 82 51 45 52 46 53 61 55 83 56 48 57 31 58
REMARK SMILES IDX 32 59 41 60 33 61 34 62 40 63 42 64 35 65 36 66 37 67 38 68
REMARK SMILES IDX 39 69 65 70 66 71 75 72 67 73 68 74 74 75 76 76 69 77 70 78
REMARK SMILES IDX 71 79 72 80 73 81 49 82 50 83 59 84 51 85 52 86 58 87 60 88
REMARK SMILES IDX 53 89 54 90 55 91 56 92 57 93
REMARK H PARENT 8 13 2 19 2 20 81 43 47 54
REMARK Flexibility Score: inf
ROOT
ATOM      1  O   UNL A   1      34.779  33.285  29.456  1.00  0.00    -0.460 OA
ENDROOT
BRANCH   1   2
ATOM      2  C   UNL A   1      35.726  32.824  30.320  1.00  0.00     0.335 C 
ATOM      3  O   UNL A   1      36.932  32.977  30.166  1.00  0.00    -0.249 OA
BRANCH   2   4
ATOM      4  C   UNL A   1      35.112  32.072  31.518  1.00  0.00     0.228 C 
ATOM      5  C   UNL A   1      34.687  33.380  33.394  1.00  0.00     0.138 C 
ATOM      6  C   UNL A   1      36.126  32.892  33.464  1.00  0.00     0.037 C 
ATOM      7  O   UNL A   1      34.124  32.878  32.169  1.00  0.00    -0.361 OA
ATOM      8  C   UNL A   1      36.091  31.658  32.600  1.00  0.00     0.047 C 
BRANCH   5   9
ATOM      9  C   UNL A   1      34.528  34.904  33.395  1.00  0.00     0.147 C 
BRANCH   9  10
ATOM     10  N   UNL A   1      33.128  35.260  33.212  1.00  0.00    -0.353 N 
ATOM     11  C   UNL A   1      32.578  36.403  32.724  1.00  0.00     0.220 C 
ATOM     12  O   UNL A   1      31.365  36.583  32.842  1.00  0.00    -0.275 OA
ATOM     13  H   UNL A   1      32.483  34.567  33.482  1.00  0.00     0.163 HD
BRANCH  11  14
ATOM     14  C   UNL A   1      33.447  37.424  32.020  1.00  0.00     0.106 C 
BRANCH  14  15
ATOM     15  C   UNL A   1      33.380  37.344  30.493  1.00  0.00     0.071 C 
BRANCH  15  16
ATOM     16  C   UNL A   1      32.831  36.038  29.912  1.00  0.00     0.260 C 
BRANCH  16  17
ATOM     17  N   UNL A   1      33.063  35.872  28.475  1.00  0.00    -0.349 N 
ATOM     18  C   UNL A   1      34.245  36.581  28.011  1.00  0.00     0.330 C 
ATOM     19  H   UNL A   1      33.179  34.878  28.276  1.00  0.00     0.346 HD
ATOM     20  H   UNL A   1      32.258  36.263  27.987  1.00  0.00     0.346 HD
ENDBRANCH  16  17
ENDBRANCH  15  16
ENDBRANCH  14  15
ENDBRANCH  11  14
ENDBRANCH   9  10
ENDBRANCH   5   9
ENDBRANCH   2   4
ENDBRANCH   1   2
BRANCH   1  21
ATOM     21  C   UNL A   1      34.959  32.980  28.061  1.00  0.00     0.274 C 
BRANCH  21  22
ATOM     22  C   UNL A   1      33.824  32.085  27.566  1.00  0.00     0.275 C 
BRANCH  22  23
ATOM     23  O   UNL A   1      33.908  30.780  28.169  1.00  0.00    -0.458 OA
BRANCH  23  24
ATOM     24  C   UNL A   1      34.704  29.898  27.520  1.00  0.00     0.338 C 
ATOM     25  O   UNL A   1      34.489  29.346  26.457  1.00  0.00    -0.246 OA
BRANCH  24  26
ATOM     26  C   UNL A   1      35.988  29.794  28.226  1.00  0.00     0.060 A 
ATOM     27  C   UNL A   1      37.146  30.106  27.516  1.00  0.00     0.016 A 
ATOM     28  C   UNL A   1      36.067  29.291  29.521  1.00  0.00     0.016 A 
ATOM     29  C   UNL A   1      38.398  29.882  28.074  1.00  0.00     0.010 A 
ATOM     30  C   UNL A   1      37.329  29.106  30.102  1.00  0.00     0.010 A 
ATOM     31  C   UNL A   1      38.502  29.382  29.375  1.00  0.00    -0.014 A 
BRANCH  31  32
ATOM     32  C   UNL A   1      39.842  29.104  29.946  1.00  0.00     0.031 A 
ATOM     33  C   UNL A   1      40.349  29.932  31.092  1.00  0.00     0.074 A 
ATOM     34  C   UNL A   1      40.584  28.090  29.460  1.00  0.00     0.049 A 
ATOM     35  N   UNL A   1      41.540  29.954  31.631  1.00  0.00    -0.248 NA
ATOM     36  C   UNL A   1      39.391  30.863  31.710  1.00  0.00     0.031 C 
ATOM     37  C   UNL A   1      40.173  27.173  28.394  1.00  0.00     0.029 A 
ATOM     38  N   UNL A   1      41.840  27.657  29.804  1.00  0.00    -0.354 N 
ATOM     39  C   UNL A   1      41.491  30.931  32.618  1.00  0.00     0.074 A 
ATOM     40  C   UNL A   1      40.151  31.477  32.607  1.00  0.00     0.031 C 
ATOM     41  C   UNL A   1      41.151  26.279  28.182  1.00  0.00     0.029 A 
ATOM     42  C   UNL A   1      42.282  26.599  29.047  1.00  0.00     0.049 A 
ATOM     43  H   UNL A   1      42.372  28.065  30.524  1.00  0.00     0.167 HD
ATOM     44  C   UNL A   1      42.479  31.339  33.449  1.00  0.00     0.037 A 
ATOM     45  C   UNL A   1      43.479  25.982  29.022  1.00  0.00     0.037 A 
ATOM     46  C   UNL A   1      43.797  30.760  33.478  1.00  0.00     0.049 A 
ATOM     47  C   UNL A   1      44.568  26.466  29.937  1.00  0.00     0.074 A 
ATOM     48  C   UNL A   1      44.874  31.105  34.275  1.00  0.00     0.029 A 
ATOM     49  N   UNL A   1      44.211  29.702  32.682  1.00  0.00    -0.354 N 
ATOM     50  N   UNL A   1      44.531  27.440  30.817  1.00  0.00    -0.248 NA
ATOM     51  C   UNL A   1      45.866  25.786  29.844  1.00  0.00     0.031 C 
ATOM     52  C   UNL A   1      45.948  30.269  33.945  1.00  0.00     0.029 A 
ATOM     53  C   UNL A   1      45.529  29.383  32.965  1.00  0.00     0.049 A 
ATOM     54  H   UNL A   1      43.651  29.243  32.014  1.00  0.00     0.167 HD
ATOM     55  C   UNL A   1      45.796  27.484  31.387  1.00  0.00     0.074 A 
ATOM     56  C   UNL A   1      46.572  26.430  30.765  1.00  0.00     0.031 C 
ATOM     57  C   UNL A   1      46.278  28.326  32.334  1.00  0.00     0.037 A 
BRANCH  44  58
ATOM     58  C   UNL A   1      42.181  32.490  34.365  1.00  0.00     0.058 A 
ATOM     59  C   UNL A   1      41.701  32.297  35.668  1.00  0.00     0.135 A 
ATOM     60  C   UNL A   1      42.394  33.809  33.932  1.00  0.00     0.135 A 
ATOM     61  F   UNL A   1      41.461  31.056  36.124  1.00  0.00    -0.206 F 
ATOM     62  C   UNL A   1      41.420  33.373  36.506  1.00  0.00     0.059 A 
ATOM     63  C   UNL A   1      42.138  34.899  34.758  1.00  0.00     0.059 A 
ATOM     64  F   UNL A   1      42.846  34.048  32.692  1.00  0.00    -0.206 F 
ATOM     65  C   UNL A   1      41.636  34.671  36.038  1.00  0.00     0.060 A 
BRANCH  65  66
ATOM     66  S   UNL A   1      41.260  36.062  37.127  1.00  0.00     0.124 S 
ATOM     67  O   UNL A   1      40.079  36.625  36.479  1.00  0.00    -0.237 OA
ATOM     68  O   UNL A   1      41.025  35.405  38.410  1.00  0.00    -0.237 OA
ATOM     69  O   UNL A   1      42.465  36.881  37.057  1.00  0.00    -0.744 OA
ENDBRANCH  65  66
ENDBRANCH  44  58
BRANCH  45  70
ATOM     70  C   UNL A   1      43.718  24.870  28.067  1.00  0.00     0.058 A 
ATOM     71  C   UNL A   1      43.289  23.566  28.352  1.00  0.00     0.135 A 
ATOM     72  C   UNL A   1      44.360  25.095  26.838  1.00  0.00     0.135 A 
ATOM     73  F   UNL A   1      42.681  23.300  29.518  1.00  0.00    -0.206 F 
ATOM     74  C   UNL A   1      43.491  22.521  27.455  1.00  0.00     0.059 A 
ATOM     75  C   UNL A   1      44.552  24.073  25.916  1.00  0.00     0.059 A 
ATOM     76  F   UNL A   1      44.779  26.328  26.516  1.00  0.00    -0.206 F 
ATOM     77  C   UNL A   1      44.121  22.786  26.237  1.00  0.00     0.060 A 
BRANCH  77  78
ATOM     78  S   UNL A   1      44.327  21.443  25.048  1.00  0.00     0.124 S 
ATOM     79  O   UNL A   1      44.221  22.156  23.780  1.00  0.00    -0.237 OA
ATOM     80  O   UNL A   1      45.652  20.930  25.382  1.00  0.00    -0.237 OA
ATOM     81  O   UNL A   1      43.219  20.546  25.364  1.00  0.00    -0.744 OA
ENDBRANCH  77  78
ENDBRANCH  45  70
BRANCH  57  82
ATOM     82  C   UNL A   1      47.700  28.126  32.766  1.00  0.00     0.058 A 
ATOM     83  C   UNL A   1      48.030  27.255  33.814  1.00  0.00     0.135 A 
ATOM     84  C   UNL A   1      48.745  28.783  32.099  1.00  0.00     0.135 A 
ATOM     85  F   UNL A   1      47.063  26.610  34.486  1.00  0.00    -0.206 F 
ATOM     86  C   UNL A   1      49.351  27.051  34.197  1.00  0.00     0.059 A 
ATOM     87  C   UNL A   1      50.075  28.581  32.453  1.00  0.00     0.059 A 
ATOM     88  F   UNL A   1      48.478  29.622  31.084  1.00  0.00    -0.206 F 
ATOM     89  C   UNL A   1      50.366  27.721  33.511  1.00  0.00     0.060 A 
BRANCH  89  90
ATOM     90  S   UNL A   1      52.082  27.426  33.991  1.00  0.00     0.124 S 
ATOM     91  O   UNL A   1      52.213  28.295  35.156  1.00  0.00    -0.237 OA
ATOM     92  O   UNL A   1      52.092  25.993  34.266  1.00  0.00    -0.237 OA
ATOM     93  O   UNL A   1      52.837  27.836  32.811  1.00  0.00    -0.744 OA
ENDBRANCH  89  90
ENDBRANCH  57  82
ENDBRANCH  31  32
ENDBRANCH  24  26
ENDBRANCH  23  24
ENDBRANCH  22  23
ENDBRANCH  21  22
ENDBRANCH   1  21
TORSDOF 20
ENDMDL
MODEL 3
REMARK VINA RESULT:      -9.2      4.975      6.765
REMARK SMILES C[NH2+]CCCC(=O)NC[C@@H]1CC[C@H](C(=O)OCCOC(=O)c2ccc(-c3c4nc(c(-c5c(F)cc(S(=O)(=O)[O-])cc5F)c5ccc([nH]5)c(-c5c(F)cc(S(=O)(=O)[O-])cc5F)c5nc(c(-c6c(F)cc(S(=O)(=O)[O-])cc6F)c6ccc3[nH]6)C=C5)C=C4)cc2)O1
REMARK SMILES IDX 16 1 14 2 15 3 13 4 10 5 11 6 88 7 12 8 9 9 8 10 6 11 7 12
REMARK SMILES IDX 5 14 4 15 3 16 2 17 1 18 17 21 18 22 19 23 20 24 21 25 22 26
REMARK SMILES IDX 23 27 87 28 24 29 86 30 25 31 26 32 27 33 80 34 28 35 85 36
REMARK SMILES IDX 79 37 81 38 29 39 84 40 78 41 77 42 30 44 64 45 43 46 63 47
REMARK SMILES IDX 44 48 47 49 62 50 82 51 45 52 46 53 61 55 83 56 48 57 31 58
REMARK SMILES IDX 32 59 41 60 33 61 34 62 40 63 42 64 35 65 36 66 37 67 38 68
REMARK SMILES IDX 39 69 65 70 66 71 75 72 67 73 68 74 74 75 76 76 69 77 70 78
REMARK SMILES IDX 71 79 72 80 73 81 49 82 50 83 59 84 51 85 52 86 58 87 60 88
REMARK SMILES IDX 53 89 54 90 55 91 56 92 57 93
REMARK H PARENT 8 13 2 19 2 20 81 43 47 54
REMARK Flexibility Score: inf
ROOT
ATOM      1  O   UNL A   1      34.576  33.116  29.409  1.00  0.00    -0.460 OA
ENDROOT
BRANCH   1   2
ATOM      2  C   UNL A   1      35.564  32.806  30.293  1.00  0.00     0.335 C 
ATOM      3  O   UNL A   1      36.754  33.035  30.107  1.00  0.00    -0.249 OA
BRANCH   2   4
ATOM      4  C   UNL A   1      35.022  32.118  31.563  1.00  0.00     0.228 C 
ATOM      5  C   UNL A   1      34.819  33.497  33.425  1.00  0.00     0.138 C 
ATOM      6  C   UNL A   1      36.235  32.942  33.389  1.00  0.00     0.037 C 
ATOM      7  O   UNL A   1      34.131  32.988  32.268  1.00  0.00    -0.361 OA
ATOM      8  C   UNL A   1      36.070  31.687  32.570  1.00  0.00     0.047 C 
BRANCH   5   9
ATOM      9  C   UNL A   1      34.731  35.026  33.391  1.00  0.00     0.147 C 
BRANCH   9  10
ATOM     10  N   UNL A   1      33.337  35.445  33.351  1.00  0.00    -0.353 N 
ATOM     11  C   UNL A   1      32.784  36.577  32.843  1.00  0.00     0.220 C 
ATOM     12  O   UNL A   1      31.604  36.832  33.092  1.00  0.00    -0.275 OA
ATOM     13  H   UNL A   1      32.700  34.810  33.751  1.00  0.00     0.163 HD
BRANCH  11  14
ATOM     14  C   UNL A   1      33.604  37.495  31.960  1.00  0.00     0.106 C 
BRANCH  14  15
ATOM     15  C   UNL A   1      33.244  37.405  30.475  1.00  0.00     0.071 C 
BRANCH  15  16
ATOM     16  C   UNL A   1      32.860  36.017  29.959  1.00  0.00     0.260 C 
BRANCH  16  17
ATOM     17  N   UNL A   1      33.050  35.834  28.517  1.00  0.00    -0.349 N 
ATOM     18  C   UNL A   1      34.273  36.452  28.030  1.00  0.00     0.330 C 
ATOM     19  H   UNL A   1      33.086  34.835  28.317  1.00  0.00     0.346 HD
ATOM     20  H   UNL A   1      32.268  36.286  28.045  1.00  0.00     0.346 HD
ENDBRANCH  16  17
ENDBRANCH  15  16
ENDBRANCH  14  15
ENDBRANCH  11  14
ENDBRANCH   9  10
ENDBRANCH   5   9
ENDBRANCH   2   4
ENDBRANCH   1   2
BRANCH   1  21
ATOM     21  C   UNL A   1      34.833  32.849  28.018  1.00  0.00     0.274 C 
BRANCH  21  22
ATOM     22  C   UNL A   1      33.793  31.872  27.470  1.00  0.00     0.275 C 
BRANCH  22  23
ATOM     23  O   UNL A   1      33.935  30.580  28.089  1.00  0.00    -0.458 OA
BRANCH  23  24
ATOM     24  C   UNL A   1      34.802  29.741  27.475  1.00  0.00     0.338 C 
ATOM     25  O   UNL A   1      34.656  29.173  26.408  1.00  0.00    -0.246 OA
BRANCH  24  26
ATOM     26  C   UNL A   1      36.062  29.709  28.227  1.00  0.00     0.060 A 
ATOM     27  C   UNL A   1      37.232  30.043  27.548  1.00  0.00     0.016 A 
ATOM     28  C   UNL A   1      36.114  29.251  29.541  1.00  0.00     0.016 A 
ATOM     29  C   UNL A   1      38.471  29.886  28.155  1.00  0.00     0.010 A 
ATOM     30  C   UNL A   1      37.361  29.134  30.170  1.00  0.00     0.010 A 
ATOM     31  C   UNL A   1      38.547  29.432  29.475  1.00  0.00    -0.014 A 
BRANCH  31  32
ATOM     32  C   UNL A   1      39.876  29.225  30.101  1.00  0.00     0.031 A 
ATOM     33  C   UNL A   1      40.800  28.173  29.557  1.00  0.00     0.074 A 
ATOM     34  C   UNL A   1      40.265  30.004  31.129  1.00  0.00     0.049 A 
ATOM     35  N   UNL A   1      41.928  27.732  30.048  1.00  0.00    -0.248 NA
ATOM     36  C   UNL A   1      40.397  27.526  28.298  1.00  0.00     0.031 C 
ATOM     37  C   UNL A   1      39.484  31.103  31.702  1.00  0.00     0.029 A 
ATOM     38  N   UNL A   1      41.418  29.993  31.872  1.00  0.00    -0.354 N 
ATOM     39  C   UNL A   1      42.348  26.725  29.187  1.00  0.00     0.074 A 
ATOM     40  C   UNL A   1      41.355  26.623  28.139  1.00  0.00     0.031 C 
ATOM     41  C   UNL A   1      40.186  31.668  32.697  1.00  0.00     0.029 A 
ATOM     42  C   UNL A   1      41.433  30.933  32.876  1.00  0.00     0.049 A 
ATOM     43  H   UNL A   1      42.162  29.372  31.704  1.00  0.00     0.167 HD
ATOM     44  C   UNL A   1      43.457  25.953  29.271  1.00  0.00     0.037 A 
ATOM     45  C   UNL A   1      42.331  31.149  33.856  1.00  0.00     0.037 A 
ATOM     46  C   UNL A   1      44.459  26.091  30.295  1.00  0.00     0.049 A 
ATOM     47  C   UNL A   1      43.543  30.266  33.943  1.00  0.00     0.074 A 
ATOM     48  C   UNL A   1      45.616  25.355  30.477  1.00  0.00     0.029 A 
ATOM     49  N   UNL A   1      44.429  27.044  31.304  1.00  0.00    -0.354 N 
ATOM     50  N   UNL A   1      43.892  29.270  33.163  1.00  0.00    -0.248 NA
ATOM     51  C   UNL A   1      44.472  30.519  35.052  1.00  0.00     0.031 C 
ATOM     52  C   UNL A   1      46.275  25.847  31.610  1.00  0.00     0.029 A 
ATOM     53  C   UNL A   1      45.544  26.912  32.114  1.00  0.00     0.049 A 
ATOM     54  H   UNL A   1      43.720  27.716  31.426  1.00  0.00     0.167 HD
ATOM     55  C   UNL A   1      45.084  28.781  33.683  1.00  0.00     0.074 A 
ATOM     56  C   UNL A   1      45.405  29.602  34.834  1.00  0.00     0.031 C 
ATOM     57  C   UNL A   1      45.842  27.743  33.252  1.00  0.00     0.037 A 
BRANCH  44  58
ATOM     58  C   UNL A   1      43.621  24.866  28.249  1.00  0.00     0.058 A 
ATOM     59  C   UNL A   1      43.072  23.588  28.430  1.00  0.00     0.135 A 
ATOM     60  C   UNL A   1      44.331  25.114  27.062  1.00  0.00     0.135 A 
ATOM     61  F   UNL A   1      42.403  23.293  29.556  1.00  0.00    -0.206 F 
ATOM     62  C   UNL A   1      43.239  22.585  27.479  1.00  0.00     0.059 A 
ATOM     63  C   UNL A   1      44.494  24.132  26.091  1.00  0.00     0.059 A 
ATOM     64  F   UNL A   1      44.880  26.319  26.844  1.00  0.00    -0.206 F 
ATOM     65  C   UNL A   1      43.958  22.865  26.315  1.00  0.00     0.060 A 
BRANCH  65  66
ATOM     66  S   UNL A   1      44.179  21.556  25.092  1.00  0.00     0.124 S 
ATOM     67  O   UNL A   1      43.080  20.656  25.430  1.00  0.00    -0.237 OA
ATOM     68  O   UNL A   1      44.042  22.276  23.829  1.00  0.00    -0.237 OA
ATOM     69  O   UNL A   1      45.516  21.047  25.378  1.00  0.00    -0.744 OA
ENDBRANCH  65  66
ENDBRANCH  44  58
BRANCH  45  70
ATOM     70  C   UNL A   1      42.091  32.222  34.854  1.00  0.00     0.058 A 
ATOM     71  C   UNL A   1      42.595  33.517  34.662  1.00  0.00     0.135 A 
ATOM     72  C   UNL A   1      41.330  31.980  36.009  1.00  0.00     0.135 A 
ATOM     73  F   UNL A   1      43.336  33.794  33.578  1.00  0.00    -0.206 F 
ATOM     74  C   UNL A   1      42.358  34.533  35.582  1.00  0.00     0.059 A 
ATOM     75  C   UNL A   1      41.061  32.984  36.931  1.00  0.00     0.059 A 
ATOM     76  F   UNL A   1      40.817  30.760  36.232  1.00  0.00    -0.206 F 
ATOM     77  C   UNL A   1      41.586  34.258  36.713  1.00  0.00     0.060 A 
BRANCH  77  78
ATOM     78  S   UNL A   1      41.227  35.593  37.875  1.00  0.00     0.124 S 
ATOM     79  O   UNL A   1      39.775  35.682  37.779  1.00  0.00    -0.237 OA
ATOM     80  O   UNL A   1      41.752  35.064  39.130  1.00  0.00    -0.237 OA
ATOM     81  O   UNL A   1      41.969  36.722  37.322  1.00  0.00    -0.744 OA
ENDBRANCH  77  78
ENDBRANCH  45  70
BRANCH  57  82
ATOM     82  C   UNL A   1      47.099  27.451  34.018  1.00  0.00     0.058 A 
ATOM     83  C   UNL A   1      47.108  26.548  35.090  1.00  0.00     0.135 A 
ATOM     84  C   UNL A   1      48.312  28.051  33.648  1.00  0.00     0.135 A 
ATOM     85  F   UNL A   1      45.969  25.956  35.484  1.00  0.00    -0.206 F 
ATOM     86  C   UNL A   1      48.278  26.259  35.783  1.00  0.00     0.059 A 
ATOM     87  C   UNL A   1      49.498  27.763  34.316  1.00  0.00     0.059 A 
ATOM     88  F   UNL A   1      48.354  28.917  32.623  1.00  0.00    -0.206 F 
ATOM     89  C   UNL A   1      49.468  26.873  35.389  1.00  0.00     0.060 A 
BRANCH  89  90
ATOM     90  S   UNL A   1      50.990  26.468  36.271  1.00  0.00     0.124 S 
ATOM     91  O   UNL A   1      51.255  27.713  36.985  1.00  0.00    -0.237 OA
ATOM     92  O   UNL A   1      50.585  25.336  37.100  1.00  0.00    -0.237 OA
ATOM     93  O   UNL A   1      51.926  26.145  35.198  1.00  0.00    -0.744 OA
ENDBRANCH  89  90
ENDBRANCH  57  82
ENDBRANCH  31  32
ENDBRANCH  24  26
ENDBRANCH  23  24
ENDBRANCH  22  23
ENDBRANCH  21  22
ENDBRANCH   1  21
TORSDOF 20
ENDMDL
