MODEL 1
REMARK VINA RESULT:     -11.3      0.000      0.000
REMARK SMILES CC[C@H]1SC[C@@H](C(=O)OCCOC(=O)c2ccc(-c3c4nc(c(-c5c(F)cc(S(=O)(=O)[O-])cc5F)c5ccc([nH]5)c(-c5c(F)cc(S(=O)(=O)[O-])cc5F)c5nc(c(-c6c(F)cc(S(=O)(=O)[O-])cc6F)c6ccc3[nH]6)C=C5)C=C4)cc2)N1C(=O)N[C@@H]1CCCCC1(C)C
REMARK SMILES IDX 11 1 10 2 9 3 7 4 8 5 6 6 3 7 4 8 81 9 5 10 2 11 1 12 82 13
REMARK SMILES IDX 83 14 84 15 85 17 86 18 90 19 87 20 89 21 91 22 92 23 88 24
REMARK SMILES IDX 12 25 13 26 14 27 15 28 16 29 80 30 17 31 79 32 18 33 19 34
REMARK SMILES IDX 20 35 73 36 21 37 78 38 72 39 74 40 22 41 77 42 71 43 70 44
REMARK SMILES IDX 23 46 57 47 36 48 56 49 37 50 40 51 55 52 75 53 38 54 39 55
REMARK SMILES IDX 54 57 76 58 41 59 24 60 25 61 34 62 26 63 27 64 33 65 35 66
REMARK SMILES IDX 28 67 29 68 30 69 31 70 32 71 58 72 59 73 68 74 60 75 61 76
REMARK SMILES IDX 67 77 69 78 62 79 63 80 64 81 65 82 66 83 42 84 43 85 52 86
REMARK SMILES IDX 44 87 45 88 51 89 53 90 46 91 47 92 48 93 49 94 50 95
REMARK H PARENT 84 16 74 45 40 56
REMARK Flexibility Score: inf
ROOT
ATOM      1  C   UNL A   1      32.424  29.884  27.188  1.00  0.00     0.275 C 
ENDROOT
BRANCH   1   2
ATOM      2  C   UNL A   1      32.153  29.426  25.760  1.00  0.00     0.274 C 
BRANCH   2   3
ATOM      3  O   UNL A   1      32.918  28.241  25.473  1.00  0.00    -0.461 OA
BRANCH   3   4
ATOM      4  C   UNL A   1      33.357  28.083  24.199  1.00  0.00     0.329 C 
ATOM      5  O   UNL A   1      33.619  29.008  23.437  1.00  0.00    -0.250 OA
BRANCH   4   6
ATOM      6  C   UNL A   1      33.419  26.614  23.760  1.00  0.00     0.208 C 
ATOM      7  C   UNL A   1      31.174  25.678  23.494  1.00  0.00     0.145 C 
ATOM      8  S   UNL A   1      31.615  26.364  21.844  1.00  0.00    -0.134 SA
ATOM      9  N   UNL A   1      32.405  25.674  24.274  1.00  0.00    -0.298 N 
ATOM     10  C   UNL A   1      33.372  26.543  22.242  1.00  0.00     0.109 C 
BRANCH   7  11
ATOM     11  C   UNL A   1      30.011  26.515  24.052  1.00  0.00     0.033 C 
ATOM     12  C   UNL A   1      29.759  27.834  23.338  1.00  0.00     0.007 C 
ENDBRANCH   7  11
BRANCH   9  13
ATOM     13  C   UNL A   1      32.758  24.932  25.359  1.00  0.00     0.319 C 
ATOM     14  O   UNL A   1      32.493  25.316  26.500  1.00  0.00    -0.249 OA
ATOM     15  N   UNL A   1      33.499  23.813  25.305  1.00  0.00    -0.335 N 
ATOM     16  H   UNL A   1      33.503  23.333  26.165  1.00  0.00     0.165 HD
BRANCH  15  17
ATOM     17  C   UNL A   1      34.299  23.126  24.296  1.00  0.00     0.089 C 
ATOM     18  C   UNL A   1      33.536  21.874  23.796  1.00  0.00     0.025 C 
ATOM     19  C   UNL A   1      35.771  22.799  24.749  1.00  0.00    -0.015 C 
ATOM     20  C   UNL A   1      33.676  20.648  24.693  1.00  0.00     0.002 C 
ATOM     21  C   UNL A   1      35.850  21.490  25.573  1.00  0.00     0.008 C 
ATOM     22  C   UNL A   1      36.639  22.678  23.475  1.00  0.00     0.013 C 
ATOM     23  C   UNL A   1      36.427  23.884  25.631  1.00  0.00     0.013 C 
ATOM     24  C   UNL A   1      35.137  20.309  24.936  1.00  0.00     0.001 C 
ENDBRANCH  15  17
ENDBRANCH   9  13
ENDBRANCH   4   6
ENDBRANCH   3   4
ENDBRANCH   2   3
ENDBRANCH   1   2
BRANCH   1  25
ATOM     25  O   UNL A   1      33.780  29.567  27.533  1.00  0.00    -0.458 OA
BRANCH  25  26
ATOM     26  C   UNL A   1      34.454  30.546  28.182  1.00  0.00     0.338 C 
ATOM     27  O   UNL A   1      34.023  31.618  28.565  1.00  0.00    -0.246 OA
BRANCH  26  28
ATOM     28  C   UNL A   1      35.837  30.088  28.365  1.00  0.00     0.060 A 
ATOM     29  C   UNL A   1      36.265  29.688  29.632  1.00  0.00     0.016 A 
ATOM     30  C   UNL A   1      36.720  30.099  27.288  1.00  0.00     0.016 A 
ATOM     31  C   UNL A   1      37.597  29.346  29.844  1.00  0.00     0.010 A 
ATOM     32  C   UNL A   1      38.045  29.706  27.491  1.00  0.00     0.010 A 
ATOM     33  C   UNL A   1      38.497  29.348  28.774  1.00  0.00    -0.014 A 
BRANCH  33  34
ATOM     34  C   UNL A   1      39.927  29.018  28.992  1.00  0.00     0.031 A 
ATOM     35  C   UNL A   1      40.862  30.083  29.491  1.00  0.00     0.074 A 
ATOM     36  C   UNL A   1      40.381  27.778  28.729  1.00  0.00     0.049 A 
ATOM     37  N   UNL A   1      42.167  30.071  29.557  1.00  0.00    -0.248 NA
ATOM     38  C   UNL A   1      40.244  31.330  29.973  1.00  0.00     0.031 C 
ATOM     39  C   UNL A   1      39.559  26.647  28.293  1.00  0.00     0.029 A 
ATOM     40  N   UNL A   1      41.654  27.264  28.775  1.00  0.00    -0.354 N 
ATOM     41  C   UNL A   1      42.531  31.317  30.054  1.00  0.00     0.074 A 
ATOM     42  C   UNL A   1      41.309  32.064  30.264  1.00  0.00     0.031 C 
ATOM     43  C   UNL A   1      40.347  25.577  28.104  1.00  0.00     0.029 A 
ATOM     44  C   UNL A   1      41.735  25.962  28.345  1.00  0.00     0.049 A 
ATOM     45  H   UNL A   1      42.433  27.780  29.087  1.00  0.00     0.167 HD
ATOM     46  C   UNL A   1      43.774  31.789  30.312  1.00  0.00     0.037 A 
ATOM     47  C   UNL A   1      42.811  25.182  28.122  1.00  0.00     0.037 A 
ATOM     48  C   UNL A   1      44.979  31.023  30.123  1.00  0.00     0.049 A 
ATOM     49  C   UNL A   1      44.184  25.748  28.367  1.00  0.00     0.074 A 
ATOM     50  C   UNL A   1      46.290  31.411  30.341  1.00  0.00     0.029 A 
ATOM     51  N   UNL A   1      45.019  29.708  29.684  1.00  0.00    -0.354 N 
ATOM     52  N   UNL A   1      44.520  26.943  28.792  1.00  0.00    -0.248 NA
ATOM     53  C   UNL A   1      45.326  24.865  28.091  1.00  0.00     0.031 C 
ATOM     54  C   UNL A   1      47.124  30.339  30.009  1.00  0.00     0.029 A 
ATOM     55  C   UNL A   1      46.332  29.271  29.620  1.00  0.00     0.049 A 
ATOM     56  H   UNL A   1      44.231  29.166  29.452  1.00  0.00     0.167 HD
ATOM     57  C   UNL A   1      45.908  26.948  28.855  1.00  0.00     0.074 A 
ATOM     58  C   UNL A   1      46.350  25.633  28.437  1.00  0.00     0.031 C 
ATOM     59  C   UNL A   1      46.745  27.951  29.219  1.00  0.00     0.037 A 
BRANCH  46  60
ATOM     60  C   UNL A   1      43.899  33.201  30.809  1.00  0.00     0.058 A 
ATOM     61  C   UNL A   1      44.092  34.278  29.930  1.00  0.00     0.135 A 
ATOM     62  C   UNL A   1      43.768  33.489  32.178  1.00  0.00     0.135 A 
ATOM     63  F   UNL A   1      44.244  34.057  28.614  1.00  0.00    -0.206 F 
ATOM     64  C   UNL A   1      44.162  35.589  30.391  1.00  0.00     0.059 A 
ATOM     65  C   UNL A   1      43.812  34.794  32.659  1.00  0.00     0.059 A 
ATOM     66  F   UNL A   1      43.586  32.495  33.062  1.00  0.00    -0.206 F 
ATOM     67  C   UNL A   1      44.017  35.838  31.757  1.00  0.00     0.060 A 
BRANCH  67  68
ATOM     68  S   UNL A   1      44.081  37.547  32.336  1.00  0.00     0.124 S 
ATOM     69  O   UNL A   1      43.082  37.533  33.401  1.00  0.00    -0.237 OA
ATOM     70  O   UNL A   1      45.468  37.679  32.771  1.00  0.00    -0.237 OA
ATOM     71  O   UNL A   1      43.723  38.321  31.151  1.00  0.00    -0.744 OA
ENDBRANCH  67  68
ENDBRANCH  46  60
BRANCH  47  72
ATOM     72  C   UNL A   1      42.642  23.800  27.597  1.00  0.00     0.058 A 
ATOM     73  C   UNL A   1      42.527  22.704  28.465  1.00  0.00     0.135 A 
ATOM     74  C   UNL A   1      42.613  23.547  26.217  1.00  0.00     0.135 A 
ATOM     75  F   UNL A   1      42.558  22.895  29.792  1.00  0.00    -0.206 F 
ATOM     76  C   UNL A   1      42.419  21.403  27.985  1.00  0.00     0.059 A 
ATOM     77  C   UNL A   1      42.477  22.258  25.712  1.00  0.00     0.059 A 
ATOM     78  F   UNL A   1      42.705  24.561  25.344  1.00  0.00    -0.206 F 
ATOM     79  C   UNL A   1      42.399  21.190  26.605  1.00  0.00     0.060 A 
BRANCH  79  80
ATOM     80  S   UNL A   1      42.242  19.500  25.986  1.00  0.00     0.124 S 
ATOM     81  O   UNL A   1      43.157  19.519  24.851  1.00  0.00    -0.237 OA
ATOM     82  O   UNL A   1      42.665  18.708  27.137  1.00  0.00    -0.237 OA
ATOM     83  O   UNL A   1      40.824  19.398  25.653  1.00  0.00    -0.744 OA
ENDBRANCH  79  80
ENDBRANCH  47  72
BRANCH  59  84
ATOM     84  C   UNL A   1      48.216  27.649  29.227  1.00  0.00     0.058 A 
ATOM     85  C   UNL A   1      48.840  27.053  30.334  1.00  0.00     0.135 A 
ATOM     86  C   UNL A   1      49.001  27.919  28.095  1.00  0.00     0.135 A 
ATOM     87  F   UNL A   1      48.133  26.783  31.443  1.00  0.00    -0.206 F 
ATOM     88  C   UNL A   1      50.198  26.754  30.326  1.00  0.00     0.059 A 
ATOM     89  C   UNL A   1      50.356  27.607  28.056  1.00  0.00     0.059 A 
ATOM     90  F   UNL A   1      48.449  28.480  27.007  1.00  0.00    -0.206 F 
ATOM     91  C   UNL A   1      50.948  27.034  29.182  1.00  0.00     0.060 A 
BRANCH  91  92
ATOM     92  S   UNL A   1      52.702  26.612  29.170  1.00  0.00     0.124 S 
ATOM     93  O   UNL A   1      53.323  27.930  29.104  1.00  0.00    -0.237 OA
ATOM     94  O   UNL A   1      52.863  25.898  30.433  1.00  0.00    -0.237 OA
ATOM     95  O   UNL A   1      52.845  25.789  27.972  1.00  0.00    -0.744 OA
ENDBRANCH  91  92
ENDBRANCH  59  84
ENDBRANCH  33  34
ENDBRANCH  26  28
ENDBRANCH  25  26
ENDBRANCH   1  25
TORSDOF 17
ENDMDL
MODEL 2
REMARK VINA RESULT:     -11.3      0.961      2.066
REMARK SMILES CC[C@H]1SC[C@@H](C(=O)OCCOC(=O)c2ccc(-c3c4nc(c(-c5c(F)cc(S(=O)(=O)[O-])cc5F)c5ccc([nH]5)c(-c5c(F)cc(S(=O)(=O)[O-])cc5F)c5nc(c(-c6c(F)cc(S(=O)(=O)[O-])cc6F)c6ccc3[nH]6)C=C5)C=C4)cc2)N1C(=O)N[C@@H]1CCCCC1(C)C
REMARK SMILES IDX 11 1 10 2 9 3 7 4 8 5 6 6 3 7 4 8 81 9 5 10 2 11 1 12 82 13
REMARK SMILES IDX 83 14 84 15 85 17 86 18 90 19 87 20 89 21 91 22 92 23 88 24
REMARK SMILES IDX 12 25 13 26 14 27 15 28 16 29 80 30 17 31 79 32 18 33 19 34
REMARK SMILES IDX 20 35 73 36 21 37 78 38 72 39 74 40 22 41 77 42 71 43 70 44
REMARK SMILES IDX 23 46 57 47 36 48 56 49 37 50 40 51 55 52 75 53 38 54 39 55
REMARK SMILES IDX 54 57 76 58 41 59 24 60 25 61 34 62 26 63 27 64 33 65 35 66
REMARK SMILES IDX 28 67 29 68 30 69 31 70 32 71 58 72 59 73 68 74 60 75 61 76
REMARK SMILES IDX 67 77 69 78 62 79 63 80 64 81 65 82 66 83 42 84 43 85 52 86
REMARK SMILES IDX 44 87 45 88 51 89 53 90 46 91 47 92 48 93 49 94 50 95
REMARK H PARENT 84 16 74 45 40 56
REMARK Flexibility Score: inf
ROOT
ATOM      1  C   UNL A   1      32.530  28.989  26.780  1.00  0.00     0.275 C 
ENDROOT
BRANCH   1   2
ATOM      2  C   UNL A   1      32.926  29.265  25.335  1.00  0.00     0.274 C 
BRANCH   2   3
ATOM      3  O   UNL A   1      32.325  28.284  24.469  1.00  0.00    -0.461 OA
BRANCH   3   4
ATOM      4  C   UNL A   1      33.031  27.148  24.240  1.00  0.00     0.329 C 
ATOM      5  O   UNL A   1      34.080  26.859  24.806  1.00  0.00    -0.250 OA
BRANCH   4   6
ATOM      6  C   UNL A   1      32.431  26.278  23.127  1.00  0.00     0.208 C 
ATOM      7  C   UNL A   1      31.165  24.404  24.059  1.00  0.00     0.145 C 
ATOM      8  S   UNL A   1      29.947  25.771  23.877  1.00  0.00    -0.134 SA
ATOM      9  N   UNL A   1      32.354  24.819  23.327  1.00  0.00    -0.298 N 
ATOM     10  C   UNL A   1      31.025  26.766  22.815  1.00  0.00     0.109 C 
BRANCH   7  11
ATOM     11  C   UNL A   1      31.344  24.135  25.563  1.00  0.00     0.033 C 
ATOM     12  C   UNL A   1      30.780  22.812  26.057  1.00  0.00     0.007 C 
ENDBRANCH   7  11
BRANCH   9  13
ATOM     13  C   UNL A   1      33.363  24.078  22.791  1.00  0.00     0.319 C 
ATOM     14  O   UNL A   1      33.383  23.816  21.587  1.00  0.00    -0.249 OA
ATOM     15  N   UNL A   1      34.333  23.485  23.507  1.00  0.00    -0.335 N 
ATOM     16  H   UNL A   1      35.055  23.142  22.932  1.00  0.00     0.165 HD
BRANCH  15  17
ATOM     17  C   UNL A   1      34.590  23.221  24.919  1.00  0.00     0.089 C 
ATOM     18  C   UNL A   1      35.876  23.966  25.358  1.00  0.00     0.025 C 
ATOM     19  C   UNL A   1      34.614  21.694  25.298  1.00  0.00    -0.015 C 
ATOM     20  C   UNL A   1      37.174  23.239  25.021  1.00  0.00     0.002 C 
ATOM     21  C   UNL A   1      35.992  21.045  25.019  1.00  0.00     0.008 C 
ATOM     22  C   UNL A   1      34.267  21.577  26.801  1.00  0.00     0.013 C 
ATOM     23  C   UNL A   1      33.586  20.827  24.538  1.00  0.00     0.013 C 
ATOM     24  C   UNL A   1      37.172  21.825  25.576  1.00  0.00     0.001 C 
ENDBRANCH  15  17
ENDBRANCH   9  13
ENDBRANCH   4   6
ENDBRANCH   3   4
ENDBRANCH   2   3
ENDBRANCH   1   2
BRANCH   1  25
ATOM     25  O   UNL A   1      33.713  28.926  27.588  1.00  0.00    -0.458 OA
BRANCH  25  26
ATOM     26  C   UNL A   1      34.243  30.124  27.932  1.00  0.00     0.338 C 
ATOM     27  O   UNL A   1      33.671  31.197  28.002  1.00  0.00    -0.246 OA
BRANCH  26  28
ATOM     28  C   UNL A   1      35.666  29.915  28.226  1.00  0.00     0.060 A 
ATOM     29  C   UNL A   1      36.603  30.043  27.200  1.00  0.00     0.016 A 
ATOM     30  C   UNL A   1      36.063  29.549  29.510  1.00  0.00     0.016 A 
ATOM     31  C   UNL A   1      37.943  29.752  27.437  1.00  0.00     0.010 A 
ATOM     32  C   UNL A   1      37.415  29.307  29.759  1.00  0.00     0.010 A 
ATOM     33  C   UNL A   1      38.361  29.386  28.721  1.00  0.00    -0.014 A 
BRANCH  33  34
ATOM     34  C   UNL A   1      39.780  29.041  28.981  1.00  0.00     0.031 A 
ATOM     35  C   UNL A   1      40.712  30.096  29.507  1.00  0.00     0.074 A 
ATOM     36  C   UNL A   1      40.229  27.796  28.732  1.00  0.00     0.049 A 
ATOM     37  N   UNL A   1      42.014  30.071  29.611  1.00  0.00    -0.248 NA
ATOM     38  C   UNL A   1      40.093  31.350  29.970  1.00  0.00     0.031 C 
ATOM     39  C   UNL A   1      39.407  26.674  28.272  1.00  0.00     0.029 A 
ATOM     40  N   UNL A   1      41.494  27.269  28.815  1.00  0.00    -0.354 N 
ATOM     41  C   UNL A   1      42.377  31.313  30.118  1.00  0.00     0.074 A 
ATOM     42  C   UNL A   1      41.157  32.073  30.293  1.00  0.00     0.031 C 
ATOM     43  C   UNL A   1      40.189  25.595  28.106  1.00  0.00     0.029 A 
ATOM     44  C   UNL A   1      41.574  25.965  28.387  1.00  0.00     0.049 A 
ATOM     45  H   UNL A   1      42.268  27.776  29.149  1.00  0.00     0.167 HD
ATOM     46  C   UNL A   1      43.616  31.771  30.413  1.00  0.00     0.037 A 
ATOM     47  C   UNL A   1      42.647  25.174  28.197  1.00  0.00     0.037 A 
ATOM     48  C   UNL A   1      44.818  30.993  30.259  1.00  0.00     0.049 A 
ATOM     49  C   UNL A   1      44.018  25.726  28.481  1.00  0.00     0.074 A 
ATOM     50  C   UNL A   1      46.127  31.367  30.516  1.00  0.00     0.029 A 
ATOM     51  N   UNL A   1      44.857  29.677  29.822  1.00  0.00    -0.354 N 
ATOM     52  N   UNL A   1      44.354  26.917  28.916  1.00  0.00    -0.248 NA
ATOM     53  C   UNL A   1      45.158  24.830  28.239  1.00  0.00     0.031 C 
ATOM     54  C   UNL A   1      46.958  30.286  30.208  1.00  0.00     0.029 A 
ATOM     55  C   UNL A   1      46.166  29.226  29.796  1.00  0.00     0.049 A 
ATOM     56  H   UNL A   1      44.070  29.143  29.567  1.00  0.00     0.167 HD
ATOM     57  C   UNL A   1      45.740  26.907  29.020  1.00  0.00     0.074 A 
ATOM     58  C   UNL A   1      46.180  25.587  28.615  1.00  0.00     0.031 C 
ATOM     59  C   UNL A   1      46.577  27.901  29.408  1.00  0.00     0.037 A 
BRANCH  46  60
ATOM     60  C   UNL A   1      43.742  33.182  30.912  1.00  0.00     0.058 A 
ATOM     61  C   UNL A   1      43.744  33.483  32.284  1.00  0.00     0.135 A 
ATOM     62  C   UNL A   1      43.920  34.244  30.009  1.00  0.00     0.135 A 
ATOM     63  F   UNL A   1      43.557  32.509  33.188  1.00  0.00    -0.206 F 
ATOM     64  C   UNL A   1      43.906  34.787  32.741  1.00  0.00     0.059 A 
ATOM     65  C   UNL A   1      44.107  35.552  30.445  1.00  0.00     0.059 A 
ATOM     66  F   UNL A   1      43.922  34.012  28.687  1.00  0.00    -0.206 F 
ATOM     67  C   UNL A   1      44.091  35.815  31.815  1.00  0.00     0.060 A 
BRANCH  67  68
ATOM     68  S   UNL A   1      44.329  37.497  32.426  1.00  0.00     0.124 S 
ATOM     69  O   UNL A   1      43.979  38.288  31.250  1.00  0.00    -0.237 OA
ATOM     70  O   UNL A   1      43.386  37.563  33.538  1.00  0.00    -0.237 OA
ATOM     71  O   UNL A   1      45.739  37.525  32.803  1.00  0.00    -0.744 OA
ENDBRANCH  67  68
ENDBRANCH  46  60
BRANCH  47  72
ATOM     72  C   UNL A   1      42.478  23.794  27.667  1.00  0.00     0.058 A 
ATOM     73  C   UNL A   1      42.428  22.688  28.528  1.00  0.00     0.135 A 
ATOM     74  C   UNL A   1      42.386  23.552  26.288  1.00  0.00     0.135 A 
ATOM     75  F   UNL A   1      42.521  22.868  29.855  1.00  0.00    -0.206 F 
ATOM     76  C   UNL A   1      42.321  21.390  28.042  1.00  0.00     0.059 A 
ATOM     77  C   UNL A   1      42.250  22.265  25.777  1.00  0.00     0.059 A 
ATOM     78  F   UNL A   1      42.415  24.576  25.421  1.00  0.00    -0.206 F 
ATOM     79  C   UNL A   1      42.236  21.188  26.662  1.00  0.00     0.060 A 
BRANCH  79  80
ATOM     80  S   UNL A   1      42.081  19.501  26.036  1.00  0.00     0.124 S 
ATOM     81  O   UNL A   1      42.545  18.722  27.177  1.00  0.00    -0.237 OA
ATOM     82  O   UNL A   1      40.655  19.411  25.737  1.00  0.00    -0.237 OA
ATOM     83  O   UNL A   1      42.958  19.497  24.868  1.00  0.00    -0.744 OA
ENDBRANCH  79  80
ENDBRANCH  47  72
BRANCH  59  84
ATOM     84  C   UNL A   1      48.044  27.583  29.459  1.00  0.00     0.058 A 
ATOM     85  C   UNL A   1      48.889  27.830  28.367  1.00  0.00     0.135 A 
ATOM     86  C   UNL A   1      48.617  27.067  30.633  1.00  0.00     0.135 A 
ATOM     87  F   UNL A   1      48.387  28.316  27.220  1.00  0.00    -0.206 F 
ATOM     88  C   UNL A   1      50.252  27.557  28.428  1.00  0.00     0.059 A 
ATOM     89  C   UNL A   1      49.981  26.809  30.725  1.00  0.00     0.059 A 
ATOM     90  F   UNL A   1      47.852  26.822  31.708  1.00  0.00    -0.206 F 
ATOM     91  C   UNL A   1      50.788  27.047  29.612  1.00  0.00     0.060 A 
BRANCH  91  92
ATOM     92  S   UNL A   1      52.562  26.727  29.693  1.00  0.00     0.124 S 
ATOM     93  O   UNL A   1      53.094  28.066  29.917  1.00  0.00    -0.237 OA
ATOM     94  O   UNL A   1      52.665  25.807  30.822  1.00  0.00    -0.237 OA
ATOM     95  O   UNL A   1      52.861  26.142  28.389  1.00  0.00    -0.744 OA
ENDBRANCH  91  92
ENDBRANCH  59  84
ENDBRANCH  33  34
ENDBRANCH  26  28
ENDBRANCH  25  26
ENDBRANCH   1  25
TORSDOF 17
ENDMDL
MODEL 3
REMARK VINA RESULT:     -11.3      2.090      2.783
REMARK SMILES CC[C@H]1SC[C@@H](C(=O)OCCOC(=O)c2ccc(-c3c4nc(c(-c5c(F)cc(S(=O)(=O)[O-])cc5F)c5ccc([nH]5)c(-c5c(F)cc(S(=O)(=O)[O-])cc5F)c5nc(c(-c6c(F)cc(S(=O)(=O)[O-])cc6F)c6ccc3[nH]6)C=C5)C=C4)cc2)N1C(=O)N[C@@H]1CCCCC1(C)C
REMARK SMILES IDX 11 1 10 2 9 3 7 4 8 5 6 6 3 7 4 8 81 9 5 10 2 11 1 12 82 13
REMARK SMILES IDX 83 14 84 15 85 17 86 18 90 19 87 20 89 21 91 22 92 23 88 24
REMARK SMILES IDX 12 25 13 26 14 27 15 28 16 29 80 30 17 31 79 32 18 33 19 34
REMARK SMILES IDX 20 35 73 36 21 37 78 38 72 39 74 40 22 41 77 42 71 43 70 44
REMARK SMILES IDX 23 46 57 47 36 48 56 49 37 50 40 51 55 52 75 53 38 54 39 55
REMARK SMILES IDX 54 57 76 58 41 59 24 60 25 61 34 62 26 63 27 64 33 65 35 66
REMARK SMILES IDX 28 67 29 68 30 69 31 70 32 71 58 72 59 73 68 74 60 75 61 76
REMARK SMILES IDX 67 77 69 78 62 79 63 80 64 81 65 82 66 83 42 84 43 85 52 86
REMARK SMILES IDX 44 87 45 88 51 89 53 90 46 91 47 92 48 93 49 94 50 95
REMARK H PARENT 84 16 74 45 40 56
REMARK Flexibility Score: inf
ROOT
ATOM      1  C   UNL A   1      34.348  30.327  27.409  1.00  0.00     0.275 C 
ENDROOT
BRANCH   1   2
ATOM      2  C   UNL A   1      33.123  29.460  27.144  1.00  0.00     0.274 C 
BRANCH   2   3
ATOM      3  O   UNL A   1      33.129  29.011  25.777  1.00  0.00    -0.461 OA
BRANCH   3   4
ATOM      4  C   UNL A   1      33.404  27.700  25.559  1.00  0.00     0.329 C 
ATOM      5  O   UNL A   1      34.098  27.006  26.294  1.00  0.00    -0.250 OA
BRANCH   4   6
ATOM      6  C   UNL A   1      32.824  27.174  24.238  1.00  0.00     0.208 C 
ATOM      7  C   UNL A   1      31.473  25.168  24.607  1.00  0.00     0.145 C 
ATOM      8  S   UNL A   1      30.301  26.578  24.753  1.00  0.00    -0.134 SA
ATOM      9  N   UNL A   1      32.701  25.716  24.047  1.00  0.00    -0.298 N 
ATOM     10  C   UNL A   1      31.445  27.776  24.022  1.00  0.00     0.109 C 
BRANCH   7  11
ATOM     11  C   UNL A   1      31.586  24.509  25.992  1.00  0.00     0.033 C 
ATOM     12  C   UNL A   1      30.782  23.231  26.170  1.00  0.00     0.007 C 
ENDBRANCH   7  11
BRANCH   9  13
ATOM     13  C   UNL A   1      33.709  25.105  23.366  1.00  0.00     0.319 C 
ATOM     14  O   UNL A   1      33.784  25.190  22.138  1.00  0.00    -0.249 OA
ATOM     15  N   UNL A   1      34.617  24.288  23.925  1.00  0.00    -0.335 N 
ATOM     16  H   UNL A   1      35.356  24.084  23.308  1.00  0.00     0.165 HD
BRANCH  15  17
ATOM     17  C   UNL A   1      34.788  23.628  25.216  1.00  0.00     0.089 C 
ATOM     18  C   UNL A   1      36.145  24.046  25.834  1.00  0.00     0.025 C 
ATOM     19  C   UNL A   1      34.595  22.066  25.174  1.00  0.00    -0.015 C 
ATOM     20  C   UNL A   1      37.346  23.263  25.312  1.00  0.00     0.002 C 
ATOM     21  C   UNL A   1      35.884  21.331  24.729  1.00  0.00     0.008 C 
ATOM     22  C   UNL A   1      34.184  21.605  26.592  1.00  0.00     0.013 C 
ATOM     23  C   UNL A   1      33.488  21.581  24.213  1.00  0.00     0.013 C 
ATOM     24  C   UNL A   1      37.137  21.767  25.471  1.00  0.00     0.001 C 
ENDBRANCH  15  17
ENDBRANCH   9  13
ENDBRANCH   4   6
ENDBRANCH   3   4
ENDBRANCH   2   3
ENDBRANCH   1   2
BRANCH   1  25
ATOM     25  O   UNL A   1      35.228  29.636  28.306  1.00  0.00    -0.458 OA
BRANCH  25  26
ATOM     26  C   UNL A   1      36.075  30.427  29.007  1.00  0.00     0.338 C 
ATOM     27  O   UNL A   1      35.799  31.411  29.668  1.00  0.00    -0.246 OA
BRANCH  26  28
ATOM     28  C   UNL A   1      37.430  29.884  28.844  1.00  0.00     0.060 A 
ATOM     29  C   UNL A   1      38.168  29.535  29.975  1.00  0.00     0.016 A 
ATOM     30  C   UNL A   1      37.981  29.763  27.570  1.00  0.00     0.016 A 
ATOM     31  C   UNL A   1      39.488  29.113  29.845  1.00  0.00     0.010 A 
ATOM     32  C   UNL A   1      39.288  29.291  27.438  1.00  0.00     0.010 A 
ATOM     33  C   UNL A   1      40.057  28.982  28.574  1.00  0.00    -0.014 A 
BRANCH  33  34
ATOM     34  C   UNL A   1      41.472  28.565  28.423  1.00  0.00     0.031 A 
ATOM     35  C   UNL A   1      42.560  29.599  28.510  1.00  0.00     0.074 A 
ATOM     36  C   UNL A   1      41.775  27.273  28.193  1.00  0.00     0.049 A 
ATOM     37  N   UNL A   1      43.827  29.492  28.210  1.00  0.00    -0.248 NA
ATOM     38  C   UNL A   1      42.164  30.933  28.993  1.00  0.00     0.031 C 
ATOM     39  C   UNL A   1      40.811  26.172  28.142  1.00  0.00     0.029 A 
ATOM     40  N   UNL A   1      42.982  26.669  27.943  1.00  0.00    -0.354 N 
ATOM     41  C   UNL A   1      44.376  30.749  28.434  1.00  0.00     0.074 A 
ATOM     42  C   UNL A   1      43.301  31.607  28.887  1.00  0.00     0.031 C 
ATOM     43  C   UNL A   1      41.462  25.030  27.869  1.00  0.00     0.029 A 
ATOM     44  C   UNL A   1      42.877  25.327  27.665  1.00  0.00     0.049 A 
ATOM     45  H   UNL A   1      43.840  27.151  27.961  1.00  0.00     0.167 HD
ATOM     46  C   UNL A   1      45.661  31.146  28.277  1.00  0.00     0.037 A 
ATOM     47  C   UNL A   1      43.806  24.447  27.246  1.00  0.00     0.037 A 
ATOM     48  C   UNL A   1      46.724  30.273  27.852  1.00  0.00     0.049 A 
ATOM     49  C   UNL A   1      45.216  24.926  27.028  1.00  0.00     0.074 A 
ATOM     50  C   UNL A   1      48.060  30.578  27.647  1.00  0.00     0.029 A 
ATOM     51  N   UNL A   1      46.577  28.921  27.578  1.00  0.00    -0.354 N 
ATOM     52  N   UNL A   1      45.715  26.128  27.197  1.00  0.00    -0.248 NA
ATOM     53  C   UNL A   1      46.189  23.933  26.551  1.00  0.00     0.031 C 
ATOM     54  C   UNL A   1      48.713  29.416  27.225  1.00  0.00     0.029 A 
ATOM     55  C   UNL A   1      47.794  28.379  27.204  1.00  0.00     0.049 A 
ATOM     56  H   UNL A   1      45.731  28.422  27.642  1.00  0.00     0.167 HD
ATOM     57  C   UNL A   1      47.062  26.030  26.869  1.00  0.00     0.074 A 
ATOM     58  C   UNL A   1      47.304  24.649  26.504  1.00  0.00     0.031 C 
ATOM     59  C   UNL A   1      48.014  26.996  26.864  1.00  0.00     0.037 A 
BRANCH  46  60
ATOM     60  C   UNL A   1      45.988  32.587  28.547  1.00  0.00     0.058 A 
ATOM     61  C   UNL A   1      45.908  33.563  27.541  1.00  0.00     0.135 A 
ATOM     62  C   UNL A   1      46.332  33.008  29.842  1.00  0.00     0.135 A 
ATOM     63  F   UNL A   1      45.603  33.211  26.282  1.00  0.00    -0.206 F 
ATOM     64  C   UNL A   1      46.169  34.903  27.808  1.00  0.00     0.059 A 
ATOM     65  C   UNL A   1      46.575  34.347  30.136  1.00  0.00     0.059 A 
ATOM     66  F   UNL A   1      46.426  32.115  30.840  1.00  0.00    -0.206 F 
ATOM     67  C   UNL A   1      46.498  35.287  29.109  1.00  0.00     0.060 A 
BRANCH  67  68
ATOM     68  S   UNL A   1      46.804  37.034  29.444  1.00  0.00     0.124 S 
ATOM     69  O   UNL A   1      45.458  37.515  29.745  1.00  0.00    -0.237 OA
ATOM     70  O   UNL A   1      47.725  36.980  30.575  1.00  0.00    -0.237 OA
ATOM     71  O   UNL A   1      47.379  37.524  28.195  1.00  0.00    -0.744 OA
ENDBRANCH  67  68
ENDBRANCH  46  60
BRANCH  47  72
ATOM     72  C   UNL A   1      43.430  23.037  26.957  1.00  0.00     0.058 A 
ATOM     73  C   UNL A   1      43.172  22.129  27.994  1.00  0.00     0.135 A 
ATOM     74  C   UNL A   1      43.342  22.565  25.639  1.00  0.00     0.135 A 
ATOM     75  F   UNL A   1      43.253  22.531  29.272  1.00  0.00    -0.206 F 
ATOM     76  C   UNL A   1      42.869  20.796  27.737  1.00  0.00     0.059 A 
ATOM     77  C   UNL A   1      43.013  21.243  25.354  1.00  0.00     0.059 A 
ATOM     78  F   UNL A   1      43.566  23.396  24.609  1.00  0.00    -0.206 F 
ATOM     79  C   UNL A   1      42.795  20.362  26.412  1.00  0.00     0.060 A 
BRANCH  79  80
ATOM     80  S   UNL A   1      42.385  18.634  26.083  1.00  0.00     0.124 S 
ATOM     81  O   UNL A   1      40.981  18.735  25.701  1.00  0.00    -0.237 OA
ATOM     82  O   UNL A   1      43.315  18.293  25.011  1.00  0.00    -0.237 OA
ATOM     83  O   UNL A   1      42.647  17.979  27.361  1.00  0.00    -0.744 OA
ENDBRANCH  79  80
ENDBRANCH  47  72
BRANCH  59  84
ATOM     84  C   UNL A   1      49.410  26.583  26.496  1.00  0.00     0.058 A 
ATOM     85  C   UNL A   1      50.261  25.960  27.422  1.00  0.00     0.135 A 
ATOM     86  C   UNL A   1      49.885  26.773  25.188  1.00  0.00     0.135 A 
ATOM     87  F   UNL A   1      49.855  25.763  28.686  1.00  0.00    -0.206 F 
ATOM     88  C   UNL A   1      51.545  25.557  27.069  1.00  0.00     0.059 A 
ATOM     89  C   UNL A   1      51.156  26.357  24.807  1.00  0.00     0.059 A 
ATOM     90  F   UNL A   1      49.106  27.356  24.264  1.00  0.00    -0.206 F 
ATOM     91  C   UNL A   1      51.983  25.759  25.759  1.00  0.00     0.060 A 
BRANCH  91  92
ATOM     92  S   UNL A   1      53.638  25.203  25.302  1.00  0.00     0.124 S 
ATOM     93  O   UNL A   1      54.460  25.865  26.310  1.00  0.00    -0.237 OA
ATOM     94  O   UNL A   1      53.528  23.753  25.426  1.00  0.00    -0.237 OA
ATOM     95  O   UNL A   1      53.798  25.698  23.937  1.00  0.00    -0.744 OA
ENDBRANCH  91  92
ENDBRANCH  59  84
ENDBRANCH  33  34
ENDBRANCH  26  28
ENDBRANCH  25  26
ENDBRANCH   1  25
TORSDOF 17
ENDMDL
