MODEL 1
REMARK VINA RESULT:     -12.0      0.000      0.000
REMARK SMILES Nc1nccc(N2CCC[C@@](Cc3ccc(F)cc3F)(C(=O)OCCOC(=O)c3ccc(-c4c5nc(c(-c6c(F)cc(S(=O)(=O)[O-])cc6F)c6ccc([nH]6)c(-c6c(F)cc(S(=O)(=O)[O-])cc6F)c6nc(c(-c7c(F)cc(S(=O)(=O)[O-])cc7F)c7ccc4[nH]7)C=C6)C=C5)cc3)C2)n1
REMARK SMILES IDX 25 1 24 2 23 3 21 4 22 5 11 6 7 7 8 8 95 9 9 10 10 11 6 12
REMARK SMILES IDX 2 13 3 14 96 15 4 16 5 17 1 18 12 21 13 22 14 23 19 24 15 25
REMARK SMILES IDX 18 26 20 27 16 28 17 29 26 30 27 31 28 32 29 33 30 34 94 35
REMARK SMILES IDX 31 36 93 37 32 38 33 39 34 40 87 41 35 42 92 43 86 44 88 45
REMARK SMILES IDX 36 46 91 47 85 48 84 49 37 51 71 52 50 53 70 54 51 55 54 56
REMARK SMILES IDX 69 57 89 58 52 59 53 60 68 62 90 63 55 64 38 65 39 66 48 67
REMARK SMILES IDX 40 68 41 69 47 70 49 71 42 72 43 73 44 74 45 75 46 76 72 77
REMARK SMILES IDX 73 78 82 79 74 80 75 81 81 82 83 83 76 84 77 85 78 86 79 87
REMARK SMILES IDX 80 88 56 89 57 90 66 91 58 92 59 93 65 94 67 95 60 96 61 97
REMARK SMILES IDX 62 98 63 99 64 100
REMARK H PARENT 1 19 1 20 88 50 54 61
REMARK Flexibility Score: inf
ROOT
ATOM      1  C   UNL A   1      33.538  30.272  26.592  1.00  0.00     0.275 C 
ENDROOT
BRANCH   1   2
ATOM      2  C   UNL A   1      32.335  29.447  26.153  1.00  0.00     0.274 C 
BRANCH   2   3
ATOM      3  O   UNL A   1      32.679  28.049  26.051  1.00  0.00    -0.462 OA
BRANCH   3   4
ATOM      4  C   UNL A   1      31.694  27.168  26.387  1.00  0.00     0.314 C 
ATOM      5  O   UNL A   1      30.903  27.348  27.306  1.00  0.00    -0.252 OA
BRANCH   4   6
ATOM      6  C   UNL A   1      31.754  25.870  25.584  1.00  0.00     0.090 C 
ATOM      7  N   UNL A   1      33.279  24.005  25.125  1.00  0.00    -0.355 N 
ATOM      8  C   UNL A   1      32.379  22.942  25.563  1.00  0.00     0.118 C 
ATOM      9  C   UNL A   1      33.151  25.266  25.853  1.00  0.00     0.137 C 
ATOM     10  C   UNL A   1      30.934  23.431  25.421  1.00  0.00     0.023 C 
ATOM     11  C   UNL A   1      30.707  24.821  26.036  1.00  0.00     0.023 C 
BRANCH   7  12
ATOM     12  C   UNL A   1      34.599  23.614  24.884  1.00  0.00     0.134 A 
ATOM     13  C   UNL A   1      36.785  23.405  25.544  1.00  0.00     0.221 A 
ATOM     14  N   UNL A   1      37.195  23.034  24.327  1.00  0.00    -0.222 NA
ATOM     15  N   UNL A   1      35.520  23.713  25.860  1.00  0.00    -0.196 NA
ATOM     16  C   UNL A   1      36.255  22.952  23.376  1.00  0.00     0.119 A 
ATOM     17  C   UNL A   1      34.930  23.215  23.605  1.00  0.00     0.067 A 
BRANCH  13  18
ATOM     18  N   UNL A   1      37.733  23.470  26.520  1.00  0.00    -0.368 N 
ATOM     19  H   UNL A   1      38.237  22.663  26.771  1.00  0.00     0.159 HD
ATOM     20  H   UNL A   1      37.914  24.325  26.974  1.00  0.00     0.159 HD
ENDBRANCH  13  18
ENDBRANCH   7  12
BRANCH   6  21
ATOM     21  C   UNL A   1      31.662  26.253  24.079  1.00  0.00     0.059 C 
BRANCH  21  22
ATOM     22  C   UNL A   1      30.491  27.121  23.678  1.00  0.00    -0.011 A 
ATOM     23  C   UNL A   1      29.171  26.696  23.902  1.00  0.00     0.010 A 
ATOM     24  C   UNL A   1      30.697  28.373  23.089  1.00  0.00     0.129 A 
ATOM     25  C   UNL A   1      28.097  27.493  23.504  1.00  0.00     0.040 A 
ATOM     26  C   UNL A   1      29.635  29.179  22.702  1.00  0.00     0.078 A 
ATOM     27  F   UNL A   1      31.944  28.825  22.892  1.00  0.00    -0.207 F 
ATOM     28  C   UNL A   1      28.341  28.725  22.907  1.00  0.00     0.126 A 
ATOM     29  F   UNL A   1      27.307  29.489  22.532  1.00  0.00    -0.207 F 
ENDBRANCH  21  22
ENDBRANCH   6  21
ENDBRANCH   4   6
ENDBRANCH   3   4
ENDBRANCH   2   3
ENDBRANCH   1   2
BRANCH   1  30
ATOM     30  O   UNL A   1      33.881  29.918  27.941  1.00  0.00    -0.458 OA
BRANCH  30  31
ATOM     31  C   UNL A   1      34.757  30.742  28.560  1.00  0.00     0.338 C 
ATOM     32  O   UNL A   1      34.517  31.829  29.056  1.00  0.00    -0.246 OA
BRANCH  31  33
ATOM     33  C   UNL A   1      36.095  30.119  28.582  1.00  0.00     0.060 A 
ATOM     34  C   UNL A   1      36.584  29.547  29.756  1.00  0.00     0.016 A 
ATOM     35  C   UNL A   1      36.915  30.207  27.461  1.00  0.00     0.016 A 
ATOM     36  C   UNL A   1      37.923  29.171  29.851  1.00  0.00     0.010 A 
ATOM     37  C   UNL A   1      38.226  29.721  27.522  1.00  0.00     0.010 A 
ATOM     38  C   UNL A   1      38.762  29.238  28.730  1.00  0.00    -0.014 A 
BRANCH  38  39
ATOM     39  C   UNL A   1      40.202  28.860  28.821  1.00  0.00     0.031 A 
ATOM     40  C   UNL A   1      41.212  29.866  29.312  1.00  0.00     0.074 A 
ATOM     41  C   UNL A   1      40.623  27.627  28.475  1.00  0.00     0.049 A 
ATOM     42  N   UNL A   1      42.518  29.835  29.233  1.00  0.00    -0.248 NA
ATOM     43  C   UNL A   1      40.681  31.076  29.962  1.00  0.00     0.031 C 
ATOM     44  C   UNL A   1      39.765  26.525  28.033  1.00  0.00     0.029 A 
ATOM     45  N   UNL A   1      41.886  27.087  28.453  1.00  0.00    -0.354 N 
ATOM     46  C   UNL A   1      42.959  31.052  29.744  1.00  0.00     0.074 A 
ATOM     47  C   UNL A   1      41.782  31.791  30.147  1.00  0.00     0.031 C 
ATOM     48  C   UNL A   1      40.517  25.431  27.835  1.00  0.00     0.029 A 
ATOM     49  C   UNL A   1      41.919  25.776  28.037  1.00  0.00     0.049 A 
ATOM     50  H   UNL A   1      42.692  27.591  28.711  1.00  0.00     0.167 HD
ATOM     51  C   UNL A   1      44.228  31.512  29.858  1.00  0.00     0.037 A 
ATOM     52  C   UNL A   1      42.959  24.955  27.796  1.00  0.00     0.037 A 
ATOM     53  C   UNL A   1      45.400  30.743  29.530  1.00  0.00     0.049 A 
ATOM     54  C   UNL A   1      44.359  25.477  27.933  1.00  0.00     0.074 A 
ATOM     55  C   UNL A   1      46.730  31.119  29.606  1.00  0.00     0.029 A 
ATOM     56  N   UNL A   1      45.383  29.426  29.093  1.00  0.00    -0.354 N 
ATOM     57  N   UNL A   1      44.759  26.670  28.303  1.00  0.00    -0.248 NA
ATOM     58  C   UNL A   1      45.449  24.555  27.588  1.00  0.00     0.031 C 
ATOM     59  C   UNL A   1      47.517  30.033  29.202  1.00  0.00     0.029 A 
ATOM     60  C   UNL A   1      46.677  28.974  28.898  1.00  0.00     0.049 A 
ATOM     61  H   UNL A   1      44.569  28.892  28.942  1.00  0.00     0.167 HD
ATOM     62  C   UNL A   1      46.144  26.647  28.221  1.00  0.00     0.074 A 
ATOM     63  C   UNL A   1      46.518  25.314  27.794  1.00  0.00     0.031 C 
ATOM     64  C   UNL A   1      47.028  27.646  28.464  1.00  0.00     0.037 A 
BRANCH  51  65
ATOM     65  C   UNL A   1      44.412  32.930  30.321  1.00  0.00     0.058 A 
ATOM     66  C   UNL A   1      44.688  33.197  31.672  1.00  0.00     0.135 A 
ATOM     67  C   UNL A   1      44.308  34.021  29.446  1.00  0.00     0.135 A 
ATOM     68  F   UNL A   1      44.800  32.188  32.551  1.00  0.00    -0.206 F 
ATOM     69  C   UNL A   1      44.862  34.496  32.141  1.00  0.00     0.059 A 
ATOM     70  C   UNL A   1      44.498  35.328  29.889  1.00  0.00     0.059 A 
ATOM     71  F   UNL A   1      44.065  33.820  28.142  1.00  0.00    -0.206 F 
ATOM     72  C   UNL A   1      44.782  35.554  31.237  1.00  0.00     0.060 A 
BRANCH  72  73
ATOM     73  S   UNL A   1      45.044  37.250  31.797  1.00  0.00     0.124 S 
ATOM     74  O   UNL A   1      44.687  37.148  33.209  1.00  0.00    -0.237 OA
ATOM     75  O   UNL A   1      46.461  37.458  31.516  1.00  0.00    -0.237 OA
ATOM     76  O   UNL A   1      44.125  38.026  30.971  1.00  0.00    -0.744 OA
ENDBRANCH  72  73
ENDBRANCH  51  65
BRANCH  52  77
ATOM     77  C   UNL A   1      42.700  23.559  27.359  1.00  0.00     0.058 A 
ATOM     78  C   UNL A   1      42.486  22.530  28.289  1.00  0.00     0.135 A 
ATOM     79  C   UNL A   1      42.725  23.220  25.999  1.00  0.00     0.135 A 
ATOM     80  F   UNL A   1      42.464  22.805  29.602  1.00  0.00    -0.206 F 
ATOM     81  C   UNL A   1      42.340  21.205  27.891  1.00  0.00     0.059 A 
ATOM     82  C   UNL A   1      42.560  21.905  25.574  1.00  0.00     0.059 A 
ATOM     83  F   UNL A   1      42.913  24.173  25.074  1.00  0.00    -0.206 F 
ATOM     84  C   UNL A   1      42.379  20.902  26.530  1.00  0.00     0.060 A 
BRANCH  84  85
ATOM     85  S   UNL A   1      42.265  19.186  25.980  1.00  0.00     0.124 S 
ATOM     86  O   UNL A   1      40.851  19.079  25.640  1.00  0.00    -0.237 OA
ATOM     87  O   UNL A   1      43.197  19.156  24.858  1.00  0.00    -0.237 OA
ATOM     88  O   UNL A   1      42.691  18.430  27.155  1.00  0.00    -0.744 OA
ENDBRANCH  84  85
ENDBRANCH  52  77
BRANCH  64  89
ATOM     89  C   UNL A   1      48.483  27.334  28.273  1.00  0.00     0.058 A 
ATOM     90  C   UNL A   1      49.252  26.832  29.334  1.00  0.00     0.135 A 
ATOM     91  C   UNL A   1      49.124  27.576  27.049  1.00  0.00     0.135 A 
ATOM     92  F   UNL A   1      48.684  26.592  30.526  1.00  0.00    -0.206 F 
ATOM     93  C   UNL A   1      50.613  26.581  29.190  1.00  0.00     0.059 A 
ATOM     94  C   UNL A   1      50.479  27.317  26.877  1.00  0.00     0.059 A 
ATOM     95  F   UNL A   1      48.427  28.049  26.004  1.00  0.00    -0.206 F 
ATOM     96  C   UNL A   1      51.216  26.818  27.954  1.00  0.00     0.060 A 
BRANCH  96  97
ATOM     97  S   UNL A   1      52.980  26.511  27.729  1.00  0.00     0.124 S 
ATOM     98  O   UNL A   1      53.428  26.341  29.108  1.00  0.00    -0.237 OA
ATOM     99  O   UNL A   1      52.988  25.305  26.907  1.00  0.00    -0.237 OA
ATOM    100  O   UNL A   1      53.452  27.720  27.060  1.00  0.00    -0.744 OA
ENDBRANCH  96  97
ENDBRANCH  64  89
ENDBRANCH  38  39
ENDBRANCH  31  33
ENDBRANCH  30  31
ENDBRANCH   1  30
TORSDOF 18
ENDMDL
MODEL 2
REMARK VINA RESULT:     -11.9      2.295      4.065
REMARK SMILES Nc1nccc(N2CCC[C@@](Cc3ccc(F)cc3F)(C(=O)OCCOC(=O)c3ccc(-c4c5nc(c(-c6c(F)cc(S(=O)(=O)[O-])cc6F)c6ccc([nH]6)c(-c6c(F)cc(S(=O)(=O)[O-])cc6F)c6nc(c(-c7c(F)cc(S(=O)(=O)[O-])cc7F)c7ccc4[nH]7)C=C6)C=C5)cc3)C2)n1
REMARK SMILES IDX 25 1 24 2 23 3 21 4 22 5 11 6 7 7 8 8 95 9 9 10 10 11 6 12
REMARK SMILES IDX 2 13 3 14 96 15 4 16 5 17 1 18 12 21 13 22 14 23 19 24 15 25
REMARK SMILES IDX 18 26 20 27 16 28 17 29 26 30 27 31 28 32 29 33 30 34 94 35
REMARK SMILES IDX 31 36 93 37 32 38 33 39 34 40 87 41 35 42 92 43 86 44 88 45
REMARK SMILES IDX 36 46 91 47 85 48 84 49 37 51 71 52 50 53 70 54 51 55 54 56
REMARK SMILES IDX 69 57 89 58 52 59 53 60 68 62 90 63 55 64 38 65 39 66 48 67
REMARK SMILES IDX 40 68 41 69 47 70 49 71 42 72 43 73 44 74 45 75 46 76 72 77
REMARK SMILES IDX 73 78 82 79 74 80 75 81 81 82 83 83 76 84 77 85 78 86 79 87
REMARK SMILES IDX 80 88 56 89 57 90 66 91 58 92 59 93 65 94 67 95 60 96 61 97
REMARK SMILES IDX 62 98 63 99 64 100
REMARK H PARENT 1 19 1 20 88 50 54 61
REMARK Flexibility Score: inf
ROOT
ATOM      1  C   UNL A   1      34.026  31.569  27.659  1.00  0.00     0.275 C 
ENDROOT
BRANCH   1   2
ATOM      2  C   UNL A   1      33.065  30.431  27.340  1.00  0.00     0.274 C 
BRANCH   2   3
ATOM      3  O   UNL A   1      33.381  29.831  26.066  1.00  0.00    -0.462 OA
BRANCH   3   4
ATOM      4  C   UNL A   1      33.697  28.506  26.094  1.00  0.00     0.314 C 
ATOM      5  O   UNL A   1      34.643  28.044  26.722  1.00  0.00    -0.252 OA
BRANCH   4   6
ATOM      6  C   UNL A   1      32.830  27.665  25.159  1.00  0.00     0.090 C 
ATOM      7  N   UNL A   1      31.164  27.934  23.379  1.00  0.00    -0.355 N 
ATOM      8  C   UNL A   1      31.880  27.167  22.364  1.00  0.00     0.118 C 
ATOM      9  C   UNL A   1      32.013  28.670  24.315  1.00  0.00     0.137 C 
ATOM     10  C   UNL A   1      32.800  26.163  23.064  1.00  0.00     0.023 C 
ATOM     11  C   UNL A   1      33.653  26.800  24.172  1.00  0.00     0.023 C 
BRANCH   7  12
ATOM     12  C   UNL A   1      30.059  28.657  22.920  1.00  0.00     0.134 A 
ATOM     13  C   UNL A   1      27.795  28.940  22.699  1.00  0.00     0.221 A 
ATOM     14  N   UNL A   1      27.930  29.963  21.850  1.00  0.00    -0.222 NA
ATOM     15  N   UNL A   1      28.815  28.260  23.239  1.00  0.00    -0.196 NA
ATOM     16  C   UNL A   1      29.183  30.330  21.546  1.00  0.00     0.119 A 
ATOM     17  C   UNL A   1      30.292  29.718  22.069  1.00  0.00     0.067 A 
BRANCH  13  18
ATOM     18  N   UNL A   1      26.524  28.577  23.028  1.00  0.00    -0.368 N 
ATOM     19  H   UNL A   1      26.292  27.624  23.116  1.00  0.00     0.159 HD
ATOM     20  H   UNL A   1      25.839  29.267  23.179  1.00  0.00     0.159 HD
ENDBRANCH  13  18
ENDBRANCH   7  12
BRANCH   6  21
ATOM     21  C   UNL A   1      31.846  26.852  26.049  1.00  0.00     0.059 C 
BRANCH  21  22
ATOM     22  C   UNL A   1      31.916  25.347  25.923  1.00  0.00    -0.011 A 
ATOM     23  C   UNL A   1      33.001  24.631  26.454  1.00  0.00     0.010 A 
ATOM     24  C   UNL A   1      30.893  24.634  25.289  1.00  0.00     0.129 A 
ATOM     25  C   UNL A   1      33.069  23.244  26.310  1.00  0.00     0.040 A 
ATOM     26  C   UNL A   1      30.944  23.253  25.153  1.00  0.00     0.078 A 
ATOM     27  F   UNL A   1      29.825  25.283  24.801  1.00  0.00    -0.207 F 
ATOM     28  C   UNL A   1      32.040  22.571  25.660  1.00  0.00     0.126 A 
ATOM     29  F   UNL A   1      32.106  21.240  25.528  1.00  0.00    -0.207 F 
ENDBRANCH  21  22
ENDBRANCH   6  21
ENDBRANCH   4   6
ENDBRANCH   3   4
ENDBRANCH   2   3
ENDBRANCH   1   2
BRANCH   1  30
ATOM     30  O   UNL A   1      35.368  31.059  27.671  1.00  0.00    -0.458 OA
BRANCH  30  31
ATOM     31  C   UNL A   1      35.956  30.978  28.886  1.00  0.00     0.338 C 
ATOM     32  O   UNL A   1      35.513  31.391  29.944  1.00  0.00    -0.246 OA
BRANCH  31  33
ATOM     33  C   UNL A   1      37.246  30.272  28.768  1.00  0.00     0.060 A 
ATOM     34  C   UNL A   1      37.986  29.964  29.909  1.00  0.00     0.016 A 
ATOM     35  C   UNL A   1      37.781  30.018  27.508  1.00  0.00     0.016 A 
ATOM     36  C   UNL A   1      39.301  29.515  29.796  1.00  0.00     0.010 A 
ATOM     37  C   UNL A   1      39.057  29.455  27.397  1.00  0.00     0.010 A 
ATOM     38  C   UNL A   1      39.852  29.238  28.538  1.00  0.00    -0.014 A 
BRANCH  38  39
ATOM     39  C   UNL A   1      41.264  28.777  28.399  1.00  0.00     0.031 A 
ATOM     40  C   UNL A   1      42.396  29.752  28.612  1.00  0.00     0.074 A 
ATOM     41  C   UNL A   1      41.553  27.497  28.089  1.00  0.00     0.049 A 
ATOM     42  N   UNL A   1      43.661  29.632  28.300  1.00  0.00    -0.248 NA
ATOM     43  C   UNL A   1      42.053  31.038  29.240  1.00  0.00     0.031 C 
ATOM     44  C   UNL A   1      40.575  26.422  27.906  1.00  0.00     0.029 A 
ATOM     45  N   UNL A   1      42.762  26.878  27.886  1.00  0.00    -0.354 N 
ATOM     46  C   UNL A   1      44.248  30.853  28.617  1.00  0.00     0.074 A 
ATOM     47  C   UNL A   1      43.203  31.693  29.162  1.00  0.00     0.031 C 
ATOM     48  C   UNL A   1      41.223  25.271  27.670  1.00  0.00     0.029 A 
ATOM     49  C   UNL A   1      42.654  25.541  27.584  1.00  0.00     0.049 A 
ATOM     50  H   UNL A   1      43.626  27.347  27.950  1.00  0.00     0.167 HD
ATOM     51  C   UNL A   1      45.537  31.238  28.460  1.00  0.00     0.037 A 
ATOM     52  C   UNL A   1      43.589  24.638  27.231  1.00  0.00     0.037 A 
ATOM     53  C   UNL A   1      46.589  30.373  27.993  1.00  0.00     0.049 A 
ATOM     54  C   UNL A   1      45.015  25.079  27.067  1.00  0.00     0.074 A 
ATOM     55  C   UNL A   1      47.927  30.669  27.795  1.00  0.00     0.029 A 
ATOM     56  N   UNL A   1      46.427  29.032  27.680  1.00  0.00    -0.354 N 
ATOM     57  N   UNL A   1      45.533  26.269  27.255  1.00  0.00    -0.248 NA
ATOM     58  C   UNL A   1      45.976  24.066  26.610  1.00  0.00     0.031 C 
ATOM     59  C   UNL A   1      48.572  29.508  27.350  1.00  0.00     0.029 A 
ATOM     60  C   UNL A   1      47.639  28.485  27.294  1.00  0.00     0.049 A 
ATOM     61  H   UNL A   1      45.574  28.541  27.726  1.00  0.00     0.167 HD
ATOM     62  C   UNL A   1      46.877  26.152  26.926  1.00  0.00     0.074 A 
ATOM     63  C   UNL A   1      47.100  24.769  26.554  1.00  0.00     0.031 C 
ATOM     64  C   UNL A   1      47.838  27.108  26.919  1.00  0.00     0.037 A 
BRANCH  51  65
ATOM     65  C   UNL A   1      45.873  32.672  28.759  1.00  0.00     0.058 A 
ATOM     66  C   UNL A   1      45.649  33.663  27.788  1.00  0.00     0.135 A 
ATOM     67  C   UNL A   1      46.421  33.071  29.986  1.00  0.00     0.135 A 
ATOM     68  F   UNL A   1      45.125  33.334  26.596  1.00  0.00    -0.206 F 
ATOM     69  C   UNL A   1      45.950  35.001  28.025  1.00  0.00     0.059 A 
ATOM     70  C   UNL A   1      46.710  34.407  30.253  1.00  0.00     0.059 A 
ATOM     71  F   UNL A   1      46.636  32.168  30.955  1.00  0.00    -0.206 F 
ATOM     72  C   UNL A   1      46.464  35.366  29.268  1.00  0.00     0.060 A 
BRANCH  72  73
ATOM     73  S   UNL A   1      46.827  37.096  29.630  1.00  0.00     0.124 S 
ATOM     74  O   UNL A   1      48.158  36.997  30.220  1.00  0.00    -0.237 OA
ATOM     75  O   UNL A   1      46.764  37.714  28.309  1.00  0.00    -0.237 OA
ATOM     76  O   UNL A   1      45.760  37.482  30.549  1.00  0.00    -0.744 OA
ENDBRANCH  72  73
ENDBRANCH  51  65
BRANCH  52  77
ATOM     77  C   UNL A   1      43.186  23.234  26.968  1.00  0.00     0.058 A 
ATOM     78  C   UNL A   1      42.929  22.339  28.019  1.00  0.00     0.135 A 
ATOM     79  C   UNL A   1      43.113  22.744  25.657  1.00  0.00     0.135 A 
ATOM     80  F   UNL A   1      42.997  22.760  29.291  1.00  0.00    -0.206 F 
ATOM     81  C   UNL A   1      42.646  20.998  27.783  1.00  0.00     0.059 A 
ATOM     82  C   UNL A   1      42.811  21.411  25.394  1.00  0.00     0.059 A 
ATOM     83  F   UNL A   1      43.338  23.565  24.621  1.00  0.00    -0.206 F 
ATOM     84  C   UNL A   1      42.590  20.543  26.466  1.00  0.00     0.060 A 
BRANCH  84  85
ATOM     85  S   UNL A   1      42.296  18.794  26.124  1.00  0.00     0.124 S 
ATOM     86  O   UNL A   1      43.256  18.538  25.057  1.00  0.00    -0.237 OA
ATOM     87  O   UNL A   1      42.590  18.171  27.410  1.00  0.00    -0.237 OA
ATOM     88  O   UNL A   1      40.890  18.762  25.731  1.00  0.00    -0.744 OA
ENDBRANCH  84  85
ENDBRANCH  52  77
BRANCH  64  89
ATOM     89  C   UNL A   1      49.216  26.691  26.495  1.00  0.00     0.058 A 
ATOM     90  C   UNL A   1      49.624  26.822  25.160  1.00  0.00     0.135 A 
ATOM     91  C   UNL A   1      50.115  26.119  27.408  1.00  0.00     0.135 A 
ATOM     92  F   UNL A   1      48.796  27.357  24.249  1.00  0.00    -0.206 F 
ATOM     93  C   UNL A   1      50.881  26.398  24.739  1.00  0.00     0.059 A 
ATOM     94  C   UNL A   1      51.381  25.702  27.013  1.00  0.00     0.059 A 
ATOM     95  F   UNL A   1      49.770  25.980  28.698  1.00  0.00    -0.206 F 
ATOM     96  C   UNL A   1      51.756  25.847  25.675  1.00  0.00     0.060 A 
BRANCH  96  97
ATOM     97  S   UNL A   1      53.392  25.278  25.168  1.00  0.00     0.124 S 
ATOM     98  O   UNL A   1      53.262  23.832  25.324  1.00  0.00    -0.237 OA
ATOM     99  O   UNL A   1      53.480  25.760  23.793  1.00  0.00    -0.237 OA
ATOM    100  O   UNL A   1      54.288  25.934  26.114  1.00  0.00    -0.744 OA
ENDBRANCH  96  97
ENDBRANCH  64  89
ENDBRANCH  38  39
ENDBRANCH  31  33
ENDBRANCH  30  31
ENDBRANCH   1  30
TORSDOF 18
ENDMDL
MODEL 3
REMARK VINA RESULT:     -11.9      0.891      1.424
REMARK SMILES Nc1nccc(N2CCC[C@@](Cc3ccc(F)cc3F)(C(=O)OCCOC(=O)c3ccc(-c4c5nc(c(-c6c(F)cc(S(=O)(=O)[O-])cc6F)c6ccc([nH]6)c(-c6c(F)cc(S(=O)(=O)[O-])cc6F)c6nc(c(-c7c(F)cc(S(=O)(=O)[O-])cc7F)c7ccc4[nH]7)C=C6)C=C5)cc3)C2)n1
REMARK SMILES IDX 25 1 24 2 23 3 21 4 22 5 11 6 7 7 8 8 95 9 9 10 10 11 6 12
REMARK SMILES IDX 2 13 3 14 96 15 4 16 5 17 1 18 12 21 13 22 14 23 19 24 15 25
REMARK SMILES IDX 18 26 20 27 16 28 17 29 26 30 27 31 28 32 29 33 30 34 94 35
REMARK SMILES IDX 31 36 93 37 32 38 33 39 34 40 87 41 35 42 92 43 86 44 88 45
REMARK SMILES IDX 36 46 91 47 85 48 84 49 37 51 71 52 50 53 70 54 51 55 54 56
REMARK SMILES IDX 69 57 89 58 52 59 53 60 68 62 90 63 55 64 38 65 39 66 48 67
REMARK SMILES IDX 40 68 41 69 47 70 49 71 42 72 43 73 44 74 45 75 46 76 72 77
REMARK SMILES IDX 73 78 82 79 74 80 75 81 81 82 83 83 76 84 77 85 78 86 79 87
REMARK SMILES IDX 80 88 56 89 57 90 66 91 58 92 59 93 65 94 67 95 60 96 61 97
REMARK SMILES IDX 62 98 63 99 64 100
REMARK H PARENT 1 19 1 20 88 50 54 61
REMARK Flexibility Score: inf
ROOT
ATOM      1  C   UNL A   1      33.161  30.917  27.211  1.00  0.00     0.275 C 
ENDROOT
BRANCH   1   2
ATOM      2  C   UNL A   1      32.316  29.960  26.379  1.00  0.00     0.274 C 
BRANCH   2   3
ATOM      3  O   UNL A   1      32.706  28.591  26.615  1.00  0.00    -0.462 OA
BRANCH   3   4
ATOM      4  C   UNL A   1      33.268  27.942  25.556  1.00  0.00     0.314 C 
ATOM      5  O   UNL A   1      34.038  28.471  24.763  1.00  0.00    -0.252 OA
BRANCH   4   6
ATOM      6  C   UNL A   1      32.739  26.520  25.378  1.00  0.00     0.090 C 
ATOM      7  N   UNL A   1      33.534  24.199  25.374  1.00  0.00    -0.355 N 
ATOM      8  C   UNL A   1      32.640  23.715  26.422  1.00  0.00     0.118 C 
ATOM      9  C   UNL A   1      33.966  25.588  25.519  1.00  0.00     0.137 C 
ATOM     10  C   UNL A   1      31.392  24.602  26.452  1.00  0.00     0.023 C 
ATOM     11  C   UNL A   1      31.721  26.103  26.468  1.00  0.00     0.023 C 
BRANCH   7  12
ATOM     12  C   UNL A   1      34.554  23.320  25.000  1.00  0.00     0.134 A 
ATOM     13  C   UNL A   1      35.432  21.207  24.855  1.00  0.00     0.221 A 
ATOM     14  N   UNL A   1      36.626  21.650  24.449  1.00  0.00    -0.222 NA
ATOM     15  N   UNL A   1      34.389  21.993  25.151  1.00  0.00    -0.196 NA
ATOM     16  C   UNL A   1      36.760  22.976  24.315  1.00  0.00     0.119 A 
ATOM     17  C   UNL A   1      35.745  23.863  24.561  1.00  0.00     0.067 A 
BRANCH  13  18
ATOM     18  N   UNL A   1      35.283  19.858  24.973  1.00  0.00    -0.368 N 
ATOM     19  H   UNL A   1      35.993  19.319  25.392  1.00  0.00     0.159 HD
ATOM     20  H   UNL A   1      34.466  19.423  24.640  1.00  0.00     0.159 HD
ENDBRANCH  13  18
ENDBRANCH   7  12
BRANCH   6  21
ATOM     21  C   UNL A   1      32.197  26.407  23.924  1.00  0.00     0.059 C 
BRANCH  21  22
ATOM     22  C   UNL A   1      30.927  27.169  23.621  1.00  0.00    -0.011 A 
ATOM     23  C   UNL A   1      30.974  28.514  23.223  1.00  0.00     0.010 A 
ATOM     24  C   UNL A   1      29.679  26.544  23.716  1.00  0.00     0.129 A 
ATOM     25  C   UNL A   1      29.794  29.216  22.971  1.00  0.00     0.040 A 
ATOM     26  C   UNL A   1      28.500  27.230  23.453  1.00  0.00     0.078 A 
ATOM     27  F   UNL A   1      29.600  25.250  24.060  1.00  0.00    -0.207 F 
ATOM     28  C   UNL A   1      28.570  28.566  23.090  1.00  0.00     0.126 A 
ATOM     29  F   UNL A   1      27.441  29.242  22.842  1.00  0.00    -0.207 F 
ENDBRANCH  21  22
ENDBRANCH   6  21
ENDBRANCH   4   6
ENDBRANCH   3   4
ENDBRANCH   2   3
ENDBRANCH   1   2
BRANCH   1  30
ATOM     30  O   UNL A   1      34.083  30.157  28.006  1.00  0.00    -0.458 OA
BRANCH  30  31
ATOM     31  C   UNL A   1      34.945  30.880  28.758  1.00  0.00     0.338 C 
ATOM     32  O   UNL A   1      34.699  31.898  29.382  1.00  0.00    -0.246 OA
BRANCH  31  33
ATOM     33  C   UNL A   1      36.273  30.237  28.748  1.00  0.00     0.060 A 
ATOM     34  C   UNL A   1      36.829  29.754  29.931  1.00  0.00     0.016 A 
ATOM     35  C   UNL A   1      37.022  30.218  27.574  1.00  0.00     0.016 A 
ATOM     36  C   UNL A   1      38.167  29.363  29.973  1.00  0.00     0.010 A 
ATOM     37  C   UNL A   1      38.327  29.715  27.592  1.00  0.00     0.010 A 
ATOM     38  C   UNL A   1      38.933  29.323  28.800  1.00  0.00    -0.014 A 
BRANCH  38  39
ATOM     39  C   UNL A   1      40.371  28.928  28.832  1.00  0.00     0.031 A 
ATOM     40  C   UNL A   1      41.414  29.925  29.272  1.00  0.00     0.074 A 
ATOM     41  C   UNL A   1      40.761  27.687  28.476  1.00  0.00     0.049 A 
ATOM     42  N   UNL A   1      42.714  29.877  29.136  1.00  0.00    -0.248 NA
ATOM     43  C   UNL A   1      40.925  31.145  29.935  1.00  0.00     0.031 C 
ATOM     44  C   UNL A   1      39.872  26.593  28.080  1.00  0.00     0.029 A 
ATOM     45  N   UNL A   1      42.016  27.132  28.404  1.00  0.00    -0.354 N 
ATOM     46  C   UNL A   1      43.192  31.091  29.620  1.00  0.00     0.074 A 
ATOM     47  C   UNL A   1      42.042  31.847  30.068  1.00  0.00     0.031 C 
ATOM     48  C   UNL A   1      40.601  25.489  27.857  1.00  0.00     0.029 A 
ATOM     49  C   UNL A   1      42.015  25.818  27.996  1.00  0.00     0.049 A 
ATOM     50  H   UNL A   1      42.838  27.627  28.624  1.00  0.00     0.167 HD
ATOM     51  C   UNL A   1      44.470  31.536  29.676  1.00  0.00     0.037 A 
ATOM     52  C   UNL A   1      43.033  24.982  27.716  1.00  0.00     0.037 A 
ATOM     53  C   UNL A   1      45.617  30.750  29.304  1.00  0.00     0.049 A 
ATOM     54  C   UNL A   1      44.445  25.488  27.789  1.00  0.00     0.074 A 
ATOM     55  C   UNL A   1      46.954  31.111  29.320  1.00  0.00     0.029 A 
ATOM     56  N   UNL A   1      45.565  29.432  28.876  1.00  0.00    -0.354 N 
ATOM     57  N   UNL A   1      44.874  26.678  28.133  1.00  0.00    -0.248 NA
ATOM     58  C   UNL A   1      45.508  24.550  27.403  1.00  0.00     0.031 C 
ATOM     59  C   UNL A   1      47.709  30.013  28.889  1.00  0.00     0.029 A 
ATOM     60  C   UNL A   1      46.844  28.962  28.629  1.00  0.00     0.049 A 
ATOM     61  H   UNL A   1      44.739  28.907  28.765  1.00  0.00     0.167 HD
ATOM     62  C   UNL A   1      46.255  26.638  27.991  1.00  0.00     0.074 A 
ATOM     63  C   UNL A   1      46.593  25.297  27.558  1.00  0.00     0.031 C 
ATOM     64  C   UNL A   1      47.160  27.627  28.189  1.00  0.00     0.037 A 
BRANCH  51  65
ATOM     65  C   UNL A   1      44.691  32.955  30.121  1.00  0.00     0.058 A 
ATOM     66  C   UNL A   1      44.928  33.236  31.477  1.00  0.00     0.135 A 
ATOM     67  C   UNL A   1      44.660  34.032  29.224  1.00  0.00     0.135 A 
ATOM     68  F   UNL A   1      44.968  32.241  32.376  1.00  0.00    -0.206 F 
ATOM     69  C   UNL A   1      45.133  34.536  31.929  1.00  0.00     0.059 A 
ATOM     70  C   UNL A   1      44.884  35.339  29.650  1.00  0.00     0.059 A 
ATOM     71  F   UNL A   1      44.458  33.816  27.915  1.00  0.00    -0.206 F 
ATOM     72  C   UNL A   1      45.127  35.580  31.005  1.00  0.00     0.060 A 
BRANCH  72  73
ATOM     73  S   UNL A   1      45.433  37.275  31.544  1.00  0.00     0.124 S 
ATOM     74  O   UNL A   1      46.028  37.057  32.859  1.00  0.00    -0.237 OA
ATOM     75  O   UNL A   1      46.339  37.774  30.514  1.00  0.00    -0.237 OA
ATOM     76  O   UNL A   1      44.103  37.876  31.548  1.00  0.00    -0.744 OA
ENDBRANCH  72  73
ENDBRANCH  51  65
BRANCH  52  77
ATOM     77  C   UNL A   1      42.739  23.587  27.300  1.00  0.00     0.058 A 
ATOM     78  C   UNL A   1      42.450  22.589  28.244  1.00  0.00     0.135 A 
ATOM     79  C   UNL A   1      42.804  23.215  25.950  1.00  0.00     0.135 A 
ATOM     80  F   UNL A   1      42.387  22.896  29.548  1.00  0.00    -0.206 F 
ATOM     81  C   UNL A   1      42.270  21.262  27.869  1.00  0.00     0.059 A 
ATOM     82  C   UNL A   1      42.606  21.897  25.548  1.00  0.00     0.059 A 
ATOM     83  F   UNL A   1      43.064  24.138  25.012  1.00  0.00    -0.206 F 
ATOM     84  C   UNL A   1      42.350  20.925  26.519  1.00  0.00     0.060 A 
BRANCH  84  85
ATOM     85  S   UNL A   1      42.192  19.201  26.003  1.00  0.00     0.124 S 
ATOM     86  O   UNL A   1      40.762  19.103  25.738  1.00  0.00    -0.237 OA
ATOM     87  O   UNL A   1      43.064  19.146  24.834  1.00  0.00    -0.237 OA
ATOM     88  O   UNL A   1      42.673  18.460  27.166  1.00  0.00    -0.744 OA
ENDBRANCH  84  85
ENDBRANCH  52  77
BRANCH  64  89
ATOM     89  C   UNL A   1      48.602  27.296  27.938  1.00  0.00     0.058 A 
ATOM     90  C   UNL A   1      49.149  27.415  26.652  1.00  0.00     0.135 A 
ATOM     91  C   UNL A   1      49.427  26.817  28.967  1.00  0.00     0.135 A 
ATOM     92  F   UNL A   1      48.396  27.862  25.635  1.00  0.00    -0.206 F 
ATOM     93  C   UNL A   1      50.471  27.069  26.390  1.00  0.00     0.059 A 
ATOM     94  C   UNL A   1      50.756  26.480  28.731  1.00  0.00     0.059 A 
ATOM     95  F   UNL A   1      48.949  26.694  30.214  1.00  0.00    -0.206 F 
ATOM     96  C   UNL A   1      51.269  26.611  27.438  1.00  0.00     0.060 A 
BRANCH  96  97
ATOM     97  S   UNL A   1      52.987  26.143  27.138  1.00  0.00     0.124 S 
ATOM     98  O   UNL A   1      53.504  26.033  28.499  1.00  0.00    -0.237 OA
ATOM     99  O   UNL A   1      52.848  24.886  26.409  1.00  0.00    -0.237 OA
ATOM    100  O   UNL A   1      53.510  27.259  26.356  1.00  0.00    -0.744 OA
ENDBRANCH  96  97
ENDBRANCH  64  89
ENDBRANCH  38  39
ENDBRANCH  31  33
ENDBRANCH  30  31
ENDBRANCH   1  30
TORSDOF 18
ENDMDL
