MODEL 1
REMARK VINA RESULT:      -9.2      0.000      0.000
REMARK SMILES O=C(OCCOC(=O)[C@@H]1C[C@@H]2CC[C@H]1N2C(=O)C[C@H]1CCCCO1)c1ccc(-c2c3nc(c(-c4c(F)cc(S(=O)(=O)[O-])cc4F)c4ccc([nH]4)c(-c4c(F)cc(S(=O)(=O)[O-])cc4F)c4nc(c(-c5c(F)cc(S(=O)(=O)[O-])cc5F)c5ccc2[nH]5)C=C4)C=C3)cc1
REMARK SMILES IDX 4 1 3 2 2 3 1 4 25 5 26 6 90 7 27 8 89 9 28 10 29 11 30 12
REMARK SMILES IDX 83 13 31 14 88 15 82 16 84 17 32 18 87 19 81 20 80 21 33 23
REMARK SMILES IDX 67 24 46 25 66 26 47 27 50 28 65 29 85 30 48 31 49 32 64 34
REMARK SMILES IDX 86 35 51 36 34 37 35 38 44 39 36 40 37 41 43 42 45 43 38 44
REMARK SMILES IDX 39 45 40 46 41 47 42 48 68 49 69 50 78 51 70 52 71 53 77 54
REMARK SMILES IDX 79 55 72 56 73 57 74 58 75 59 76 60 52 61 53 62 62 63 54 64
REMARK SMILES IDX 55 65 61 66 63 67 56 68 57 69 58 70 59 71 60 72 5 73 6 74
REMARK SMILES IDX 7 75 8 76 9 77 10 78 14 79 11 80 13 81 15 82 12 83 16 84
REMARK SMILES IDX 17 85 18 86 19 87 20 88 24 89 21 90 23 91 22 92
REMARK H PARENT 84 22 50 33
REMARK Flexibility Score: inf
ROOT
ATOM      1  C   UNL A   1      33.394  32.040  27.924  1.00  0.00     0.275 C 
ENDROOT
BRANCH   1   2
ATOM      2  O   UNL A   1      33.943  30.986  27.112  1.00  0.00    -0.458 OA
BRANCH   2   3
ATOM      3  C   UNL A   1      34.352  29.807  27.632  1.00  0.00     0.338 C 
ATOM      4  O   UNL A   1      33.622  28.827  27.634  1.00  0.00    -0.246 OA
BRANCH   3   5
ATOM      5  C   UNL A   1      35.761  29.726  28.126  1.00  0.00     0.060 A 
ATOM      6  C   UNL A   1      36.127  29.334  29.414  1.00  0.00     0.016 A 
ATOM      7  C   UNL A   1      36.773  29.981  27.194  1.00  0.00     0.016 A 
ATOM      8  C   UNL A   1      37.460  29.061  29.724  1.00  0.00     0.010 A 
ATOM      9  C   UNL A   1      38.105  29.669  27.486  1.00  0.00     0.010 A 
ATOM     10  C   UNL A   1      38.459  29.193  28.754  1.00  0.00    -0.014 A 
BRANCH  10  11
ATOM     11  C   UNL A   1      39.873  28.966  29.143  1.00  0.00     0.031 A 
ATOM     12  C   UNL A   1      40.489  27.632  28.833  1.00  0.00     0.074 A 
ATOM     13  C   UNL A   1      40.612  29.962  29.677  1.00  0.00     0.049 A 
ATOM     14  N   UNL A   1      41.743  27.270  28.890  1.00  0.00    -0.248 NA
ATOM     15  C   UNL A   1      39.575  26.558  28.408  1.00  0.00     0.031 C 
ATOM     16  C   UNL A   1      40.110  31.281  30.074  1.00  0.00     0.029 A 
ATOM     17  N   UNL A   1      41.956  30.031  29.954  1.00  0.00    -0.354 N 
ATOM     18  C   UNL A   1      41.762  25.943  28.482  1.00  0.00     0.074 A 
ATOM     19  C   UNL A   1      40.395  25.528  28.291  1.00  0.00     0.031 C 
ATOM     20  C   UNL A   1      41.136  32.037  30.508  1.00  0.00     0.029 A 
ATOM     21  C   UNL A   1      42.371  31.263  30.411  1.00  0.00     0.049 A 
ATOM     22  H   UNL A   1      42.569  29.269  29.836  1.00  0.00     0.167 HD
ATOM     23  C   UNL A   1      42.827  25.154  28.215  1.00  0.00     0.037 A 
ATOM     24  C   UNL A   1      43.611  31.720  30.682  1.00  0.00     0.037 A 
ATOM     25  C   UNL A   1      44.185  25.574  28.392  1.00  0.00     0.049 A 
ATOM     26  C   UNL A   1      44.787  30.810  30.409  1.00  0.00     0.074 A 
ATOM     27  C   UNL A   1      45.346  24.868  28.148  1.00  0.00     0.029 A 
ATOM     28  N   UNL A   1      44.558  26.825  28.863  1.00  0.00    -0.354 N 
ATOM     29  N   UNL A   1      44.791  29.593  29.917  1.00  0.00    -0.248 NA
ATOM     30  C   UNL A   1      46.125  31.343  30.700  1.00  0.00     0.031 C 
ATOM     31  C   UNL A   1      46.426  25.685  28.500  1.00  0.00     0.029 A 
ATOM     32  C   UNL A   1      45.935  26.910  28.927  1.00  0.00     0.049 A 
ATOM     33  H   UNL A   1      43.935  27.544  29.113  1.00  0.00     0.167 HD
ATOM     34  C   UNL A   1      46.130  29.230  29.807  1.00  0.00     0.074 A 
ATOM     35  C   UNL A   1      46.906  30.361  30.272  1.00  0.00     0.031 C 
ATOM     36  C   UNL A   1      46.672  28.068  29.367  1.00  0.00     0.037 A 
BRANCH  23  37
ATOM     37  C   UNL A   1      42.528  23.784  27.684  1.00  0.00     0.058 A 
ATOM     38  C   UNL A   1      42.417  22.680  28.549  1.00  0.00     0.135 A 
ATOM     39  C   UNL A   1      42.423  23.553  26.305  1.00  0.00     0.135 A 
ATOM     40  F   UNL A   1      42.545  22.845  29.876  1.00  0.00    -0.206 F 
ATOM     41  C   UNL A   1      42.262  21.389  28.061  1.00  0.00     0.059 A 
ATOM     42  C   UNL A   1      42.241  22.270  25.797  1.00  0.00     0.059 A 
ATOM     43  F   UNL A   1      42.534  24.571  25.438  1.00  0.00    -0.206 F 
ATOM     44  C   UNL A   1      42.184  21.193  26.683  1.00  0.00     0.060 A 
BRANCH  44  45
ATOM     45  S   UNL A   1      42.025  19.505  26.065  1.00  0.00     0.124 S 
ATOM     46  O   UNL A   1      42.888  19.545  24.887  1.00  0.00    -0.237 OA
ATOM     47  O   UNL A   1      42.522  18.714  27.186  1.00  0.00    -0.237 OA
ATOM     48  O   UNL A   1      40.597  19.376  25.793  1.00  0.00    -0.744 OA
ENDBRANCH  44  45
ENDBRANCH  23  37
BRANCH  24  49
ATOM     49  C   UNL A   1      43.833  33.107  31.185  1.00  0.00     0.058 A 
ATOM     50  C   UNL A   1      43.816  33.397  32.559  1.00  0.00     0.135 A 
ATOM     51  C   UNL A   1      44.010  34.183  30.302  1.00  0.00     0.135 A 
ATOM     52  F   UNL A   1      43.648  32.407  33.450  1.00  0.00    -0.206 F 
ATOM     53  C   UNL A   1      43.926  34.701  33.037  1.00  0.00     0.059 A 
ATOM     54  C   UNL A   1      44.145  35.494  30.756  1.00  0.00     0.059 A 
ATOM     55  F   UNL A   1      44.053  33.966  28.978  1.00  0.00    -0.206 F 
ATOM     56  C   UNL A   1      44.083  35.745  32.126  1.00  0.00     0.060 A 
BRANCH  56  57
ATOM     57  S   UNL A   1      44.230  37.433  32.755  1.00  0.00     0.124 S 
ATOM     58  O   UNL A   1      43.967  38.218  31.554  1.00  0.00    -0.237 OA
ATOM     59  O   UNL A   1      43.192  37.469  33.781  1.00  0.00    -0.237 OA
ATOM     60  O   UNL A   1      45.600  37.485  33.258  1.00  0.00    -0.744 OA
ENDBRANCH  56  57
ENDBRANCH  24  49
BRANCH  36  61
ATOM     61  C   UNL A   1      48.170  27.972  29.326  1.00  0.00     0.058 A 
ATOM     62  C   UNL A   1      48.901  27.472  30.413  1.00  0.00     0.135 A 
ATOM     63  C   UNL A   1      48.867  28.292  28.149  1.00  0.00     0.135 A 
ATOM     64  F   UNL A   1      48.278  27.156  31.559  1.00  0.00    -0.206 F 
ATOM     65  C   UNL A   1      50.279  27.301  30.339  1.00  0.00     0.059 A 
ATOM     66  C   UNL A   1      50.240  28.103  28.045  1.00  0.00     0.059 A 
ATOM     67  F   UNL A   1      48.208  28.762  27.079  1.00  0.00    -0.206 F 
ATOM     68  C   UNL A   1      50.938  27.612  29.148  1.00  0.00     0.060 A 
BRANCH  68  69
ATOM     69  S   UNL A   1      52.716  27.322  29.041  1.00  0.00     0.124 S 
ATOM     70  O   UNL A   1      52.823  26.633  27.760  1.00  0.00    -0.237 OA
ATOM     71  O   UNL A   1      53.258  28.677  29.080  1.00  0.00    -0.237 OA
ATOM     72  O   UNL A   1      52.998  26.509  30.220  1.00  0.00    -0.744 OA
ENDBRANCH  68  69
ENDBRANCH  36  61
ENDBRANCH  10  11
ENDBRANCH   3   5
ENDBRANCH   2   3
ENDBRANCH   1   2
BRANCH   1  73
ATOM     73  C   UNL A   1      34.355  33.050  28.560  1.00  0.00     0.274 C 
BRANCH  73  74
ATOM     74  O   UNL A   1      34.880  32.697  29.856  1.00  0.00    -0.462 OA
BRANCH  74  75
ATOM     75  C   UNL A   1      36.186  33.048  30.009  1.00  0.00     0.311 C 
ATOM     76  O   UNL A   1      36.817  33.712  29.187  1.00  0.00    -0.252 OA
BRANCH  75  77
ATOM     77  C   UNL A   1      36.894  32.466  31.205  1.00  0.00     0.124 C 
ATOM     78  C   UNL A   1      36.219  31.665  32.334  1.00  0.00     0.042 C 
ATOM     79  C   UNL A   1      37.560  33.594  32.005  1.00  0.00     0.099 C 
ATOM     80  C   UNL A   1      36.746  32.333  33.636  1.00  0.00     0.086 C 
ATOM     81  C   UNL A   1      36.487  34.498  32.674  1.00  0.00     0.028 C 
ATOM     82  N   UNL A   1      38.005  32.845  33.158  1.00  0.00    -0.336 N 
ATOM     83  C   UNL A   1      36.027  33.655  33.884  1.00  0.00     0.027 C 
BRANCH  82  84
ATOM     84  C   UNL A   1      39.173  32.964  33.859  1.00  0.00     0.225 C 
ATOM     85  O   UNL A   1      39.868  33.976  33.830  1.00  0.00    -0.275 OA
BRANCH  84  86
ATOM     86  C   UNL A   1      39.508  31.771  34.734  1.00  0.00     0.132 C 
BRANCH  86  87
ATOM     87  C   UNL A   1      40.013  30.650  33.823  1.00  0.00     0.127 C 
ATOM     88  C   UNL A   1      41.380  30.105  34.221  1.00  0.00     0.033 C 
ATOM     89  O   UNL A   1      39.056  29.585  33.836  1.00  0.00    -0.378 OA
ATOM     90  C   UNL A   1      41.782  28.992  33.248  1.00  0.00     0.005 C 
ATOM     91  C   UNL A   1      39.329  28.620  32.821  1.00  0.00     0.160 C 
ATOM     92  C   UNL A   1      40.668  27.954  33.102  1.00  0.00     0.029 C 
ENDBRANCH  86  87
ENDBRANCH  84  86
ENDBRANCH  82  84
ENDBRANCH  75  77
ENDBRANCH  74  75
ENDBRANCH  73  74
ENDBRANCH   1  73
TORSDOF 17
ENDMDL
MODEL 2
REMARK VINA RESULT:      -9.0      4.238     10.673
REMARK SMILES O=C(OCCOC(=O)[C@@H]1C[C@@H]2CC[C@H]1N2C(=O)C[C@H]1CCCCO1)c1ccc(-c2c3nc(c(-c4c(F)cc(S(=O)(=O)[O-])cc4F)c4ccc([nH]4)c(-c4c(F)cc(S(=O)(=O)[O-])cc4F)c4nc(c(-c5c(F)cc(S(=O)(=O)[O-])cc5F)c5ccc2[nH]5)C=C4)C=C3)cc1
REMARK SMILES IDX 4 1 3 2 2 3 1 4 25 5 26 6 90 7 27 8 89 9 28 10 29 11 30 12
REMARK SMILES IDX 83 13 31 14 88 15 82 16 84 17 32 18 87 19 81 20 80 21 33 23
REMARK SMILES IDX 67 24 46 25 66 26 47 27 50 28 65 29 85 30 48 31 49 32 64 34
REMARK SMILES IDX 86 35 51 36 34 37 35 38 44 39 36 40 37 41 43 42 45 43 38 44
REMARK SMILES IDX 39 45 40 46 41 47 42 48 68 49 69 50 78 51 70 52 71 53 77 54
REMARK SMILES IDX 79 55 72 56 73 57 74 58 75 59 76 60 52 61 53 62 62 63 54 64
REMARK SMILES IDX 55 65 61 66 63 67 56 68 57 69 58 70 59 71 60 72 5 73 6 74
REMARK SMILES IDX 7 75 8 76 9 77 10 78 14 79 11 80 13 81 15 82 12 83 16 84
REMARK SMILES IDX 17 85 18 86 19 87 20 88 24 89 21 90 23 91 22 92
REMARK H PARENT 84 22 50 33
REMARK Flexibility Score: inf
ROOT
ATOM      1  C   UNL A   1      36.094  23.864  25.707  1.00  0.00     0.275 C 
ENDROOT
BRANCH   1   2
ATOM      2  O   UNL A   1      37.395  23.701  25.112  1.00  0.00    -0.458 OA
BRANCH   2   3
ATOM      3  C   UNL A   1      38.476  23.314  25.826  1.00  0.00     0.338 C 
ATOM      4  O   UNL A   1      38.911  22.174  25.751  1.00  0.00    -0.246 OA
BRANCH   3   5
ATOM      5  C   UNL A   1      39.170  24.357  26.641  1.00  0.00     0.060 A 
ATOM      6  C   UNL A   1      40.040  25.317  26.124  1.00  0.00     0.016 A 
ATOM      7  C   UNL A   1      38.846  24.415  28.001  1.00  0.00     0.016 A 
ATOM      8  C   UNL A   1      40.462  26.392  26.907  1.00  0.00     0.010 A 
ATOM      9  C   UNL A   1      39.231  25.511  28.780  1.00  0.00     0.010 A 
ATOM     10  C   UNL A   1      40.035  26.519  28.233  1.00  0.00    -0.014 A 
BRANCH  10  11
ATOM     11  C   UNL A   1      40.565  27.635  29.055  1.00  0.00     0.031 A 
ATOM     12  C   UNL A   1      39.714  28.861  29.221  1.00  0.00     0.074 A 
ATOM     13  C   UNL A   1      41.740  27.514  29.712  1.00  0.00     0.049 A 
ATOM     14  N   UNL A   1      39.867  29.866  30.041  1.00  0.00    -0.248 NA
ATOM     15  C   UNL A   1      38.536  28.979  28.344  1.00  0.00     0.031 C 
ATOM     16  C   UNL A   1      42.678  26.395  29.585  1.00  0.00     0.029 A 
ATOM     17  N   UNL A   1      42.334  28.332  30.642  1.00  0.00    -0.354 N 
ATOM     18  C   UNL A   1      38.793  30.711  29.794  1.00  0.00     0.074 A 
ATOM     19  C   UNL A   1      38.061  30.166  28.678  1.00  0.00     0.031 C 
ATOM     20  C   UNL A   1      43.709  26.580  30.430  1.00  0.00     0.029 A 
ATOM     21  C   UNL A   1      43.501  27.823  31.169  1.00  0.00     0.049 A 
ATOM     22  H   UNL A   1      41.960  29.202  30.909  1.00  0.00     0.167 HD
ATOM     23  C   UNL A   1      38.403  31.807  30.481  1.00  0.00     0.037 A 
ATOM     24  C   UNL A   1      44.288  28.293  32.159  1.00  0.00     0.037 A 
ATOM     25  C   UNL A   1      39.123  32.338  31.599  1.00  0.00     0.049 A 
ATOM     26  C   UNL A   1      43.851  29.539  32.893  1.00  0.00     0.074 A 
ATOM     27  C   UNL A   1      38.822  33.436  32.379  1.00  0.00     0.029 A 
ATOM     28  N   UNL A   1      40.303  31.797  32.092  1.00  0.00    -0.354 N 
ATOM     29  N   UNL A   1      42.769  30.264  32.716  1.00  0.00    -0.248 NA
ATOM     30  C   UNL A   1      44.721  30.017  33.977  1.00  0.00     0.031 C 
ATOM     31  C   UNL A   1      39.838  33.577  33.331  1.00  0.00     0.029 A 
ATOM     32  C   UNL A   1      40.749  32.545  33.164  1.00  0.00     0.049 A 
ATOM     33  H   UNL A   1      40.752  30.999  31.733  1.00  0.00     0.167 HD
ATOM     34  C   UNL A   1      42.815  31.259  33.688  1.00  0.00     0.074 A 
ATOM     35  C   UNL A   1      44.021  31.035  34.457  1.00  0.00     0.031 C 
ATOM     36  C   UNL A   1      41.942  32.270  33.925  1.00  0.00     0.037 A 
BRANCH  23  37
ATOM     37  C   UNL A   1      37.126  32.457  30.034  1.00  0.00     0.058 A 
ATOM     38  C   UNL A   1      37.141  33.532  29.126  1.00  0.00     0.135 A 
ATOM     39  C   UNL A   1      35.891  32.059  30.563  1.00  0.00     0.135 A 
ATOM     40  F   UNL A   1      38.304  33.973  28.618  1.00  0.00    -0.206 F 
ATOM     41  C   UNL A   1      35.980  34.221  28.799  1.00  0.00     0.059 A 
ATOM     42  C   UNL A   1      34.712  32.719  30.227  1.00  0.00     0.059 A 
ATOM     43  F   UNL A   1      35.826  31.047  31.441  1.00  0.00    -0.206 F 
ATOM     44  C   UNL A   1      34.772  33.812  29.362  1.00  0.00     0.060 A 
BRANCH  44  45
ATOM     45  S   UNL A   1      33.280  34.744  28.958  1.00  0.00     0.124 S 
ATOM     46  O   UNL A   1      33.845  35.954  28.366  1.00  0.00    -0.237 OA
ATOM     47  O   UNL A   1      32.593  33.848  28.033  1.00  0.00    -0.237 OA
ATOM     48  O   UNL A   1      32.630  34.922  30.253  1.00  0.00    -0.744 OA
ENDBRANCH  44  45
ENDBRANCH  23  37
BRANCH  24  49
ATOM     49  C   UNL A   1      45.531  27.576  32.567  1.00  0.00     0.058 A 
ATOM     50  C   UNL A   1      45.518  26.615  33.592  1.00  0.00     0.135 A 
ATOM     51  C   UNL A   1      46.770  27.874  31.980  1.00  0.00     0.135 A 
ATOM     52  F   UNL A   1      44.361  26.292  34.191  1.00  0.00    -0.206 F 
ATOM     53  C   UNL A   1      46.687  26.009  34.047  1.00  0.00     0.059 A 
ATOM     54  C   UNL A   1      47.951  27.265  32.401  1.00  0.00     0.059 A 
ATOM     55  F   UNL A   1      46.843  28.769  30.982  1.00  0.00    -0.206 F 
ATOM     56  C   UNL A   1      47.901  26.346  33.449  1.00  0.00     0.060 A 
BRANCH  56  57
ATOM     57  S   UNL A   1      49.412  25.551  34.043  1.00  0.00     0.124 S 
ATOM     58  O   UNL A   1      50.359  26.660  34.013  1.00  0.00    -0.237 OA
ATOM     59  O   UNL A   1      49.014  25.087  35.368  1.00  0.00    -0.237 OA
ATOM     60  O   UNL A   1      49.642  24.495  33.061  1.00  0.00    -0.744 OA
ENDBRANCH  56  57
ENDBRANCH  24  49
BRANCH  36  61
ATOM     61  C   UNL A   1      42.233  33.183  35.080  1.00  0.00     0.058 A 
ATOM     62  C   UNL A   1      42.964  34.368  34.910  1.00  0.00     0.135 A 
ATOM     63  C   UNL A   1      41.690  32.916  36.347  1.00  0.00     0.135 A 
ATOM     64  F   UNL A   1      43.506  34.664  33.717  1.00  0.00    -0.206 F 
ATOM     65  C   UNL A   1      43.156  35.256  35.962  1.00  0.00     0.059 A 
ATOM     66  C   UNL A   1      41.847  33.803  37.405  1.00  0.00     0.059 A 
ATOM     67  F   UNL A   1      40.972  31.801  36.554  1.00  0.00    -0.206 F 
ATOM     68  C   UNL A   1      42.587  34.968  37.205  1.00  0.00     0.060 A 
BRANCH  68  69
ATOM     69  S   UNL A   1      42.785  36.160  38.545  1.00  0.00     0.124 S 
ATOM     70  O   UNL A   1      43.874  36.989  38.040  1.00  0.00    -0.237 OA
ATOM     71  O   UNL A   1      41.472  36.797  38.594  1.00  0.00    -0.237 OA
ATOM     72  O   UNL A   1      43.110  35.324  39.696  1.00  0.00    -0.744 OA
ENDBRANCH  68  69
ENDBRANCH  36  61
ENDBRANCH  10  11
ENDBRANCH   3   5
ENDBRANCH   2   3
ENDBRANCH   1   2
BRANCH   1  73
ATOM     73  C   UNL A   1      35.214  22.624  25.897  1.00  0.00     0.274 C 
BRANCH  73  74
ATOM     74  O   UNL A   1      33.805  22.868  26.080  1.00  0.00    -0.462 OA
BRANCH  74  75
ATOM     75  C   UNL A   1      33.093  22.735  24.927  1.00  0.00     0.311 C 
ATOM     76  O   UNL A   1      33.345  21.900  24.061  1.00  0.00    -0.252 OA
BRANCH  75  77
ATOM     77  C   UNL A   1      32.023  23.769  24.686  1.00  0.00     0.124 C 
ATOM     78  C   UNL A   1      31.181  23.894  23.402  1.00  0.00     0.042 C 
ATOM     79  C   UNL A   1      32.638  25.172  24.771  1.00  0.00     0.099 C 
ATOM     80  C   UNL A   1      31.279  25.402  23.035  1.00  0.00     0.086 C 
ATOM     81  C   UNL A   1      33.600  25.421  23.576  1.00  0.00     0.028 C 
ATOM     82  N   UNL A   1      31.505  25.961  24.343  1.00  0.00    -0.336 N 
ATOM     83  C   UNL A   1      32.634  25.709  22.405  1.00  0.00     0.027 C 
BRANCH  82  84
ATOM     84  C   UNL A   1      31.075  27.170  24.816  1.00  0.00     0.225 C 
ATOM     85  O   UNL A   1      30.440  27.966  24.130  1.00  0.00    -0.275 OA
BRANCH  84  86
ATOM     86  C   UNL A   1      31.381  27.421  26.281  1.00  0.00     0.132 C 
BRANCH  86  87
ATOM     87  C   UNL A   1      32.452  28.511  26.354  1.00  0.00     0.127 C 
ATOM     88  C   UNL A   1      32.073  29.684  27.251  1.00  0.00     0.033 C 
ATOM     89  O   UNL A   1      33.669  27.924  26.829  1.00  0.00    -0.378 OA
ATOM     90  C   UNL A   1      33.214  30.707  27.253  1.00  0.00     0.005 C 
ATOM     91  C   UNL A   1      34.775  28.814  26.683  1.00  0.00     0.160 C 
ATOM     92  C   UNL A   1      34.557  30.040  27.558  1.00  0.00     0.029 C 
ENDBRANCH  86  87
ENDBRANCH  84  86
ENDBRANCH  82  84
ENDBRANCH  75  77
ENDBRANCH  74  75
ENDBRANCH  73  74
ENDBRANCH   1  73
TORSDOF 17
ENDMDL
MODEL 3
REMARK VINA RESULT:      -8.9      4.526     11.133
REMARK SMILES O=C(OCCOC(=O)[C@@H]1C[C@@H]2CC[C@H]1N2C(=O)C[C@H]1CCCCO1)c1ccc(-c2c3nc(c(-c4c(F)cc(S(=O)(=O)[O-])cc4F)c4ccc([nH]4)c(-c4c(F)cc(S(=O)(=O)[O-])cc4F)c4nc(c(-c5c(F)cc(S(=O)(=O)[O-])cc5F)c5ccc2[nH]5)C=C4)C=C3)cc1
REMARK SMILES IDX 4 1 3 2 2 3 1 4 25 5 26 6 90 7 27 8 89 9 28 10 29 11 30 12
REMARK SMILES IDX 83 13 31 14 88 15 82 16 84 17 32 18 87 19 81 20 80 21 33 23
REMARK SMILES IDX 67 24 46 25 66 26 47 27 50 28 65 29 85 30 48 31 49 32 64 34
REMARK SMILES IDX 86 35 51 36 34 37 35 38 44 39 36 40 37 41 43 42 45 43 38 44
REMARK SMILES IDX 39 45 40 46 41 47 42 48 68 49 69 50 78 51 70 52 71 53 77 54
REMARK SMILES IDX 79 55 72 56 73 57 74 58 75 59 76 60 52 61 53 62 62 63 54 64
REMARK SMILES IDX 55 65 61 66 63 67 56 68 57 69 58 70 59 71 60 72 5 73 6 74
REMARK SMILES IDX 7 75 8 76 9 77 10 78 14 79 11 80 13 81 15 82 12 83 16 84
REMARK SMILES IDX 17 85 18 86 19 87 20 88 24 89 21 90 23 91 22 92
REMARK H PARENT 84 22 50 33
REMARK Flexibility Score: inf
ROOT
ATOM      1  C   UNL A   1      36.153  24.069  25.736  1.00  0.00     0.275 C 
ENDROOT
BRANCH   1   2
ATOM      2  O   UNL A   1      37.417  23.731  25.136  1.00  0.00    -0.458 OA
BRANCH   2   3
ATOM      3  C   UNL A   1      38.486  23.343  25.867  1.00  0.00     0.338 C 
ATOM      4  O   UNL A   1      38.904  22.195  25.820  1.00  0.00    -0.246 OA
BRANCH   3   5
ATOM      5  C   UNL A   1      39.189  24.392  26.667  1.00  0.00     0.060 A 
ATOM      6  C   UNL A   1      40.064  25.340  26.135  1.00  0.00     0.016 A 
ATOM      7  C   UNL A   1      38.871  24.469  28.027  1.00  0.00     0.016 A 
ATOM      8  C   UNL A   1      40.495  26.422  26.903  1.00  0.00     0.010 A 
ATOM      9  C   UNL A   1      39.265  25.573  28.790  1.00  0.00     0.010 A 
ATOM     10  C   UNL A   1      40.073  26.569  28.228  1.00  0.00    -0.014 A 
BRANCH  10  11
ATOM     11  C   UNL A   1      40.613  27.692  29.033  1.00  0.00     0.031 A 
ATOM     12  C   UNL A   1      39.761  28.917  29.204  1.00  0.00     0.074 A 
ATOM     13  C   UNL A   1      41.798  27.579  29.672  1.00  0.00     0.049 A 
ATOM     14  N   UNL A   1      39.925  29.928  30.015  1.00  0.00    -0.248 NA
ATOM     15  C   UNL A   1      38.569  29.025  28.346  1.00  0.00     0.031 C 
ATOM     16  C   UNL A   1      42.738  26.462  29.538  1.00  0.00     0.029 A 
ATOM     17  N   UNL A   1      42.405  28.405  30.587  1.00  0.00    -0.354 N 
ATOM     18  C   UNL A   1      38.844  30.767  29.779  1.00  0.00     0.074 A 
ATOM     19  C   UNL A   1      38.096  30.213  28.679  1.00  0.00     0.031 C 
ATOM     20  C   UNL A   1      43.782  26.656  30.366  1.00  0.00     0.029 A 
ATOM     21  C   UNL A   1      43.582  27.903  31.099  1.00  0.00     0.049 A 
ATOM     22  H   UNL A   1      42.033  29.276  30.855  1.00  0.00     0.167 HD
ATOM     23  C   UNL A   1      38.461  31.868  30.465  1.00  0.00     0.037 A 
ATOM     24  C   UNL A   1      44.382  28.382  32.073  1.00  0.00     0.037 A 
ATOM     25  C   UNL A   1      39.198  32.408  31.567  1.00  0.00     0.049 A 
ATOM     26  C   UNL A   1      43.953  29.632  32.806  1.00  0.00     0.074 A 
ATOM     27  C   UNL A   1      38.906  33.511  32.345  1.00  0.00     0.029 A 
ATOM     28  N   UNL A   1      40.387  31.874  32.046  1.00  0.00    -0.354 N 
ATOM     29  N   UNL A   1      42.868  30.353  32.641  1.00  0.00    -0.248 NA
ATOM     30  C   UNL A   1      44.840  30.119  33.872  1.00  0.00     0.031 C 
ATOM     31  C   UNL A   1      39.936  33.662  33.279  1.00  0.00     0.029 A 
ATOM     32  C   UNL A   1      40.848  32.631  33.105  1.00  0.00     0.049 A 
ATOM     33  H   UNL A   1      40.833  31.074  31.685  1.00  0.00     0.167 HD
ATOM     34  C   UNL A   1      42.925  31.355  33.605  1.00  0.00     0.074 A 
ATOM     35  C   UNL A   1      44.145  31.139  34.357  1.00  0.00     0.031 C 
ATOM     36  C   UNL A   1      42.054  32.364  33.849  1.00  0.00     0.037 A 
BRANCH  23  37
ATOM     37  C   UNL A   1      37.176  32.511  30.034  1.00  0.00     0.058 A 
ATOM     38  C   UNL A   1      37.172  33.566  29.104  1.00  0.00     0.135 A 
ATOM     39  C   UNL A   1      35.953  32.127  30.599  1.00  0.00     0.135 A 
ATOM     40  F   UNL A   1      38.324  33.993  28.560  1.00  0.00    -0.206 F 
ATOM     41  C   UNL A   1      36.005  34.251  28.789  1.00  0.00     0.059 A 
ATOM     42  C   UNL A   1      34.768  32.782  30.277  1.00  0.00     0.059 A 
ATOM     43  F   UNL A   1      35.906  31.134  31.501  1.00  0.00    -0.206 F 
ATOM     44  C   UNL A   1      34.809  33.857  29.387  1.00  0.00     0.060 A 
BRANCH  44  45
ATOM     45  S   UNL A   1      33.310  34.783  28.999  1.00  0.00     0.124 S 
ATOM     46  O   UNL A   1      33.866  36.040  28.504  1.00  0.00    -0.237 OA
ATOM     47  O   UNL A   1      32.670  33.936  27.997  1.00  0.00    -0.237 OA
ATOM     48  O   UNL A   1      32.619  34.864  30.282  1.00  0.00    -0.744 OA
ENDBRANCH  44  45
ENDBRANCH  23  37
BRANCH  24  49
ATOM     49  C   UNL A   1      45.635  27.671  32.466  1.00  0.00     0.058 A 
ATOM     50  C   UNL A   1      45.631  26.682  33.464  1.00  0.00     0.135 A 
ATOM     51  C   UNL A   1      46.872  28.003  31.893  1.00  0.00     0.135 A 
ATOM     52  F   UNL A   1      44.477  26.326  34.049  1.00  0.00    -0.206 F 
ATOM     53  C   UNL A   1      46.807  26.080  33.907  1.00  0.00     0.059 A 
ATOM     54  C   UNL A   1      48.059  27.399  32.303  1.00  0.00     0.059 A 
ATOM     55  F   UNL A   1      46.936  28.927  30.922  1.00  0.00    -0.206 F 
ATOM     56  C   UNL A   1      48.018  26.450  33.324  1.00  0.00     0.060 A 
BRANCH  56  57
ATOM     57  S   UNL A   1      49.538  25.660  33.902  1.00  0.00     0.124 S 
ATOM     58  O   UNL A   1      49.370  25.722  35.349  1.00  0.00    -0.237 OA
ATOM     59  O   UNL A   1      49.439  24.332  33.303  1.00  0.00    -0.237 OA
ATOM     60  O   UNL A   1      50.588  26.511  33.349  1.00  0.00    -0.744 OA
ENDBRANCH  56  57
ENDBRANCH  24  49
BRANCH  36  61
ATOM     61  C   UNL A   1      42.360  33.286  34.993  1.00  0.00     0.058 A 
ATOM     62  C   UNL A   1      43.118  34.452  34.810  1.00  0.00     0.135 A 
ATOM     63  C   UNL A   1      41.805  33.049  36.261  1.00  0.00     0.135 A 
ATOM     64  F   UNL A   1      43.672  34.719  33.616  1.00  0.00    -0.206 F 
ATOM     65  C   UNL A   1      43.326  35.349  35.852  1.00  0.00     0.059 A 
ATOM     66  C   UNL A   1      41.978  33.946  37.308  1.00  0.00     0.059 A 
ATOM     67  F   UNL A   1      41.062  31.953  36.480  1.00  0.00    -0.206 F 
ATOM     68  C   UNL A   1      42.745  35.091  37.095  1.00  0.00     0.060 A 
BRANCH  68  69
ATOM     69  S   UNL A   1      42.964  36.296  38.420  1.00  0.00     0.124 S 
ATOM     70  O   UNL A   1      41.708  36.161  39.149  1.00  0.00    -0.237 OA
ATOM     71  O   UNL A   1      44.152  35.797  39.105  1.00  0.00    -0.237 OA
ATOM     72  O   UNL A   1      43.145  37.556  37.705  1.00  0.00    -0.744 OA
ENDBRANCH  68  69
ENDBRANCH  36  61
ENDBRANCH  10  11
ENDBRANCH   3   5
ENDBRANCH   2   3
ENDBRANCH   1   2
BRANCH   1  73
ATOM     73  C   UNL A   1      34.999  23.068  25.626  1.00  0.00     0.274 C 
BRANCH  73  74
ATOM     74  O   UNL A   1      33.675  23.602  25.828  1.00  0.00    -0.462 OA
BRANCH  74  75
ATOM     75  C   UNL A   1      32.964  23.700  24.671  1.00  0.00     0.311 C 
ATOM     76  O   UNL A   1      32.707  22.742  23.943  1.00  0.00    -0.252 OA
BRANCH  75  77
ATOM     77  C   UNL A   1      32.597  25.095  24.234  1.00  0.00     0.124 C 
ATOM     78  C   UNL A   1      33.199  26.392  24.805  1.00  0.00     0.042 C 
ATOM     79  C   UNL A   1      31.102  25.332  24.480  1.00  0.00     0.099 C 
ATOM     80  C   UNL A   1      31.956  27.272  25.126  1.00  0.00     0.086 C 
ATOM     81  C   UNL A   1      30.799  25.383  26.004  1.00  0.00     0.028 C 
ATOM     82  N   UNL A   1      31.023  26.741  24.166  1.00  0.00    -0.336 N 
ATOM     83  C   UNL A   1      31.283  26.794  26.408  1.00  0.00     0.027 C 
BRANCH  82  84
ATOM     84  C   UNL A   1      30.037  27.418  23.503  1.00  0.00     0.225 C 
ATOM     85  O   UNL A   1      28.857  27.083  23.540  1.00  0.00    -0.275 OA
BRANCH  84  86
ATOM     86  C   UNL A   1      30.508  28.663  22.774  1.00  0.00     0.132 C 
BRANCH  86  87
ATOM     87  C   UNL A   1      29.303  29.592  22.610  1.00  0.00     0.127 C 
ATOM     88  C   UNL A   1      29.273  30.741  23.612  1.00  0.00     0.033 C 
ATOM     89  O   UNL A   1      29.313  30.122  21.280  1.00  0.00    -0.378 OA
ATOM     90  C   UNL A   1      28.033  31.603  23.353  1.00  0.00     0.005 C 
ATOM     91  C   UNL A   1      28.091  30.791  20.970  1.00  0.00     0.160 C 
ATOM     92  C   UNL A   1      27.931  32.000  21.879  1.00  0.00     0.029 C 
ENDBRANCH  86  87
ENDBRANCH  84  86
ENDBRANCH  82  84
ENDBRANCH  75  77
ENDBRANCH  74  75
ENDBRANCH  73  74
ENDBRANCH   1  73
TORSDOF 17
ENDMDL
