MODEL 1
REMARK VINA RESULT:     -10.3      0.000      0.000
REMARK SMILES C#CCN(CC(=O)OCCOC(=O)c1ccc(-c2c3nc(c(-c4c(F)cc(S(=O)(=O)[O-])cc4F)c4ccc([nH]4)c(-c4c(F)cc(S(=O)(=O)[O-])cc4F)c4nc(c(-c5c(F)cc(S(=O)(=O)[O-])cc5F)c5ccc2[nH]5)C=C4)C=C3)cc1)S(=O)(=O)c1c(C)cc(C)cc1C
REMARK SMILES IDX 9 1 8 2 6 3 7 4 5 5 4 6 3 7 2 8 1 9 80 10 81 11 82 12 83 13
REMARK SMILES IDX 84 14 90 15 85 16 86 17 89 18 91 19 87 20 88 21 10 22 11 23
REMARK SMILES IDX 12 24 13 25 14 26 15 27 79 28 16 29 78 30 17 31 18 32 19 33
REMARK SMILES IDX 72 34 20 35 77 36 71 37 73 38 21 39 76 40 70 41 69 42 22 44
REMARK SMILES IDX 56 45 35 46 55 47 36 48 39 49 54 50 74 51 37 52 38 53 53 55
REMARK SMILES IDX 75 56 40 57 23 58 24 59 33 60 25 61 26 62 32 63 34 64 27 65
REMARK SMILES IDX 28 66 29 67 30 68 31 69 57 70 58 71 67 72 59 73 60 74 66 75
REMARK SMILES IDX 68 76 61 77 62 78 63 79 64 80 65 81 41 82 42 83 51 84 43 85
REMARK SMILES IDX 44 86 50 87 52 88 45 89 46 90 47 91 48 92 49 93
REMARK H PARENT 73 43 39 54
REMARK Flexibility Score: inf
ROOT
ATOM      1  C   UNL A   1      35.816  22.108  25.573  1.00  0.00     0.274 C 
ENDROOT
BRANCH   1   2
ATOM      2  O   UNL A   1      35.858  23.321  24.789  1.00  0.00    -0.461 OA
BRANCH   2   3
ATOM      3  C   UNL A   1      35.828  23.183  23.444  1.00  0.00     0.321 C 
ATOM      4  O   UNL A   1      36.833  23.235  22.738  1.00  0.00    -0.251 OA
BRANCH   3   5
ATOM      5  C   UNL A   1      34.464  22.964  22.837  1.00  0.00     0.226 C 
BRANCH   5   6
ATOM      6  N   UNL A   1      33.206  23.638  23.163  1.00  0.00    -0.175 NA
BRANCH   6   7
ATOM      7  C   UNL A   1      32.028  22.740  23.134  1.00  0.00     0.192 C 
BRANCH   7   8
ATOM      8  C   UNL A   1      32.368  21.354  23.659  1.00  0.00    -0.090 C 
ATOM      9  C   UNL A   1      32.660  20.166  24.109  1.00  0.00     0.005 C 
ENDBRANCH   7   8
ENDBRANCH   6   7
BRANCH   6  10
ATOM     10  S   UNL A   1      32.890  25.268  22.768  1.00  0.00     0.245 S 
ATOM     11  O   UNL A   1      33.558  25.495  21.503  1.00  0.00    -0.207 OA
ATOM     12  O   UNL A   1      31.451  25.447  22.850  1.00  0.00    -0.207 OA
BRANCH  10  13
ATOM     13  C   UNL A   1      33.498  26.418  24.005  1.00  0.00     0.088 A 
ATOM     14  C   UNL A   1      33.323  26.126  25.384  1.00  0.00    -0.031 A 
ATOM     15  C   UNL A   1      33.809  27.745  23.601  1.00  0.00    -0.031 A 
ATOM     16  C   UNL A   1      32.959  24.779  25.946  1.00  0.00     0.046 C 
ATOM     17  C   UNL A   1      33.477  27.162  26.327  1.00  0.00     0.008 A 
ATOM     18  C   UNL A   1      33.857  28.755  24.578  1.00  0.00     0.008 A 
ATOM     19  C   UNL A   1      33.981  28.206  22.177  1.00  0.00     0.046 C 
ATOM     20  C   UNL A   1      33.688  28.481  25.932  1.00  0.00    -0.051 A 
ATOM     21  C   UNL A   1      33.709  29.590  26.944  1.00  0.00     0.044 C 
ENDBRANCH  10  13
ENDBRANCH   6  10
ENDBRANCH   5   6
ENDBRANCH   3   5
ENDBRANCH   2   3
ENDBRANCH   1   2
BRANCH   1  22
ATOM     22  C   UNL A   1      37.186  21.420  25.628  1.00  0.00     0.275 C 
BRANCH  22  23
ATOM     23  O   UNL A   1      38.277  22.354  25.478  1.00  0.00    -0.458 OA
BRANCH  23  24
ATOM     24  C   UNL A   1      39.241  22.188  26.406  1.00  0.00     0.338 C 
ATOM     25  O   UNL A   1      39.838  21.145  26.637  1.00  0.00    -0.246 OA
BRANCH  24  26
ATOM     26  C   UNL A   1      39.658  23.427  27.062  1.00  0.00     0.060 A 
ATOM     27  C   UNL A   1      39.254  24.617  26.464  1.00  0.00     0.016 A 
ATOM     28  C   UNL A   1      40.652  23.432  28.037  1.00  0.00     0.016 A 
ATOM     29  C   UNL A   1      39.919  25.799  26.742  1.00  0.00     0.010 A 
ATOM     30  C   UNL A   1      41.255  24.648  28.391  1.00  0.00     0.010 A 
ATOM     31  C   UNL A   1      40.930  25.834  27.711  1.00  0.00    -0.014 A 
BRANCH  31  32
ATOM     32  C   UNL A   1      41.616  27.129  27.961  1.00  0.00     0.031 A 
ATOM     33  C   UNL A   1      40.884  28.296  28.570  1.00  0.00     0.074 A 
ATOM     34  C   UNL A   1      42.945  27.210  27.745  1.00  0.00     0.049 A 
ATOM     35  N   UNL A   1      41.365  29.445  28.976  1.00  0.00    -0.248 NA
ATOM     36  C   UNL A   1      39.435  28.153  28.779  1.00  0.00     0.031 C 
ATOM     37  C   UNL A   1      43.776  26.137  27.191  1.00  0.00     0.029 A 
ATOM     38  N   UNL A   1      43.833  28.227  27.981  1.00  0.00    -0.354 N 
ATOM     39  C   UNL A   1      40.294  30.132  29.536  1.00  0.00     0.074 A 
ATOM     40  C   UNL A   1      39.125  29.298  29.371  1.00  0.00     0.031 C 
ATOM     41  C   UNL A   1      45.053  26.544  27.153  1.00  0.00     0.029 A 
ATOM     42  C   UNL A   1      45.123  27.925  27.613  1.00  0.00     0.049 A 
ATOM     43  H   UNL A   1      43.573  29.092  28.374  1.00  0.00     0.167 HD
ATOM     44  C   UNL A   1      40.292  31.334  30.161  1.00  0.00     0.037 A 
ATOM     45  C   UNL A   1      46.233  28.684  27.606  1.00  0.00     0.037 A 
ATOM     46  C   UNL A   1      41.439  32.197  30.265  1.00  0.00     0.049 A 
ATOM     47  C   UNL A   1      46.153  30.098  28.100  1.00  0.00     0.074 A 
ATOM     48  C   UNL A   1      41.529  33.448  30.851  1.00  0.00     0.029 A 
ATOM     49  N   UNL A   1      42.690  31.912  29.739  1.00  0.00    -0.354 N 
ATOM     50  N   UNL A   1      45.137  30.718  28.650  1.00  0.00    -0.248 NA
ATOM     51  C   UNL A   1      47.360  30.919  27.955  1.00  0.00     0.031 C 
ATOM     52  C   UNL A   1      42.820  33.943  30.627  1.00  0.00     0.029 A 
ATOM     53  C   UNL A   1      43.545  32.984  29.939  1.00  0.00     0.049 A 
ATOM     54  H   UNL A   1      42.935  31.071  29.288  1.00  0.00     0.167 HD
ATOM     55  C   UNL A   1      45.583  32.005  28.922  1.00  0.00     0.074 A 
ATOM     56  C   UNL A   1      46.967  32.066  28.492  1.00  0.00     0.031 C 
ATOM     57  C   UNL A   1      44.908  33.041  29.478  1.00  0.00     0.037 A 
BRANCH  44  58
ATOM     58  C   UNL A   1      38.997  31.795  30.766  1.00  0.00     0.058 A 
ATOM     59  C   UNL A   1      38.634  31.426  32.071  1.00  0.00     0.135 A 
ATOM     60  C   UNL A   1      38.129  32.635  30.054  1.00  0.00     0.135 A 
ATOM     61  F   UNL A   1      39.425  30.612  32.788  1.00  0.00    -0.206 F 
ATOM     62  C   UNL A   1      37.448  31.867  32.647  1.00  0.00     0.059 A 
ATOM     63  C   UNL A   1      36.943  33.099  30.614  1.00  0.00     0.059 A 
ATOM     64  F   UNL A   1      38.429  33.008  28.800  1.00  0.00    -0.206 F 
ATOM     65  C   UNL A   1      36.606  32.702  31.909  1.00  0.00     0.060 A 
BRANCH  65  66
ATOM     66  S   UNL A   1      35.067  33.265  32.667  1.00  0.00     0.124 S 
ATOM     67  O   UNL A   1      35.290  32.927  34.069  1.00  0.00    -0.237 OA
ATOM     68  O   UNL A   1      35.067  34.690  32.351  1.00  0.00    -0.237 OA
ATOM     69  O   UNL A   1      34.044  32.476  31.988  1.00  0.00    -0.744 OA
ENDBRANCH  65  66
ENDBRANCH  44  58
BRANCH  45  70
ATOM     70  C   UNL A   1      47.493  28.134  27.041  1.00  0.00     0.058 A 
ATOM     71  C   UNL A   1      47.741  28.140  25.663  1.00  0.00     0.135 A 
ATOM     72  C   UNL A   1      48.488  27.616  27.886  1.00  0.00     0.135 A 
ATOM     73  F   UNL A   1      46.817  28.615  24.815  1.00  0.00    -0.206 F 
ATOM     74  C   UNL A   1      48.936  27.651  25.140  1.00  0.00     0.059 A 
ATOM     75  C   UNL A   1      49.697  27.147  27.391  1.00  0.00     0.059 A 
ATOM     76  F   UNL A   1      48.299  27.597  29.216  1.00  0.00    -0.206 F 
ATOM     77  C   UNL A   1      49.908  27.160  26.014  1.00  0.00     0.060 A 
BRANCH  77  78
ATOM     78  S   UNL A   1      51.485  26.590  25.342  1.00  0.00     0.124 S 
ATOM     79  O   UNL A   1      52.425  27.488  26.001  1.00  0.00    -0.237 OA
ATOM     80  O   UNL A   1      51.522  25.197  25.775  1.00  0.00    -0.237 OA
ATOM     81  O   UNL A   1      51.322  26.785  23.904  1.00  0.00    -0.744 OA
ENDBRANCH  77  78
ENDBRANCH  45  70
BRANCH  57  82
ATOM     82  C   UNL A   1      45.665  34.327  29.643  1.00  0.00     0.058 A 
ATOM     83  C   UNL A   1      45.642  35.317  28.650  1.00  0.00     0.135 A 
ATOM     84  C   UNL A   1      46.424  34.568  30.799  1.00  0.00     0.135 A 
ATOM     85  F   UNL A   1      44.940  35.128  27.522  1.00  0.00    -0.206 F 
ATOM     86  C   UNL A   1      46.375  36.492  28.781  1.00  0.00     0.059 A 
ATOM     87  C   UNL A   1      47.146  35.746  30.961  1.00  0.00     0.059 A 
ATOM     88  F   UNL A   1      46.470  33.654  31.781  1.00  0.00    -0.206 F 
ATOM     89  C   UNL A   1      47.131  36.693  29.938  1.00  0.00     0.060 A 
BRANCH  89  90
ATOM     90  S   UNL A   1      48.085  38.217  30.102  1.00  0.00     0.124 S 
ATOM     91  O   UNL A   1      47.238  38.996  30.999  1.00  0.00    -0.237 OA
ATOM     92  O   UNL A   1      49.344  37.744  30.671  1.00  0.00    -0.237 OA
ATOM     93  O   UNL A   1      48.172  38.709  28.730  1.00  0.00    -0.744 OA
ENDBRANCH  89  90
ENDBRANCH  57  82
ENDBRANCH  31  32
ENDBRANCH  24  26
ENDBRANCH  23  24
ENDBRANCH  22  23
ENDBRANCH   1  22
TORSDOF 19
ENDMDL
MODEL 2
REMARK VINA RESULT:     -10.3      5.670      9.728
REMARK SMILES C#CCN(CC(=O)OCCOC(=O)c1ccc(-c2c3nc(c(-c4c(F)cc(S(=O)(=O)[O-])cc4F)c4ccc([nH]4)c(-c4c(F)cc(S(=O)(=O)[O-])cc4F)c4nc(c(-c5c(F)cc(S(=O)(=O)[O-])cc5F)c5ccc2[nH]5)C=C4)C=C3)cc1)S(=O)(=O)c1c(C)cc(C)cc1C
REMARK SMILES IDX 9 1 8 2 6 3 7 4 5 5 4 6 3 7 2 8 1 9 80 10 81 11 82 12 83 13
REMARK SMILES IDX 84 14 90 15 85 16 86 17 89 18 91 19 87 20 88 21 10 22 11 23
REMARK SMILES IDX 12 24 13 25 14 26 15 27 79 28 16 29 78 30 17 31 18 32 19 33
REMARK SMILES IDX 72 34 20 35 77 36 71 37 73 38 21 39 76 40 70 41 69 42 22 44
REMARK SMILES IDX 56 45 35 46 55 47 36 48 39 49 54 50 74 51 37 52 38 53 53 55
REMARK SMILES IDX 75 56 40 57 23 58 24 59 33 60 25 61 26 62 32 63 34 64 27 65
REMARK SMILES IDX 28 66 29 67 30 68 31 69 57 70 58 71 67 72 59 73 60 74 66 75
REMARK SMILES IDX 68 76 61 77 62 78 63 79 64 80 65 81 41 82 42 83 51 84 43 85
REMARK SMILES IDX 44 86 50 87 52 88 45 89 46 90 47 91 48 92 49 93
REMARK H PARENT 73 43 39 54
REMARK Flexibility Score: inf
ROOT
ATOM      1  C   UNL A   1      37.896  22.498  25.411  1.00  0.00     0.274 C 
ENDROOT
BRANCH   1   2
ATOM      2  O   UNL A   1      36.880  23.476  25.097  1.00  0.00    -0.461 OA
BRANCH   2   3
ATOM      3  C   UNL A   1      36.211  23.313  23.933  1.00  0.00     0.321 C 
ATOM      4  O   UNL A   1      36.745  22.917  22.898  1.00  0.00    -0.251 OA
BRANCH   3   5
ATOM      5  C   UNL A   1      34.743  23.658  23.965  1.00  0.00     0.226 C 
BRANCH   5   6
ATOM      6  N   UNL A   1      34.120  24.982  23.925  1.00  0.00    -0.175 NA
BRANCH   6   7
ATOM      7  C   UNL A   1      33.830  25.541  25.266  1.00  0.00     0.192 C 
BRANCH   7   8
ATOM      8  C   UNL A   1      32.915  24.627  26.066  1.00  0.00    -0.090 C 
ATOM      9  C   UNL A   1      32.130  23.844  26.753  1.00  0.00     0.005 C 
ENDBRANCH   7   8
ENDBRANCH   6   7
BRANCH   6  10
ATOM     10  S   UNL A   1      33.059  25.477  22.684  1.00  0.00     0.245 S 
ATOM     11  O   UNL A   1      33.911  25.944  21.610  1.00  0.00    -0.207 OA
ATOM     12  O   UNL A   1      32.155  24.368  22.439  1.00  0.00    -0.207 OA
BRANCH  10  13
ATOM     13  C   UNL A   1      31.941  26.784  23.200  1.00  0.00     0.088 A 
ATOM     14  C   UNL A   1      30.586  26.476  23.493  1.00  0.00    -0.031 A 
ATOM     15  C   UNL A   1      32.319  28.133  22.961  1.00  0.00    -0.031 A 
ATOM     16  C   UNL A   1      30.042  25.094  23.733  1.00  0.00     0.046 C 
ATOM     17  C   UNL A   1      29.644  27.524  23.554  1.00  0.00     0.008 A 
ATOM     18  C   UNL A   1      31.321  29.123  22.942  1.00  0.00     0.008 A 
ATOM     19  C   UNL A   1      33.706  28.600  22.600  1.00  0.00     0.046 C 
ATOM     20  C   UNL A   1      29.990  28.833  23.228  1.00  0.00    -0.051 A 
ATOM     21  C   UNL A   1      28.943  29.908  23.163  1.00  0.00     0.044 C 
ENDBRANCH  10  13
ENDBRANCH   6  10
ENDBRANCH   5   6
ENDBRANCH   3   5
ENDBRANCH   2   3
ENDBRANCH   1   2
BRANCH   1  22
ATOM     22  C   UNL A   1      38.974  23.075  26.338  1.00  0.00     0.275 C 
BRANCH  22  23
ATOM     23  O   UNL A   1      38.843  24.503  26.512  1.00  0.00    -0.458 OA
BRANCH  23  24
ATOM     24  C   UNL A   1      40.030  25.140  26.539  1.00  0.00     0.338 C 
ATOM     25  O   UNL A   1      40.789  25.277  25.587  1.00  0.00    -0.246 OA
BRANCH  24  26
ATOM     26  C   UNL A   1      40.314  25.821  27.801  1.00  0.00     0.060 A 
ATOM     27  C   UNL A   1      39.326  25.761  28.779  1.00  0.00     0.016 A 
ATOM     28  C   UNL A   1      41.361  26.733  27.914  1.00  0.00     0.016 A 
ATOM     29  C   UNL A   1      39.305  26.687  29.808  1.00  0.00     0.010 A 
ATOM     30  C   UNL A   1      41.393  27.603  29.013  1.00  0.00     0.010 A 
ATOM     31  C   UNL A   1      40.339  27.623  29.943  1.00  0.00    -0.014 A 
BRANCH  31  32
ATOM     32  C   UNL A   1      40.259  28.598  31.061  1.00  0.00     0.031 A 
ATOM     33  C   UNL A   1      41.175  28.499  32.253  1.00  0.00     0.074 A 
ATOM     34  C   UNL A   1      39.429  29.656  30.940  1.00  0.00     0.049 A 
ATOM     35  N   UNL A   1      41.328  29.342  33.243  1.00  0.00    -0.248 NA
ATOM     36  C   UNL A   1      42.055  27.323  32.334  1.00  0.00     0.031 C 
ATOM     37  C   UNL A   1      38.515  29.886  29.817  1.00  0.00     0.029 A 
ATOM     38  N   UNL A   1      39.232  30.741  31.754  1.00  0.00    -0.354 N 
ATOM     39  C   UNL A   1      42.353  28.828  34.029  1.00  0.00     0.074 A 
ATOM     40  C   UNL A   1      42.752  27.573  33.434  1.00  0.00     0.031 C 
ATOM     41  C   UNL A   1      37.875  31.050  30.002  1.00  0.00     0.029 A 
ATOM     42  C   UNL A   1      38.279  31.613  31.283  1.00  0.00     0.049 A 
ATOM     43  H   UNL A   1      39.724  30.882  32.595  1.00  0.00     0.167 HD
ATOM     44  C   UNL A   1      42.931  29.370  35.128  1.00  0.00     0.037 A 
ATOM     45  C   UNL A   1      37.756  32.722  31.837  1.00  0.00     0.037 A 
ATOM     46  C   UNL A   1      42.489  30.583  35.763  1.00  0.00     0.049 A 
ATOM     47  C   UNL A   1      38.262  33.179  33.172  1.00  0.00     0.074 A 
ATOM     48  C   UNL A   1      42.990  31.196  36.898  1.00  0.00     0.029 A 
ATOM     49  N   UNL A   1      41.417  31.352  35.335  1.00  0.00    -0.354 N 
ATOM     50  N   UNL A   1      39.251  32.693  33.885  1.00  0.00    -0.248 NA
ATOM     51  C   UNL A   1      37.573  34.319  33.787  1.00  0.00     0.031 C 
ATOM     52  C   UNL A   1      42.183  32.303  37.189  1.00  0.00     0.029 A 
ATOM     53  C   UNL A   1      41.206  32.403  36.213  1.00  0.00     0.049 A 
ATOM     54  H   UNL A   1      40.883  31.175  34.527  1.00  0.00     0.167 HD
ATOM     55  C   UNL A   1      39.306  33.473  35.033  1.00  0.00     0.074 A 
ATOM     56  C   UNL A   1      38.263  34.472  34.909  1.00  0.00     0.031 C 
ATOM     57  C   UNL A   1      40.146  33.370  36.092  1.00  0.00     0.037 A 
BRANCH  44  58
ATOM     58  C   UNL A   1      44.098  28.638  35.725  1.00  0.00     0.058 A 
ATOM     59  C   UNL A   1      45.417  28.963  35.371  1.00  0.00     0.135 A 
ATOM     60  C   UNL A   1      43.902  27.630  36.680  1.00  0.00     0.135 A 
ATOM     61  F   UNL A   1      45.656  29.911  34.451  1.00  0.00    -0.206 F 
ATOM     62  C   UNL A   1      46.504  28.305  35.936  1.00  0.00     0.059 A 
ATOM     63  C   UNL A   1      44.975  26.967  37.268  1.00  0.00     0.059 A 
ATOM     64  F   UNL A   1      42.660  27.278  37.046  1.00  0.00    -0.206 F 
ATOM     65  C   UNL A   1      46.274  27.305  36.883  1.00  0.00     0.060 A 
BRANCH  65  66
ATOM     66  S   UNL A   1      47.693  26.456  37.608  1.00  0.00     0.124 S 
ATOM     67  O   UNL A   1      48.806  27.170  36.990  1.00  0.00    -0.237 OA
ATOM     68  O   UNL A   1      47.502  26.692  39.035  1.00  0.00    -0.237 OA
ATOM     69  O   UNL A   1      47.520  25.073  37.175  1.00  0.00    -0.744 OA
ENDBRANCH  65  66
ENDBRANCH  44  58
BRANCH  45  70
ATOM     70  C   UNL A   1      36.639  33.424  31.154  1.00  0.00     0.058 A 
ATOM     71  C   UNL A   1      36.854  34.212  30.016  1.00  0.00     0.135 A 
ATOM     72  C   UNL A   1      35.320  33.290  31.620  1.00  0.00     0.135 A 
ATOM     73  F   UNL A   1      38.097  34.378  29.539  1.00  0.00    -0.206 F 
ATOM     74  C   UNL A   1      35.800  34.844  29.362  1.00  0.00     0.059 A 
ATOM     75  C   UNL A   1      34.250  33.889  30.970  1.00  0.00     0.059 A 
ATOM     76  F   UNL A   1      35.063  32.538  32.703  1.00  0.00    -0.206 F 
ATOM     77  C   UNL A   1      34.501  34.672  29.845  1.00  0.00     0.060 A 
BRANCH  77  78
ATOM     78  S   UNL A   1      33.126  35.435  28.957  1.00  0.00     0.124 S 
ATOM     79  O   UNL A   1      32.310  35.934  30.057  1.00  0.00    -0.237 OA
ATOM     80  O   UNL A   1      33.799  36.447  28.151  1.00  0.00    -0.237 OA
ATOM     81  O   UNL A   1      32.559  34.321  28.203  1.00  0.00    -0.744 OA
ENDBRANCH  77  78
ENDBRANCH  45  70
BRANCH  57  82
ATOM     82  C   UNL A   1      39.957  34.365  37.200  1.00  0.00     0.058 A 
ATOM     83  C   UNL A   1      39.143  34.078  38.306  1.00  0.00     0.135 A 
ATOM     84  C   UNL A   1      40.589  35.618  37.153  1.00  0.00     0.135 A 
ATOM     85  F   UNL A   1      38.509  32.898  38.390  1.00  0.00    -0.206 F 
ATOM     86  C   UNL A   1      38.933  35.014  39.313  1.00  0.00     0.059 A 
ATOM     87  C   UNL A   1      40.411  36.559  38.161  1.00  0.00     0.059 A 
ATOM     88  F   UNL A   1      41.384  35.935  36.120  1.00  0.00    -0.206 F 
ATOM     89  C   UNL A   1      39.565  36.255  39.227  1.00  0.00     0.060 A 
BRANCH  89  90
ATOM     90  S   UNL A   1      39.287  37.469  40.535  1.00  0.00     0.124 S 
ATOM     91  O   UNL A   1      38.210  38.270  39.964  1.00  0.00    -0.237 OA
ATOM     92  O   UNL A   1      38.919  36.631  41.673  1.00  0.00    -0.237 OA
ATOM     93  O   UNL A   1      40.579  38.139  40.652  1.00  0.00    -0.744 OA
ENDBRANCH  89  90
ENDBRANCH  57  82
ENDBRANCH  31  32
ENDBRANCH  24  26
ENDBRANCH  23  24
ENDBRANCH  22  23
ENDBRANCH   1  22
TORSDOF 19
ENDMDL
MODEL 3
REMARK VINA RESULT:     -10.3      5.609      9.728
REMARK SMILES C#CCN(CC(=O)OCCOC(=O)c1ccc(-c2c3nc(c(-c4c(F)cc(S(=O)(=O)[O-])cc4F)c4ccc([nH]4)c(-c4c(F)cc(S(=O)(=O)[O-])cc4F)c4nc(c(-c5c(F)cc(S(=O)(=O)[O-])cc5F)c5ccc2[nH]5)C=C4)C=C3)cc1)S(=O)(=O)c1c(C)cc(C)cc1C
REMARK SMILES IDX 9 1 8 2 6 3 7 4 5 5 4 6 3 7 2 8 1 9 80 10 81 11 82 12 83 13
REMARK SMILES IDX 84 14 90 15 85 16 86 17 89 18 91 19 87 20 88 21 10 22 11 23
REMARK SMILES IDX 12 24 13 25 14 26 15 27 79 28 16 29 78 30 17 31 18 32 19 33
REMARK SMILES IDX 72 34 20 35 77 36 71 37 73 38 21 39 76 40 70 41 69 42 22 44
REMARK SMILES IDX 56 45 35 46 55 47 36 48 39 49 54 50 74 51 37 52 38 53 53 55
REMARK SMILES IDX 75 56 40 57 23 58 24 59 33 60 25 61 26 62 32 63 34 64 27 65
REMARK SMILES IDX 28 66 29 67 30 68 31 69 57 70 58 71 67 72 59 73 60 74 66 75
REMARK SMILES IDX 68 76 61 77 62 78 63 79 64 80 65 81 41 82 42 83 51 84 43 85
REMARK SMILES IDX 44 86 50 87 52 88 45 89 46 90 47 91 48 92 49 93
REMARK H PARENT 73 43 39 54
REMARK Flexibility Score: inf
ROOT
ATOM      1  C   UNL A   1      37.339  22.757  25.744  1.00  0.00     0.274 C 
ENDROOT
BRANCH   1   2
ATOM      2  O   UNL A   1      36.422  23.862  25.896  1.00  0.00    -0.461 OA
BRANCH   2   3
ATOM      3  C   UNL A   1      35.351  23.888  25.070  1.00  0.00     0.321 C 
ATOM      4  O   UNL A   1      35.382  23.474  23.912  1.00  0.00    -0.251 OA
BRANCH   3   5
ATOM      5  C   UNL A   1      34.086  24.471  25.652  1.00  0.00     0.226 C 
BRANCH   5   6
ATOM      6  N   UNL A   1      33.283  25.585  25.145  1.00  0.00    -0.175 NA
BRANCH   6   7
ATOM      7  C   UNL A   1      33.970  26.384  24.103  1.00  0.00     0.192 C 
BRANCH   7   8
ATOM      8  C   UNL A   1      33.363  26.153  22.730  1.00  0.00    -0.090 C 
ATOM      9  C   UNL A   1      32.841  25.954  21.551  1.00  0.00     0.005 C 
ENDBRANCH   7   8
ENDBRANCH   6   7
BRANCH   6  10
ATOM     10  S   UNL A   1      32.169  26.446  26.108  1.00  0.00     0.245 S 
ATOM     11  O   UNL A   1      31.412  25.438  26.820  1.00  0.00    -0.207 OA
ATOM     12  O   UNL A   1      32.935  27.421  26.864  1.00  0.00    -0.207 OA
BRANCH  10  13
ATOM     13  C   UNL A   1      31.064  27.481  25.143  1.00  0.00     0.088 A 
ATOM     14  C   UNL A   1      30.227  26.891  24.158  1.00  0.00    -0.031 A 
ATOM     15  C   UNL A   1      31.299  28.882  25.116  1.00  0.00    -0.031 A 
ATOM     16  C   UNL A   1      29.921  25.421  24.047  1.00  0.00     0.046 C 
ATOM     17  C   UNL A   1      29.633  27.715  23.181  1.00  0.00     0.008 A 
ATOM     18  C   UNL A   1      30.756  29.640  24.063  1.00  0.00     0.008 A 
ATOM     19  C   UNL A   1      32.193  29.636  26.067  1.00  0.00     0.046 C 
ATOM     20  C   UNL A   1      29.934  29.073  23.094  1.00  0.00    -0.051 A 
ATOM     21  C   UNL A   1      29.402  29.903  21.962  1.00  0.00     0.044 C 
ENDBRANCH  10  13
ENDBRANCH   6  10
ENDBRANCH   5   6
ENDBRANCH   3   5
ENDBRANCH   2   3
ENDBRANCH   1   2
BRANCH   1  22
ATOM     22  C   UNL A   1      38.769  23.147  26.138  1.00  0.00     0.275 C 
BRANCH  22  23
ATOM     23  O   UNL A   1      38.905  24.564  26.384  1.00  0.00    -0.458 OA
BRANCH  23  24
ATOM     24  C   UNL A   1      40.187  24.949  26.543  1.00  0.00     0.338 C 
ATOM     25  O   UNL A   1      41.072  24.853  25.702  1.00  0.00    -0.246 OA
BRANCH  24  26
ATOM     26  C   UNL A   1      40.446  25.659  27.795  1.00  0.00     0.060 A 
ATOM     27  C   UNL A   1      39.419  25.665  28.734  1.00  0.00     0.016 A 
ATOM     28  C   UNL A   1      41.520  26.536  27.922  1.00  0.00     0.016 A 
ATOM     29  C   UNL A   1      39.391  26.623  29.733  1.00  0.00     0.010 A 
ATOM     30  C   UNL A   1      41.541  27.440  28.995  1.00  0.00     0.010 A 
ATOM     31  C   UNL A   1      40.453  27.525  29.881  1.00  0.00    -0.014 A 
BRANCH  31  32
ATOM     32  C   UNL A   1      40.364  28.538  30.965  1.00  0.00     0.031 A 
ATOM     33  C   UNL A   1      41.303  28.506  32.143  1.00  0.00     0.074 A 
ATOM     34  C   UNL A   1      39.505  29.568  30.822  1.00  0.00     0.049 A 
ATOM     35  N   UNL A   1      41.449  29.388  33.101  1.00  0.00    -0.248 NA
ATOM     36  C   UNL A   1      42.215  27.358  32.250  1.00  0.00     0.031 C 
ATOM     37  C   UNL A   1      38.566  29.733  29.708  1.00  0.00     0.029 A 
ATOM     38  N   UNL A   1      39.291  30.676  31.600  1.00  0.00    -0.354 N 
ATOM     39  C   UNL A   1      42.501  28.930  33.886  1.00  0.00     0.074 A 
ATOM     40  C   UNL A   1      42.924  27.665  33.329  1.00  0.00     0.031 C 
ATOM     41  C   UNL A   1      37.898  30.885  29.862  1.00  0.00     0.029 A 
ATOM     42  C   UNL A   1      38.307  31.504  31.116  1.00  0.00     0.049 A 
ATOM     43  H   UNL A   1      39.793  30.860  32.427  1.00  0.00     0.167 HD
ATOM     44  C   UNL A   1      43.082  29.526  34.954  1.00  0.00     0.037 A 
ATOM     45  C   UNL A   1      37.763  32.618  31.639  1.00  0.00     0.037 A 
ATOM     46  C   UNL A   1      42.618  30.749  35.553  1.00  0.00     0.049 A 
ATOM     47  C   UNL A   1      38.279  33.136  32.948  1.00  0.00     0.074 A 
ATOM     48  C   UNL A   1      43.121  31.416  36.658  1.00  0.00     0.029 A 
ATOM     49  N   UNL A   1      41.518  31.473  35.118  1.00  0.00    -0.354 N 
ATOM     50  N   UNL A   1      39.292  32.703  33.659  1.00  0.00    -0.248 NA
ATOM     51  C   UNL A   1      37.569  34.279  33.534  1.00  0.00     0.031 C 
ATOM     52  C   UNL A   1      42.289  32.510  36.924  1.00  0.00     0.029 A 
ATOM     53  C   UNL A   1      41.293  32.549  35.962  1.00  0.00     0.049 A 
ATOM     54  H   UNL A   1      40.976  31.253  34.326  1.00  0.00     0.167 HD
ATOM     55  C   UNL A   1      39.345  33.524  34.778  1.00  0.00     0.074 A 
ATOM     56  C   UNL A   1      38.273  34.490  34.637  1.00  0.00     0.031 C 
ATOM     57  C   UNL A   1      40.205  33.482  35.826  1.00  0.00     0.037 A 
BRANCH  44  58
ATOM     58  C   UNL A   1      44.278  28.847  35.556  1.00  0.00     0.058 A 
ATOM     59  C   UNL A   1      44.130  27.824  36.506  1.00  0.00     0.135 A 
ATOM     60  C   UNL A   1      45.578  29.193  35.160  1.00  0.00     0.135 A 
ATOM     61  F   UNL A   1      42.907  27.465  36.928  1.00  0.00    -0.206 F 
ATOM     62  C   UNL A   1      45.232  27.174  37.052  1.00  0.00     0.059 A 
ATOM     63  C   UNL A   1      46.695  28.548  35.683  1.00  0.00     0.059 A 
ATOM     64  F   UNL A   1      45.771  30.170  34.260  1.00  0.00    -0.206 F 
ATOM     65  C   UNL A   1      46.512  27.545  36.636  1.00  0.00     0.060 A 
BRANCH  65  66
ATOM     66  S   UNL A   1      47.934  26.695  37.354  1.00  0.00     0.124 S 
ATOM     67  O   UNL A   1      48.006  27.310  38.675  1.00  0.00    -0.237 OA
ATOM     68  O   UNL A   1      47.510  25.299  37.326  1.00  0.00    -0.237 OA
ATOM     69  O   UNL A   1      49.026  27.033  36.445  1.00  0.00    -0.744 OA
ENDBRANCH  65  66
ENDBRANCH  44  58
BRANCH  45  70
ATOM     70  C   UNL A   1      36.616  33.265  30.951  1.00  0.00     0.058 A 
ATOM     71  C   UNL A   1      35.304  33.122  31.421  1.00  0.00     0.135 A 
ATOM     72  C   UNL A   1      36.823  34.068  29.817  1.00  0.00     0.135 A 
ATOM     73  F   UNL A   1      35.054  32.357  32.495  1.00  0.00    -0.206 F 
ATOM     74  C   UNL A   1      34.235  33.754  30.791  1.00  0.00     0.059 A 
ATOM     75  C   UNL A   1      35.778  34.729  29.187  1.00  0.00     0.059 A 
ATOM     76  F   UNL A   1      38.064  34.242  29.334  1.00  0.00    -0.206 F 
ATOM     77  C   UNL A   1      34.484  34.559  29.677  1.00  0.00     0.060 A 
BRANCH  77  78
ATOM     78  S   UNL A   1      33.108  35.434  28.901  1.00  0.00     0.124 S 
ATOM     79  O   UNL A   1      32.451  34.356  28.172  1.00  0.00    -0.237 OA
ATOM     80  O   UNL A   1      32.384  35.960  30.053  1.00  0.00    -0.237 OA
ATOM     81  O   UNL A   1      33.776  36.440  28.080  1.00  0.00    -0.744 OA
ENDBRANCH  77  78
ENDBRANCH  45  70
BRANCH  57  82
ATOM     82  C   UNL A   1      40.008  34.511  36.901  1.00  0.00     0.058 A 
ATOM     83  C   UNL A   1      39.227  34.239  38.035  1.00  0.00     0.135 A 
ATOM     84  C   UNL A   1      40.597  35.781  36.794  1.00  0.00     0.135 A 
ATOM     85  F   UNL A   1      38.634  33.044  38.176  1.00  0.00    -0.206 F 
ATOM     86  C   UNL A   1      39.008  35.204  39.012  1.00  0.00     0.059 A 
ATOM     87  C   UNL A   1      40.410  36.753  37.771  1.00  0.00     0.059 A 
ATOM     88  F   UNL A   1      41.358  36.085  35.732  1.00  0.00    -0.206 F 
ATOM     89  C   UNL A   1      39.598  36.461  38.867  1.00  0.00     0.060 A 
BRANCH  89  90
ATOM     90  S   UNL A   1      39.308  37.712  40.135  1.00  0.00     0.124 S 
ATOM     91  O   UNL A   1      40.595  38.399  40.167  1.00  0.00    -0.237 OA
ATOM     92  O   UNL A   1      38.195  38.477  39.580  1.00  0.00    -0.237 OA
ATOM     93  O   UNL A   1      38.985  36.922  41.320  1.00  0.00    -0.744 OA
ENDBRANCH  89  90
ENDBRANCH  57  82
ENDBRANCH  31  32
ENDBRANCH  24  26
ENDBRANCH  23  24
ENDBRANCH  22  23
ENDBRANCH   1  22
TORSDOF 19
ENDMDL
