MODEL 1
REMARK VINA RESULT:     -11.9      0.000      0.000
REMARK SMILES Cc1cc(N2CCC[C@H]2C2CCCC2)cc(C(=O)OCCOC(=O)c2ccc(-c3c4nc(c(-c5c(F)cc(S(=O)(=O)[O-])cc5F)c5ccc([nH]5)c(-c5c(F)cc(S(=O)(=O)[O-])cc5F)c5nc(c(-c6c(F)cc(S(=O)(=O)[O-])cc6F)c6ccc3[nH]6)C=C5)C=C4)cc2)c1N
REMARK SMILES IDX 21 1 20 2 19 3 17 4 18 5 16 6 1 7 2 8 3 9 91 10 4 11 15 12
REMARK SMILES IDX 92 13 5 16 6 17 9 18 7 19 8 20 10 21 11 22 14 23 12 24 13 25
REMARK SMILES IDX 22 26 23 27 24 28 25 29 26 30 90 31 27 32 89 33 28 34 29 35
REMARK SMILES IDX 30 36 83 37 31 38 88 39 82 40 84 41 32 42 87 43 81 44 80 45
REMARK SMILES IDX 33 47 67 48 46 49 66 50 47 51 50 52 65 53 85 54 48 55 49 56
REMARK SMILES IDX 64 58 86 59 51 60 34 61 35 62 44 63 36 64 37 65 43 66 45 67
REMARK SMILES IDX 38 68 39 69 40 70 41 71 42 72 68 73 69 74 78 75 70 76 71 77
REMARK SMILES IDX 77 78 79 79 72 80 73 81 74 82 75 83 76 84 52 85 53 86 62 87
REMARK SMILES IDX 54 88 55 89 61 90 63 91 56 92 57 93 58 94 59 95 60 96
REMARK H PARENT 92 14 92 15 84 46 50 57
REMARK Flexibility Score: inf
ROOT
ATOM      1  C   UNL A   1      39.754  21.980  26.513  1.00  0.00     0.275 C 
ENDROOT
BRANCH   1   2
ATOM      2  C   UNL A   1      38.714  21.374  25.579  1.00  0.00     0.275 C 
BRANCH   2   3
ATOM      3  O   UNL A   1      37.424  21.966  25.833  1.00  0.00    -0.458 OA
BRANCH   3   4
ATOM      4  C   UNL A   1      36.733  22.391  24.739  1.00  0.00     0.340 C 
ATOM      5  O   UNL A   1      37.232  22.912  23.758  1.00  0.00    -0.246 OA
BRANCH   4   6
ATOM      6  C   UNL A   1      35.262  22.260  24.958  1.00  0.00     0.085 A 
ATOM      7  C   UNL A   1      32.425  19.727  24.748  1.00  0.00     0.047 C 
ATOM      8  C   UNL A   1      33.198  21.020  24.711  1.00  0.00    -0.025 A 
ATOM      9  C   UNL A   1      32.514  22.242  24.574  1.00  0.00     0.031 A 
ATOM     10  C   UNL A   1      34.601  21.026  24.811  1.00  0.00     0.049 A 
ATOM     11  C   UNL A   1      33.175  23.469  24.701  1.00  0.00     0.038 A 
ATOM     12  C   UNL A   1      34.525  23.444  25.025  1.00  0.00     0.043 A 
BRANCH  10  13
ATOM     13  N   UNL A   1      35.269  19.814  25.005  1.00  0.00    -0.398 N 
ATOM     14  H   UNL A   1      35.233  19.367  25.881  1.00  0.00     0.156 HD
ATOM     15  H   UNL A   1      35.777  19.408  24.265  1.00  0.00     0.156 HD
ENDBRANCH  10  13
BRANCH  11  16
ATOM     16  N   UNL A   1      32.592  24.703  24.429  1.00  0.00    -0.368 N 
ATOM     17  C   UNL A   1      31.850  24.857  23.176  1.00  0.00     0.117 C 
ATOM     18  C   UNL A   1      33.437  25.903  24.700  1.00  0.00     0.085 C 
ATOM     19  C   UNL A   1      32.591  25.957  22.433  1.00  0.00     0.024 C 
ATOM     20  C   UNL A   1      33.048  26.868  23.556  1.00  0.00     0.027 C 
BRANCH  18  21
ATOM     21  C   UNL A   1      33.224  26.598  26.068  1.00  0.00     0.011 C 
ATOM     22  C   UNL A   1      33.840  27.996  26.191  1.00  0.00     0.006 C 
ATOM     23  C   UNL A   1      31.786  26.731  26.596  1.00  0.00     0.006 C 
ATOM     24  C   UNL A   1      33.070  28.672  27.312  1.00  0.00     0.000 C 
ATOM     25  C   UNL A   1      31.657  28.131  27.194  1.00  0.00     0.000 C 
ENDBRANCH  18  21
ENDBRANCH  11  16
ENDBRANCH   4   6
ENDBRANCH   3   4
ENDBRANCH   2   3
ENDBRANCH   1   2
BRANCH   1  26
ATOM     26  O   UNL A   1      39.542  23.399  26.598  1.00  0.00    -0.458 OA
BRANCH  26  27
ATOM     27  C   UNL A   1      40.657  24.138  26.780  1.00  0.00     0.338 C 
ATOM     28  O   UNL A   1      41.780  23.910  26.345  1.00  0.00    -0.246 OA
BRANCH  27  29
ATOM     29  C   UNL A   1      40.341  25.354  27.541  1.00  0.00     0.060 A 
ATOM     30  C   UNL A   1      41.129  26.480  27.360  1.00  0.00     0.016 A 
ATOM     31  C   UNL A   1      39.409  25.322  28.576  1.00  0.00     0.016 A 
ATOM     32  C   UNL A   1      41.103  27.499  28.307  1.00  0.00     0.010 A 
ATOM     33  C   UNL A   1      39.292  26.420  29.443  1.00  0.00     0.010 A 
ATOM     34  C   UNL A   1      40.185  27.502  29.366  1.00  0.00    -0.014 A 
BRANCH  34  35
ATOM     35  C   UNL A   1      40.222  28.587  30.404  1.00  0.00     0.031 A 
ATOM     36  C   UNL A   1      41.270  28.564  31.499  1.00  0.00     0.074 A 
ATOM     37  C   UNL A   1      39.369  29.635  30.353  1.00  0.00     0.049 A 
ATOM     38  N   UNL A   1      41.311  29.241  32.620  1.00  0.00    -0.248 NA
ATOM     39  C   UNL A   1      42.410  27.648  31.323  1.00  0.00     0.031 C 
ATOM     40  C   UNL A   1      38.345  29.855  29.326  1.00  0.00     0.029 A 
ATOM     41  N   UNL A   1      39.234  30.731  31.174  1.00  0.00    -0.354 N 
ATOM     42  C   UNL A   1      42.421  28.769  33.317  1.00  0.00     0.074 A 
ATOM     43  C   UNL A   1      43.037  27.759  32.486  1.00  0.00     0.031 C 
ATOM     44  C   UNL A   1      37.759  31.042  29.524  1.00  0.00     0.029 A 
ATOM     45  C   UNL A   1      38.227  31.588  30.788  1.00  0.00     0.049 A 
ATOM     46  H   UNL A   1      39.803  30.888  31.961  1.00  0.00     0.167 HD
ATOM     47  C   UNL A   1      42.874  29.143  34.539  1.00  0.00     0.037 A 
ATOM     48  C   UNL A   1      37.665  32.642  31.411  1.00  0.00     0.037 A 
ATOM     49  C   UNL A   1      42.298  30.214  35.316  1.00  0.00     0.049 A 
ATOM     50  C   UNL A   1      38.147  33.010  32.782  1.00  0.00     0.074 A 
ATOM     51  C   UNL A   1      42.673  30.670  36.568  1.00  0.00     0.029 A 
ATOM     52  N   UNL A   1      41.245  31.017  34.900  1.00  0.00    -0.354 N 
ATOM     53  N   UNL A   1      39.114  32.470  33.486  1.00  0.00    -0.248 NA
ATOM     54  C   UNL A   1      37.440  34.102  33.462  1.00  0.00     0.031 C 
ATOM     55  C   UNL A   1      41.823  31.721  36.925  1.00  0.00     0.029 A 
ATOM     56  C   UNL A   1      40.953  31.958  35.874  1.00  0.00     0.049 A 
ATOM     57  H   UNL A   1      40.775  30.931  34.040  1.00  0.00     0.167 HD
ATOM     58  C   UNL A   1      39.135  33.162  34.690  1.00  0.00     0.074 A 
ATOM     59  C   UNL A   1      38.103  34.175  34.608  1.00  0.00     0.031 C 
ATOM     60  C   UNL A   1      39.930  32.968  35.770  1.00  0.00     0.037 A 
BRANCH  47  61
ATOM     61  C   UNL A   1      44.018  28.370  35.146  1.00  0.00     0.058 A 
ATOM     62  C   UNL A   1      45.356  28.777  35.024  1.00  0.00     0.135 A 
ATOM     63  C   UNL A   1      43.756  27.226  35.922  1.00  0.00     0.135 A 
ATOM     64  F   UNL A   1      45.670  29.852  34.284  1.00  0.00    -0.206 F 
ATOM     65  C   UNL A   1      46.390  28.070  35.633  1.00  0.00     0.059 A 
ATOM     66  C   UNL A   1      44.772  26.521  36.563  1.00  0.00     0.059 A 
ATOM     67  F   UNL A   1      42.495  26.789  36.077  1.00  0.00    -0.206 F 
ATOM     68  C   UNL A   1      46.089  26.944  36.403  1.00  0.00     0.060 A 
BRANCH  68  69
ATOM     69  S   UNL A   1      47.441  26.050  37.200  1.00  0.00     0.124 S 
ATOM     70  O   UNL A   1      47.536  26.745  38.480  1.00  0.00    -0.237 OA
ATOM     71  O   UNL A   1      46.924  24.687  37.255  1.00  0.00    -0.237 OA
ATOM     72  O   UNL A   1      48.567  26.253  36.293  1.00  0.00    -0.744 OA
ENDBRANCH  68  69
ENDBRANCH  47  61
BRANCH  48  73
ATOM     73  C   UNL A   1      36.509  33.348  30.786  1.00  0.00     0.058 A 
ATOM     74  C   UNL A   1      35.199  33.159  31.249  1.00  0.00     0.135 A 
ATOM     75  C   UNL A   1      36.698  34.243  29.718  1.00  0.00     0.135 A 
ATOM     76  F   UNL A   1      34.961  32.304  32.254  1.00  0.00    -0.206 F 
ATOM     77  C   UNL A   1      34.120  33.824  30.673  1.00  0.00     0.059 A 
ATOM     78  C   UNL A   1      35.642  34.950  29.154  1.00  0.00     0.059 A 
ATOM     79  F   UNL A   1      37.931  34.468  29.238  1.00  0.00    -0.206 F 
ATOM     80  C   UNL A   1      34.353  34.722  29.629  1.00  0.00     0.060 A 
BRANCH  80  81
ATOM     81  S   UNL A   1      32.956  35.617  28.919  1.00  0.00     0.124 S 
ATOM     82  O   UNL A   1      33.629  36.706  28.223  1.00  0.00    -0.237 OA
ATOM     83  O   UNL A   1      32.338  34.602  28.072  1.00  0.00    -0.237 OA
ATOM     84  O   UNL A   1      32.175  36.003  30.091  1.00  0.00    -0.744 OA
ENDBRANCH  80  81
ENDBRANCH  48  73
BRANCH  60  85
ATOM     85  C   UNL A   1      39.746  33.905  36.930  1.00  0.00     0.058 A 
ATOM     86  C   UNL A   1      38.919  33.582  38.016  1.00  0.00     0.135 A 
ATOM     87  C   UNL A   1      40.431  35.130  36.963  1.00  0.00     0.135 A 
ATOM     88  F   UNL A   1      38.233  32.428  38.025  1.00  0.00    -0.206 F 
ATOM     89  C   UNL A   1      38.755  34.455  39.087  1.00  0.00     0.059 A 
ATOM     90  C   UNL A   1      40.306  36.005  38.037  1.00  0.00     0.059 A 
ATOM     91  F   UNL A   1      41.239  35.481  35.952  1.00  0.00    -0.206 F 
ATOM     92  C   UNL A   1      39.456  35.664  39.088  1.00  0.00     0.060 A 
BRANCH  92  93
ATOM     93  S   UNL A   1      39.257  36.776  40.495  1.00  0.00     0.124 S 
ATOM     94  O   UNL A   1      40.640  36.954  40.927  1.00  0.00    -0.237 OA
ATOM     95  O   UNL A   1      38.628  37.943  39.884  1.00  0.00    -0.237 OA
ATOM     96  O   UNL A   1      38.406  36.020  41.408  1.00  0.00    -0.744 OA
ENDBRANCH  92  93
ENDBRANCH  60  85
ENDBRANCH  34  35
ENDBRANCH  27  29
ENDBRANCH  26  27
ENDBRANCH   1  26
TORSDOF 17
ENDMDL
MODEL 2
REMARK VINA RESULT:     -11.8      5.416     10.818
REMARK SMILES Cc1cc(N2CCC[C@H]2C2CCCC2)cc(C(=O)OCCOC(=O)c2ccc(-c3c4nc(c(-c5c(F)cc(S(=O)(=O)[O-])cc5F)c5ccc([nH]5)c(-c5c(F)cc(S(=O)(=O)[O-])cc5F)c5nc(c(-c6c(F)cc(S(=O)(=O)[O-])cc6F)c6ccc3[nH]6)C=C5)C=C4)cc2)c1N
REMARK SMILES IDX 21 1 20 2 19 3 17 4 18 5 16 6 1 7 2 8 3 9 91 10 4 11 15 12
REMARK SMILES IDX 92 13 5 16 6 17 9 18 7 19 8 20 10 21 11 22 14 23 12 24 13 25
REMARK SMILES IDX 22 26 23 27 24 28 25 29 26 30 90 31 27 32 89 33 28 34 29 35
REMARK SMILES IDX 30 36 83 37 31 38 88 39 82 40 84 41 32 42 87 43 81 44 80 45
REMARK SMILES IDX 33 47 67 48 46 49 66 50 47 51 50 52 65 53 85 54 48 55 49 56
REMARK SMILES IDX 64 58 86 59 51 60 34 61 35 62 44 63 36 64 37 65 43 66 45 67
REMARK SMILES IDX 38 68 39 69 40 70 41 71 42 72 68 73 69 74 78 75 70 76 71 77
REMARK SMILES IDX 77 78 79 79 72 80 73 81 74 82 75 83 76 84 52 85 53 86 62 87
REMARK SMILES IDX 54 88 55 89 61 90 63 91 56 92 57 93 58 94 59 95 60 96
REMARK H PARENT 92 14 92 15 84 46 50 57
REMARK Flexibility Score: inf
ROOT
ATOM      1  C   UNL A   1      32.855  28.355  26.697  1.00  0.00     0.275 C 
ENDROOT
BRANCH   1   2
ATOM      2  C   UNL A   1      32.857  27.076  25.869  1.00  0.00     0.275 C 
BRANCH   2   3
ATOM      3  O   UNL A   1      31.506  26.721  25.512  1.00  0.00    -0.458 OA
BRANCH   3   4
ATOM      4  C   UNL A   1      31.362  25.937  24.408  1.00  0.00     0.340 C 
ATOM      5  O   UNL A   1      31.426  26.333  23.258  1.00  0.00    -0.246 OA
BRANCH   4   6
ATOM      6  C   UNL A   1      30.980  24.546  24.792  1.00  0.00     0.085 A 
ATOM      7  C   UNL A   1      29.254  22.578  27.560  1.00  0.00     0.047 C 
ATOM      8  C   UNL A   1      30.184  22.958  26.436  1.00  0.00    -0.025 A 
ATOM      9  C   UNL A   1      31.013  21.982  25.853  1.00  0.00     0.031 A 
ATOM     10  C   UNL A   1      30.238  24.280  25.958  1.00  0.00     0.049 A 
ATOM     11  C   UNL A   1      31.765  22.253  24.704  1.00  0.00     0.038 A 
ATOM     12  C   UNL A   1      31.624  23.505  24.121  1.00  0.00     0.043 A 
BRANCH  10  13
ATOM     13  N   UNL A   1      29.371  25.231  26.503  1.00  0.00    -0.398 N 
ATOM     14  H   UNL A   1      28.624  25.581  25.965  1.00  0.00     0.156 HD
ATOM     15  H   UNL A   1      29.507  25.551  27.424  1.00  0.00     0.156 HD
ENDBRANCH  10  13
BRANCH  11  16
ATOM     16  N   UNL A   1      32.714  21.386  24.168  1.00  0.00    -0.368 N 
ATOM     17  C   UNL A   1      32.257  20.341  23.250  1.00  0.00     0.117 C 
ATOM     18  C   UNL A   1      33.728  20.851  25.123  1.00  0.00     0.085 C 
ATOM     19  C   UNL A   1      32.645  19.041  23.936  1.00  0.00     0.024 C 
ATOM     20  C   UNL A   1      33.947  19.404  24.624  1.00  0.00     0.027 C 
BRANCH  18  21
ATOM     21  C   UNL A   1      35.084  21.600  25.175  1.00  0.00     0.011 C 
ATOM     22  C   UNL A   1      36.325  20.702  25.115  1.00  0.00     0.006 C 
ATOM     23  C   UNL A   1      35.332  22.719  24.150  1.00  0.00     0.006 C 
ATOM     24  C   UNL A   1      37.444  21.605  24.626  1.00  0.00     0.000 C 
ATOM     25  C   UNL A   1      36.774  22.571  23.667  1.00  0.00     0.000 C 
ENDBRANCH  18  21
ENDBRANCH  11  16
ENDBRANCH   4   6
ENDBRANCH   3   4
ENDBRANCH   2   3
ENDBRANCH   1   2
BRANCH   1  26
ATOM     26  O   UNL A   1      34.114  28.479  27.377  1.00  0.00    -0.458 OA
BRANCH  26  27
ATOM     27  C   UNL A   1      34.405  29.718  27.830  1.00  0.00     0.338 C 
ATOM     28  O   UNL A   1      33.628  30.651  27.993  1.00  0.00    -0.246 OA
BRANCH  27  29
ATOM     29  C   UNL A   1      35.826  29.803  28.195  1.00  0.00     0.060 A 
ATOM     30  C   UNL A   1      36.743  30.183  27.227  1.00  0.00     0.016 A 
ATOM     31  C   UNL A   1      36.276  29.312  29.418  1.00  0.00     0.016 A 
ATOM     32  C   UNL A   1      38.096  29.918  27.418  1.00  0.00     0.010 A 
ATOM     33  C   UNL A   1      37.653  29.181  29.653  1.00  0.00     0.010 A 
ATOM     34  C   UNL A   1      38.589  29.418  28.630  1.00  0.00    -0.014 A 
BRANCH  34  35
ATOM     35  C   UNL A   1      40.045  29.088  28.783  1.00  0.00     0.031 A 
ATOM     36  C   UNL A   1      41.018  30.131  29.295  1.00  0.00     0.074 A 
ATOM     37  C   UNL A   1      40.511  27.843  28.531  1.00  0.00     0.049 A 
ATOM     38  N   UNL A   1      42.327  30.135  29.249  1.00  0.00    -0.248 NA
ATOM     39  C   UNL A   1      40.448  31.337  29.920  1.00  0.00     0.031 C 
ATOM     40  C   UNL A   1      39.703  26.697  28.102  1.00  0.00     0.029 A 
ATOM     41  N   UNL A   1      41.781  27.320  28.616  1.00  0.00    -0.354 N 
ATOM     42  C   UNL A   1      42.729  31.370  29.752  1.00  0.00     0.074 A 
ATOM     43  C   UNL A   1      41.525  32.086  30.112  1.00  0.00     0.031 C 
ATOM     44  C   UNL A   1      40.468  25.601  28.052  1.00  0.00     0.029 A 
ATOM     45  C   UNL A   1      41.854  25.990  28.263  1.00  0.00     0.049 A 
ATOM     46  H   UNL A   1      42.563  27.844  28.903  1.00  0.00     0.167 HD
ATOM     47  C   UNL A   1      43.986  31.859  29.890  1.00  0.00     0.037 A 
ATOM     48  C   UNL A   1      42.909  25.183  28.036  1.00  0.00     0.037 A 
ATOM     49  C   UNL A   1      45.179  31.098  29.608  1.00  0.00     0.049 A 
ATOM     50  C   UNL A   1      44.291  25.755  28.147  1.00  0.00     0.074 A 
ATOM     51  C   UNL A   1      46.501  31.498  29.706  1.00  0.00     0.029 A 
ATOM     52  N   UNL A   1      45.195  29.771  29.203  1.00  0.00    -0.354 N 
ATOM     53  N   UNL A   1      44.653  26.967  28.498  1.00  0.00    -0.248 NA
ATOM     54  C   UNL A   1      45.406  24.869  27.796  1.00  0.00     0.031 C 
ATOM     55  C   UNL A   1      47.313  30.427  29.323  1.00  0.00     0.029 A 
ATOM     56  C   UNL A   1      46.502  29.341  29.039  1.00  0.00     0.049 A 
ATOM     57  H   UNL A   1      44.396  29.217  29.054  1.00  0.00     0.167 HD
ATOM     58  C   UNL A   1      46.039  26.984  28.415  1.00  0.00     0.074 A 
ATOM     59  C   UNL A   1      46.450  25.657  28.007  1.00  0.00     0.031 C 
ATOM     60  C   UNL A   1      46.893  28.011  28.645  1.00  0.00     0.037 A 
BRANCH  47  61
ATOM     61  C   UNL A   1      44.153  33.295  30.322  1.00  0.00     0.058 A 
ATOM     62  C   UNL A   1      44.170  34.362  29.412  1.00  0.00     0.135 A 
ATOM     63  C   UNL A   1      44.236  33.608  31.691  1.00  0.00     0.135 A 
ATOM     64  F   UNL A   1      44.110  34.125  28.092  1.00  0.00    -0.206 F 
ATOM     65  C   UNL A   1      44.281  35.684  29.840  1.00  0.00     0.059 A 
ATOM     66  C   UNL A   1      44.318  34.924  32.143  1.00  0.00     0.059 A 
ATOM     67  F   UNL A   1      44.222  32.629  32.611  1.00  0.00    -0.206 F 
ATOM     68  C   UNL A   1      44.352  35.955  31.208  1.00  0.00     0.060 A 
BRANCH  68  69
ATOM     69  S   UNL A   1      44.477  37.675  31.747  1.00  0.00     0.124 S 
ATOM     70  O   UNL A   1      43.687  37.654  32.975  1.00  0.00    -0.237 OA
ATOM     71  O   UNL A   1      45.915  37.844  31.921  1.00  0.00    -0.237 OA
ATOM     72  O   UNL A   1      43.891  38.423  30.639  1.00  0.00    -0.744 OA
ENDBRANCH  68  69
ENDBRANCH  47  61
BRANCH  48  73
ATOM     73  C   UNL A   1      42.691  23.784  27.572  1.00  0.00     0.058 A 
ATOM     74  C   UNL A   1      42.565  22.722  28.479  1.00  0.00     0.135 A 
ATOM     75  C   UNL A   1      42.586  23.483  26.202  1.00  0.00     0.135 A 
ATOM     76  F   UNL A   1      42.673  22.951  29.797  1.00  0.00    -0.206 F 
ATOM     77  C   UNL A   1      42.352  21.415  28.048  1.00  0.00     0.059 A 
ATOM     78  C   UNL A   1      42.332  22.193  25.749  1.00  0.00     0.059 A 
ATOM     79  F   UNL A   1      42.692  24.460  25.287  1.00  0.00    -0.206 F 
ATOM     80  C   UNL A   1      42.230  21.163  26.680  1.00  0.00     0.060 A 
BRANCH  80  81
ATOM     81  S   UNL A   1      41.906  19.475  26.129  1.00  0.00     0.124 S 
ATOM     82  O   UNL A   1      42.262  18.707  27.316  1.00  0.00    -0.237 OA
ATOM     83  O   UNL A   1      40.485  19.524  25.802  1.00  0.00    -0.237 OA
ATOM     84  O   UNL A   1      42.799  19.318  24.985  1.00  0.00    -0.744 OA
ENDBRANCH  80  81
ENDBRANCH  48  73
BRANCH  60  85
ATOM     85  C   UNL A   1      48.361  27.721  28.509  1.00  0.00     0.058 A 
ATOM     86  C   UNL A   1      49.114  27.207  29.576  1.00  0.00     0.135 A 
ATOM     87  C   UNL A   1      49.012  27.936  27.284  1.00  0.00     0.135 A 
ATOM     88  F   UNL A   1      48.540  26.997  30.771  1.00  0.00    -0.206 F 
ATOM     89  C   UNL A   1      50.473  26.941  29.440  1.00  0.00     0.059 A 
ATOM     90  C   UNL A   1      50.363  27.648  27.118  1.00  0.00     0.059 A 
ATOM     91  F   UNL A   1      48.334  28.419  26.232  1.00  0.00    -0.206 F 
ATOM     92  C   UNL A   1      51.087  27.163  28.205  1.00  0.00     0.060 A 
BRANCH  92  93
ATOM     93  S   UNL A   1      52.844  26.787  28.034  1.00  0.00     0.124 S 
ATOM     94  O   UNL A   1      52.807  25.579  27.216  1.00  0.00    -0.237 OA
ATOM     95  O   UNL A   1      53.356  27.984  27.375  1.00  0.00    -0.237 OA
ATOM     96  O   UNL A   1      53.286  26.600  29.412  1.00  0.00    -0.744 OA
ENDBRANCH  92  93
ENDBRANCH  60  85
ENDBRANCH  34  35
ENDBRANCH  27  29
ENDBRANCH  26  27
ENDBRANCH   1  26
TORSDOF 17
ENDMDL
MODEL 3
REMARK VINA RESULT:     -11.8      5.286     10.774
REMARK SMILES Cc1cc(N2CCC[C@H]2C2CCCC2)cc(C(=O)OCCOC(=O)c2ccc(-c3c4nc(c(-c5c(F)cc(S(=O)(=O)[O-])cc5F)c5ccc([nH]5)c(-c5c(F)cc(S(=O)(=O)[O-])cc5F)c5nc(c(-c6c(F)cc(S(=O)(=O)[O-])cc6F)c6ccc3[nH]6)C=C5)C=C4)cc2)c1N
REMARK SMILES IDX 21 1 20 2 19 3 17 4 18 5 16 6 1 7 2 8 3 9 91 10 4 11 15 12
REMARK SMILES IDX 92 13 5 16 6 17 9 18 7 19 8 20 10 21 11 22 14 23 12 24 13 25
REMARK SMILES IDX 22 26 23 27 24 28 25 29 26 30 90 31 27 32 89 33 28 34 29 35
REMARK SMILES IDX 30 36 83 37 31 38 88 39 82 40 84 41 32 42 87 43 81 44 80 45
REMARK SMILES IDX 33 47 67 48 46 49 66 50 47 51 50 52 65 53 85 54 48 55 49 56
REMARK SMILES IDX 64 58 86 59 51 60 34 61 35 62 44 63 36 64 37 65 43 66 45 67
REMARK SMILES IDX 38 68 39 69 40 70 41 71 42 72 68 73 69 74 78 75 70 76 71 77
REMARK SMILES IDX 77 78 79 79 72 80 73 81 74 82 75 83 76 84 52 85 53 86 62 87
REMARK SMILES IDX 54 88 55 89 61 90 63 91 56 92 57 93 58 94 59 95 60 96
REMARK H PARENT 92 14 92 15 84 46 50 57
REMARK Flexibility Score: inf
ROOT
ATOM      1  C   UNL A   1      33.510  28.551  25.907  1.00  0.00     0.275 C 
ENDROOT
BRANCH   1   2
ATOM      2  C   UNL A   1      32.013  28.271  25.931  1.00  0.00     0.275 C 
BRANCH   2   3
ATOM      3  O   UNL A   1      31.779  26.849  25.877  1.00  0.00    -0.458 OA
BRANCH   3   4
ATOM      4  C   UNL A   1      31.094  26.393  24.793  1.00  0.00     0.340 C 
ATOM      5  O   UNL A   1      29.880  26.355  24.700  1.00  0.00    -0.246 OA
BRANCH   4   6
ATOM      6  C   UNL A   1      32.026  25.817  23.780  1.00  0.00     0.085 A 
ATOM      7  C   UNL A   1      32.548  25.534  20.018  1.00  0.00     0.047 C 
ATOM      8  C   UNL A   1      32.546  25.223  21.492  1.00  0.00    -0.025 A 
ATOM      9  C   UNL A   1      33.252  24.105  21.973  1.00  0.00     0.031 A 
ATOM     10  C   UNL A   1      31.847  26.037  22.402  1.00  0.00     0.049 A 
ATOM     11  C   UNL A   1      33.413  23.876  23.344  1.00  0.00     0.038 A 
ATOM     12  C   UNL A   1      32.902  24.822  24.221  1.00  0.00     0.043 A 
BRANCH  10  13
ATOM     13  N   UNL A   1      31.197  27.178  21.925  1.00  0.00    -0.398 N 
ATOM     14  H   UNL A   1      31.714  27.890  21.482  1.00  0.00     0.156 HD
ATOM     15  H   UNL A   1      30.223  27.271  22.032  1.00  0.00     0.156 HD
ENDBRANCH  10  13
BRANCH  11  16
ATOM     16  N   UNL A   1      33.965  22.717  23.883  1.00  0.00    -0.368 N 
ATOM     17  C   UNL A   1      33.133  21.513  23.936  1.00  0.00     0.117 C 
ATOM     18  C   UNL A   1      34.740  22.885  25.147  1.00  0.00     0.085 C 
ATOM     19  C   UNL A   1      33.039  21.185  25.418  1.00  0.00     0.024 C 
ATOM     20  C   UNL A   1      34.403  21.599  25.937  1.00  0.00     0.027 C 
BRANCH  18  21
ATOM     21  C   UNL A   1      36.277  23.021  24.997  1.00  0.00     0.011 C 
ATOM     22  C   UNL A   1      36.968  23.831  26.099  1.00  0.00     0.006 C 
ATOM     23  C   UNL A   1      37.105  21.734  24.847  1.00  0.00     0.006 C 
ATOM     24  C   UNL A   1      38.418  23.377  26.075  1.00  0.00     0.000 C 
ATOM     25  C   UNL A   1      38.358  21.907  25.705  1.00  0.00     0.000 C 
ENDBRANCH  18  21
ENDBRANCH  11  16
ENDBRANCH   4   6
ENDBRANCH   3   4
ENDBRANCH   2   3
ENDBRANCH   1   2
BRANCH   1  26
ATOM     26  O   UNL A   1      34.012  28.554  27.254  1.00  0.00    -0.458 OA
BRANCH  26  27
ATOM     27  C   UNL A   1      34.290  29.773  27.762  1.00  0.00     0.338 C 
ATOM     28  O   UNL A   1      33.509  30.700  27.942  1.00  0.00    -0.246 OA
BRANCH  27  29
ATOM     29  C   UNL A   1      35.701  29.843  28.167  1.00  0.00     0.060 A 
ATOM     30  C   UNL A   1      36.647  30.233  27.230  1.00  0.00     0.016 A 
ATOM     31  C   UNL A   1      36.115  29.328  29.393  1.00  0.00     0.016 A 
ATOM     32  C   UNL A   1      37.992  29.955  27.453  1.00  0.00     0.010 A 
ATOM     33  C   UNL A   1      37.485  29.185  29.663  1.00  0.00     0.010 A 
ATOM     34  C   UNL A   1      38.449  29.432  28.670  1.00  0.00    -0.014 A 
BRANCH  34  35
ATOM     35  C   UNL A   1      39.899  29.090  28.856  1.00  0.00     0.031 A 
ATOM     36  C   UNL A   1      40.863  30.117  29.414  1.00  0.00     0.074 A 
ATOM     37  C   UNL A   1      40.364  27.847  28.593  1.00  0.00     0.049 A 
ATOM     38  N   UNL A   1      42.173  30.113  29.405  1.00  0.00    -0.248 NA
ATOM     39  C   UNL A   1      40.283  31.314  30.047  1.00  0.00     0.031 C 
ATOM     40  C   UNL A   1      39.561  26.715  28.120  1.00  0.00     0.029 A 
ATOM     41  N   UNL A   1      41.628  27.314  28.703  1.00  0.00    -0.354 N 
ATOM     42  C   UNL A   1      42.568  31.336  29.943  1.00  0.00     0.074 A 
ATOM     43  C   UNL A   1      41.359  32.052  30.283  1.00  0.00     0.031 C 
ATOM     44  C   UNL A   1      40.321  25.615  28.069  1.00  0.00     0.029 A 
ATOM     45  C   UNL A   1      41.703  25.991  28.326  1.00  0.00     0.049 A 
ATOM     46  H   UNL A   1      42.404  27.828  29.021  1.00  0.00     0.167 HD
ATOM     47  C   UNL A   1      43.823  31.815  30.125  1.00  0.00     0.037 A 
ATOM     48  C   UNL A   1      42.759  25.182  28.113  1.00  0.00     0.037 A 
ATOM     49  C   UNL A   1      45.019  31.052  29.861  1.00  0.00     0.049 A 
ATOM     50  C   UNL A   1      44.141  25.743  28.273  1.00  0.00     0.074 A 
ATOM     51  C   UNL A   1      46.340  31.441  30.003  1.00  0.00     0.029 A 
ATOM     52  N   UNL A   1      45.039  29.732  29.431  1.00  0.00    -0.354 N 
ATOM     53  N   UNL A   1      44.500  26.946  28.657  1.00  0.00    -0.248 NA
ATOM     54  C   UNL A   1      45.260  24.856  27.935  1.00  0.00     0.031 C 
ATOM     55  C   UNL A   1      47.157  30.372  29.622  1.00  0.00     0.029 A 
ATOM     56  C   UNL A   1      46.347  29.297  29.294  1.00  0.00     0.049 A 
ATOM     57  H   UNL A   1      44.240  29.186  29.249  1.00  0.00     0.167 HD
ATOM     58  C   UNL A   1      45.888  26.956  28.612  1.00  0.00     0.074 A 
ATOM     59  C   UNL A   1      46.303  25.634  28.190  1.00  0.00     0.031 C 
ATOM     60  C   UNL A   1      46.742  27.973  28.885  1.00  0.00     0.037 A 
BRANCH  47  61
ATOM     61  C   UNL A   1      43.987  33.240  30.589  1.00  0.00     0.058 A 
ATOM     62  C   UNL A   1      44.161  33.582  31.939  1.00  0.00     0.135 A 
ATOM     63  C   UNL A   1      44.031  34.283  29.645  1.00  0.00     0.135 A 
ATOM     64  F   UNL A   1      44.113  32.633  32.887  1.00  0.00    -0.206 F 
ATOM     65  C   UNL A   1      44.355  34.903  32.337  1.00  0.00     0.059 A 
ATOM     66  C   UNL A   1      44.252  35.607  30.018  1.00  0.00     0.059 A 
ATOM     67  F   UNL A   1      43.872  34.017  28.338  1.00  0.00    -0.206 F 
ATOM     68  C   UNL A   1      44.401  35.909  31.369  1.00  0.00     0.060 A 
BRANCH  68  69
ATOM     69  S   UNL A   1      44.672  37.614  31.900  1.00  0.00     0.124 S 
ATOM     70  O   UNL A   1      46.094  37.596  32.227  1.00  0.00    -0.237 OA
ATOM     71  O   UNL A   1      44.305  38.374  30.710  1.00  0.00    -0.237 OA
ATOM     72  O   UNL A   1      43.770  37.765  33.038  1.00  0.00    -0.744 OA
ENDBRANCH  68  69
ENDBRANCH  47  61
BRANCH  48  73
ATOM     73  C   UNL A   1      42.546  23.793  27.615  1.00  0.00     0.058 A 
ATOM     74  C   UNL A   1      42.400  23.520  26.248  1.00  0.00     0.135 A 
ATOM     75  C   UNL A   1      42.500  22.704  28.504  1.00  0.00     0.135 A 
ATOM     76  F   UNL A   1      42.419  24.523  25.358  1.00  0.00    -0.206 F 
ATOM     77  C   UNL A   1      42.210  22.222  25.780  1.00  0.00     0.059 A 
ATOM     78  C   UNL A   1      42.353  21.396  28.058  1.00  0.00     0.059 A 
ATOM     79  F   UNL A   1      42.640  22.905  29.824  1.00  0.00    -0.206 F 
ATOM     80  C   UNL A   1      42.194  21.166  26.694  1.00  0.00     0.060 A 
BRANCH  80  81
ATOM     81  S   UNL A   1      41.995  19.481  26.078  1.00  0.00     0.124 S 
ATOM     82  O   UNL A   1      40.559  19.425  25.837  1.00  0.00    -0.237 OA
ATOM     83  O   UNL A   1      42.843  19.485  24.890  1.00  0.00    -0.237 OA
ATOM     84  O   UNL A   1      42.484  18.660  27.182  1.00  0.00    -0.744 OA
ENDBRANCH  80  81
ENDBRANCH  48  73
BRANCH  60  85
ATOM     85  C   UNL A   1      48.211  27.676  28.784  1.00  0.00     0.058 A 
ATOM     86  C   UNL A   1      48.935  27.154  29.867  1.00  0.00     0.135 A 
ATOM     87  C   UNL A   1      48.893  27.893  27.577  1.00  0.00     0.135 A 
ATOM     88  F   UNL A   1      48.330  26.940  31.046  1.00  0.00    -0.206 F 
ATOM     89  C   UNL A   1      50.295  26.881  29.763  1.00  0.00     0.059 A 
ATOM     90  C   UNL A   1      50.246  27.600  27.442  1.00  0.00     0.059 A 
ATOM     91  F   UNL A   1      48.243  28.385  26.511  1.00  0.00    -0.206 F 
ATOM     92  C   UNL A   1      50.941  27.106  28.545  1.00  0.00     0.060 A 
BRANCH  92  93
ATOM     93  S   UNL A   1      52.699  26.722  28.416  1.00  0.00     0.124 S 
ATOM     94  O   UNL A   1      53.256  28.019  28.044  1.00  0.00    -0.237 OA
ATOM     95  O   UNL A   1      53.017  26.258  29.762  1.00  0.00    -0.237 OA
ATOM     96  O   UNL A   1      52.748  25.697  27.378  1.00  0.00    -0.744 OA
ENDBRANCH  92  93
ENDBRANCH  60  85
ENDBRANCH  34  35
ENDBRANCH  27  29
ENDBRANCH  26  27
ENDBRANCH   1  26
TORSDOF 17
ENDMDL
