MODEL 1
REMARK VINA RESULT:     -10.8      0.000      0.000
REMARK SMILES O=C(N[C@@H](CS)C(=O)N[C@@H](CO)C(=O)OCCOC(=O)c1ccc(-c2c3nc(c(-c4c(F)cc(S(=O)(=O)[O-])cc4F)c4ccc([nH]4)c(-c4c(F)cc(S(=O)(=O)[O-])cc4F)c4nc(c(-c5c(F)cc(S(=O)(=O)[O-])cc5F)c5ccc2[nH]5)C=C4)C=C3)cc1)c1ccc(F)cc1
REMARK SMILES IDX 16 1 15 2 13 3 14 4 10 5 9 6 7 7 8 8 4 10 3 11 1 12 2 13
REMARK SMILES IDX 87 15 88 16 93 17 89 18 92 19 90 20 91 21 5 22 6 23 11 25
REMARK SMILES IDX 12 26 17 28 18 29 19 30 20 31 21 32 22 33 86 34 23 35 85 36
REMARK SMILES IDX 24 37 25 38 26 39 79 40 27 41 84 42 78 43 80 44 28 45 83 46
REMARK SMILES IDX 77 47 76 48 29 50 63 51 42 52 62 53 43 54 46 55 61 56 81 57
REMARK SMILES IDX 44 58 45 59 60 61 82 62 47 63 30 64 31 65 40 66 32 67 33 68
REMARK SMILES IDX 39 69 41 70 34 71 35 72 36 73 37 74 38 75 64 76 65 77 74 78
REMARK SMILES IDX 66 79 67 80 73 81 75 82 68 83 69 84 70 85 71 86 72 87 48 88
REMARK SMILES IDX 49 89 58 90 50 91 51 92 57 93 59 94 52 95 53 96 54 97 55 98
REMARK SMILES IDX 56 99
REMARK H PARENT 9 9 3 14 6 24 12 27 80 49 46 60
REMARK Flexibility Score: inf
ROOT
ATOM      1  C   UNL A   1      32.228  29.413  26.999  1.00  0.00     0.274 C 
ENDROOT
BRANCH   1   2
ATOM      2  O   UNL A   1      31.531  29.497  25.740  1.00  0.00    -0.460 OA
BRANCH   2   3
ATOM      3  C   UNL A   1      32.111  28.865  24.678  1.00  0.00     0.331 C 
ATOM      4  O   UNL A   1      33.195  29.165  24.192  1.00  0.00    -0.250 OA
BRANCH   3   5
ATOM      5  C   UNL A   1      31.193  27.789  24.082  1.00  0.00     0.218 C 
BRANCH   5   6
ATOM      6  N   UNL A   1      30.503  27.001  25.111  1.00  0.00    -0.339 N 
ATOM      7  C   UNL A   1      30.493  25.681  25.418  1.00  0.00     0.244 C 
ATOM      8  O   UNL A   1      29.833  25.365  26.416  1.00  0.00    -0.273 OA
ATOM      9  H   UNL A   1      29.930  27.544  25.699  1.00  0.00     0.164 HD
BRANCH   7  10
ATOM     10  C   UNL A   1      31.245  24.590  24.624  1.00  0.00     0.181 C 
BRANCH  10  11
ATOM     11  N   UNL A   1      31.087  23.246  25.192  1.00  0.00    -0.339 N 
ATOM     12  O   UNL A   1      31.715  21.123  25.600  1.00  0.00    -0.269 OA
ATOM     13  C   UNL A   1      32.049  22.278  25.360  1.00  0.00     0.251 C 
ATOM     14  H   UNL A   1      30.179  23.009  25.490  1.00  0.00     0.164 HD
BRANCH  13  15
ATOM     15  C   UNL A   1      33.482  22.614  25.211  1.00  0.00     0.040 A 
ATOM     16  C   UNL A   1      34.040  23.673  25.937  1.00  0.00     0.017 A 
ATOM     17  C   UNL A   1      34.290  21.819  24.385  1.00  0.00     0.017 A 
ATOM     18  C   UNL A   1      35.397  23.966  25.800  1.00  0.00     0.040 A 
ATOM     19  C   UNL A   1      35.649  22.116  24.256  1.00  0.00     0.040 A 
ATOM     20  C   UNL A   1      36.188  23.186  24.962  1.00  0.00     0.123 A 
ATOM     21  F   UNL A   1      37.494  23.463  24.852  1.00  0.00    -0.207 F 
ENDBRANCH  13  15
ENDBRANCH  10  11
BRANCH  10  22
ATOM     22  C   UNL A   1      31.025  24.684  23.101  1.00  0.00     0.101 C 
BRANCH  22  23
ATOM     23  S   UNL A   1      32.533  24.858  22.085  1.00  0.00    -0.177 SA
ATOM     24  H   UNL A   1      32.206  25.381  20.873  1.00  0.00     0.102 HD
ENDBRANCH  22  23
ENDBRANCH  10  22
ENDBRANCH   7  10
ENDBRANCH   5   6
BRANCH   5  25
ATOM     25  C   UNL A   1      30.178  28.503  23.179  1.00  0.00     0.193 C 
BRANCH  25  26
ATOM     26  O   UNL A   1      30.388  28.178  21.800  1.00  0.00    -0.394 OA
ATOM     27  H   UNL A   1      29.549  28.256  21.319  1.00  0.00     0.210 HD
ENDBRANCH  25  26
ENDBRANCH   5  25
ENDBRANCH   3   5
ENDBRANCH   2   3
ENDBRANCH   1   2
BRANCH   1  28
ATOM     28  C   UNL A   1      32.852  30.758  27.352  1.00  0.00     0.275 C 
BRANCH  28  29
ATOM     29  O   UNL A   1      34.283  30.651  27.300  1.00  0.00    -0.458 OA
BRANCH  29  30
ATOM     30  C   UNL A   1      34.938  31.012  28.427  1.00  0.00     0.338 C 
ATOM     31  O   UNL A   1      34.559  31.783  29.291  1.00  0.00    -0.246 OA
BRANCH  30  32
ATOM     32  C   UNL A   1      36.225  30.304  28.498  1.00  0.00     0.060 A 
ATOM     33  C   UNL A   1      36.661  29.779  29.711  1.00  0.00     0.016 A 
ATOM     34  C   UNL A   1      37.065  30.291  27.384  1.00  0.00     0.016 A 
ATOM     35  C   UNL A   1      37.977  29.324  29.828  1.00  0.00     0.010 A 
ATOM     36  C   UNL A   1      38.351  29.750  27.490  1.00  0.00     0.010 A 
ATOM     37  C   UNL A   1      38.847  29.300  28.727  1.00  0.00    -0.014 A 
BRANCH  37  38
ATOM     38  C   UNL A   1      40.276  28.871  28.858  1.00  0.00     0.031 A 
ATOM     39  C   UNL A   1      41.322  29.857  29.329  1.00  0.00     0.074 A 
ATOM     40  C   UNL A   1      40.672  27.615  28.569  1.00  0.00     0.049 A 
ATOM     41  N   UNL A   1      42.622  29.820  29.188  1.00  0.00    -0.248 NA
ATOM     42  C   UNL A   1      40.835  31.051  30.040  1.00  0.00     0.031 C 
ATOM     43  C   UNL A   1      39.795  26.505  28.193  1.00  0.00     0.029 A 
ATOM     44  N   UNL A   1      41.930  27.057  28.546  1.00  0.00    -0.354 N 
ATOM     45  C   UNL A   1      43.099  31.020  29.704  1.00  0.00     0.074 A 
ATOM     46  C   UNL A   1      41.950  31.753  30.191  1.00  0.00     0.031 C 
ATOM     47  C   UNL A   1      40.528  25.396  28.028  1.00  0.00     0.029 A 
ATOM     48  C   UNL A   1      41.939  25.741  28.148  1.00  0.00     0.049 A 
ATOM     49  H   UNL A   1      42.744  27.553  28.792  1.00  0.00     0.167 HD
ATOM     50  C   UNL A   1      44.378  31.471  29.751  1.00  0.00     0.037 A 
ATOM     51  C   UNL A   1      42.958  24.917  27.831  1.00  0.00     0.037 A 
ATOM     52  C   UNL A   1      45.523  30.698  29.343  1.00  0.00     0.049 A 
ATOM     53  C   UNL A   1      44.364  25.439  27.847  1.00  0.00     0.074 A 
ATOM     54  C   UNL A   1      46.858  31.067  29.338  1.00  0.00     0.029 A 
ATOM     55  N   UNL A   1      45.474  29.384  28.903  1.00  0.00    -0.354 N 
ATOM     56  N   UNL A   1      44.793  26.632  28.178  1.00  0.00    -0.248 NA
ATOM     57  C   UNL A   1      45.419  24.518  27.403  1.00  0.00     0.031 C 
ATOM     58  C   UNL A   1      47.614  29.983  28.877  1.00  0.00     0.029 A 
ATOM     59  C   UNL A   1      46.753  28.927  28.626  1.00  0.00     0.049 A 
ATOM     60  H   UNL A   1      44.651  28.854  28.800  1.00  0.00     0.167 HD
ATOM     61  C   UNL A   1      46.169  26.607  27.983  1.00  0.00     0.074 A 
ATOM     62  C   UNL A   1      46.502  25.275  27.519  1.00  0.00     0.031 C 
ATOM     63  C   UNL A   1      47.072  27.600  28.167  1.00  0.00     0.037 A 
BRANCH  50  64
ATOM     64  C   UNL A   1      44.610  32.886  30.210  1.00  0.00     0.058 A 
ATOM     65  C   UNL A   1      44.548  33.980  29.335  1.00  0.00     0.135 A 
ATOM     66  C   UNL A   1      44.851  33.149  31.570  1.00  0.00     0.135 A 
ATOM     67  F   UNL A   1      44.337  33.786  28.024  1.00  0.00    -0.206 F 
ATOM     68  C   UNL A   1      44.739  35.284  29.787  1.00  0.00     0.059 A 
ATOM     69  C   UNL A   1      45.023  34.444  32.048  1.00  0.00     0.059 A 
ATOM     70  F   UNL A   1      44.918  32.138  32.451  1.00  0.00    -0.206 F 
ATOM     71  C   UNL A   1      44.979  35.505  31.146  1.00  0.00     0.060 A 
BRANCH  71  72
ATOM     72  S   UNL A   1      45.224  37.198  31.725  1.00  0.00     0.124 S 
ATOM     73  O   UNL A   1      45.251  37.934  30.465  1.00  0.00    -0.237 OA
ATOM     74  O   UNL A   1      44.051  37.419  32.563  1.00  0.00    -0.237 OA
ATOM     75  O   UNL A   1      46.496  37.131  32.439  1.00  0.00    -0.744 OA
ENDBRANCH  71  72
ENDBRANCH  50  64
BRANCH  51  76
ATOM     76  C   UNL A   1      42.658  23.529  27.387  1.00  0.00     0.058 A 
ATOM     77  C   UNL A   1      42.618  23.199  26.027  1.00  0.00     0.135 A 
ATOM     78  C   UNL A   1      42.473  22.495  28.320  1.00  0.00     0.135 A 
ATOM     79  F   UNL A   1      42.768  24.157  25.099  1.00  0.00    -0.206 F 
ATOM     80  C   UNL A   1      42.427  21.888  25.603  1.00  0.00     0.059 A 
ATOM     81  C   UNL A   1      42.309  21.175  27.922  1.00  0.00     0.059 A 
ATOM     82  F   UNL A   1      42.510  22.762  29.635  1.00  0.00    -0.206 F 
ATOM     83  C   UNL A   1      42.288  20.880  26.560  1.00  0.00     0.060 A 
BRANCH  83  84
ATOM     84  S   UNL A   1      42.158  19.163  26.013  1.00  0.00     0.124 S 
ATOM     85  O   UNL A   1      42.634  18.445  27.189  1.00  0.00    -0.237 OA
ATOM     86  O   UNL A   1      40.734  19.036  25.720  1.00  0.00    -0.237 OA
ATOM     87  O   UNL A   1      43.035  19.121  24.846  1.00  0.00    -0.744 OA
ENDBRANCH  83  84
ENDBRANCH  51  76
BRANCH  63  88
ATOM     88  C   UNL A   1      48.511  27.278  27.897  1.00  0.00     0.058 A 
ATOM     89  C   UNL A   1      49.328  26.693  28.877  1.00  0.00     0.135 A 
ATOM     90  C   UNL A   1      49.069  27.520  26.632  1.00  0.00     0.135 A 
ATOM     91  F   UNL A   1      48.843  26.451  30.104  1.00  0.00    -0.206 F 
ATOM     92  C   UNL A   1      50.655  26.371  28.614  1.00  0.00     0.059 A 
ATOM     93  C   UNL A   1      50.388  27.191  26.343  1.00  0.00     0.059 A 
ATOM     94  F   UNL A   1      48.324  28.074  25.661  1.00  0.00    -0.206 F 
ATOM     95  C   UNL A   1      51.177  26.625  27.344  1.00  0.00     0.060 A 
BRANCH  95  96
ATOM     96  S   UNL A   1      52.893  26.177  27.003  1.00  0.00     0.124 S 
ATOM     97  O   UNL A   1      52.740  24.841  26.436  1.00  0.00    -0.237 OA
ATOM     98  O   UNL A   1      53.310  27.218  26.068  1.00  0.00    -0.237 OA
ATOM     99  O   UNL A   1      53.525  26.235  28.317  1.00  0.00    -0.744 OA
ENDBRANCH  95  96
ENDBRANCH  63  88
ENDBRANCH  37  38
ENDBRANCH  30  32
ENDBRANCH  29  30
ENDBRANCH  28  29
ENDBRANCH   1  28
TORSDOF 22
ENDMDL
MODEL 2
REMARK VINA RESULT:     -10.6      1.526      2.129
REMARK SMILES O=C(N[C@@H](CS)C(=O)N[C@@H](CO)C(=O)OCCOC(=O)c1ccc(-c2c3nc(c(-c4c(F)cc(S(=O)(=O)[O-])cc4F)c4ccc([nH]4)c(-c4c(F)cc(S(=O)(=O)[O-])cc4F)c4nc(c(-c5c(F)cc(S(=O)(=O)[O-])cc5F)c5ccc2[nH]5)C=C4)C=C3)cc1)c1ccc(F)cc1
REMARK SMILES IDX 16 1 15 2 13 3 14 4 10 5 9 6 7 7 8 8 4 10 3 11 1 12 2 13
REMARK SMILES IDX 87 15 88 16 93 17 89 18 92 19 90 20 91 21 5 22 6 23 11 25
REMARK SMILES IDX 12 26 17 28 18 29 19 30 20 31 21 32 22 33 86 34 23 35 85 36
REMARK SMILES IDX 24 37 25 38 26 39 79 40 27 41 84 42 78 43 80 44 28 45 83 46
REMARK SMILES IDX 77 47 76 48 29 50 63 51 42 52 62 53 43 54 46 55 61 56 81 57
REMARK SMILES IDX 44 58 45 59 60 61 82 62 47 63 30 64 31 65 40 66 32 67 33 68
REMARK SMILES IDX 39 69 41 70 34 71 35 72 36 73 37 74 38 75 64 76 65 77 74 78
REMARK SMILES IDX 66 79 67 80 73 81 75 82 68 83 69 84 70 85 71 86 72 87 48 88
REMARK SMILES IDX 49 89 58 90 50 91 51 92 57 93 59 94 52 95 53 96 54 97 55 98
REMARK SMILES IDX 56 99
REMARK H PARENT 9 9 3 14 6 24 12 27 80 49 46 60
REMARK Flexibility Score: inf
ROOT
ATOM      1  C   UNL A   1      33.206  28.605  26.248  1.00  0.00     0.274 C 
ENDROOT
BRANCH   1   2
ATOM      2  O   UNL A   1      33.091  27.168  26.222  1.00  0.00    -0.460 OA
BRANCH   2   3
ATOM      3  C   UNL A   1      31.850  26.651  26.462  1.00  0.00     0.331 C 
ATOM      4  O   UNL A   1      30.959  27.226  27.074  1.00  0.00    -0.250 OA
BRANCH   3   5
ATOM      5  C   UNL A   1      31.729  25.204  25.964  1.00  0.00     0.218 C 
BRANCH   5   6
ATOM      6  N   UNL A   1      31.918  24.219  27.037  1.00  0.00    -0.339 N 
ATOM      7  C   UNL A   1      32.594  23.047  27.113  1.00  0.00     0.244 C 
ATOM      8  O   UNL A   1      32.595  22.495  28.221  1.00  0.00    -0.273 OA
ATOM      9  H   UNL A   1      31.460  24.461  27.874  1.00  0.00     0.164 HD
BRANCH   7  10
ATOM     10  C   UNL A   1      33.346  22.390  25.934  1.00  0.00     0.181 C 
BRANCH  10  11
ATOM     11  N   UNL A   1      34.723  22.873  25.784  1.00  0.00    -0.339 N 
ATOM     12  O   UNL A   1      36.498  23.635  24.627  1.00  0.00    -0.269 OA
ATOM     13  C   UNL A   1      35.279  23.534  24.714  1.00  0.00     0.251 C 
ATOM     14  H   UNL A   1      35.325  22.702  26.545  1.00  0.00     0.164 HD
BRANCH  13  15
ATOM     15  C   UNL A   1      34.416  24.085  23.646  1.00  0.00     0.040 A 
ATOM     16  C   UNL A   1      33.867  23.241  22.674  1.00  0.00     0.017 A 
ATOM     17  C   UNL A   1      34.100  25.452  23.656  1.00  0.00     0.017 A 
ATOM     18  C   UNL A   1      33.040  23.772  21.684  1.00  0.00     0.040 A 
ATOM     19  C   UNL A   1      33.268  25.976  22.665  1.00  0.00     0.040 A 
ATOM     20  C   UNL A   1      32.748  25.133  21.688  1.00  0.00     0.123 A 
ATOM     21  F   UNL A   1      31.938  25.631  20.745  1.00  0.00    -0.207 F 
ENDBRANCH  13  15
ENDBRANCH  10  11
BRANCH  10  22
ATOM     22  C   UNL A   1      33.182  20.859  25.884  1.00  0.00     0.101 C 
BRANCH  22  23
ATOM     23  S   UNL A   1      32.745  20.154  24.256  1.00  0.00    -0.177 SA
ATOM     24  H   UNL A   1      32.533  18.816  24.383  1.00  0.00     0.102 HD
ENDBRANCH  22  23
ENDBRANCH  10  22
ENDBRANCH   7  10
ENDBRANCH   5   6
BRANCH   5  25
ATOM     25  C   UNL A   1      30.337  25.053  25.333  1.00  0.00     0.193 C 
BRANCH  25  26
ATOM     26  O   UNL A   1      29.996  26.197  24.544  1.00  0.00    -0.394 OA
ATOM     27  H   UNL A   1      30.583  26.935  24.774  1.00  0.00     0.210 HD
ENDBRANCH  25  26
ENDBRANCH   5  25
ENDBRANCH   3   5
ENDBRANCH   2   3
ENDBRANCH   1   2
BRANCH   1  28
ATOM     28  C   UNL A   1      33.783  29.068  27.580  1.00  0.00     0.275 C 
BRANCH  28  29
ATOM     29  O   UNL A   1      34.125  30.461  27.496  1.00  0.00    -0.458 OA
BRANCH  29  30
ATOM     30  C   UNL A   1      34.862  30.946  28.522  1.00  0.00     0.338 C 
ATOM     31  O   UNL A   1      34.541  31.804  29.324  1.00  0.00    -0.246 OA
BRANCH  30  32
ATOM     32  C   UNL A   1      36.159  30.255  28.566  1.00  0.00     0.060 A 
ATOM     33  C   UNL A   1      36.631  29.746  29.773  1.00  0.00     0.016 A 
ATOM     34  C   UNL A   1      36.971  30.243  27.432  1.00  0.00     0.016 A 
ATOM     35  C   UNL A   1      37.956  29.308  29.861  1.00  0.00     0.010 A 
ATOM     36  C   UNL A   1      38.267  29.720  27.511  1.00  0.00     0.010 A 
ATOM     37  C   UNL A   1      38.799  29.286  28.739  1.00  0.00    -0.014 A 
BRANCH  37  38
ATOM     38  C   UNL A   1      40.236  28.877  28.838  1.00  0.00     0.031 A 
ATOM     39  C   UNL A   1      41.279  29.879  29.280  1.00  0.00     0.074 A 
ATOM     40  C   UNL A   1      40.642  27.624  28.545  1.00  0.00     0.049 A 
ATOM     41  N   UNL A   1      42.576  29.858  29.109  1.00  0.00    -0.248 NA
ATOM     42  C   UNL A   1      40.793  31.069  29.998  1.00  0.00     0.031 C 
ATOM     43  C   UNL A   1      39.771  26.501  28.195  1.00  0.00     0.029 A 
ATOM     44  N   UNL A   1      41.906  27.083  28.495  1.00  0.00    -0.354 N 
ATOM     45  C   UNL A   1      43.049  31.067  29.609  1.00  0.00     0.074 A 
ATOM     46  C   UNL A   1      41.902  31.787  30.120  1.00  0.00     0.031 C 
ATOM     47  C   UNL A   1      40.515  25.402  28.017  1.00  0.00     0.029 A 
ATOM     48  C   UNL A   1      41.924  25.766  28.103  1.00  0.00     0.049 A 
ATOM     49  H   UNL A   1      42.719  27.591  28.720  1.00  0.00     0.167 HD
ATOM     50  C   UNL A   1      44.322  31.535  29.624  1.00  0.00     0.037 A 
ATOM     51  C   UNL A   1      42.945  24.953  27.765  1.00  0.00     0.037 A 
ATOM     52  C   UNL A   1      45.468  30.775  29.193  1.00  0.00     0.049 A 
ATOM     53  C   UNL A   1      44.344  25.494  27.746  1.00  0.00     0.074 A 
ATOM     54  C   UNL A   1      46.798  31.162  29.155  1.00  0.00     0.029 A 
ATOM     55  N   UNL A   1      45.426  29.458  28.759  1.00  0.00    -0.354 N 
ATOM     56  N   UNL A   1      44.765  26.694  28.062  1.00  0.00    -0.248 NA
ATOM     57  C   UNL A   1      45.401  24.585  27.281  1.00  0.00     0.031 C 
ATOM     58  C   UNL A   1      47.557  30.086  28.680  1.00  0.00     0.029 A 
ATOM     59  C   UNL A   1      46.704  29.018  28.454  1.00  0.00     0.049 A 
ATOM     60  H   UNL A   1      44.608  28.917  28.678  1.00  0.00     0.167 HD
ATOM     61  C   UNL A   1      46.136  26.687  27.835  1.00  0.00     0.074 A 
ATOM     62  C   UNL A   1      46.476  25.357  27.369  1.00  0.00     0.031 C 
ATOM     63  C   UNL A   1      47.030  27.693  27.993  1.00  0.00     0.037 A 
BRANCH  50  64
ATOM     64  C   UNL A   1      44.546  32.955  30.072  1.00  0.00     0.058 A 
ATOM     65  C   UNL A   1      44.463  34.043  29.190  1.00  0.00     0.135 A 
ATOM     66  C   UNL A   1      44.802  33.228  31.427  1.00  0.00     0.135 A 
ATOM     67  F   UNL A   1      44.237  33.839  27.884  1.00  0.00    -0.206 F 
ATOM     68  C   UNL A   1      44.647  35.351  29.633  1.00  0.00     0.059 A 
ATOM     69  C   UNL A   1      44.967  34.528  31.895  1.00  0.00     0.059 A 
ATOM     70  F   UNL A   1      44.890  32.223  32.313  1.00  0.00    -0.206 F 
ATOM     71  C   UNL A   1      44.902  35.582  30.987  1.00  0.00     0.060 A 
BRANCH  71  72
ATOM     72  S   UNL A   1      45.137  37.282  31.553  1.00  0.00     0.124 S 
ATOM     73  O   UNL A   1      45.488  37.956  30.306  1.00  0.00    -0.237 OA
ATOM     74  O   UNL A   1      43.830  37.615  32.108  1.00  0.00    -0.237 OA
ATOM     75  O   UNL A   1      46.217  37.167  32.528  1.00  0.00    -0.744 OA
ENDBRANCH  71  72
ENDBRANCH  50  64
BRANCH  51  76
ATOM     76  C   UNL A   1      42.653  23.561  27.334  1.00  0.00     0.058 A 
ATOM     77  C   UNL A   1      42.645  23.211  25.978  1.00  0.00     0.135 A 
ATOM     78  C   UNL A   1      42.445  22.540  28.277  1.00  0.00     0.135 A 
ATOM     79  F   UNL A   1      42.819  24.155  25.041  1.00  0.00    -0.206 F 
ATOM     80  C   UNL A   1      42.462  21.894  25.569  1.00  0.00     0.059 A 
ATOM     81  C   UNL A   1      42.289  21.214  27.894  1.00  0.00     0.059 A 
ATOM     82  F   UNL A   1      42.452  22.825  29.589  1.00  0.00    -0.206 F 
ATOM     83  C   UNL A   1      42.299  20.900  26.537  1.00  0.00     0.060 A 
BRANCH  83  84
ATOM     84  S   UNL A   1      42.179  19.176  26.011  1.00  0.00     0.124 S 
ATOM     85  O   UNL A   1      40.750  19.047  25.752  1.00  0.00    -0.237 OA
ATOM     86  O   UNL A   1      43.046  19.147  24.836  1.00  0.00    -0.237 OA
ATOM     87  O   UNL A   1      42.683  18.442  27.168  1.00  0.00    -0.744 OA
ENDBRANCH  83  84
ENDBRANCH  51  76
BRANCH  63  88
ATOM     88  C   UNL A   1      48.467  27.388  27.691  1.00  0.00     0.058 A 
ATOM     89  C   UNL A   1      49.326  26.862  28.668  1.00  0.00     0.135 A 
ATOM     90  C   UNL A   1      48.979  27.588  26.400  1.00  0.00     0.135 A 
ATOM     91  F   UNL A   1      48.885  26.663  29.919  1.00  0.00    -0.206 F 
ATOM     92  C   UNL A   1      50.651  26.556  28.377  1.00  0.00     0.059 A 
ATOM     93  C   UNL A   1      50.296  27.273  26.083  1.00  0.00     0.059 A 
ATOM     94  F   UNL A   1      48.193  28.085  25.431  1.00  0.00    -0.206 F 
ATOM     95  C   UNL A   1      51.128  26.766  27.081  1.00  0.00     0.060 A 
BRANCH  95  96
ATOM     96  S   UNL A   1      52.841  26.339  26.704  1.00  0.00     0.124 S 
ATOM     97  O   UNL A   1      52.754  24.891  26.543  1.00  0.00    -0.237 OA
ATOM     98  O   UNL A   1      53.094  27.099  25.483  1.00  0.00    -0.237 OA
ATOM     99  O   UNL A   1      53.571  26.798  27.881  1.00  0.00    -0.744 OA
ENDBRANCH  95  96
ENDBRANCH  63  88
ENDBRANCH  37  38
ENDBRANCH  30  32
ENDBRANCH  29  30
ENDBRANCH  28  29
ENDBRANCH   1  28
TORSDOF 22
ENDMDL
MODEL 3
REMARK VINA RESULT:     -10.5      5.397     10.835
REMARK SMILES O=C(N[C@@H](CS)C(=O)N[C@@H](CO)C(=O)OCCOC(=O)c1ccc(-c2c3nc(c(-c4c(F)cc(S(=O)(=O)[O-])cc4F)c4ccc([nH]4)c(-c4c(F)cc(S(=O)(=O)[O-])cc4F)c4nc(c(-c5c(F)cc(S(=O)(=O)[O-])cc5F)c5ccc2[nH]5)C=C4)C=C3)cc1)c1ccc(F)cc1
REMARK SMILES IDX 16 1 15 2 13 3 14 4 10 5 9 6 7 7 8 8 4 10 3 11 1 12 2 13
REMARK SMILES IDX 87 15 88 16 93 17 89 18 92 19 90 20 91 21 5 22 6 23 11 25
REMARK SMILES IDX 12 26 17 28 18 29 19 30 20 31 21 32 22 33 86 34 23 35 85 36
REMARK SMILES IDX 24 37 25 38 26 39 79 40 27 41 84 42 78 43 80 44 28 45 83 46
REMARK SMILES IDX 77 47 76 48 29 50 63 51 42 52 62 53 43 54 46 55 61 56 81 57
REMARK SMILES IDX 44 58 45 59 60 61 82 62 47 63 30 64 31 65 40 66 32 67 33 68
REMARK SMILES IDX 39 69 41 70 34 71 35 72 36 73 37 74 38 75 64 76 65 77 74 78
REMARK SMILES IDX 66 79 67 80 73 81 75 82 68 83 69 84 70 85 71 86 72 87 48 88
REMARK SMILES IDX 49 89 58 90 50 91 51 92 57 93 59 94 52 95 53 96 54 97 55 98
REMARK SMILES IDX 56 99
REMARK H PARENT 9 9 3 14 6 24 12 27 80 49 46 60
REMARK Flexibility Score: inf
ROOT
ATOM      1  C   UNL A   1      37.761  22.955  25.837  1.00  0.00     0.274 C 
ENDROOT
BRANCH   1   2
ATOM      2  O   UNL A   1      36.621  22.092  25.647  1.00  0.00    -0.460 OA
BRANCH   2   3
ATOM      3  C   UNL A   1      35.708  22.485  24.712  1.00  0.00     0.331 C 
ATOM      4  O   UNL A   1      35.983  23.043  23.657  1.00  0.00    -0.250 OA
BRANCH   3   5
ATOM      5  C   UNL A   1      34.267  22.244  25.184  1.00  0.00     0.218 C 
BRANCH   5   6
ATOM      6  N   UNL A   1      33.399  21.737  24.114  1.00  0.00    -0.339 N 
ATOM      7  C   UNL A   1      32.534  22.334  23.259  1.00  0.00     0.244 C 
ATOM      8  O   UNL A   1      32.006  21.592  22.421  1.00  0.00    -0.273 OA
ATOM      9  H   UNL A   1      33.458  20.762  23.993  1.00  0.00     0.164 HD
BRANCH   7  10
ATOM     10  C   UNL A   1      32.192  23.841  23.266  1.00  0.00     0.181 C 
BRANCH  10  11
ATOM     11  N   UNL A   1      32.895  24.600  22.226  1.00  0.00    -0.339 N 
ATOM     12  O   UNL A   1      33.743  26.463  21.289  1.00  0.00    -0.269 OA
ATOM     13  C   UNL A   1      33.424  25.866  22.311  1.00  0.00     0.251 C 
ATOM     14  H   UNL A   1      33.001  24.146  21.359  1.00  0.00     0.164 HD
BRANCH  13  15
ATOM     15  C   UNL A   1      33.570  26.528  23.626  1.00  0.00     0.040 A 
ATOM     16  C   UNL A   1      33.303  27.896  23.763  1.00  0.00     0.017 A 
ATOM     17  C   UNL A   1      33.914  25.759  24.747  1.00  0.00     0.017 A 
ATOM     18  C   UNL A   1      33.426  28.503  25.013  1.00  0.00     0.040 A 
ATOM     19  C   UNL A   1      34.031  26.373  25.996  1.00  0.00     0.040 A 
ATOM     20  C   UNL A   1      33.789  27.737  26.117  1.00  0.00     0.123 A 
ATOM     21  F   UNL A   1      33.887  28.324  27.317  1.00  0.00    -0.207 F 
ENDBRANCH  13  15
ENDBRANCH  10  11
BRANCH  10  22
ATOM     22  C   UNL A   1      30.680  24.122  23.370  1.00  0.00     0.101 C 
BRANCH  22  23
ATOM     23  S   UNL A   1      30.201  25.542  24.414  1.00  0.00    -0.177 SA
ATOM     24  H   UNL A   1      30.091  25.138  25.708  1.00  0.00     0.102 HD
ENDBRANCH  22  23
ENDBRANCH  10  22
ENDBRANCH   7  10
ENDBRANCH   5   6
BRANCH   5  25
ATOM     25  C   UNL A   1      34.328  21.246  26.349  1.00  0.00     0.193 C 
BRANCH  25  26
ATOM     26  O   UNL A   1      34.579  21.910  27.592  1.00  0.00    -0.394 OA
ATOM     27  H   UNL A   1      35.227  22.619  27.454  1.00  0.00     0.210 HD
ENDBRANCH  25  26
ENDBRANCH   5  25
ENDBRANCH   3   5
ENDBRANCH   2   3
ENDBRANCH   1   2
BRANCH   1  28
ATOM     28  C   UNL A   1      39.017  22.129  26.088  1.00  0.00     0.275 C 
BRANCH  28  29
ATOM     29  O   UNL A   1      39.770  22.716  27.161  1.00  0.00    -0.458 OA
BRANCH  29  30
ATOM     30  C   UNL A   1      40.791  23.521  26.788  1.00  0.00     0.338 C 
ATOM     31  O   UNL A   1      41.670  23.278  25.980  1.00  0.00    -0.246 OA
BRANCH  30  32
ATOM     32  C   UNL A   1      40.692  24.805  27.497  1.00  0.00     0.060 A 
ATOM     33  C   UNL A   1      41.726  25.731  27.401  1.00  0.00     0.016 A 
ATOM     34  C   UNL A   1      39.631  25.024  28.377  1.00  0.00     0.016 A 
ATOM     35  C   UNL A   1      41.740  26.836  28.258  1.00  0.00     0.010 A 
ATOM     36  C   UNL A   1      39.611  26.179  29.167  1.00  0.00     0.010 A 
ATOM     37  C   UNL A   1      40.689  27.083  29.155  1.00  0.00    -0.014 A 
BRANCH  37  38
ATOM     38  C   UNL A   1      40.726  28.229  30.119  1.00  0.00     0.031 A 
ATOM     39  C   UNL A   1      41.790  28.281  31.193  1.00  0.00     0.074 A 
ATOM     40  C   UNL A   1      39.831  29.236  30.062  1.00  0.00     0.049 A 
ATOM     41  N   UNL A   1      41.808  28.958  32.311  1.00  0.00    -0.248 NA
ATOM     42  C   UNL A   1      42.984  27.446  30.983  1.00  0.00     0.031 C 
ATOM     43  C   UNL A   1      38.796  29.406  29.041  1.00  0.00     0.029 A 
ATOM     44  N   UNL A   1      39.649  30.318  30.893  1.00  0.00    -0.354 N 
ATOM     45  C   UNL A   1      42.962  28.564  32.981  1.00  0.00     0.074 A 
ATOM     46  C   UNL A   1      43.636  27.608  32.128  1.00  0.00     0.031 C 
ATOM     47  C   UNL A   1      38.125  30.542  29.274  1.00  0.00     0.029 A 
ATOM     48  C   UNL A   1      38.585  31.112  30.534  1.00  0.00     0.049 A 
ATOM     49  H   UNL A   1      40.226  30.506  31.668  1.00  0.00     0.167 HD
ATOM     50  C   UNL A   1      43.406  28.954  34.202  1.00  0.00     0.037 A 
ATOM     51  C   UNL A   1      37.984  32.134  31.176  1.00  0.00     0.037 A 
ATOM     52  C   UNL A   1      42.775  29.970  35.005  1.00  0.00     0.049 A 
ATOM     53  C   UNL A   1      38.458  32.529  32.543  1.00  0.00     0.074 A 
ATOM     54  C   UNL A   1      43.137  30.428  36.261  1.00  0.00     0.029 A 
ATOM     55  N   UNL A   1      41.670  30.713  34.616  1.00  0.00    -0.354 N 
ATOM     56  N   UNL A   1      39.450  32.035  33.243  1.00  0.00    -0.248 NA
ATOM     57  C   UNL A   1      37.703  33.587  33.227  1.00  0.00     0.031 C 
ATOM     58  C   UNL A   1      42.240  31.435  36.639  1.00  0.00     0.029 A 
ATOM     59  C   UNL A   1      41.339  31.626  35.604  1.00  0.00     0.049 A 
ATOM     60  H   UNL A   1      41.191  30.605  33.763  1.00  0.00     0.167 HD
ATOM     61  C   UNL A   1      39.440  32.723  34.451  1.00  0.00     0.074 A 
ATOM     62  C   UNL A   1      38.352  33.677  34.380  1.00  0.00     0.031 C 
ATOM     63  C   UNL A   1      40.256  32.571  35.522  1.00  0.00     0.037 A 
BRANCH  50  64
ATOM     64  C   UNL A   1      44.604  28.245  34.776  1.00  0.00     0.058 A 
ATOM     65  C   UNL A   1      45.909  28.739  34.634  1.00  0.00     0.135 A 
ATOM     66  C   UNL A   1      44.427  27.069  35.526  1.00  0.00     0.135 A 
ATOM     67  F   UNL A   1      46.138  29.848  33.914  1.00  0.00    -0.206 F 
ATOM     68  C   UNL A   1      47.000  28.080  35.198  1.00  0.00     0.059 A 
ATOM     69  C   UNL A   1      45.499  26.407  36.116  1.00  0.00     0.059 A 
ATOM     70  F   UNL A   1      43.198  26.555  35.694  1.00  0.00    -0.206 F 
ATOM     71  C   UNL A   1      46.784  26.913  35.935  1.00  0.00     0.060 A 
BRANCH  71  72
ATOM     72  S   UNL A   1      48.203  26.066  36.664  1.00  0.00     0.124 S 
ATOM     73  O   UNL A   1      48.179  24.793  35.950  1.00  0.00    -0.237 OA
ATOM     74  O   UNL A   1      49.309  26.958  36.331  1.00  0.00    -0.237 OA
ATOM     75  O   UNL A   1      47.864  25.996  38.082  1.00  0.00    -0.744 OA
ENDBRANCH  71  72
ENDBRANCH  50  64
BRANCH  51  76
ATOM     76  C   UNL A   1      36.806  32.791  30.551  1.00  0.00     0.058 A 
ATOM     77  C   UNL A   1      35.503  32.473  30.955  1.00  0.00     0.135 A 
ATOM     78  C   UNL A   1      36.968  33.799  29.585  1.00  0.00     0.135 A 
ATOM     79  F   UNL A   1      35.298  31.503  31.859  1.00  0.00    -0.206 F 
ATOM     80  C   UNL A   1      34.400  33.147  30.440  1.00  0.00     0.059 A 
ATOM     81  C   UNL A   1      35.883  34.504  29.078  1.00  0.00     0.059 A 
ATOM     82  F   UNL A   1      38.197  34.143  29.172  1.00  0.00    -0.206 F 
ATOM     83  C   UNL A   1      34.602  34.171  29.513  1.00  0.00     0.060 A 
BRANCH  83  84
ATOM     84  S   UNL A   1      33.180  35.123  28.934  1.00  0.00     0.124 S 
ATOM     85  O   UNL A   1      32.447  35.338  30.176  1.00  0.00    -0.237 OA
ATOM     86  O   UNL A   1      33.811  36.304  28.352  1.00  0.00    -0.237 OA
ATOM     87  O   UNL A   1      32.548  34.224  27.973  1.00  0.00    -0.744 OA
ENDBRANCH  83  84
ENDBRANCH  51  76
BRANCH  63  88
ATOM     88  C   UNL A   1      40.026  33.478  36.694  1.00  0.00     0.058 A 
ATOM     89  C   UNL A   1      40.697  34.705  36.815  1.00  0.00     0.135 A 
ATOM     90  C   UNL A   1      39.094  33.135  37.686  1.00  0.00     0.135 A 
ATOM     91  F   UNL A   1      41.604  35.072  35.897  1.00  0.00    -0.206 F 
ATOM     92  C   UNL A   1      40.461  35.555  37.890  1.00  0.00     0.059 A 
ATOM     93  C   UNL A   1      38.831  33.977  38.760  1.00  0.00     0.059 A 
ATOM     94  F   UNL A   1      38.425  31.973  37.609  1.00  0.00    -0.206 F 
ATOM     95  C   UNL A   1      39.526  35.182  38.858  1.00  0.00     0.060 A 
BRANCH  95  96
ATOM     96  S   UNL A   1      39.204  36.306  40.235  1.00  0.00     0.124 S 
ATOM     97  O   UNL A   1      38.245  35.539  41.022  1.00  0.00    -0.237 OA
ATOM     98  O   UNL A   1      40.529  36.464  40.828  1.00  0.00    -0.237 OA
ATOM     99  O   UNL A   1      38.672  37.498  39.582  1.00  0.00    -0.744 OA
ENDBRANCH  95  96
ENDBRANCH  63  88
ENDBRANCH  37  38
ENDBRANCH  30  32
ENDBRANCH  29  30
ENDBRANCH  28  29
ENDBRANCH   1  28
TORSDOF 22
ENDMDL
