MODEL 1
REMARK VINA RESULT:     -11.3      0.000      0.000
REMARK SMILES CC1=C2C(=O)CC(C)(C)CC2=N[C@@H]1C(=O)OCCOC(=O)c1ccc(-c2c3nc(c(-c4c(F)cc(S(=O)(=O)[O-])cc4F)c4ccc([nH]4)c(-c4c(F)cc(S(=O)(=O)[O-])cc4F)c4nc(c(-c5c(F)cc(S(=O)(=O)[O-])cc5F)c5ccc2[nH]5)C=C4)C=C3)cc1
REMARK SMILES IDX 19 1 18 2 17 3 16 4 14 5 15 6 13 7 1 8 2 9 3 10 4 11 11 12
REMARK SMILES IDX 12 13 5 14 6 15 10 16 7 17 8 18 9 19 20 20 21 21 22 22 23 23
REMARK SMILES IDX 87 24 24 25 86 26 25 27 26 28 27 29 80 30 28 31 85 32 79 33
REMARK SMILES IDX 81 34 29 35 84 36 78 37 77 38 30 40 64 41 43 42 63 43 44 44
REMARK SMILES IDX 47 45 62 46 82 47 45 48 46 49 61 51 83 52 48 53 31 54 32 55
REMARK SMILES IDX 41 56 33 57 34 58 40 59 42 60 35 61 36 62 37 63 38 64 39 65
REMARK SMILES IDX 65 66 66 67 75 68 67 69 68 70 74 71 76 72 69 73 70 74 71 75
REMARK SMILES IDX 72 76 73 77 49 78 50 79 59 80 51 81 52 82 58 83 60 84 53 85
REMARK SMILES IDX 54 86 55 87 56 88 57 89
REMARK H PARENT 81 39 47 50
REMARK Flexibility Score: inf
ROOT
ATOM      1  O   UNL A   1      40.268  21.817  27.364  1.00  0.00    -0.458 OA
ENDROOT
BRANCH   1   2
ATOM      2  C   UNL A   1      40.425  20.677  26.520  1.00  0.00     0.275 C 
BRANCH   2   3
ATOM      3  C   UNL A   1      41.876  20.213  26.473  1.00  0.00     0.274 C 
BRANCH   3   4
ATOM      4  O   UNL A   1      42.647  20.849  25.436  1.00  0.00    -0.460 OA
BRANCH   4   5
ATOM      5  C   UNL A   1      43.475  21.863  25.833  1.00  0.00     0.335 C 
ATOM      6  O   UNL A   1      43.706  22.169  27.002  1.00  0.00    -0.249 OA
BRANCH   5   7
ATOM      7  C   UNL A   1      43.868  22.746  24.624  1.00  0.00     0.242 C 
ATOM      8  C   UNL A   1      46.350  21.965  24.115  1.00  0.00     0.043 C 
ATOM      9  C   UNL A   1      45.348  23.007  24.462  1.00  0.00    -0.025 C 
ATOM     10  C   UNL A   1      45.633  24.270  24.775  1.00  0.00     0.040 C 
ATOM     11  C   UNL A   1      46.863  25.069  24.864  1.00  0.00     0.165 C 
ATOM     12  C   UNL A   1      44.393  24.694  25.402  1.00  0.00     0.048 C 
ATOM     13  N   UNL A   1      43.301  24.081  25.051  1.00  0.00    -0.269 NA
ATOM     14  O   UNL A   1      47.729  25.010  23.997  1.00  0.00    -0.294 OA
ATOM     15  C   UNL A   1      46.938  26.038  26.033  1.00  0.00     0.088 C 
ATOM     16  C   UNL A   1      44.466  25.699  26.509  1.00  0.00     0.063 C 
ATOM     17  C   UNL A   1      45.895  25.719  27.135  1.00  0.00    -0.023 C 
ATOM     18  C   UNL A   1      46.274  24.382  27.829  1.00  0.00     0.012 C 
ATOM     19  C   UNL A   1      45.926  26.806  28.220  1.00  0.00     0.012 C 
ENDBRANCH   5   7
ENDBRANCH   4   5
ENDBRANCH   3   4
ENDBRANCH   2   3
ENDBRANCH   1   2
BRANCH   1  20
ATOM     20  C   UNL A   1      39.548  22.815  26.805  1.00  0.00     0.338 C 
ATOM     21  O   UNL A   1      38.509  22.712  26.177  1.00  0.00    -0.246 OA
BRANCH  20  22
ATOM     22  C   UNL A   1      40.238  24.091  26.996  1.00  0.00     0.060 A 
ATOM     23  C   UNL A   1      41.288  24.113  27.915  1.00  0.00     0.016 A 
ATOM     24  C   UNL A   1      39.674  25.266  26.487  1.00  0.00     0.016 A 
ATOM     25  C   UNL A   1      41.632  25.314  28.491  1.00  0.00     0.010 A 
ATOM     26  C   UNL A   1      40.041  26.471  27.046  1.00  0.00     0.010 A 
ATOM     27  C   UNL A   1      40.934  26.467  28.119  1.00  0.00    -0.014 A 
BRANCH  27  28
ATOM     28  C   UNL A   1      41.142  27.655  28.930  1.00  0.00     0.031 A 
ATOM     29  C   UNL A   1      42.255  28.535  28.490  1.00  0.00     0.074 A 
ATOM     30  C   UNL A   1      40.324  27.968  29.954  1.00  0.00     0.049 A 
ATOM     31  N   UNL A   1      43.290  28.929  29.158  1.00  0.00    -0.248 NA
ATOM     32  C   UNL A   1      42.258  28.940  27.075  1.00  0.00     0.031 C 
ATOM     33  C   UNL A   1      39.052  27.337  30.326  1.00  0.00     0.029 A 
ATOM     34  N   UNL A   1      40.403  29.020  30.810  1.00  0.00    -0.354 N 
ATOM     35  C   UNL A   1      43.979  29.789  28.308  1.00  0.00     0.074 A 
ATOM     36  C   UNL A   1      43.381  29.652  27.005  1.00  0.00     0.031 C 
ATOM     37  C   UNL A   1      38.369  28.170  31.140  1.00  0.00     0.029 A 
ATOM     38  C   UNL A   1      39.210  29.312  31.451  1.00  0.00     0.049 A 
ATOM     39  H   UNL A   1      41.233  29.529  30.961  1.00  0.00     0.167 HD
ATOM     40  C   UNL A   1      44.864  30.715  28.765  1.00  0.00     0.037 A 
ATOM     41  C   UNL A   1      38.908  30.467  32.091  1.00  0.00     0.037 A 
ATOM     42  C   UNL A   1      45.355  30.405  30.078  1.00  0.00     0.049 A 
ATOM     43  C   UNL A   1      40.189  31.143  32.423  1.00  0.00     0.074 A 
ATOM     44  C   UNL A   1      46.053  29.343  30.620  1.00  0.00     0.029 A 
ATOM     45  N   UNL A   1      44.852  31.100  31.150  1.00  0.00    -0.354 N 
ATOM     46  N   UNL A   1      41.064  30.682  33.277  1.00  0.00    -0.248 NA
ATOM     47  C   UNL A   1      40.704  32.126  31.481  1.00  0.00     0.031 C 
ATOM     48  C   UNL A   1      45.524  29.181  31.934  1.00  0.00     0.029 A 
ATOM     49  C   UNL A   1      44.561  30.174  32.122  1.00  0.00     0.049 A 
ATOM     50  H   UNL A   1      44.723  32.075  31.211  1.00  0.00     0.167 HD
ATOM     51  C   UNL A   1      42.301  30.997  32.733  1.00  0.00     0.074 A 
ATOM     52  C   UNL A   1      42.015  31.968  31.681  1.00  0.00     0.031 C 
ATOM     53  C   UNL A   1      43.410  30.246  32.996  1.00  0.00     0.037 A 
BRANCH  40  54
ATOM     54  C   UNL A   1      45.027  32.063  28.118  1.00  0.00     0.058 A 
ATOM     55  C   UNL A   1      46.270  32.454  27.586  1.00  0.00     0.135 A 
ATOM     56  C   UNL A   1      44.059  33.087  28.238  1.00  0.00     0.135 A 
ATOM     57  F   UNL A   1      47.266  31.565  27.457  1.00  0.00    -0.206 F 
ATOM     58  C   UNL A   1      46.543  33.779  27.238  1.00  0.00     0.059 A 
ATOM     59  C   UNL A   1      44.289  34.398  27.846  1.00  0.00     0.059 A 
ATOM     60  F   UNL A   1      42.877  32.876  28.834  1.00  0.00    -0.206 F 
ATOM     61  C   UNL A   1      45.549  34.745  27.387  1.00  0.00     0.060 A 
BRANCH  61  62
ATOM     62  S   UNL A   1      45.930  36.474  27.056  1.00  0.00     0.124 S 
ATOM     63  O   UNL A   1      46.714  36.826  28.235  1.00  0.00    -0.237 OA
ATOM     64  O   UNL A   1      46.666  36.389  25.799  1.00  0.00    -0.237 OA
ATOM     65  O   UNL A   1      44.612  37.095  26.963  1.00  0.00    -0.744 OA
ENDBRANCH  61  62
ENDBRANCH  40  54
BRANCH  41  66
ATOM     66  C   UNL A   1      37.600  31.172  32.060  1.00  0.00     0.058 A 
ATOM     67  C   UNL A   1      36.968  31.585  33.243  1.00  0.00     0.135 A 
ATOM     68  C   UNL A   1      37.068  31.684  30.858  1.00  0.00     0.135 A 
ATOM     69  F   UNL A   1      37.431  31.173  34.434  1.00  0.00    -0.206 F 
ATOM     70  C   UNL A   1      35.892  32.478  33.238  1.00  0.00     0.059 A 
ATOM     71  C   UNL A   1      35.986  32.561  30.826  1.00  0.00     0.059 A 
ATOM     72  F   UNL A   1      37.642  31.421  29.674  1.00  0.00    -0.206 F 
ATOM     73  C   UNL A   1      35.417  32.973  32.023  1.00  0.00     0.060 A 
BRANCH  73  74
ATOM     74  S   UNL A   1      34.135  34.247  32.017  1.00  0.00     0.124 S 
ATOM     75  O   UNL A   1      33.186  33.721  32.993  1.00  0.00    -0.237 OA
ATOM     76  O   UNL A   1      34.878  35.433  32.425  1.00  0.00    -0.237 OA
ATOM     77  O   UNL A   1      33.668  34.252  30.633  1.00  0.00    -0.744 OA
ENDBRANCH  73  74
ENDBRANCH  41  66
BRANCH  53  78
ATOM     78  C   UNL A   1      43.335  29.224  34.102  1.00  0.00     0.058 A 
ATOM     79  C   UNL A   1      43.555  29.522  35.460  1.00  0.00     0.135 A 
ATOM     80  C   UNL A   1      42.868  27.936  33.802  1.00  0.00     0.135 A 
ATOM     81  F   UNL A   1      43.893  30.760  35.845  1.00  0.00    -0.206 F 
ATOM     82  C   UNL A   1      43.362  28.574  36.464  1.00  0.00     0.059 A 
ATOM     83  C   UNL A   1      42.639  26.982  34.791  1.00  0.00     0.059 A 
ATOM     84  F   UNL A   1      42.573  27.607  32.532  1.00  0.00    -0.206 F 
ATOM     85  C   UNL A   1      42.900  27.304  36.121  1.00  0.00     0.060 A 
BRANCH  85  86
ATOM     86  S   UNL A   1      42.566  26.108  37.433  1.00  0.00     0.124 S 
ATOM     87  O   UNL A   1      41.152  26.342  37.709  1.00  0.00    -0.237 OA
ATOM     88  O   UNL A   1      42.883  24.834  36.793  1.00  0.00    -0.237 OA
ATOM     89  O   UNL A   1      43.484  26.504  38.498  1.00  0.00    -0.744 OA
ENDBRANCH  85  86
ENDBRANCH  53  78
ENDBRANCH  27  28
ENDBRANCH  20  22
ENDBRANCH   1  20
TORSDOF 14
ENDMDL
MODEL 2
REMARK VINA RESULT:     -11.1      2.687     11.358
REMARK SMILES CC1=C2C(=O)CC(C)(C)CC2=N[C@@H]1C(=O)OCCOC(=O)c1ccc(-c2c3nc(c(-c4c(F)cc(S(=O)(=O)[O-])cc4F)c4ccc([nH]4)c(-c4c(F)cc(S(=O)(=O)[O-])cc4F)c4nc(c(-c5c(F)cc(S(=O)(=O)[O-])cc5F)c5ccc2[nH]5)C=C4)C=C3)cc1
REMARK SMILES IDX 19 1 18 2 17 3 16 4 14 5 15 6 13 7 1 8 2 9 3 10 4 11 11 12
REMARK SMILES IDX 12 13 5 14 6 15 10 16 7 17 8 18 9 19 20 20 21 21 22 22 23 23
REMARK SMILES IDX 87 24 24 25 86 26 25 27 26 28 27 29 80 30 28 31 85 32 79 33
REMARK SMILES IDX 81 34 29 35 84 36 78 37 77 38 30 40 64 41 43 42 63 43 44 44
REMARK SMILES IDX 47 45 62 46 82 47 45 48 46 49 61 51 83 52 48 53 31 54 32 55
REMARK SMILES IDX 41 56 33 57 34 58 40 59 42 60 35 61 36 62 37 63 38 64 39 65
REMARK SMILES IDX 65 66 66 67 75 68 67 69 68 70 74 71 76 72 69 73 70 74 71 75
REMARK SMILES IDX 72 76 73 77 49 78 50 79 59 80 51 81 52 82 58 83 60 84 53 85
REMARK SMILES IDX 54 86 55 87 56 88 57 89
REMARK H PARENT 81 39 47 50
REMARK Flexibility Score: inf
ROOT
ATOM      1  O   UNL A   1      35.199  32.727  27.915  1.00  0.00    -0.458 OA
ENDROOT
BRANCH   1   2
ATOM      2  C   UNL A   1      33.913  33.342  27.965  1.00  0.00     0.275 C 
BRANCH   2   3
ATOM      3  C   UNL A   1      33.913  34.563  28.878  1.00  0.00     0.274 C 
BRANCH   3   4
ATOM      4  O   UNL A   1      33.656  34.245  30.259  1.00  0.00    -0.460 OA
BRANCH   4   5
ATOM      5  C   UNL A   1      34.752  34.148  31.072  1.00  0.00     0.335 C 
ATOM      6  O   UNL A   1      35.903  34.428  30.741  1.00  0.00    -0.249 OA
BRANCH   5   7
ATOM      7  C   UNL A   1      34.397  33.387  32.371  1.00  0.00     0.242 C 
ATOM      8  C   UNL A   1      34.442  35.305  34.201  1.00  0.00     0.043 C 
ATOM      9  C   UNL A   1      34.912  34.007  33.651  1.00  0.00    -0.025 C 
ATOM     10  C   UNL A   1      35.910  33.278  34.150  1.00  0.00     0.040 C 
ATOM     11  C   UNL A   1      36.814  33.401  35.301  1.00  0.00     0.165 C 
ATOM     12  C   UNL A   1      36.196  32.389  33.037  1.00  0.00     0.048 C 
ATOM     13  N   UNL A   1      35.230  32.136  32.204  1.00  0.00    -0.269 NA
ATOM     14  O   UNL A   1      36.401  33.729  36.408  1.00  0.00    -0.294 OA
ATOM     15  C   UNL A   1      38.258  32.996  35.052  1.00  0.00     0.088 C 
ATOM     16  C   UNL A   1      37.609  31.939  32.835  1.00  0.00     0.063 C 
ATOM     17  C   UNL A   1      38.599  32.917  33.541  1.00  0.00    -0.023 C 
ATOM     18  C   UNL A   1      38.580  34.347  32.934  1.00  0.00     0.012 C 
ATOM     19  C   UNL A   1      40.024  32.374  33.351  1.00  0.00     0.012 C 
ENDBRANCH   5   7
ENDBRANCH   4   5
ENDBRANCH   3   4
ENDBRANCH   2   3
ENDBRANCH   1   2
BRANCH   1  20
ATOM     20  C   UNL A   1      35.157  31.379  27.831  1.00  0.00     0.338 C 
ATOM     21  O   UNL A   1      34.351  30.704  27.214  1.00  0.00    -0.246 OA
BRANCH  20  22
ATOM     22  C   UNL A   1      36.205  30.796  28.668  1.00  0.00     0.060 A 
ATOM     23  C   UNL A   1      37.144  31.676  29.212  1.00  0.00     0.016 A 
ATOM     24  C   UNL A   1      36.398  29.411  28.674  1.00  0.00     0.016 A 
ATOM     25  C   UNL A   1      38.378  31.181  29.568  1.00  0.00     0.010 A 
ATOM     26  C   UNL A   1      37.625  28.916  29.058  1.00  0.00     0.010 A 
ATOM     27  C   UNL A   1      38.636  29.819  29.393  1.00  0.00    -0.014 A 
BRANCH  27  28
ATOM     28  C   UNL A   1      40.017  29.386  29.530  1.00  0.00     0.031 A 
ATOM     29  C   UNL A   1      40.494  29.219  30.927  1.00  0.00     0.074 A 
ATOM     30  C   UNL A   1      40.774  29.081  28.458  1.00  0.00     0.049 A 
ATOM     31  N   UNL A   1      41.499  29.782  31.513  1.00  0.00    -0.248 NA
ATOM     32  C   UNL A   1      39.663  28.388  31.813  1.00  0.00     0.031 C 
ATOM     33  C   UNL A   1      40.355  28.950  27.057  1.00  0.00     0.029 A 
ATOM     34  N   UNL A   1      42.075  28.690  28.424  1.00  0.00    -0.354 N 
ATOM     35  C   UNL A   1      41.545  29.230  32.790  1.00  0.00     0.074 A 
ATOM     36  C   UNL A   1      40.322  28.489  32.966  1.00  0.00     0.031 C 
ATOM     37  C   UNL A   1      41.300  28.265  26.378  1.00  0.00     0.029 A 
ATOM     38  C   UNL A   1      42.434  28.038  27.255  1.00  0.00     0.049 A 
ATOM     39  H   UNL A   1      42.705  28.854  29.163  1.00  0.00     0.167 HD
ATOM     40  C   UNL A   1      42.671  29.240  33.552  1.00  0.00     0.037 A 
ATOM     41  C   UNL A   1      43.536  27.272  27.073  1.00  0.00     0.037 A 
ATOM     42  C   UNL A   1      43.606  30.247  33.136  1.00  0.00     0.049 A 
ATOM     43  C   UNL A   1      44.518  27.643  28.124  1.00  0.00     0.074 A 
ATOM     44  C   UNL A   1      43.558  31.624  33.034  1.00  0.00     0.029 A 
ATOM     45  N   UNL A   1      44.709  29.864  32.414  1.00  0.00    -0.354 N 
ATOM     46  N   UNL A   1      45.112  28.805  28.199  1.00  0.00    -0.248 NA
ATOM     47  C   UNL A   1      44.524  26.867  29.356  1.00  0.00     0.031 C 
ATOM     48  C   UNL A   1      44.323  31.940  31.873  1.00  0.00     0.029 A 
ATOM     49  C   UNL A   1      44.817  30.739  31.360  1.00  0.00     0.049 A 
ATOM     50  H   UNL A   1      45.307  29.107  32.612  1.00  0.00     0.167 HD
ATOM     51  C   UNL A   1      45.202  29.079  29.556  1.00  0.00     0.074 A 
ATOM     52  C   UNL A   1      44.913  27.810  30.217  1.00  0.00     0.031 C 
ATOM     53  C   UNL A   1      45.232  30.360  30.027  1.00  0.00     0.037 A 
BRANCH  40  54
ATOM     54  C   UNL A   1      43.030  28.110  34.477  1.00  0.00     0.058 A 
ATOM     55  C   UNL A   1      43.228  28.347  35.850  1.00  0.00     0.135 A 
ATOM     56  C   UNL A   1      43.441  26.841  34.005  1.00  0.00     0.135 A 
ATOM     57  F   UNL A   1      42.898  29.529  36.393  1.00  0.00    -0.206 F 
ATOM     58  C   UNL A   1      43.830  27.403  36.685  1.00  0.00     0.059 A 
ATOM     59  C   UNL A   1      43.990  25.868  34.828  1.00  0.00     0.059 A 
ATOM     60  F   UNL A   1      43.417  26.530  32.702  1.00  0.00    -0.206 F 
ATOM     61  C   UNL A   1      44.221  26.173  36.159  1.00  0.00     0.060 A 
BRANCH  61  62
ATOM     62  S   UNL A   1      45.106  24.999  37.199  1.00  0.00     0.124 S 
ATOM     63  O   UNL A   1      45.003  23.779  36.408  1.00  0.00    -0.237 OA
ATOM     64  O   UNL A   1      46.433  25.602  37.279  1.00  0.00    -0.237 OA
ATOM     65  O   UNL A   1      44.342  25.013  38.444  1.00  0.00    -0.744 OA
ENDBRANCH  61  62
ENDBRANCH  40  54
BRANCH  41  66
ATOM     66  C   UNL A   1      43.604  25.998  26.310  1.00  0.00     0.058 A 
ATOM     67  C   UNL A   1      44.591  25.786  25.334  1.00  0.00     0.135 A 
ATOM     68  C   UNL A   1      42.863  24.864  26.703  1.00  0.00     0.135 A 
ATOM     69  F   UNL A   1      45.366  26.804  24.928  1.00  0.00    -0.206 F 
ATOM     70  C   UNL A   1      44.849  24.520  24.801  1.00  0.00     0.059 A 
ATOM     71  C   UNL A   1      43.090  23.595  26.174  1.00  0.00     0.059 A 
ATOM     72  F   UNL A   1      41.950  24.933  27.684  1.00  0.00    -0.206 F 
ATOM     73  C   UNL A   1      44.102  23.425  25.240  1.00  0.00     0.060 A 
BRANCH  73  74
ATOM     74  S   UNL A   1      44.536  21.764  24.676  1.00  0.00     0.124 S 
ATOM     75  O   UNL A   1      44.567  21.938  23.228  1.00  0.00    -0.237 OA
ATOM     76  O   UNL A   1      45.826  21.548  25.321  1.00  0.00    -0.237 OA
ATOM     77  O   UNL A   1      43.443  20.938  25.182  1.00  0.00    -0.744 OA
ENDBRANCH  73  74
ENDBRANCH  41  66
BRANCH  53  78
ATOM     78  C   UNL A   1      45.439  31.480  29.038  1.00  0.00     0.058 A 
ATOM     79  C   UNL A   1      46.705  31.936  28.626  1.00  0.00     0.135 A 
ATOM     80  C   UNL A   1      44.325  31.999  28.363  1.00  0.00     0.135 A 
ATOM     81  F   UNL A   1      47.825  31.410  29.139  1.00  0.00    -0.206 F 
ATOM     82  C   UNL A   1      46.854  32.894  27.623  1.00  0.00     0.059 A 
ATOM     83  C   UNL A   1      44.451  32.935  27.338  1.00  0.00     0.059 A 
ATOM     84  F   UNL A   1      43.092  31.556  28.661  1.00  0.00    -0.206 F 
ATOM     85  C   UNL A   1      45.719  33.388  26.981  1.00  0.00     0.060 A 
BRANCH  85  86
ATOM     86  S   UNL A   1      45.921  34.561  25.622  1.00  0.00     0.124 S 
ATOM     87  O   UNL A   1      47.343  34.435  25.316  1.00  0.00    -0.237 OA
ATOM     88  O   UNL A   1      45.007  34.039  24.610  1.00  0.00    -0.237 OA
ATOM     89  O   UNL A   1      45.520  35.837  26.211  1.00  0.00    -0.744 OA
ENDBRANCH  85  86
ENDBRANCH  53  78
ENDBRANCH  27  28
ENDBRANCH  20  22
ENDBRANCH   1  20
TORSDOF 14
ENDMDL
MODEL 3
REMARK VINA RESULT:     -11.1      3.068      5.530
REMARK SMILES CC1=C2C(=O)CC(C)(C)CC2=N[C@@H]1C(=O)OCCOC(=O)c1ccc(-c2c3nc(c(-c4c(F)cc(S(=O)(=O)[O-])cc4F)c4ccc([nH]4)c(-c4c(F)cc(S(=O)(=O)[O-])cc4F)c4nc(c(-c5c(F)cc(S(=O)(=O)[O-])cc5F)c5ccc2[nH]5)C=C4)C=C3)cc1
REMARK SMILES IDX 19 1 18 2 17 3 16 4 14 5 15 6 13 7 1 8 2 9 3 10 4 11 11 12
REMARK SMILES IDX 12 13 5 14 6 15 10 16 7 17 8 18 9 19 20 20 21 21 22 22 23 23
REMARK SMILES IDX 87 24 24 25 86 26 25 27 26 28 27 29 80 30 28 31 85 32 79 33
REMARK SMILES IDX 81 34 29 35 84 36 78 37 77 38 30 40 64 41 43 42 63 43 44 44
REMARK SMILES IDX 47 45 62 46 82 47 45 48 46 49 61 51 83 52 48 53 31 54 32 55
REMARK SMILES IDX 41 56 33 57 34 58 40 59 42 60 35 61 36 62 37 63 38 64 39 65
REMARK SMILES IDX 65 66 66 67 75 68 67 69 68 70 74 71 76 72 69 73 70 74 71 75
REMARK SMILES IDX 72 76 73 77 49 78 50 79 59 80 51 81 52 82 58 83 60 84 53 85
REMARK SMILES IDX 54 86 55 87 56 88 57 89
REMARK H PARENT 81 39 47 50
REMARK Flexibility Score: inf
ROOT
ATOM      1  O   UNL A   1      38.478  22.696  26.159  1.00  0.00    -0.458 OA
ENDROOT
BRANCH   1   2
ATOM      2  C   UNL A   1      38.231  21.516  25.397  1.00  0.00     0.275 C 
BRANCH   2   3
ATOM      3  C   UNL A   1      36.756  21.133  25.423  1.00  0.00     0.274 C 
BRANCH   3   4
ATOM      4  O   UNL A   1      35.976  21.784  24.403  1.00  0.00    -0.460 OA
BRANCH   4   5
ATOM      5  C   UNL A   1      34.714  22.173  24.761  1.00  0.00     0.335 C 
ATOM      6  O   UNL A   1      33.677  21.788  24.224  1.00  0.00    -0.249 OA
BRANCH   5   7
ATOM      7  C   UNL A   1      34.774  23.364  25.748  1.00  0.00     0.242 C 
ATOM      8  C   UNL A   1      32.616  22.991  27.242  1.00  0.00     0.043 C 
ATOM      9  C   UNL A   1      33.445  23.807  26.316  1.00  0.00    -0.025 C 
ATOM     10  C   UNL A   1      33.081  24.975  25.788  1.00  0.00     0.040 C 
ATOM     11  C   UNL A   1      31.905  25.848  25.902  1.00  0.00     0.165 C 
ATOM     12  C   UNL A   1      34.031  25.101  24.696  1.00  0.00     0.048 C 
ATOM     13  N   UNL A   1      35.171  24.486  24.815  1.00  0.00    -0.269 NA
ATOM     14  O   UNL A   1      31.394  26.095  26.989  1.00  0.00    -0.294 OA
ATOM     15  C   UNL A   1      31.438  26.499  24.610  1.00  0.00     0.088 C 
ATOM     16  C   UNL A   1      33.588  25.802  23.450  1.00  0.00     0.063 C 
ATOM     17  C   UNL A   1      32.032  25.811  23.352  1.00  0.00    -0.023 C 
ATOM     18  C   UNL A   1      31.422  24.390  23.209  1.00  0.00     0.012 C 
ATOM     19  C   UNL A   1      31.636  26.592  22.089  1.00  0.00     0.012 C 
ENDBRANCH   5   7
ENDBRANCH   4   5
ENDBRANCH   3   4
ENDBRANCH   2   3
ENDBRANCH   1   2
BRANCH   1  20
ATOM     20  C   UNL A   1      39.612  22.645  26.894  1.00  0.00     0.338 C 
ATOM     21  O   UNL A   1      40.087  21.668  27.446  1.00  0.00    -0.246 OA
BRANCH  20  22
ATOM     22  C   UNL A   1      40.191  23.983  27.008  1.00  0.00     0.060 A 
ATOM     23  C   UNL A   1      41.384  24.098  27.724  1.00  0.00     0.016 A 
ATOM     24  C   UNL A   1      39.427  25.100  26.655  1.00  0.00     0.016 A 
ATOM     25  C   UNL A   1      41.703  25.318  28.277  1.00  0.00     0.010 A 
ATOM     26  C   UNL A   1      39.765  26.326  27.187  1.00  0.00     0.010 A 
ATOM     27  C   UNL A   1      40.835  26.396  28.082  1.00  0.00    -0.014 A 
BRANCH  27  28
ATOM     28  C   UNL A   1      41.065  27.583  28.889  1.00  0.00     0.031 A 
ATOM     29  C   UNL A   1      42.188  28.445  28.440  1.00  0.00     0.074 A 
ATOM     30  C   UNL A   1      40.259  27.909  29.917  1.00  0.00     0.049 A 
ATOM     31  N   UNL A   1      43.233  28.826  29.100  1.00  0.00    -0.248 NA
ATOM     32  C   UNL A   1      42.188  28.847  27.024  1.00  0.00     0.031 C 
ATOM     33  C   UNL A   1      38.979  27.298  30.298  1.00  0.00     0.029 A 
ATOM     34  N   UNL A   1      40.358  28.962  30.770  1.00  0.00    -0.354 N 
ATOM     35  C   UNL A   1      43.929  29.674  28.244  1.00  0.00     0.074 A 
ATOM     36  C   UNL A   1      43.321  29.543  26.945  1.00  0.00     0.031 C 
ATOM     37  C   UNL A   1      38.314  28.142  31.115  1.00  0.00     0.029 A 
ATOM     38  C   UNL A   1      39.173  29.273  31.418  1.00  0.00     0.049 A 
ATOM     39  H   UNL A   1      41.196  29.460  30.914  1.00  0.00     0.167 HD
ATOM     40  C   UNL A   1      44.830  30.588  28.693  1.00  0.00     0.037 A 
ATOM     41  C   UNL A   1      38.892  30.433  32.058  1.00  0.00     0.037 A 
ATOM     42  C   UNL A   1      45.324  30.274  30.004  1.00  0.00     0.049 A 
ATOM     43  C   UNL A   1      40.185  31.091  32.380  1.00  0.00     0.074 A 
ATOM     44  C   UNL A   1      46.011  29.203  30.544  1.00  0.00     0.029 A 
ATOM     45  N   UNL A   1      44.839  30.978  31.077  1.00  0.00    -0.354 N 
ATOM     46  N   UNL A   1      41.058  30.620  33.229  1.00  0.00    -0.248 NA
ATOM     47  C   UNL A   1      40.708  32.065  31.432  1.00  0.00     0.031 C 
ATOM     48  C   UNL A   1      45.488  29.051  31.861  1.00  0.00     0.029 A 
ATOM     49  C   UNL A   1      44.541  30.059  32.053  1.00  0.00     0.049 A 
ATOM     50  H   UNL A   1      44.725  31.955  31.136  1.00  0.00     0.167 HD
ATOM     51  C   UNL A   1      42.297  30.916  32.676  1.00  0.00     0.074 A 
ATOM     52  C   UNL A   1      42.018  31.889  31.624  1.00  0.00     0.031 C 
ATOM     53  C   UNL A   1      43.397  30.149  32.934  1.00  0.00     0.037 A 
BRANCH  40  54
ATOM     54  C   UNL A   1      45.009  31.932  28.042  1.00  0.00     0.058 A 
ATOM     55  C   UNL A   1      46.247  32.295  27.481  1.00  0.00     0.135 A 
ATOM     56  C   UNL A   1      44.067  32.978  28.184  1.00  0.00     0.135 A 
ATOM     57  F   UNL A   1      47.220  31.384  27.329  1.00  0.00    -0.206 F 
ATOM     58  C   UNL A   1      46.542  33.613  27.127  1.00  0.00     0.059 A 
ATOM     59  C   UNL A   1      44.318  34.283  27.787  1.00  0.00     0.059 A 
ATOM     60  F   UNL A   1      42.895  32.794  28.808  1.00  0.00    -0.206 F 
ATOM     61  C   UNL A   1      45.574  34.601  27.298  1.00  0.00     0.060 A 
BRANCH  61  62
ATOM     62  S   UNL A   1      45.987  36.321  26.958  1.00  0.00     0.124 S 
ATOM     63  O   UNL A   1      44.661  36.924  26.879  1.00  0.00    -0.237 OA
ATOM     64  O   UNL A   1      46.786  36.681  28.124  1.00  0.00    -0.237 OA
ATOM     65  O   UNL A   1      46.724  36.245  25.700  1.00  0.00    -0.744 OA
ENDBRANCH  61  62
ENDBRANCH  40  54
BRANCH  41  66
ATOM     66  C   UNL A   1      37.595  31.158  32.033  1.00  0.00     0.058 A 
ATOM     67  C   UNL A   1      36.967  31.566  33.220  1.00  0.00     0.135 A 
ATOM     68  C   UNL A   1      37.072  31.692  30.836  1.00  0.00     0.135 A 
ATOM     69  F   UNL A   1      37.421  31.133  34.406  1.00  0.00    -0.206 F 
ATOM     70  C   UNL A   1      35.903  32.474  33.224  1.00  0.00     0.059 A 
ATOM     71  C   UNL A   1      36.003  32.584  30.813  1.00  0.00     0.059 A 
ATOM     72  F   UNL A   1      37.643  31.435  29.650  1.00  0.00    -0.206 F 
ATOM     73  C   UNL A   1      35.437  32.990  32.014  1.00  0.00     0.060 A 
BRANCH  73  74
ATOM     74  S   UNL A   1      34.173  34.281  32.022  1.00  0.00     0.124 S 
ATOM     75  O   UNL A   1      33.758  34.302  30.623  1.00  0.00    -0.237 OA
ATOM     76  O   UNL A   1      33.199  33.753  32.969  1.00  0.00    -0.237 OA
ATOM     77  O   UNL A   1      34.901  35.465  32.474  1.00  0.00    -0.744 OA
ENDBRANCH  73  74
ENDBRANCH  41  66
BRANCH  53  78
ATOM     78  C   UNL A   1      43.314  29.131  34.043  1.00  0.00     0.058 A 
ATOM     79  C   UNL A   1      43.543  29.430  35.399  1.00  0.00     0.135 A 
ATOM     80  C   UNL A   1      42.829  27.848  33.748  1.00  0.00     0.135 A 
ATOM     81  F   UNL A   1      43.898  30.664  35.780  1.00  0.00    -0.206 F 
ATOM     82  C   UNL A   1      43.342  28.486  36.407  1.00  0.00     0.059 A 
ATOM     83  C   UNL A   1      42.593  26.899  34.741  1.00  0.00     0.059 A 
ATOM     84  F   UNL A   1      42.525  27.520  32.480  1.00  0.00    -0.206 F 
ATOM     85  C   UNL A   1      42.864  27.221  36.069  1.00  0.00     0.060 A 
BRANCH  85  86
ATOM     86  S   UNL A   1      42.520  26.032  37.385  1.00  0.00     0.124 S 
ATOM     87  O   UNL A   1      43.472  26.433  38.417  1.00  0.00    -0.237 OA
ATOM     88  O   UNL A   1      41.114  26.287  37.687  1.00  0.00    -0.237 OA
ATOM     89  O   UNL A   1      42.788  24.741  36.756  1.00  0.00    -0.744 OA
ENDBRANCH  85  86
ENDBRANCH  53  78
ENDBRANCH  27  28
ENDBRANCH  20  22
ENDBRANCH   1  20
TORSDOF 14
ENDMDL
