MODEL 1
REMARK VINA RESULT:     -11.6      0.000      0.000
REMARK SMILES O=C(OCCOC(=O)c1ccc(F)cc1-c1ccc(F)c(Cl)c1)c1ccc(-c2c3nc(c(-c4c(F)cc(S(=O)(=O)[O-])cc4F)c4ccc([nH]4)c(-c4c(F)cc(S(=O)(=O)[O-])cc4F)c4nc(c(-c5c(F)cc(S(=O)(=O)[O-])cc5F)c5ccc2[nH]5)C=C4)C=C3)cc1
REMARK SMILES IDX 4 1 3 2 2 3 1 4 24 5 25 6 89 7 26 8 88 9 27 10 28 11 29 12
REMARK SMILES IDX 82 13 30 14 87 15 81 16 83 17 31 18 86 19 80 20 79 21 32 23
REMARK SMILES IDX 66 24 45 25 65 26 46 27 49 28 64 29 84 30 47 31 48 32 63 34
REMARK SMILES IDX 85 35 50 36 33 37 34 38 43 39 35 40 36 41 42 42 44 43 37 44
REMARK SMILES IDX 38 45 39 46 40 47 41 48 67 49 68 50 77 51 69 52 70 53 76 54
REMARK SMILES IDX 78 55 71 56 72 57 73 58 74 59 75 60 51 61 52 62 61 63 53 64
REMARK SMILES IDX 54 65 60 66 62 67 55 68 56 69 57 70 58 71 59 72 5 73 6 74
REMARK SMILES IDX 7 75 8 76 9 77 10 78 15 79 11 80 14 81 12 82 13 83 16 84
REMARK SMILES IDX 17 85 23 86 18 87 21 88 19 89 22 90 20 91
REMARK H PARENT 83 22 49 33
REMARK Flexibility Score: inf
ROOT
ATOM      1  C   UNL A   1      32.980  30.882  27.418  1.00  0.00     0.275 C 
ENDROOT
BRANCH   1   2
ATOM      2  O   UNL A   1      34.242  30.362  27.825  1.00  0.00    -0.458 OA
BRANCH   2   3
ATOM      3  C   UNL A   1      34.913  31.096  28.738  1.00  0.00     0.338 C 
ATOM      4  O   UNL A   1      34.541  32.146  29.231  1.00  0.00    -0.246 OA
BRANCH   3   5
ATOM      5  C   UNL A   1      36.279  30.516  28.828  1.00  0.00     0.060 A 
ATOM      6  C   UNL A   1      36.702  29.920  30.028  1.00  0.00     0.016 A 
ATOM      7  C   UNL A   1      37.075  30.417  27.686  1.00  0.00     0.016 A 
ATOM      8  C   UNL A   1      37.913  29.267  30.099  1.00  0.00     0.010 A 
ATOM      9  C   UNL A   1      38.246  29.675  27.725  1.00  0.00     0.010 A 
ATOM     10  C   UNL A   1      38.691  29.159  28.949  1.00  0.00    -0.014 A 
BRANCH  10  11
ATOM     11  C   UNL A   1      40.096  28.759  29.080  1.00  0.00     0.031 A 
ATOM     12  C   UNL A   1      41.047  29.807  29.574  1.00  0.00     0.074 A 
ATOM     13  C   UNL A   1      40.472  27.507  28.776  1.00  0.00     0.049 A 
ATOM     14  N   UNL A   1      42.342  29.757  29.695  1.00  0.00    -0.248 NA
ATOM     15  C   UNL A   1      40.459  31.108  29.957  1.00  0.00     0.031 C 
ATOM     16  C   UNL A   1      39.576  26.439  28.329  1.00  0.00     0.029 A 
ATOM     17  N   UNL A   1      41.708  26.928  28.778  1.00  0.00    -0.354 N 
ATOM     18  C   UNL A   1      42.715  31.014  30.151  1.00  0.00     0.074 A 
ATOM     19  C   UNL A   1      41.535  31.841  30.181  1.00  0.00     0.031 C 
ATOM     20  C   UNL A   1      40.303  25.347  28.044  1.00  0.00     0.029 A 
ATOM     21  C   UNL A   1      41.708  25.642  28.299  1.00  0.00     0.049 A 
ATOM     22  H   UNL A   1      42.518  27.389  29.093  1.00  0.00     0.167 HD
ATOM     23  C   UNL A   1      43.932  31.416  30.574  1.00  0.00     0.037 A 
ATOM     24  C   UNL A   1      42.744  24.809  28.092  1.00  0.00     0.037 A 
ATOM     25  C   UNL A   1      45.062  30.534  30.579  1.00  0.00     0.049 A 
ATOM     26  C   UNL A   1      44.104  25.279  28.524  1.00  0.00     0.074 A 
ATOM     27  C   UNL A   1      46.343  30.772  31.029  1.00  0.00     0.029 A 
ATOM     28  N   UNL A   1      45.027  29.225  30.109  1.00  0.00    -0.354 N 
ATOM     29  N   UNL A   1      44.446  26.453  29.007  1.00  0.00    -0.248 NA
ATOM     30  C   UNL A   1      45.206  24.318  28.431  1.00  0.00     0.031 C 
ATOM     31  C   UNL A   1      47.094  29.616  30.796  1.00  0.00     0.029 A 
ATOM     32  C   UNL A   1      46.269  28.641  30.247  1.00  0.00     0.049 A 
ATOM     33  H   UNL A   1      44.233  28.781  29.733  1.00  0.00     0.167 HD
ATOM     34  C   UNL A   1      45.793  26.359  29.324  1.00  0.00     0.074 A 
ATOM     35  C   UNL A   1      46.207  25.016  28.957  1.00  0.00     0.031 C 
ATOM     36  C   UNL A   1      46.611  27.285  29.884  1.00  0.00     0.037 A 
BRANCH  23  37
ATOM     37  C   UNL A   1      44.061  32.830  31.069  1.00  0.00     0.058 A 
ATOM     38  C   UNL A   1      44.298  33.882  30.173  1.00  0.00     0.135 A 
ATOM     39  C   UNL A   1      43.901  33.155  32.429  1.00  0.00     0.135 A 
ATOM     40  F   UNL A   1      44.445  33.635  28.862  1.00  0.00    -0.206 F 
ATOM     41  C   UNL A   1      44.361  35.204  30.604  1.00  0.00     0.059 A 
ATOM     42  C   UNL A   1      43.926  34.473  32.876  1.00  0.00     0.059 A 
ATOM     43  F   UNL A   1      43.639  32.193  33.328  1.00  0.00    -0.206 F 
ATOM     44  C   UNL A   1      44.163  35.491  31.955  1.00  0.00     0.060 A 
BRANCH  44  45
ATOM     45  S   UNL A   1      44.159  37.217  32.483  1.00  0.00     0.124 S 
ATOM     46  O   UNL A   1      45.513  37.376  33.000  1.00  0.00    -0.237 OA
ATOM     47  O   UNL A   1      43.863  37.920  31.238  1.00  0.00    -0.237 OA
ATOM     48  O   UNL A   1      43.094  37.262  33.482  1.00  0.00    -0.744 OA
ENDBRANCH  44  45
ENDBRANCH  23  37
BRANCH  24  49
ATOM     49  C   UNL A   1      42.485  23.458  27.531  1.00  0.00     0.058 A 
ATOM     50  C   UNL A   1      42.256  22.357  28.372  1.00  0.00     0.135 A 
ATOM     51  C   UNL A   1      42.593  23.217  26.155  1.00  0.00     0.135 A 
ATOM     52  F   UNL A   1      42.168  22.530  29.700  1.00  0.00    -0.206 F 
ATOM     53  C   UNL A   1      42.176  21.061  27.872  1.00  0.00     0.059 A 
ATOM     54  C   UNL A   1      42.503  21.930  25.629  1.00  0.00     0.059 A 
ATOM     55  F   UNL A   1      42.821  24.235  25.313  1.00  0.00    -0.206 F 
ATOM     56  C   UNL A   1      42.315  20.856  26.499  1.00  0.00     0.060 A 
BRANCH  56  57
ATOM     57  S   UNL A   1      42.293  19.159  25.877  1.00  0.00     0.124 S 
ATOM     58  O   UNL A   1      43.160  19.267  24.707  1.00  0.00    -0.237 OA
ATOM     59  O   UNL A   1      42.839  18.415  27.007  1.00  0.00    -0.237 OA
ATOM     60  O   UNL A   1      40.882  18.922  25.590  1.00  0.00    -0.744 OA
ENDBRANCH  56  57
ENDBRANCH  24  49
BRANCH  36  61
ATOM     61  C   UNL A   1      48.020  26.874  30.181  1.00  0.00     0.058 A 
ATOM     62  C   UNL A   1      48.334  26.316  31.431  1.00  0.00     0.135 A 
ATOM     63  C   UNL A   1      49.069  27.193  29.308  1.00  0.00     0.135 A 
ATOM     64  F   UNL A   1      47.357  26.003  32.297  1.00  0.00    -0.206 F 
ATOM     65  C   UNL A   1      49.651  26.135  31.826  1.00  0.00     0.059 A 
ATOM     66  C   UNL A   1      50.393  26.996  29.674  1.00  0.00     0.059 A 
ATOM     67  F   UNL A   1      48.807  27.719  28.101  1.00  0.00    -0.206 F 
ATOM     68  C   UNL A   1      50.673  26.496  30.948  1.00  0.00     0.060 A 
BRANCH  68  69
ATOM     69  S   UNL A   1      52.378  26.319  31.506  1.00  0.00     0.124 S 
ATOM     70  O   UNL A   1      52.533  27.490  32.362  1.00  0.00    -0.237 OA
ATOM     71  O   UNL A   1      52.344  25.031  32.192  1.00  0.00    -0.237 OA
ATOM     72  O   UNL A   1      53.145  26.341  30.264  1.00  0.00    -0.744 OA
ENDBRANCH  68  69
ENDBRANCH  36  61
ENDBRANCH  10  11
ENDBRANCH   3   5
ENDBRANCH   2   3
ENDBRANCH   1   2
BRANCH   1  73
ATOM     73  C   UNL A   1      32.218  30.060  26.349  1.00  0.00     0.275 C 
BRANCH  73  74
ATOM     74  O   UNL A   1      32.860  28.844  25.918  1.00  0.00    -0.458 OA
BRANCH  74  75
ATOM     75  C   UNL A   1      32.260  27.658  26.221  1.00  0.00     0.338 C 
ATOM     76  O   UNL A   1      31.484  27.448  27.125  1.00  0.00    -0.246 OA
BRANCH  75  77
ATOM     77  C   UNL A   1      32.761  26.616  25.279  1.00  0.00     0.068 A 
ATOM     78  C   UNL A   1      33.959  25.952  25.623  1.00  0.00     0.019 A 
ATOM     79  C   UNL A   1      32.054  26.246  24.112  1.00  0.00    -0.001 A 
ATOM     80  C   UNL A   1      34.477  24.950  24.799  1.00  0.00     0.040 A 
ATOM     81  C   UNL A   1      32.639  25.270  23.273  1.00  0.00     0.048 A 
ATOM     82  C   UNL A   1      33.828  24.639  23.617  1.00  0.00     0.123 A 
ATOM     83  F   UNL A   1      34.339  23.710  22.800  1.00  0.00    -0.207 F 
BRANCH  79  84
ATOM     84  C   UNL A   1      30.744  26.783  23.697  1.00  0.00    -0.016 A 
ATOM     85  C   UNL A   1      29.540  26.210  24.121  1.00  0.00     0.012 A 
ATOM     86  C   UNL A   1      30.668  27.980  22.968  1.00  0.00     0.032 A 
ATOM     87  C   UNL A   1      28.302  26.798  23.862  1.00  0.00     0.041 A 
ATOM     88  C   UNL A   1      29.431  28.575  22.697  1.00  0.00     0.077 A 
ATOM     89  C   UNL A   1      28.254  27.984  23.151  1.00  0.00     0.141 A 
ATOM     90  Cl  UNL A   1      29.378  30.060  21.829  1.00  0.00    -0.081 Cl
ATOM     91  F   UNL A   1      27.061  28.550  22.922  1.00  0.00    -0.205 F 
ENDBRANCH  79  84
ENDBRANCH  75  77
ENDBRANCH  74  75
ENDBRANCH  73  74
ENDBRANCH   1  73
TORSDOF 15
ENDMDL
MODEL 2
REMARK VINA RESULT:     -11.6      3.139      3.875
REMARK SMILES O=C(OCCOC(=O)c1ccc(F)cc1-c1ccc(F)c(Cl)c1)c1ccc(-c2c3nc(c(-c4c(F)cc(S(=O)(=O)[O-])cc4F)c4ccc([nH]4)c(-c4c(F)cc(S(=O)(=O)[O-])cc4F)c4nc(c(-c5c(F)cc(S(=O)(=O)[O-])cc5F)c5ccc2[nH]5)C=C4)C=C3)cc1
REMARK SMILES IDX 4 1 3 2 2 3 1 4 24 5 25 6 89 7 26 8 88 9 27 10 28 11 29 12
REMARK SMILES IDX 82 13 30 14 87 15 81 16 83 17 31 18 86 19 80 20 79 21 32 23
REMARK SMILES IDX 66 24 45 25 65 26 46 27 49 28 64 29 84 30 47 31 48 32 63 34
REMARK SMILES IDX 85 35 50 36 33 37 34 38 43 39 35 40 36 41 42 42 44 43 37 44
REMARK SMILES IDX 38 45 39 46 40 47 41 48 67 49 68 50 77 51 69 52 70 53 76 54
REMARK SMILES IDX 78 55 71 56 72 57 73 58 74 59 75 60 51 61 52 62 61 63 53 64
REMARK SMILES IDX 54 65 60 66 62 67 55 68 56 69 57 70 58 71 59 72 5 73 6 74
REMARK SMILES IDX 7 75 8 76 9 77 10 78 15 79 11 80 14 81 12 82 13 83 16 84
REMARK SMILES IDX 17 85 23 86 18 87 21 88 19 89 22 90 20 91
REMARK H PARENT 83 22 49 33
REMARK Flexibility Score: inf
ROOT
ATOM      1  C   UNL A   1      32.569  30.818  26.924  1.00  0.00     0.275 C 
ENDROOT
BRANCH   1   2
ATOM      2  O   UNL A   1      33.970  30.617  27.082  1.00  0.00    -0.458 OA
BRANCH   2   3
ATOM      3  C   UNL A   1      34.636  31.597  27.729  1.00  0.00     0.338 C 
ATOM      4  O   UNL A   1      34.376  32.787  27.694  1.00  0.00    -0.246 OA
BRANCH   3   5
ATOM      5  C   UNL A   1      35.876  30.982  28.269  1.00  0.00     0.060 A 
ATOM      6  C   UNL A   1      35.911  29.600  28.522  1.00  0.00     0.016 A 
ATOM      7  C   UNL A   1      37.046  31.736  28.374  1.00  0.00     0.016 A 
ATOM      8  C   UNL A   1      37.084  28.986  28.905  1.00  0.00     0.010 A 
ATOM      9  C   UNL A   1      38.248  31.107  28.659  1.00  0.00     0.010 A 
ATOM     10  C   UNL A   1      38.248  29.745  28.989  1.00  0.00    -0.014 A 
BRANCH  10  11
ATOM     11  C   UNL A   1      39.409  29.186  29.691  1.00  0.00     0.031 A 
ATOM     12  C   UNL A   1      39.784  29.839  30.986  1.00  0.00     0.074 A 
ATOM     13  C   UNL A   1      40.067  28.137  29.176  1.00  0.00     0.049 A 
ATOM     14  N   UNL A   1      40.807  29.614  31.759  1.00  0.00    -0.248 NA
ATOM     15  C   UNL A   1      38.899  30.922  31.464  1.00  0.00     0.031 C 
ATOM     16  C   UNL A   1      39.715  27.440  27.937  1.00  0.00     0.029 A 
ATOM     17  N   UNL A   1      41.181  27.486  29.620  1.00  0.00    -0.354 N 
ATOM     18  C   UNL A   1      40.690  30.530  32.795  1.00  0.00     0.074 A 
ATOM     19  C   UNL A   1      39.570  31.387  32.503  1.00  0.00     0.031 C 
ATOM     20  C   UNL A   1      40.634  26.492  27.690  1.00  0.00     0.029 A 
ATOM     21  C   UNL A   1      41.625  26.514  28.758  1.00  0.00     0.049 A 
ATOM     22  H   UNL A   1      41.622  27.693  30.475  1.00  0.00     0.167 HD
ATOM     23  C   UNL A   1      41.421  30.599  33.929  1.00  0.00     0.037 A 
ATOM     24  C   UNL A   1      42.721  25.739  28.839  1.00  0.00     0.037 A 
ATOM     25  C   UNL A   1      42.489  29.683  34.198  1.00  0.00     0.049 A 
ATOM     26  C   UNL A   1      43.556  25.851  30.083  1.00  0.00     0.074 A 
ATOM     27  C   UNL A   1      43.283  29.586  35.321  1.00  0.00     0.029 A 
ATOM     28  N   UNL A   1      42.903  28.690  33.315  1.00  0.00    -0.354 N 
ATOM     29  N   UNL A   1      43.412  26.684  31.090  1.00  0.00    -0.248 NA
ATOM     30  C   UNL A   1      44.666  24.906  30.233  1.00  0.00     0.031 C 
ATOM     31  C   UNL A   1      44.203  28.556  35.101  1.00  0.00     0.029 A 
ATOM     32  C   UNL A   1      43.950  27.979  33.862  1.00  0.00     0.049 A 
ATOM     33  H   UNL A   1      42.506  28.521  32.430  1.00  0.00     0.167 HD
ATOM     34  C   UNL A   1      44.380  26.333  32.019  1.00  0.00     0.074 A 
ATOM     35  C   UNL A   1      45.117  25.223  31.442  1.00  0.00     0.031 C 
ATOM     36  C   UNL A   1      44.628  26.863  33.243  1.00  0.00     0.037 A 
BRANCH  23  37
ATOM     37  C   UNL A   1      41.057  31.666  34.923  1.00  0.00     0.058 A 
ATOM     38  C   UNL A   1      41.706  32.910  34.907  1.00  0.00     0.135 A 
ATOM     39  C   UNL A   1      40.030  31.480  35.866  1.00  0.00     0.135 A 
ATOM     40  F   UNL A   1      42.684  33.151  34.020  1.00  0.00    -0.206 F 
ATOM     41  C   UNL A   1      41.343  33.932  35.779  1.00  0.00     0.059 A 
ATOM     42  C   UNL A   1      39.627  32.499  36.725  1.00  0.00     0.059 A 
ATOM     43  F   UNL A   1      39.351  30.322  35.906  1.00  0.00    -0.206 F 
ATOM     44  C   UNL A   1      40.295  33.721  36.677  1.00  0.00     0.060 A 
BRANCH  44  45
ATOM     45  S   UNL A   1      39.777  35.085  37.740  1.00  0.00     0.124 S 
ATOM     46  O   UNL A   1      38.521  34.581  38.282  1.00  0.00    -0.237 OA
ATOM     47  O   UNL A   1      40.888  35.180  38.683  1.00  0.00    -0.237 OA
ATOM     48  O   UNL A   1      39.659  36.208  36.814  1.00  0.00    -0.744 OA
ENDBRANCH  44  45
ENDBRANCH  23  37
BRANCH  24  49
ATOM     49  C   UNL A   1      43.002  24.768  27.750  1.00  0.00     0.058 A 
ATOM     50  C   UNL A   1      42.617  23.423  27.862  1.00  0.00     0.135 A 
ATOM     51  C   UNL A   1      43.776  25.135  26.640  1.00  0.00     0.135 A 
ATOM     52  F   UNL A   1      41.897  23.014  28.918  1.00  0.00    -0.206 F 
ATOM     53  C   UNL A   1      43.016  22.469  26.930  1.00  0.00     0.059 A 
ATOM     54  C   UNL A   1      44.175  24.201  25.686  1.00  0.00     0.059 A 
ATOM     55  F   UNL A   1      44.175  26.407  26.494  1.00  0.00    -0.206 F 
ATOM     56  C   UNL A   1      43.807  22.867  25.852  1.00  0.00     0.060 A 
BRANCH  56  57
ATOM     57  S   UNL A   1      44.386  21.601  24.699  1.00  0.00     0.124 S 
ATOM     58  O   UNL A   1      43.480  20.496  25.001  1.00  0.00    -0.237 OA
ATOM     59  O   UNL A   1      44.188  22.252  23.409  1.00  0.00    -0.237 OA
ATOM     60  O   UNL A   1      45.776  21.395  25.093  1.00  0.00    -0.744 OA
ENDBRANCH  56  57
ENDBRANCH  24  49
BRANCH  36  61
ATOM     61  C   UNL A   1      45.704  26.226  34.066  1.00  0.00     0.058 A 
ATOM     62  C   UNL A   1      47.041  26.617  33.888  1.00  0.00     0.135 A 
ATOM     63  C   UNL A   1      45.434  25.122  34.887  1.00  0.00     0.135 A 
ATOM     64  F   UNL A   1      47.341  27.664  33.103  1.00  0.00    -0.206 F 
ATOM     65  C   UNL A   1      48.082  25.900  34.458  1.00  0.00     0.059 A 
ATOM     66  C   UNL A   1      46.460  24.405  35.488  1.00  0.00     0.059 A 
ATOM     67  F   UNL A   1      44.168  24.725  35.089  1.00  0.00    -0.206 F 
ATOM     68  C   UNL A   1      47.781  24.784  35.242  1.00  0.00     0.060 A 
BRANCH  68  69
ATOM     69  S   UNL A   1      49.149  23.824  35.917  1.00  0.00     0.124 S 
ATOM     70  O   UNL A   1      48.578  23.333  37.167  1.00  0.00    -0.237 OA
ATOM     71  O   UNL A   1      49.361  22.820  34.878  1.00  0.00    -0.237 OA
ATOM     72  O   UNL A   1      50.218  24.808  36.057  1.00  0.00    -0.744 OA
ENDBRANCH  68  69
ENDBRANCH  36  61
ENDBRANCH  10  11
ENDBRANCH   3   5
ENDBRANCH   2   3
ENDBRANCH   1   2
BRANCH   1  73
ATOM     73  C   UNL A   1      31.904  30.080  25.736  1.00  0.00     0.275 C 
BRANCH  73  74
ATOM     74  O   UNL A   1      32.632  28.951  25.214  1.00  0.00    -0.458 OA
BRANCH  74  75
ATOM     75  C   UNL A   1      32.123  27.704  25.428  1.00  0.00     0.338 C 
ATOM     76  O   UNL A   1      31.647  27.282  26.457  1.00  0.00    -0.246 OA
BRANCH  75  77
ATOM     77  C   UNL A   1      32.300  26.897  24.186  1.00  0.00     0.068 A 
ATOM     78  C   UNL A   1      33.243  25.847  24.223  1.00  0.00     0.019 A 
ATOM     79  C   UNL A   1      31.524  27.115  23.025  1.00  0.00    -0.001 A 
ATOM     80  C   UNL A   1      33.447  25.036  23.104  1.00  0.00     0.040 A 
ATOM     81  C   UNL A   1      31.799  26.313  21.893  1.00  0.00     0.048 A 
ATOM     82  C   UNL A   1      32.745  25.295  21.940  1.00  0.00     0.123 A 
ATOM     83  F   UNL A   1      32.962  24.551  20.849  1.00  0.00    -0.207 F 
BRANCH  79  84
ATOM     84  C   UNL A   1      30.437  28.103  22.892  1.00  0.00    -0.016 A 
ATOM     85  C   UNL A   1      30.624  29.329  22.244  1.00  0.00     0.012 A 
ATOM     86  C   UNL A   1      29.132  27.778  23.295  1.00  0.00     0.032 A 
ATOM     87  C   UNL A   1      29.568  30.200  21.978  1.00  0.00     0.041 A 
ATOM     88  C   UNL A   1      28.067  28.649  23.040  1.00  0.00     0.077 A 
ATOM     89  C   UNL A   1      28.290  29.854  22.376  1.00  0.00     0.141 A 
ATOM     90  Cl  UNL A   1      26.476  28.203  23.519  1.00  0.00    -0.081 Cl
ATOM     91  F   UNL A   1      27.279  30.690  22.101  1.00  0.00    -0.205 F 
ENDBRANCH  79  84
ENDBRANCH  75  77
ENDBRANCH  74  75
ENDBRANCH  73  74
ENDBRANCH   1  73
TORSDOF 15
ENDMDL
MODEL 3
REMARK VINA RESULT:     -11.5      1.740      3.006
REMARK SMILES O=C(OCCOC(=O)c1ccc(F)cc1-c1ccc(F)c(Cl)c1)c1ccc(-c2c3nc(c(-c4c(F)cc(S(=O)(=O)[O-])cc4F)c4ccc([nH]4)c(-c4c(F)cc(S(=O)(=O)[O-])cc4F)c4nc(c(-c5c(F)cc(S(=O)(=O)[O-])cc5F)c5ccc2[nH]5)C=C4)C=C3)cc1
REMARK SMILES IDX 4 1 3 2 2 3 1 4 24 5 25 6 89 7 26 8 88 9 27 10 28 11 29 12
REMARK SMILES IDX 82 13 30 14 87 15 81 16 83 17 31 18 86 19 80 20 79 21 32 23
REMARK SMILES IDX 66 24 45 25 65 26 46 27 49 28 64 29 84 30 47 31 48 32 63 34
REMARK SMILES IDX 85 35 50 36 33 37 34 38 43 39 35 40 36 41 42 42 44 43 37 44
REMARK SMILES IDX 38 45 39 46 40 47 41 48 67 49 68 50 77 51 69 52 70 53 76 54
REMARK SMILES IDX 78 55 71 56 72 57 73 58 74 59 75 60 51 61 52 62 61 63 53 64
REMARK SMILES IDX 54 65 60 66 62 67 55 68 56 69 57 70 58 71 59 72 5 73 6 74
REMARK SMILES IDX 7 75 8 76 9 77 10 78 15 79 11 80 14 81 12 82 13 83 16 84
REMARK SMILES IDX 17 85 23 86 18 87 21 88 19 89 22 90 20 91
REMARK H PARENT 83 22 49 33
REMARK Flexibility Score: inf
ROOT
ATOM      1  C   UNL A   1      32.984  29.951  27.112  1.00  0.00     0.275 C 
ENDROOT
BRANCH   1   2
ATOM      2  O   UNL A   1      34.345  30.370  27.079  1.00  0.00    -0.458 OA
BRANCH   2   3
ATOM      3  C   UNL A   1      34.808  30.953  28.205  1.00  0.00     0.338 C 
ATOM      4  O   UNL A   1      34.318  31.914  28.772  1.00  0.00    -0.246 OA
BRANCH   3   5
ATOM      5  C   UNL A   1      36.148  30.366  28.466  1.00  0.00     0.060 A 
ATOM      6  C   UNL A   1      36.372  29.649  29.653  1.00  0.00     0.016 A 
ATOM      7  C   UNL A   1      37.129  30.386  27.473  1.00  0.00     0.016 A 
ATOM      8  C   UNL A   1      37.565  28.990  29.862  1.00  0.00     0.010 A 
ATOM      9  C   UNL A   1      38.288  29.643  27.635  1.00  0.00     0.010 A 
ATOM     10  C   UNL A   1      38.528  29.003  28.858  1.00  0.00    -0.014 A 
BRANCH  10  11
ATOM     11  C   UNL A   1      39.897  28.590  29.184  1.00  0.00     0.031 A 
ATOM     12  C   UNL A   1      40.742  29.591  29.910  1.00  0.00     0.074 A 
ATOM     13  C   UNL A   1      40.331  27.366  28.846  1.00  0.00     0.049 A 
ATOM     14  N   UNL A   1      42.001  29.529  30.237  1.00  0.00    -0.248 NA
ATOM     15  C   UNL A   1      40.085  30.858  30.296  1.00  0.00     0.031 C 
ATOM     16  C   UNL A   1      39.533  26.339  28.174  1.00  0.00     0.029 A 
ATOM     17  N   UNL A   1      41.557  26.786  29.004  1.00  0.00    -0.354 N 
ATOM     18  C   UNL A   1      42.280  30.745  30.848  1.00  0.00     0.074 A 
ATOM     19  C   UNL A   1      41.102  31.568  30.751  1.00  0.00     0.031 C 
ATOM     20  C   UNL A   1      40.309  25.273  27.925  1.00  0.00     0.029 A 
ATOM     21  C   UNL A   1      41.650  25.543  28.430  1.00  0.00     0.049 A 
ATOM     22  H   UNL A   1      42.300  27.218  29.484  1.00  0.00     0.167 HD
ATOM     23  C   UNL A   1      43.407  31.108  31.496  1.00  0.00     0.037 A 
ATOM     24  C   UNL A   1      42.715  24.728  28.329  1.00  0.00     0.037 A 
ATOM     25  C   UNL A   1      44.530  30.226  31.615  1.00  0.00     0.049 A 
ATOM     26  C   UNL A   1      43.981  25.158  29.014  1.00  0.00     0.074 A 
ATOM     27  C   UNL A   1      45.718  30.424  32.287  1.00  0.00     0.029 A 
ATOM     28  N   UNL A   1      44.588  28.960  31.042  1.00  0.00    -0.354 N 
ATOM     29  N   UNL A   1      44.226  26.288  29.640  1.00  0.00    -0.248 NA
ATOM     30  C   UNL A   1      45.094  24.205  29.026  1.00  0.00     0.031 C 
ATOM     31  C   UNL A   1      46.510  29.289  32.088  1.00  0.00     0.029 A 
ATOM     32  C   UNL A   1      45.797  28.364  31.334  1.00  0.00     0.049 A 
ATOM     33  H   UNL A   1      43.871  28.549  30.506  1.00  0.00     0.167 HD
ATOM     34  C   UNL A   1      45.504  26.165  30.165  1.00  0.00     0.074 A 
ATOM     35  C   UNL A   1      45.987  24.856  29.764  1.00  0.00     0.031 C 
ATOM     36  C   UNL A   1      46.209  27.041  30.924  1.00  0.00     0.037 A 
BRANCH  23  37
ATOM     37  C   UNL A   1      43.437  32.476  32.118  1.00  0.00     0.058 A 
ATOM     38  C   UNL A   1      43.974  33.567  31.420  1.00  0.00     0.135 A 
ATOM     39  C   UNL A   1      42.890  32.723  33.391  1.00  0.00     0.135 A 
ATOM     40  F   UNL A   1      44.497  33.396  30.195  1.00  0.00    -0.206 F 
ATOM     41  C   UNL A   1      43.957  34.853  31.953  1.00  0.00     0.059 A 
ATOM     42  C   UNL A   1      42.832  34.006  33.929  1.00  0.00     0.059 A 
ATOM     43  F   UNL A   1      42.332  31.723  34.092  1.00  0.00    -0.206 F 
ATOM     44  C   UNL A   1      43.374  35.064  33.204  1.00  0.00     0.060 A 
BRANCH  44  45
ATOM     45  S   UNL A   1      43.280  36.750  33.842  1.00  0.00     0.124 S 
ATOM     46  O   UNL A   1      41.988  36.742  34.518  1.00  0.00    -0.237 OA
ATOM     47  O   UNL A   1      44.454  36.817  34.708  1.00  0.00    -0.237 OA
ATOM     48  O   UNL A   1      43.357  37.572  32.637  1.00  0.00    -0.744 OA
ENDBRANCH  44  45
ENDBRANCH  23  37
BRANCH  24  49
ATOM     49  C   UNL A   1      42.566  23.428  27.626  1.00  0.00     0.058 A 
ATOM     50  C   UNL A   1      42.033  22.307  28.282  1.00  0.00     0.135 A 
ATOM     51  C   UNL A   1      43.076  23.245  26.333  1.00  0.00     0.135 A 
ATOM     52  F   UNL A   1      41.554  22.422  29.531  1.00  0.00    -0.206 F 
ATOM     53  C   UNL A   1      42.039  21.045  27.695  1.00  0.00     0.059 A 
ATOM     54  C   UNL A   1      43.081  21.994  25.718  1.00  0.00     0.059 A 
ATOM     55  F   UNL A   1      43.604  24.284  25.669  1.00  0.00    -0.206 F 
ATOM     56  C   UNL A   1      42.578  20.897  26.416  1.00  0.00     0.060 A 
BRANCH  56  57
ATOM     57  S   UNL A   1      42.655  19.238  25.704  1.00  0.00     0.124 S 
ATOM     58  O   UNL A   1      41.238  18.926  25.539  1.00  0.00    -0.237 OA
ATOM     59  O   UNL A   1      43.404  19.469  24.475  1.00  0.00    -0.237 OA
ATOM     60  O   UNL A   1      43.350  18.462  26.727  1.00  0.00    -0.744 OA
ENDBRANCH  56  57
ENDBRANCH  24  49
BRANCH  36  61
ATOM     61  C   UNL A   1      47.555  26.604  31.414  1.00  0.00     0.058 A 
ATOM     62  C   UNL A   1      48.678  26.745  30.583  1.00  0.00     0.135 A 
ATOM     63  C   UNL A   1      47.695  25.894  32.614  1.00  0.00     0.135 A 
ATOM     64  F   UNL A   1      48.582  27.411  29.421  1.00  0.00    -0.206 F 
ATOM     65  C   UNL A   1      49.888  26.150  30.904  1.00  0.00     0.059 A 
ATOM     66  C   UNL A   1      48.905  25.312  32.967  1.00  0.00     0.059 A 
ATOM     67  F   UNL A   1      46.646  25.747  33.439  1.00  0.00    -0.206 F 
ATOM     68  C   UNL A   1      49.986  25.420  32.090  1.00  0.00     0.060 A 
BRANCH  68  69
ATOM     69  S   UNL A   1      51.546  24.595  32.457  1.00  0.00     0.124 S 
ATOM     70  O   UNL A   1      51.231  23.207  32.135  1.00  0.00    -0.237 OA
ATOM     71  O   UNL A   1      52.469  25.266  31.545  1.00  0.00    -0.237 OA
ATOM     72  O   UNL A   1      51.756  24.881  33.873  1.00  0.00    -0.744 OA
ENDBRANCH  68  69
ENDBRANCH  36  61
ENDBRANCH  10  11
ENDBRANCH   3   5
ENDBRANCH   2   3
ENDBRANCH   1   2
BRANCH   1  73
ATOM     73  C   UNL A   1      32.733  28.488  27.550  1.00  0.00     0.275 C 
BRANCH  73  74
ATOM     74  O   UNL A   1      32.795  27.500  26.503  1.00  0.00    -0.458 OA
BRANCH  74  75
ATOM     75  C   UNL A   1      31.644  26.856  26.156  1.00  0.00     0.338 C 
ATOM     76  O   UNL A   1      30.750  26.520  26.899  1.00  0.00    -0.246 OA
BRANCH  75  77
ATOM     77  C   UNL A   1      31.680  26.570  24.693  1.00  0.00     0.068 A 
ATOM     78  C   UNL A   1      31.026  27.484  23.837  1.00  0.00     0.019 A 
ATOM     79  C   UNL A   1      32.382  25.469  24.153  1.00  0.00    -0.001 A 
ATOM     80  C   UNL A   1      31.035  27.292  22.454  1.00  0.00     0.040 A 
ATOM     81  C   UNL A   1      32.321  25.275  22.754  1.00  0.00     0.048 A 
ATOM     82  C   UNL A   1      31.657  26.174  21.927  1.00  0.00     0.123 A 
ATOM     83  F   UNL A   1      31.636  25.958  20.606  1.00  0.00    -0.207 F 
BRANCH  79  84
ATOM     84  C   UNL A   1      33.191  24.507  24.924  1.00  0.00    -0.016 A 
ATOM     85  C   UNL A   1      32.635  23.348  25.479  1.00  0.00     0.012 A 
ATOM     86  C   UNL A   1      34.584  24.657  25.005  1.00  0.00     0.032 A 
ATOM     87  C   UNL A   1      33.417  22.358  26.075  1.00  0.00     0.041 A 
ATOM     88  C   UNL A   1      35.376  23.673  25.607  1.00  0.00     0.077 A 
ATOM     89  C   UNL A   1      34.788  22.524  26.134  1.00  0.00     0.141 A 
ATOM     90  Cl  UNL A   1      37.084  23.876  25.660  1.00  0.00    -0.081 Cl
ATOM     91  F   UNL A   1      35.532  21.559  26.693  1.00  0.00    -0.205 F 
ENDBRANCH  79  84
ENDBRANCH  75  77
ENDBRANCH  74  75
ENDBRANCH  73  74
ENDBRANCH   1  73
TORSDOF 15
ENDMDL
