MODEL 1
REMARK VINA RESULT:     -11.0      0.000      0.000
REMARK SMILES CC(=O)[C@]1(C)CC[C@@H](C(=O)OCCOC(=O)c2ccc(-c3c4nc(c(-c5c(F)cc(S(=O)(=O)[O-])cc5F)c5ccc([nH]5)c(-c5c(F)cc(S(=O)(=O)[O-])cc5F)c5nc(c(-c6c(F)cc(S(=O)(=O)[O-])cc6F)c6ccc3[nH]6)C=C5)C=C4)cc2)C1(C)C
REMARK SMILES IDX 13 1 12 2 11 3 9 4 10 5 8 6 4 7 6 8 83 9 5 10 7 11 84 12
REMARK SMILES IDX 85 13 2 14 1 15 3 16 14 17 15 18 16 19 17 20 18 21 82 22
REMARK SMILES IDX 19 23 81 24 20 25 21 26 22 27 75 28 23 29 80 30 74 31 76 32
REMARK SMILES IDX 24 33 79 34 73 35 72 36 25 38 59 39 38 40 58 41 39 42 42 43
REMARK SMILES IDX 57 44 77 45 40 46 41 47 56 49 78 50 43 51 26 52 27 53 36 54
REMARK SMILES IDX 28 55 29 56 35 57 37 58 30 59 31 60 32 61 33 62 34 63 60 64
REMARK SMILES IDX 61 65 70 66 62 67 63 68 69 69 71 70 64 71 65 72 66 73 67 74
REMARK SMILES IDX 68 75 44 76 45 77 54 78 46 79 47 80 53 81 55 82 48 83 49 84
REMARK SMILES IDX 50 85 51 86 52 87
REMARK H PARENT 76 37 42 48
REMARK Flexibility Score: inf
ROOT
ATOM      1  C   UNL A   1      34.328  30.870  27.489  1.00  0.00     0.275 C 
ENDROOT
BRANCH   1   2
ATOM      2  C   UNL A   1      33.045  30.107  27.160  1.00  0.00     0.274 C 
BRANCH   2   3
ATOM      3  O   UNL A   1      33.179  28.713  27.505  1.00  0.00    -0.462 OA
BRANCH   3   4
ATOM      4  C   UNL A   1      32.091  27.941  27.287  1.00  0.00     0.309 C 
ATOM      5  O   UNL A   1      31.133  27.876  28.052  1.00  0.00    -0.252 OA
BRANCH   4   6
ATOM      6  C   UNL A   1      32.172  27.058  26.046  1.00  0.00     0.106 C 
ATOM      7  C   UNL A   1      32.793  27.246  23.627  1.00  0.00     0.032 C 
ATOM      8  C   UNL A   1      34.009  27.456  24.552  1.00  0.00     0.016 C 
ATOM      9  C   UNL A   1      31.577  27.468  24.642  1.00  0.00    -0.010 C 
ATOM     10  C   UNL A   1      32.874  28.258  22.468  1.00  0.00     0.020 C 
ATOM     11  C   UNL A   1      33.641  26.706  25.815  1.00  0.00     0.017 C 
ATOM     12  C   UNL A   1      31.033  28.911  24.563  1.00  0.00     0.013 C 
ATOM     13  C   UNL A   1      30.336  26.582  24.376  1.00  0.00     0.013 C 
BRANCH   7  14
ATOM     14  C   UNL A   1      32.822  25.861  22.913  1.00  0.00     0.136 C 
ATOM     15  C   UNL A   1      32.313  25.750  21.494  1.00  0.00     0.088 C 
ATOM     16  O   UNL A   1      33.102  24.822  23.515  1.00  0.00    -0.299 OA
ENDBRANCH   7  14
ENDBRANCH   4   6
ENDBRANCH   3   4
ENDBRANCH   2   3
ENDBRANCH   1   2
BRANCH   1  17
ATOM     17  O   UNL A   1      35.300  29.972  28.052  1.00  0.00    -0.458 OA
BRANCH  17  18
ATOM     18  C   UNL A   1      35.981  30.427  29.128  1.00  0.00     0.338 C 
ATOM     19  O   UNL A   1      35.566  31.143  30.021  1.00  0.00    -0.246 OA
BRANCH  18  20
ATOM     20  C   UNL A   1      37.369  29.945  29.053  1.00  0.00     0.060 A 
ATOM     21  C   UNL A   1      38.107  29.722  30.218  1.00  0.00     0.016 A 
ATOM     22  C   UNL A   1      37.957  29.774  27.800  1.00  0.00     0.016 A 
ATOM     23  C   UNL A   1      39.446  29.342  30.136  1.00  0.00     0.010 A 
ATOM     24  C   UNL A   1      39.282  29.347  27.719  1.00  0.00     0.010 A 
ATOM     25  C   UNL A   1      40.041  29.139  28.885  1.00  0.00    -0.014 A 
BRANCH  25  26
ATOM     26  C   UNL A   1      41.454  28.706  28.769  1.00  0.00     0.031 A 
ATOM     27  C   UNL A   1      42.555  29.725  28.845  1.00  0.00     0.074 A 
ATOM     28  C   UNL A   1      41.739  27.412  28.530  1.00  0.00     0.049 A 
ATOM     29  N   UNL A   1      43.821  29.597  28.549  1.00  0.00    -0.248 NA
ATOM     30  C   UNL A   1      42.173  31.069  29.303  1.00  0.00     0.031 C 
ATOM     31  C   UNL A   1      40.757  26.329  28.462  1.00  0.00     0.029 A 
ATOM     32  N   UNL A   1      42.936  26.795  28.264  1.00  0.00    -0.354 N 
ATOM     33  C   UNL A   1      44.383  30.852  28.747  1.00  0.00     0.074 A 
ATOM     34  C   UNL A   1      43.317  31.729  29.186  1.00  0.00     0.031 C 
ATOM     35  C   UNL A   1      41.386  25.185  28.154  1.00  0.00     0.029 A 
ATOM     36  C   UNL A   1      42.803  25.465  27.942  1.00  0.00     0.049 A 
ATOM     37  H   UNL A   1      43.804  27.258  28.302  1.00  0.00     0.167 HD
ATOM     38  C   UNL A   1      45.671  31.234  28.573  1.00  0.00     0.037 A 
ATOM     39  C   UNL A   1      43.707  24.584  27.473  1.00  0.00     0.037 A 
ATOM     40  C   UNL A   1      46.724  30.345  28.156  1.00  0.00     0.049 A 
ATOM     41  C   UNL A   1      45.120  25.037  27.245  1.00  0.00     0.074 A 
ATOM     42  C   UNL A   1      48.069  30.621  27.983  1.00  0.00     0.029 A 
ATOM     43  N   UNL A   1      46.549  29.004  27.843  1.00  0.00    -0.354 N 
ATOM     44  N   UNL A   1      45.641  26.226  27.429  1.00  0.00    -0.248 NA
ATOM     45  C   UNL A   1      46.066  24.036  26.732  1.00  0.00     0.031 C 
ATOM     46  C   UNL A   1      48.700  29.456  27.531  1.00  0.00     0.029 A 
ATOM     47  C   UNL A   1      47.754  28.445  27.455  1.00  0.00     0.049 A 
ATOM     48  H   UNL A   1      45.691  28.522  27.889  1.00  0.00     0.167 HD
ATOM     49  C   UNL A   1      46.975  26.118  27.057  1.00  0.00     0.074 A 
ATOM     50  C   UNL A   1      47.187  24.742  26.653  1.00  0.00     0.031 C 
ATOM     51  C   UNL A   1      47.938  27.074  27.047  1.00  0.00     0.037 A 
BRANCH  38  52
ATOM     52  C   UNL A   1      46.000  32.683  28.799  1.00  0.00     0.058 A 
ATOM     53  C   UNL A   1      46.362  33.172  30.064  1.00  0.00     0.135 A 
ATOM     54  C   UNL A   1      45.956  33.594  27.732  1.00  0.00     0.135 A 
ATOM     55  F   UNL A   1      46.404  32.346  31.121  1.00  0.00    -0.206 F 
ATOM     56  C   UNL A   1      46.638  34.521  30.269  1.00  0.00     0.059 A 
ATOM     57  C   UNL A   1      46.248  34.943  27.910  1.00  0.00     0.059 A 
ATOM     58  F   UNL A   1      45.616  33.179  26.502  1.00  0.00    -0.206 F 
ATOM     59  C   UNL A   1      46.571  35.400  29.187  1.00  0.00     0.060 A 
BRANCH  59  60
ATOM     60  S   UNL A   1      46.909  37.152  29.468  1.00  0.00     0.124 S 
ATOM     61  O   UNL A   1      48.224  37.297  28.851  1.00  0.00    -0.237 OA
ATOM     62  O   UNL A   1      45.806  37.803  28.767  1.00  0.00    -0.237 OA
ATOM     63  O   UNL A   1      46.880  37.274  30.922  1.00  0.00    -0.744 OA
ENDBRANCH  59  60
ENDBRANCH  38  52
BRANCH  39  64
ATOM     64  C   UNL A   1      43.272  23.201  27.144  1.00  0.00     0.058 A 
ATOM     65  C   UNL A   1      43.129  22.786  25.814  1.00  0.00     0.135 A 
ATOM     66  C   UNL A   1      43.056  22.253  28.157  1.00  0.00     0.135 A 
ATOM     67  F   UNL A   1      43.316  23.660  24.814  1.00  0.00    -0.206 F 
ATOM     68  C   UNL A   1      42.795  21.473  25.496  1.00  0.00     0.059 A 
ATOM     69  C   UNL A   1      42.742  20.930  27.863  1.00  0.00     0.059 A 
ATOM     70  F   UNL A   1      43.194  22.601  29.446  1.00  0.00    -0.206 F 
ATOM     71  C   UNL A   1      42.612  20.550  26.528  1.00  0.00     0.060 A 
BRANCH  71  72
ATOM     72  S   UNL A   1      42.273  18.826  26.106  1.00  0.00     0.124 S 
ATOM     73  O   UNL A   1      42.551  18.154  27.370  1.00  0.00    -0.237 OA
ATOM     74  O   UNL A   1      40.870  18.875  25.704  1.00  0.00    -0.237 OA
ATOM     75  O   UNL A   1      43.215  18.556  25.024  1.00  0.00    -0.744 OA
ENDBRANCH  71  72
ENDBRANCH  39  64
BRANCH  51  76
ATOM     76  C   UNL A   1      49.307  26.663  26.589  1.00  0.00     0.058 A 
ATOM     77  C   UNL A   1      50.229  26.087  27.476  1.00  0.00     0.135 A 
ATOM     78  C   UNL A   1      49.677  26.790  25.241  1.00  0.00     0.135 A 
ATOM     79  F   UNL A   1      49.923  25.954  28.776  1.00  0.00    -0.206 F 
ATOM     80  C   UNL A   1      51.478  25.655  27.043  1.00  0.00     0.059 A 
ATOM     81  C   UNL A   1      50.914  26.347  24.783  1.00  0.00     0.059 A 
ATOM     82  F   UNL A   1      48.828  27.330  24.354  1.00  0.00    -0.206 F 
ATOM     83  C   UNL A   1      51.811  25.787  25.692  1.00  0.00     0.060 A 
BRANCH  83  84
ATOM     84  S   UNL A   1      53.415  25.178  25.131  1.00  0.00     0.124 S 
ATOM     85  O   UNL A   1      53.464  25.696  23.767  1.00  0.00    -0.237 OA
ATOM     86  O   UNL A   1      54.337  25.796  26.078  1.00  0.00    -0.237 OA
ATOM     87  O   UNL A   1      53.285  23.728  25.248  1.00  0.00    -0.744 OA
ENDBRANCH  83  84
ENDBRANCH  51  76
ENDBRANCH  25  26
ENDBRANCH  18  20
ENDBRANCH  17  18
ENDBRANCH   1  17
TORSDOF 15
ENDMDL
MODEL 2
REMARK VINA RESULT:     -11.0      1.913      2.762
REMARK SMILES CC(=O)[C@]1(C)CC[C@@H](C(=O)OCCOC(=O)c2ccc(-c3c4nc(c(-c5c(F)cc(S(=O)(=O)[O-])cc5F)c5ccc([nH]5)c(-c5c(F)cc(S(=O)(=O)[O-])cc5F)c5nc(c(-c6c(F)cc(S(=O)(=O)[O-])cc6F)c6ccc3[nH]6)C=C5)C=C4)cc2)C1(C)C
REMARK SMILES IDX 13 1 12 2 11 3 9 4 10 5 8 6 4 7 6 8 83 9 5 10 7 11 84 12
REMARK SMILES IDX 85 13 2 14 1 15 3 16 14 17 15 18 16 19 17 20 18 21 82 22
REMARK SMILES IDX 19 23 81 24 20 25 21 26 22 27 75 28 23 29 80 30 74 31 76 32
REMARK SMILES IDX 24 33 79 34 73 35 72 36 25 38 59 39 38 40 58 41 39 42 42 43
REMARK SMILES IDX 57 44 77 45 40 46 41 47 56 49 78 50 43 51 26 52 27 53 36 54
REMARK SMILES IDX 28 55 29 56 35 57 37 58 30 59 31 60 32 61 33 62 34 63 60 64
REMARK SMILES IDX 61 65 70 66 62 67 63 68 69 69 71 70 64 71 65 72 66 73 67 74
REMARK SMILES IDX 68 75 44 76 45 77 54 78 46 79 47 80 53 81 55 82 48 83 49 84
REMARK SMILES IDX 50 85 51 86 52 87
REMARK H PARENT 76 37 42 48
REMARK Flexibility Score: inf
ROOT
ATOM      1  C   UNL A   1      32.494  29.499  27.267  1.00  0.00     0.275 C 
ENDROOT
BRANCH   1   2
ATOM      2  C   UNL A   1      32.092  30.188  25.962  1.00  0.00     0.274 C 
BRANCH   2   3
ATOM      3  O   UNL A   1      31.480  29.246  25.058  1.00  0.00    -0.462 OA
BRANCH   3   4
ATOM      4  C   UNL A   1      32.314  28.633  24.188  1.00  0.00     0.309 C 
ATOM      5  O   UNL A   1      33.219  29.204  23.587  1.00  0.00    -0.252 OA
BRANCH   4   6
ATOM      6  C   UNL A   1      31.991  27.167  23.919  1.00  0.00     0.106 C 
ATOM      7  C   UNL A   1      31.578  25.054  25.199  1.00  0.00     0.032 C 
ATOM      8  C   UNL A   1      30.467  26.097  25.436  1.00  0.00     0.016 C 
ATOM      9  C   UNL A   1      32.751  25.965  24.605  1.00  0.00    -0.010 C 
ATOM     10  C   UNL A   1      31.898  24.362  26.537  1.00  0.00     0.020 C 
ATOM     11  C   UNL A   1      30.502  26.956  24.189  1.00  0.00     0.017 C 
ATOM     12  C   UNL A   1      33.758  26.373  25.702  1.00  0.00     0.013 C 
ATOM     13  C   UNL A   1      33.625  25.280  23.527  1.00  0.00     0.013 C 
BRANCH   7  14
ATOM     14  C   UNL A   1      31.110  23.885  24.280  1.00  0.00     0.136 C 
ATOM     15  C   UNL A   1      31.609  22.485  24.552  1.00  0.00     0.088 C 
ATOM     16  O   UNL A   1      30.468  24.086  23.246  1.00  0.00    -0.299 OA
ENDBRANCH   7  14
ENDBRANCH   4   6
ENDBRANCH   3   4
ENDBRANCH   2   3
ENDBRANCH   1   2
BRANCH   1  17
ATOM     17  O   UNL A   1      33.927  29.418  27.355  1.00  0.00    -0.458 OA
BRANCH  17  18
ATOM     18  C   UNL A   1      34.533  30.353  28.121  1.00  0.00     0.338 C 
ATOM     19  O   UNL A   1      34.056  31.390  28.543  1.00  0.00    -0.246 OA
BRANCH  18  20
ATOM     20  C   UNL A   1      35.926  29.944  28.360  1.00  0.00     0.060 A 
ATOM     21  C   UNL A   1      36.335  29.523  29.628  1.00  0.00     0.016 A 
ATOM     22  C   UNL A   1      36.847  30.044  27.317  1.00  0.00     0.016 A 
ATOM     23  C   UNL A   1      37.674  29.214  29.863  1.00  0.00     0.010 A 
ATOM     24  C   UNL A   1      38.176  29.688  27.542  1.00  0.00     0.010 A 
ATOM     25  C   UNL A   1      38.604  29.282  28.818  1.00  0.00    -0.014 A 
BRANCH  25  26
ATOM     26  C   UNL A   1      40.027  28.931  29.035  1.00  0.00     0.031 A 
ATOM     27  C   UNL A   1      41.003  29.993  29.451  1.00  0.00     0.074 A 
ATOM     28  C   UNL A   1      40.450  27.675  28.793  1.00  0.00     0.049 A 
ATOM     29  N   UNL A   1      42.309  29.952  29.475  1.00  0.00    -0.248 NA
ATOM     30  C   UNL A   1      40.429  31.277  29.882  1.00  0.00     0.031 C 
ATOM     31  C   UNL A   1      39.591  26.553  28.412  1.00  0.00     0.029 A 
ATOM     32  N   UNL A   1      41.714  27.141  28.799  1.00  0.00    -0.354 N 
ATOM     33  C   UNL A   1      42.718  31.214  29.888  1.00  0.00     0.074 A 
ATOM     34  C   UNL A   1      41.520  32.000  30.099  1.00  0.00     0.031 C 
ATOM     35  C   UNL A   1      40.352  25.469  28.200  1.00  0.00     0.029 A 
ATOM     36  C   UNL A   1      41.755  25.836  28.369  1.00  0.00     0.049 A 
ATOM     37  H   UNL A   1      42.512  27.642  29.083  1.00  0.00     0.167 HD
ATOM     38  C   UNL A   1      43.980  31.672  30.068  1.00  0.00     0.037 A 
ATOM     39  C   UNL A   1      42.805  25.040  28.088  1.00  0.00     0.037 A 
ATOM     40  C   UNL A   1      45.162  30.872  29.874  1.00  0.00     0.049 A 
ATOM     41  C   UNL A   1      44.197  25.579  28.252  1.00  0.00     0.074 A 
ATOM     42  C   UNL A   1      46.485  31.228  30.063  1.00  0.00     0.029 A 
ATOM     43  N   UNL A   1      45.160  29.553  29.442  1.00  0.00    -0.354 N 
ATOM     44  N   UNL A   1      44.574  26.775  28.637  1.00  0.00    -0.248 NA
ATOM     45  C   UNL A   1      45.306  24.670  27.931  1.00  0.00     0.031 C 
ATOM     46  C   UNL A   1      47.286  30.135  29.711  1.00  0.00     0.029 A 
ATOM     47  C   UNL A   1      46.459  29.087  29.335  1.00  0.00     0.049 A 
ATOM     48  H   UNL A   1      44.352  29.027  29.239  1.00  0.00     0.167 HD
ATOM     49  C   UNL A   1      45.963  26.763  28.606  1.00  0.00     0.074 A 
ATOM     50  C   UNL A   1      46.360  25.435  28.182  1.00  0.00     0.031 C 
ATOM     51  C   UNL A   1      46.831  27.763  28.900  1.00  0.00     0.037 A 
BRANCH  38  52
ATOM     52  C   UNL A   1      44.143  33.114  30.462  1.00  0.00     0.058 A 
ATOM     53  C   UNL A   1      44.159  33.517  31.806  1.00  0.00     0.135 A 
ATOM     54  C   UNL A   1      44.292  34.104  29.478  1.00  0.00     0.135 A 
ATOM     55  F   UNL A   1      44.005  32.613  32.786  1.00  0.00    -0.206 F 
ATOM     56  C   UNL A   1      44.282  34.859  32.160  1.00  0.00     0.059 A 
ATOM     57  C   UNL A   1      44.439  35.448  29.809  1.00  0.00     0.059 A 
ATOM     58  F   UNL A   1      44.284  33.772  28.178  1.00  0.00    -0.206 F 
ATOM     59  C   UNL A   1      44.414  35.817  31.154  1.00  0.00     0.060 A 
BRANCH  59  60
ATOM     60  S   UNL A   1      44.553  37.556  31.622  1.00  0.00     0.124 S 
ATOM     61  O   UNL A   1      44.027  37.533  32.983  1.00  0.00    -0.237 OA
ATOM     62  O   UNL A   1      45.987  37.802  31.501  1.00  0.00    -0.237 OA
ATOM     63  O   UNL A   1      43.720  38.239  30.637  1.00  0.00    -0.744 OA
ENDBRANCH  59  60
ENDBRANCH  38  52
BRANCH  39  64
ATOM     64  C   UNL A   1      42.560  23.668  27.573  1.00  0.00     0.058 A 
ATOM     65  C   UNL A   1      42.562  23.401  26.198  1.00  0.00     0.135 A 
ATOM     66  C   UNL A   1      42.385  22.587  28.452  1.00  0.00     0.135 A 
ATOM     67  F   UNL A   1      42.715  24.403  25.320  1.00  0.00    -0.206 F 
ATOM     68  C   UNL A   1      42.407  22.106  25.709  1.00  0.00     0.059 A 
ATOM     69  C   UNL A   1      42.250  21.283  27.988  1.00  0.00     0.059 A 
ATOM     70  F   UNL A   1      42.388  22.792  29.779  1.00  0.00    -0.206 F 
ATOM     71  C   UNL A   1      42.261  21.053  26.614  1.00  0.00     0.060 A 
BRANCH  71  72
ATOM     72  S   UNL A   1      42.157  19.365  25.976  1.00  0.00     0.124 S 
ATOM     73  O   UNL A   1      42.627  18.591  27.119  1.00  0.00    -0.237 OA
ATOM     74  O   UNL A   1      40.737  19.239  25.662  1.00  0.00    -0.237 OA
ATOM     75  O   UNL A   1      43.046  19.390  24.819  1.00  0.00    -0.744 OA
ENDBRANCH  71  72
ENDBRANCH  39  64
BRANCH  51  76
ATOM     76  C   UNL A   1      48.295  27.459  28.776  1.00  0.00     0.058 A 
ATOM     77  C   UNL A   1      49.001  27.746  27.598  1.00  0.00     0.135 A 
ATOM     78  C   UNL A   1      49.010  26.933  29.863  1.00  0.00     0.135 A 
ATOM     79  F   UNL A   1      48.358  28.242  26.529  1.00  0.00    -0.206 F 
ATOM     80  C   UNL A   1      50.369  27.516  27.499  1.00  0.00     0.059 A 
ATOM     81  C   UNL A   1      50.382  26.712  29.792  1.00  0.00     0.059 A 
ATOM     82  F   UNL A   1      48.380  26.646  31.012  1.00  0.00    -0.206 F 
ATOM     83  C   UNL A   1      51.052  27.001  28.603  1.00  0.00     0.060 A 
BRANCH  83  84
ATOM     84  S   UNL A   1      52.836  26.753  28.482  1.00  0.00     0.124 S 
ATOM     85  O   UNL A   1      53.172  26.366  29.848  1.00  0.00    -0.237 OA
ATOM     86  O   UNL A   1      52.940  25.696  27.480  1.00  0.00    -0.237 OA
ATOM     87  O   UNL A   1      53.331  28.059  28.058  1.00  0.00    -0.744 OA
ENDBRANCH  83  84
ENDBRANCH  51  76
ENDBRANCH  25  26
ENDBRANCH  18  20
ENDBRANCH  17  18
ENDBRANCH   1  17
TORSDOF 15
ENDMDL
MODEL 3
REMARK VINA RESULT:     -10.8      5.353     12.093
REMARK SMILES CC(=O)[C@]1(C)CC[C@@H](C(=O)OCCOC(=O)c2ccc(-c3c4nc(c(-c5c(F)cc(S(=O)(=O)[O-])cc5F)c5ccc([nH]5)c(-c5c(F)cc(S(=O)(=O)[O-])cc5F)c5nc(c(-c6c(F)cc(S(=O)(=O)[O-])cc6F)c6ccc3[nH]6)C=C5)C=C4)cc2)C1(C)C
REMARK SMILES IDX 13 1 12 2 11 3 9 4 10 5 8 6 4 7 6 8 83 9 5 10 7 11 84 12
REMARK SMILES IDX 85 13 2 14 1 15 3 16 14 17 15 18 16 19 17 20 18 21 82 22
REMARK SMILES IDX 19 23 81 24 20 25 21 26 22 27 75 28 23 29 80 30 74 31 76 32
REMARK SMILES IDX 24 33 79 34 73 35 72 36 25 38 59 39 38 40 58 41 39 42 42 43
REMARK SMILES IDX 57 44 77 45 40 46 41 47 56 49 78 50 43 51 26 52 27 53 36 54
REMARK SMILES IDX 28 55 29 56 35 57 37 58 30 59 31 60 32 61 33 62 34 63 60 64
REMARK SMILES IDX 61 65 70 66 62 67 63 68 69 69 71 70 64 71 65 72 66 73 67 74
REMARK SMILES IDX 68 75 44 76 45 77 54 78 46 79 47 80 53 81 55 82 48 83 49 84
REMARK SMILES IDX 50 85 51 86 52 87
REMARK H PARENT 76 37 42 48
REMARK Flexibility Score: inf
ROOT
ATOM      1  C   UNL A   1      40.050  21.138  26.540  1.00  0.00     0.275 C 
ENDROOT
BRANCH   1   2
ATOM      2  C   UNL A   1      41.222  21.007  27.514  1.00  0.00     0.274 C 
BRANCH   2   3
ATOM      3  O   UNL A   1      42.424  21.557  26.939  1.00  0.00    -0.462 OA
BRANCH   3   4
ATOM      4  C   UNL A   1      42.955  22.622  27.580  1.00  0.00     0.309 C 
ATOM      5  O   UNL A   1      42.357  23.278  28.428  1.00  0.00    -0.252 OA
BRANCH   4   6
ATOM      6  C   UNL A   1      44.345  23.029  27.103  1.00  0.00     0.106 C 
ATOM      7  C   UNL A   1      45.496  25.018  26.107  1.00  0.00     0.032 C 
ATOM      8  C   UNL A   1      45.024  25.289  27.550  1.00  0.00     0.016 C 
ATOM      9  C   UNL A   1      44.621  23.737  25.719  1.00  0.00    -0.010 C 
ATOM     10  C   UNL A   1      45.232  26.275  25.257  1.00  0.00     0.020 C 
ATOM     11  C   UNL A   1      44.971  23.914  28.180  1.00  0.00     0.017 C 
ATOM     12  C   UNL A   1      43.355  24.137  24.929  1.00  0.00     0.013 C 
ATOM     13  C   UNL A   1      45.332  22.716  24.798  1.00  0.00     0.013 C 
BRANCH   7  14
ATOM     14  C   UNL A   1      47.040  24.825  26.014  1.00  0.00     0.136 C 
ATOM     15  C   UNL A   1      47.785  25.385  24.824  1.00  0.00     0.088 C 
ATOM     16  O   UNL A   1      47.655  24.099  26.798  1.00  0.00    -0.299 OA
ENDBRANCH   7  14
ENDBRANCH   4   6
ENDBRANCH   3   4
ENDBRANCH   2   3
ENDBRANCH   1   2
BRANCH   1  17
ATOM     17  O   UNL A   1      40.128  22.396  25.848  1.00  0.00    -0.458 OA
BRANCH  17  18
ATOM     18  C   UNL A   1      39.040  23.194  25.935  1.00  0.00     0.338 C 
ATOM     19  O   UNL A   1      37.941  23.008  25.444  1.00  0.00    -0.246 OA
BRANCH  18  20
ATOM     20  C   UNL A   1      39.389  24.394  26.711  1.00  0.00     0.060 A 
ATOM     21  C   UNL A   1      40.219  25.377  26.166  1.00  0.00     0.016 A 
ATOM     22  C   UNL A   1      38.929  24.506  28.023  1.00  0.00     0.016 A 
ATOM     23  C   UNL A   1      40.608  26.471  26.937  1.00  0.00     0.010 A 
ATOM     24  C   UNL A   1      39.279  25.626  28.778  1.00  0.00     0.010 A 
ATOM     25  C   UNL A   1      40.130  26.611  28.246  1.00  0.00    -0.014 A 
BRANCH  25  26
ATOM     26  C   UNL A   1      40.505  27.779  29.078  1.00  0.00     0.031 A 
ATOM     27  C   UNL A   1      41.732  27.719  29.940  1.00  0.00     0.074 A 
ATOM     28  C   UNL A   1      39.705  28.862  29.106  1.00  0.00     0.049 A 
ATOM     29  N   UNL A   1      42.111  28.525  30.896  1.00  0.00    -0.248 NA
ATOM     30  C   UNL A   1      42.646  26.591  29.701  1.00  0.00     0.031 C 
ATOM     31  C   UNL A   1      38.503  29.047  28.292  1.00  0.00     0.029 A 
ATOM     32  N   UNL A   1      39.766  29.998  29.874  1.00  0.00    -0.354 N 
ATOM     33  C   UNL A   1      43.288  27.984  31.401  1.00  0.00     0.074 A 
ATOM     34  C   UNL A   1      43.557  26.779  30.646  1.00  0.00     0.031 C 
ATOM     35  C   UNL A   1      37.927  30.214  28.618  1.00  0.00     0.029 A 
ATOM     36  C   UNL A   1      38.684  30.829  29.704  1.00  0.00     0.049 A 
ATOM     37  H   UNL A   1      40.511  30.199  30.486  1.00  0.00     0.167 HD
ATOM     38  C   UNL A   1      44.065  28.453  32.406  1.00  0.00     0.037 A 
ATOM     39  C   UNL A   1      38.311  31.931  30.383  1.00  0.00     0.037 A 
ATOM     40  C   UNL A   1      43.795  29.666  33.134  1.00  0.00     0.049 A 
ATOM     41  C   UNL A   1      39.163  32.411  31.523  1.00  0.00     0.074 A 
ATOM     42  C   UNL A   1      44.536  30.249  34.146  1.00  0.00     0.029 A 
ATOM     43  N   UNL A   1      42.690  30.480  32.928  1.00  0.00    -0.354 N 
ATOM     44  N   UNL A   1      40.271  31.891  31.996  1.00  0.00    -0.248 NA
ATOM     45  C   UNL A   1      38.712  33.617  32.230  1.00  0.00     0.031 C 
ATOM     46  C   UNL A   1      43.862  31.397  34.576  1.00  0.00     0.029 A 
ATOM     47  C   UNL A   1      42.717  31.548  33.809  1.00  0.00     0.049 A 
ATOM     48  H   UNL A   1      41.989  30.321  32.255  1.00  0.00     0.167 HD
ATOM     49  C   UNL A   1      40.650  32.705  33.056  1.00  0.00     0.074 A 
ATOM     50  C   UNL A   1      39.663  33.764  33.144  1.00  0.00     0.031 C 
ATOM     51  C   UNL A   1      41.718  32.585  33.885  1.00  0.00     0.037 A 
BRANCH  38  52
ATOM     52  C   UNL A   1      45.261  27.631  32.797  1.00  0.00     0.058 A 
ATOM     53  C   UNL A   1      46.527  27.847  32.230  1.00  0.00     0.135 A 
ATOM     54  C   UNL A   1      45.138  26.614  33.757  1.00  0.00     0.135 A 
ATOM     55  F   UNL A   1      46.696  28.796  31.296  1.00  0.00    -0.206 F 
ATOM     56  C   UNL A   1      47.622  27.061  32.578  1.00  0.00     0.059 A 
ATOM     57  C   UNL A   1      46.224  25.830  34.136  1.00  0.00     0.059 A 
ATOM     58  F   UNL A   1      43.950  26.365  34.330  1.00  0.00    -0.206 F 
ATOM     59  C   UNL A   1      47.459  26.050  33.526  1.00  0.00     0.060 A 
BRANCH  59  60
ATOM     60  S   UNL A   1      48.881  25.023  33.956  1.00  0.00     0.124 S 
ATOM     61  O   UNL A   1      49.613  24.997  32.694  1.00  0.00    -0.237 OA
ATOM     62  O   UNL A   1      49.506  25.783  35.034  1.00  0.00    -0.237 OA
ATOM     63  O   UNL A   1      48.275  23.757  34.357  1.00  0.00    -0.744 OA
ENDBRANCH  59  60
ENDBRANCH  38  52
BRANCH  39  64
ATOM     64  C   UNL A   1      37.042  32.613  30.023  1.00  0.00     0.058 A 
ATOM     65  C   UNL A   1      35.852  32.333  30.707  1.00  0.00     0.135 A 
ATOM     66  C   UNL A   1      37.012  33.606  29.030  1.00  0.00     0.135 A 
ATOM     67  F   UNL A   1      35.830  31.386  31.656  1.00  0.00    -0.206 F 
ATOM     68  C   UNL A   1      34.674  33.021  30.426  1.00  0.00     0.059 A 
ATOM     69  C   UNL A   1      35.853  34.321  28.747  1.00  0.00     0.059 A 
ATOM     70  F   UNL A   1      38.131  33.917  28.357  1.00  0.00    -0.206 F 
ATOM     71  C   UNL A   1      34.688  34.019  29.450  1.00  0.00     0.060 A 
BRANCH  71  72
ATOM     72  S   UNL A   1      33.181  34.973  29.157  1.00  0.00     0.124 S 
ATOM     73  O   UNL A   1      33.721  36.224  28.641  1.00  0.00    -0.237 OA
ATOM     74  O   UNL A   1      32.469  34.140  28.193  1.00  0.00    -0.237 OA
ATOM     75  O   UNL A   1      32.569  35.044  30.481  1.00  0.00    -0.744 OA
ENDBRANCH  71  72
ENDBRANCH  39  64
BRANCH  51  76
ATOM     76  C   UNL A   1      41.876  33.626  34.954  1.00  0.00     0.058 A 
ATOM     77  C   UNL A   1      41.383  33.416  36.252  1.00  0.00     0.135 A 
ATOM     78  C   UNL A   1      42.578  34.813  34.698  1.00  0.00     0.135 A 
ATOM     79  F   UNL A   1      40.698  32.299  36.542  1.00  0.00    -0.206 F 
ATOM     80  C   UNL A   1      41.577  34.355  37.259  1.00  0.00     0.059 A 
ATOM     81  C   UNL A   1      42.798  35.757  35.696  1.00  0.00     0.059 A 
ATOM     82  F   UNL A   1      43.071  35.056  33.474  1.00  0.00    -0.206 F 
ATOM     83  C   UNL A   1      42.288  35.522  36.973  1.00  0.00     0.060 A 
BRANCH  83  84
ATOM     84  S   UNL A   1      42.577  36.711  38.300  1.00  0.00     0.124 S 
ATOM     85  O   UNL A   1      41.219  37.162  38.590  1.00  0.00    -0.237 OA
ATOM     86  O   UNL A   1      43.205  35.889  39.329  1.00  0.00    -0.237 OA
ATOM     87  O   UNL A   1      43.450  37.704  37.680  1.00  0.00    -0.744 OA
ENDBRANCH  83  84
ENDBRANCH  51  76
ENDBRANCH  25  26
ENDBRANCH  18  20
ENDBRANCH  17  18
ENDBRANCH   1  17
TORSDOF 15
ENDMDL
