MODEL 1
REMARK VINA RESULT:      -9.7      0.000      0.000
REMARK SMILES C=CC[C@@H](NC(=O)OCc1ccccc1)C(=O)OCCOC(=O)c1ccc(-c2c3nc(c(-c4c(F)cc(S(=O)(=O)[O-])cc4F)c4ccc([nH]4)c(-c4c(F)cc(S(=O)(=O)[O-])cc4F)c4nc(c(-c5c(F)cc(S(=O)(=O)[O-])cc5F)c5ccc2[nH]5)C=C4)C=C3)cc1
REMARK SMILES IDX 19 1 18 2 16 3 17 4 4 5 3 6 2 7 1 8 5 9 6 10 7 12 8 13 9 14
REMARK SMILES IDX 10 15 11 16 15 17 12 18 14 19 13 20 20 21 21 22 22 23 23 24
REMARK SMILES IDX 24 25 25 26 89 27 26 28 88 29 27 30 28 31 29 32 82 33 30 34
REMARK SMILES IDX 87 35 81 36 83 37 31 38 86 39 80 40 79 41 32 43 66 44 45 45
REMARK SMILES IDX 65 46 46 47 49 48 64 49 84 50 47 51 48 52 63 54 85 55 50 56
REMARK SMILES IDX 33 57 34 58 43 59 35 60 36 61 42 62 44 63 37 64 38 65 39 66
REMARK SMILES IDX 40 67 41 68 67 69 68 70 77 71 69 72 70 73 76 74 78 75 71 76
REMARK SMILES IDX 72 77 73 78 74 79 75 80 51 81 52 82 61 83 53 84 54 85 60 86
REMARK SMILES IDX 62 87 55 88 56 89 57 90 58 91 59 92
REMARK H PARENT 5 11 83 42 49 53
REMARK Flexibility Score: inf
ROOT
ATOM      1  C   UNL A   1      32.420  27.886  25.812  1.00  0.00     0.274 C 
ENDROOT
BRANCH   1   2
ATOM      2  O   UNL A   1      31.909  28.763  24.792  1.00  0.00    -0.461 OA
BRANCH   2   3
ATOM      3  C   UNL A   1      32.214  28.417  23.505  1.00  0.00     0.329 C 
ATOM      4  O   UNL A   1      32.964  29.055  22.774  1.00  0.00    -0.250 OA
BRANCH   3   5
ATOM      5  C   UNL A   1      31.382  27.214  23.020  1.00  0.00     0.199 C 
BRANCH   5   6
ATOM      6  C   UNL A   1      29.870  27.403  23.250  1.00  0.00     0.064 C 
BRANCH   6   7
ATOM      7  C   UNL A   1      29.331  28.650  22.588  1.00  0.00    -0.032 C 
ATOM      8  C   UNL A   1      28.111  29.154  22.822  1.00  0.00     0.004 C 
ENDBRANCH   6   7
ENDBRANCH   5   6
BRANCH   5   9
ATOM      9  N   UNL A   1      31.703  26.704  21.678  1.00  0.00    -0.308 N 
ATOM     10  C   UNL A   1      32.755  25.920  21.302  1.00  0.00     0.408 C 
ATOM     11  H   UNL A   1      31.080  26.961  20.960  1.00  0.00     0.168 HD
ATOM     12  O   UNL A   1      32.981  25.664  20.130  1.00  0.00    -0.225 OA
BRANCH  10  13
ATOM     13  O   UNL A   1      33.463  25.462  22.353  1.00  0.00    -0.445 OA
BRANCH  13  14
ATOM     14  C   UNL A   1      33.278  24.101  22.743  1.00  0.00     0.270 C 
BRANCH  14  15
ATOM     15  C   UNL A   1      34.270  23.648  23.785  1.00  0.00    -0.011 A 
ATOM     16  C   UNL A   1      34.681  22.309  23.879  1.00  0.00     0.007 A 
ATOM     17  C   UNL A   1      34.775  24.578  24.703  1.00  0.00     0.007 A 
ATOM     18  C   UNL A   1      35.597  21.919  24.860  1.00  0.00     0.000 A 
ATOM     19  C   UNL A   1      35.687  24.185  25.683  1.00  0.00     0.000 A 
ATOM     20  C   UNL A   1      36.100  22.858  25.759  1.00  0.00     0.000 A 
ENDBRANCH  14  15
ENDBRANCH  13  14
ENDBRANCH  10  13
ENDBRANCH   5   9
ENDBRANCH   3   5
ENDBRANCH   2   3
ENDBRANCH   1   2
BRANCH   1  21
ATOM     21  C   UNL A   1      33.869  28.207  26.187  1.00  0.00     0.275 C 
BRANCH  21  22
ATOM     22  O   UNL A   1      34.000  28.568  27.573  1.00  0.00    -0.458 OA
BRANCH  22  23
ATOM     23  C   UNL A   1      34.504  29.808  27.784  1.00  0.00     0.338 C 
ATOM     24  O   UNL A   1      33.884  30.859  27.792  1.00  0.00    -0.246 OA
BRANCH  23  25
ATOM     25  C   UNL A   1      35.914  29.723  28.187  1.00  0.00     0.060 A 
ATOM     26  C   UNL A   1      36.881  29.950  27.206  1.00  0.00     0.016 A 
ATOM     27  C   UNL A   1      36.285  29.332  29.473  1.00  0.00     0.016 A 
ATOM     28  C   UNL A   1      38.228  29.788  27.497  1.00  0.00     0.010 A 
ATOM     29  C   UNL A   1      37.643  29.160  29.765  1.00  0.00     0.010 A 
ATOM     30  C   UNL A   1      38.618  29.374  28.775  1.00  0.00    -0.014 A 
BRANCH  30  31
ATOM     31  C   UNL A   1      40.051  29.102  29.031  1.00  0.00     0.031 A 
ATOM     32  C   UNL A   1      40.624  27.758  28.682  1.00  0.00     0.074 A 
ATOM     33  C   UNL A   1      40.838  30.081  29.516  1.00  0.00     0.049 A 
ATOM     34  N   UNL A   1      41.834  27.301  28.873  1.00  0.00    -0.248 NA
ATOM     35  C   UNL A   1      39.715  26.799  28.032  1.00  0.00     0.031 C 
ATOM     36  C   UNL A   1      40.393  31.439  29.839  1.00  0.00     0.029 A 
ATOM     37  N   UNL A   1      42.174  30.087  29.821  1.00  0.00    -0.354 N 
ATOM     38  C   UNL A   1      41.832  26.002  28.379  1.00  0.00     0.074 A 
ATOM     39  C   UNL A   1      40.492  25.732  27.904  1.00  0.00     0.031 C 
ATOM     40  C   UNL A   1      41.438  32.145  30.300  1.00  0.00     0.029 A 
ATOM     41  C   UNL A   1      42.610  31.277  30.353  1.00  0.00     0.049 A 
ATOM     42  H   UNL A   1      42.764  29.313  29.673  1.00  0.00     0.167 HD
ATOM     43  C   UNL A   1      42.860  25.124  28.319  1.00  0.00     0.037 A 
ATOM     44  C   UNL A   1      43.812  31.615  30.859  1.00  0.00     0.037 A 
ATOM     45  C   UNL A   1      44.192  25.413  28.790  1.00  0.00     0.049 A 
ATOM     46  C   UNL A   1      44.918  30.593  30.844  1.00  0.00     0.074 A 
ATOM     47  C   UNL A   1      45.305  24.591  28.782  1.00  0.00     0.029 A 
ATOM     48  N   UNL A   1      44.590  26.618  29.353  1.00  0.00    -0.354 N 
ATOM     49  N   UNL A   1      44.901  29.365  30.380  1.00  0.00    -0.248 NA
ATOM     50  C   UNL A   1      46.207  31.002  31.417  1.00  0.00     0.031 C 
ATOM     51  C   UNL A   1      46.363  25.281  29.383  1.00  0.00     0.029 A 
ATOM     52  C   UNL A   1      45.927  26.554  29.712  1.00  0.00     0.049 A 
ATOM     53  H   UNL A   1      44.009  27.402  29.477  1.00  0.00     0.167 HD
ATOM     54  C   UNL A   1      46.182  28.863  30.586  1.00  0.00     0.074 A 
ATOM     55  C   UNL A   1      46.953  29.931  31.189  1.00  0.00     0.031 C 
ATOM     56  C   UNL A   1      46.677  27.631  30.311  1.00  0.00     0.037 A 
BRANCH  43  57
ATOM     57  C   UNL A   1      42.590  23.760  27.743  1.00  0.00     0.058 A 
ATOM     58  C   UNL A   1      42.614  23.523  26.360  1.00  0.00     0.135 A 
ATOM     59  C   UNL A   1      42.368  22.661  28.590  1.00  0.00     0.135 A 
ATOM     60  F   UNL A   1      42.801  24.539  25.502  1.00  0.00    -0.206 F 
ATOM     61  C   UNL A   1      42.422  22.249  25.836  1.00  0.00     0.059 A 
ATOM     62  C   UNL A   1      42.199  21.373  28.090  1.00  0.00     0.059 A 
ATOM     63  F   UNL A   1      42.326  22.831  29.921  1.00  0.00    -0.206 F 
ATOM     64  C   UNL A   1      42.223  21.178  26.710  1.00  0.00     0.060 A 
BRANCH  64  65
ATOM     65  S   UNL A   1      42.014  19.525  26.014  1.00  0.00     0.124 S 
ATOM     66  O   UNL A   1      42.490  18.684  27.107  1.00  0.00    -0.237 OA
ATOM     67  O   UNL A   1      40.578  19.478  25.756  1.00  0.00    -0.237 OA
ATOM     68  O   UNL A   1      42.860  19.545  24.825  1.00  0.00    -0.744 OA
ENDBRANCH  64  65
ENDBRANCH  43  57
BRANCH  44  69
ATOM     69  C   UNL A   1      44.023  32.961  31.460  1.00  0.00     0.058 A 
ATOM     70  C   UNL A   1      44.493  34.039  30.695  1.00  0.00     0.135 A 
ATOM     71  C   UNL A   1      43.784  33.188  32.825  1.00  0.00     0.135 A 
ATOM     72  F   UNL A   1      44.742  33.873  29.386  1.00  0.00    -0.206 F 
ATOM     73  C   UNL A   1      44.752  35.280  31.266  1.00  0.00     0.059 A 
ATOM     74  C   UNL A   1      44.004  34.430  33.412  1.00  0.00     0.059 A 
ATOM     75  F   UNL A   1      43.321  32.196  33.603  1.00  0.00    -0.206 F 
ATOM     76  C   UNL A   1      44.507  35.465  32.628  1.00  0.00     0.060 A 
BRANCH  76  77
ATOM     77  S   UNL A   1      44.840  37.082  33.359  1.00  0.00     0.124 S 
ATOM     78  O   UNL A   1      46.221  37.309  32.950  1.00  0.00    -0.237 OA
ATOM     79  O   UNL A   1      43.835  37.922  32.714  1.00  0.00    -0.237 OA
ATOM     80  O   UNL A   1      44.633  36.853  34.786  1.00  0.00    -0.744 OA
ENDBRANCH  76  77
ENDBRANCH  44  69
BRANCH  56  81
ATOM     81  C   UNL A   1      48.128  27.390  30.628  1.00  0.00     0.058 A 
ATOM     82  C   UNL A   1      49.136  27.573  29.668  1.00  0.00     0.135 A 
ATOM     83  C   UNL A   1      48.517  26.980  31.914  1.00  0.00     0.135 A 
ATOM     84  F   UNL A   1      48.820  27.959  28.421  1.00  0.00    -0.206 F 
ATOM     85  C   UNL A   1      50.471  27.314  29.957  1.00  0.00     0.059 A 
ATOM     86  C   UNL A   1      49.850  26.749  32.236  1.00  0.00     0.059 A 
ATOM     87  F   UNL A   1      47.597  26.805  32.876  1.00  0.00    -0.206 F 
ATOM     88  C   UNL A   1      50.818  26.898  31.244  1.00  0.00     0.060 A 
BRANCH  88  89
ATOM     89  S   UNL A   1      52.554  26.562  31.605  1.00  0.00     0.124 S 
ATOM     90  O   UNL A   1      52.823  27.520  32.672  1.00  0.00    -0.237 OA
ATOM     91  O   UNL A   1      52.524  25.159  32.004  1.00  0.00    -0.237 OA
ATOM     92  O   UNL A   1      53.223  26.832  30.336  1.00  0.00    -0.744 OA
ENDBRANCH  88  89
ENDBRANCH  56  81
ENDBRANCH  30  31
ENDBRANCH  23  25
ENDBRANCH  22  23
ENDBRANCH  21  22
ENDBRANCH   1  21
TORSDOF 20
ENDMDL
MODEL 2
REMARK VINA RESULT:      -9.7      4.215     10.384
REMARK SMILES C=CC[C@@H](NC(=O)OCc1ccccc1)C(=O)OCCOC(=O)c1ccc(-c2c3nc(c(-c4c(F)cc(S(=O)(=O)[O-])cc4F)c4ccc([nH]4)c(-c4c(F)cc(S(=O)(=O)[O-])cc4F)c4nc(c(-c5c(F)cc(S(=O)(=O)[O-])cc5F)c5ccc2[nH]5)C=C4)C=C3)cc1
REMARK SMILES IDX 19 1 18 2 16 3 17 4 4 5 3 6 2 7 1 8 5 9 6 10 7 12 8 13 9 14
REMARK SMILES IDX 10 15 11 16 15 17 12 18 14 19 13 20 20 21 21 22 22 23 23 24
REMARK SMILES IDX 24 25 25 26 89 27 26 28 88 29 27 30 28 31 29 32 82 33 30 34
REMARK SMILES IDX 87 35 81 36 83 37 31 38 86 39 80 40 79 41 32 43 66 44 45 45
REMARK SMILES IDX 65 46 46 47 49 48 64 49 84 50 47 51 48 52 63 54 85 55 50 56
REMARK SMILES IDX 33 57 34 58 43 59 35 60 36 61 42 62 44 63 37 64 38 65 39 66
REMARK SMILES IDX 40 67 41 68 67 69 68 70 77 71 69 72 70 73 76 74 78 75 71 76
REMARK SMILES IDX 72 77 73 78 74 79 75 80 51 81 52 82 61 83 53 84 54 85 60 86
REMARK SMILES IDX 62 87 55 88 56 89 57 90 58 91 59 92
REMARK H PARENT 5 11 83 42 49 53
REMARK Flexibility Score: inf
ROOT
ATOM      1  C   UNL A   1      33.687  34.061  29.005  1.00  0.00     0.274 C 
ENDROOT
BRANCH   1   2
ATOM      2  O   UNL A   1      34.768  33.900  29.943  1.00  0.00    -0.461 OA
BRANCH   2   3
ATOM      3  C   UNL A   1      34.401  33.578  31.220  1.00  0.00     0.329 C 
ATOM      4  O   UNL A   1      34.091  32.450  31.588  1.00  0.00    -0.250 OA
BRANCH   3   5
ATOM      5  C   UNL A   1      34.267  34.826  32.113  1.00  0.00     0.199 C 
BRANCH   5   6
ATOM      6  C   UNL A   1      32.985  35.630  31.826  1.00  0.00     0.064 C 
BRANCH   6   7
ATOM      7  C   UNL A   1      33.248  37.109  31.665  1.00  0.00    -0.032 C 
ATOM      8  C   UNL A   1      33.909  37.855  32.563  1.00  0.00     0.004 C 
ENDBRANCH   6   7
ENDBRANCH   5   6
BRANCH   5   9
ATOM      9  N   UNL A   1      34.515  34.624  33.549  1.00  0.00    -0.308 N 
ATOM     10  C   UNL A   1      35.600  34.051  34.146  1.00  0.00     0.408 C 
ATOM     11  H   UNL A   1      33.808  34.943  34.155  1.00  0.00     0.168 HD
ATOM     12  O   UNL A   1      35.631  33.829  35.346  1.00  0.00    -0.225 OA
BRANCH  10  13
ATOM     13  O   UNL A   1      36.599  33.801  33.278  1.00  0.00    -0.445 OA
BRANCH  13  14
ATOM     14  C   UNL A   1      37.848  34.463  33.484  1.00  0.00     0.270 C 
BRANCH  14  15
ATOM     15  C   UNL A   1      38.758  34.389  32.283  1.00  0.00    -0.011 A 
ATOM     16  C   UNL A   1      40.151  34.502  32.406  1.00  0.00     0.007 A 
ATOM     17  C   UNL A   1      38.200  34.231  31.008  1.00  0.00     0.007 A 
ATOM     18  C   UNL A   1      40.967  34.436  31.275  1.00  0.00     0.000 A 
ATOM     19  C   UNL A   1      39.018  34.168  29.879  1.00  0.00     0.000 A 
ATOM     20  C   UNL A   1      40.400  34.267  30.013  1.00  0.00     0.000 A 
ENDBRANCH  14  15
ENDBRANCH  13  14
ENDBRANCH  10  13
ENDBRANCH   5   9
ENDBRANCH   3   5
ENDBRANCH   2   3
ENDBRANCH   1   2
BRANCH   1  21
ATOM     21  C   UNL A   1      33.486  32.822  28.128  1.00  0.00     0.275 C 
BRANCH  21  22
ATOM     22  O   UNL A   1      34.736  32.236  27.728  1.00  0.00    -0.458 OA
BRANCH  22  23
ATOM     23  C   UNL A   1      34.710  30.886  27.615  1.00  0.00     0.338 C 
ATOM     24  O   UNL A   1      33.853  30.213  27.066  1.00  0.00    -0.246 OA
BRANCH  23  25
ATOM     25  C   UNL A   1      35.971  30.310  28.102  1.00  0.00     0.060 A 
ATOM     26  C   UNL A   1      35.968  29.730  29.372  1.00  0.00     0.016 A 
ATOM     27  C   UNL A   1      37.156  30.422  27.375  1.00  0.00     0.016 A 
ATOM     28  C   UNL A   1      37.146  29.258  29.931  1.00  0.00     0.010 A 
ATOM     29  C   UNL A   1      38.346  29.954  27.942  1.00  0.00     0.010 A 
ATOM     30  C   UNL A   1      38.348  29.382  29.227  1.00  0.00    -0.014 A 
BRANCH  30  31
ATOM     31  C   UNL A   1      39.609  28.972  29.888  1.00  0.00     0.031 A 
ATOM     32  C   UNL A   1      40.047  29.667  31.145  1.00  0.00     0.074 A 
ATOM     33  C   UNL A   1      40.316  27.941  29.389  1.00  0.00     0.049 A 
ATOM     34  N   UNL A   1      41.137  29.497  31.846  1.00  0.00    -0.248 NA
ATOM     35  C   UNL A   1      39.139  30.691  31.687  1.00  0.00     0.031 C 
ATOM     36  C   UNL A   1      39.951  27.163  28.202  1.00  0.00     0.029 A 
ATOM     37  N   UNL A   1      41.486  27.369  29.815  1.00  0.00    -0.354 N 
ATOM     38  C   UNL A   1      41.054  30.395  32.902  1.00  0.00     0.074 A 
ATOM     39  C   UNL A   1      39.819  31.130  32.737  1.00  0.00     0.031 C 
ATOM     40  C   UNL A   1      40.881  26.217  27.995  1.00  0.00     0.029 A 
ATOM     41  C   UNL A   1      41.931  26.355  29.000  1.00  0.00     0.049 A 
ATOM     42  H   UNL A   1      41.963  27.656  30.627  1.00  0.00     0.167 HD
ATOM     43  C   UNL A   1      41.926  30.578  33.921  1.00  0.00     0.037 A 
ATOM     44  C   UNL A   1      43.073  25.643  29.041  1.00  0.00     0.037 A 
ATOM     45  C   UNL A   1      43.150  29.831  34.075  1.00  0.00     0.049 A 
ATOM     46  C   UNL A   1      44.058  25.917  30.147  1.00  0.00     0.074 A 
ATOM     47  C   UNL A   1      44.107  29.942  35.069  1.00  0.00     0.029 A 
ATOM     48  N   UNL A   1      43.584  28.833  33.213  1.00  0.00    -0.354 N 
ATOM     49  N   UNL A   1      43.971  26.775  31.137  1.00  0.00    -0.248 NA
ATOM     50  C   UNL A   1      45.295  25.126  30.144  1.00  0.00     0.031 C 
ATOM     51  C   UNL A   1      45.142  29.046  34.780  1.00  0.00     0.029 A 
ATOM     52  C   UNL A   1      44.803  28.334  33.641  1.00  0.00     0.049 A 
ATOM     53  H   UNL A   1      43.096  28.525  32.416  1.00  0.00     0.167 HD
ATOM     54  C   UNL A   1      45.131  26.611  31.885  1.00  0.00     0.074 A 
ATOM     55  C   UNL A   1      45.888  25.551  31.250  1.00  0.00     0.031 C 
ATOM     56  C   UNL A   1      45.540  27.277  32.994  1.00  0.00     0.037 A 
BRANCH  43  57
ATOM     57  C   UNL A   1      41.607  31.637  34.942  1.00  0.00     0.058 A 
ATOM     58  C   UNL A   1      42.146  32.931  34.859  1.00  0.00     0.135 A 
ATOM     59  C   UNL A   1      40.701  31.372  35.983  1.00  0.00     0.135 A 
ATOM     60  F   UNL A   1      43.034  33.234  33.899  1.00  0.00    -0.206 F 
ATOM     61  C   UNL A   1      41.802  33.922  35.773  1.00  0.00     0.059 A 
ATOM     62  C   UNL A   1      40.323  32.355  36.892  1.00  0.00     0.059 A 
ATOM     63  F   UNL A   1      40.163  30.150  36.115  1.00  0.00    -0.206 F 
ATOM     64  C   UNL A   1      40.882  33.627  36.782  1.00  0.00     0.060 A 
BRANCH  64  65
ATOM     65  S   UNL A   1      40.419  34.936  37.935  1.00  0.00     0.124 S 
ATOM     66  O   UNL A   1      40.769  36.133  37.176  1.00  0.00    -0.237 OA
ATOM     67  O   UNL A   1      38.990  34.697  38.116  1.00  0.00    -0.237 OA
ATOM     68  O   UNL A   1      41.249  34.672  39.106  1.00  0.00    -0.744 OA
ENDBRANCH  64  65
ENDBRANCH  43  57
BRANCH  44  69
ATOM     69  C   UNL A   1      43.370  24.636  27.984  1.00  0.00     0.058 A 
ATOM     70  C   UNL A   1      42.891  23.320  28.072  1.00  0.00     0.135 A 
ATOM     71  C   UNL A   1      44.166  24.965  26.876  1.00  0.00     0.135 A 
ATOM     72  F   UNL A   1      42.131  22.953  29.115  1.00  0.00    -0.206 F 
ATOM     73  C   UNL A   1      43.219  22.360  27.121  1.00  0.00     0.059 A 
ATOM     74  C   UNL A   1      44.480  24.032  25.894  1.00  0.00     0.059 A 
ATOM     75  F   UNL A   1      44.641  26.213  26.734  1.00  0.00    -0.206 F 
ATOM     76  C   UNL A   1      44.018  22.725  26.036  1.00  0.00     0.060 A 
BRANCH  76  77
ATOM     77  S   UNL A   1      44.433  21.474  24.802  1.00  0.00     0.124 S 
ATOM     78  O   UNL A   1      43.459  20.431  25.105  1.00  0.00    -0.237 OA
ATOM     79  O   UNL A   1      44.226  22.197  23.551  1.00  0.00    -0.237 OA
ATOM     80  O   UNL A   1      45.822  21.149  25.109  1.00  0.00    -0.744 OA
ENDBRANCH  76  77
ENDBRANCH  44  69
BRANCH  56  81
ATOM     81  C   UNL A   1      46.849  26.852  33.604  1.00  0.00     0.058 A 
ATOM     82  C   UNL A   1      48.064  27.455  33.243  1.00  0.00     0.135 A 
ATOM     83  C   UNL A   1      46.886  25.833  34.571  1.00  0.00     0.135 A 
ATOM     84  F   UNL A   1      48.087  28.430  32.320  1.00  0.00    -0.206 F 
ATOM     85  C   UNL A   1      49.274  27.033  33.783  1.00  0.00     0.059 A 
ATOM     86  C   UNL A   1      48.080  25.419  35.150  1.00  0.00     0.059 A 
ATOM     87  F   UNL A   1      45.752  25.233  34.965  1.00  0.00    -0.206 F 
ATOM     88  C   UNL A   1      49.272  26.010  34.734  1.00  0.00     0.060 A 
BRANCH  88  89
ATOM     89  S   UNL A   1      50.849  25.470  35.425  1.00  0.00     0.124 S 
ATOM     90  O   UNL A   1      50.547  24.093  35.803  1.00  0.00    -0.237 OA
ATOM     91  O   UNL A   1      51.757  25.632  34.295  1.00  0.00    -0.237 OA
ATOM     92  O   UNL A   1      51.068  26.392  36.535  1.00  0.00    -0.744 OA
ENDBRANCH  88  89
ENDBRANCH  56  81
ENDBRANCH  30  31
ENDBRANCH  23  25
ENDBRANCH  22  23
ENDBRANCH  21  22
ENDBRANCH   1  21
TORSDOF 20
ENDMDL
MODEL 3
REMARK VINA RESULT:      -9.4      0.568      8.443
REMARK SMILES C=CC[C@@H](NC(=O)OCc1ccccc1)C(=O)OCCOC(=O)c1ccc(-c2c3nc(c(-c4c(F)cc(S(=O)(=O)[O-])cc4F)c4ccc([nH]4)c(-c4c(F)cc(S(=O)(=O)[O-])cc4F)c4nc(c(-c5c(F)cc(S(=O)(=O)[O-])cc5F)c5ccc2[nH]5)C=C4)C=C3)cc1
REMARK SMILES IDX 19 1 18 2 16 3 17 4 4 5 3 6 2 7 1 8 5 9 6 10 7 12 8 13 9 14
REMARK SMILES IDX 10 15 11 16 15 17 12 18 14 19 13 20 20 21 21 22 22 23 23 24
REMARK SMILES IDX 24 25 25 26 89 27 26 28 88 29 27 30 28 31 29 32 82 33 30 34
REMARK SMILES IDX 87 35 81 36 83 37 31 38 86 39 80 40 79 41 32 43 66 44 45 45
REMARK SMILES IDX 65 46 46 47 49 48 64 49 84 50 47 51 48 52 63 54 85 55 50 56
REMARK SMILES IDX 33 57 34 58 43 59 35 60 36 61 42 62 44 63 37 64 38 65 39 66
REMARK SMILES IDX 40 67 41 68 67 69 68 70 77 71 69 72 70 73 76 74 78 75 71 76
REMARK SMILES IDX 72 77 73 78 74 79 75 80 51 81 52 82 61 83 53 84 54 85 60 86
REMARK SMILES IDX 62 87 55 88 56 89 57 90 58 91 59 92
REMARK H PARENT 5 11 83 42 49 53
REMARK Flexibility Score: inf
ROOT
ATOM      1  C   UNL A   1      32.415  28.111  25.711  1.00  0.00     0.274 C 
ENDROOT
BRANCH   1   2
ATOM      2  O   UNL A   1      31.796  28.886  24.669  1.00  0.00    -0.461 OA
BRANCH   2   3
ATOM      3  C   UNL A   1      32.197  28.594  23.395  1.00  0.00     0.329 C 
ATOM      4  O   UNL A   1      33.016  29.248  22.758  1.00  0.00    -0.250 OA
BRANCH   3   5
ATOM      5  C   UNL A   1      31.382  27.436  22.787  1.00  0.00     0.199 C 
BRANCH   5   6
ATOM      6  C   UNL A   1      29.894  27.789  22.597  1.00  0.00     0.064 C 
BRANCH   6   7
ATOM      7  C   UNL A   1      29.656  29.278  22.505  1.00  0.00    -0.032 C 
ATOM      8  C   UNL A   1      28.513  29.878  22.871  1.00  0.00     0.004 C 
ENDBRANCH   6   7
ENDBRANCH   5   6
BRANCH   5   9
ATOM      9  N   UNL A   1      31.974  26.775  21.613  1.00  0.00    -0.308 N 
ATOM     10  C   UNL A   1      32.708  25.626  21.573  1.00  0.00     0.408 C 
ATOM     11  H   UNL A   1      31.820  27.218  20.748  1.00  0.00     0.168 HD
ATOM     12  O   UNL A   1      33.250  25.244  20.548  1.00  0.00    -0.225 OA
BRANCH  10  13
ATOM     13  O   UNL A   1      32.729  24.981  22.756  1.00  0.00    -0.445 OA
BRANCH  13  14
ATOM     14  C   UNL A   1      33.855  25.184  23.611  1.00  0.00     0.270 C 
BRANCH  14  15
ATOM     15  C   UNL A   1      34.470  23.893  24.090  1.00  0.00    -0.011 A 
ATOM     16  C   UNL A   1      35.781  23.840  24.586  1.00  0.00     0.007 A 
ATOM     17  C   UNL A   1      33.726  22.708  24.013  1.00  0.00     0.007 A 
ATOM     18  C   UNL A   1      36.325  22.628  25.017  1.00  0.00     0.000 A 
ATOM     19  C   UNL A   1      34.273  21.498  24.441  1.00  0.00     0.000 A 
ATOM     20  C   UNL A   1      35.570  21.459  24.945  1.00  0.00     0.000 A 
ENDBRANCH  14  15
ENDBRANCH  13  14
ENDBRANCH  10  13
ENDBRANCH   5   9
ENDBRANCH   3   5
ENDBRANCH   2   3
ENDBRANCH   1   2
BRANCH   1  21
ATOM     21  C   UNL A   1      33.838  28.582  26.023  1.00  0.00     0.275 C 
BRANCH  21  22
ATOM     22  O   UNL A   1      34.027  28.839  27.425  1.00  0.00    -0.458 OA
BRANCH  22  23
ATOM     23  C   UNL A   1      34.569  30.048  27.705  1.00  0.00     0.338 C 
ATOM     24  O   UNL A   1      33.992  31.123  27.726  1.00  0.00    -0.246 OA
BRANCH  23  25
ATOM     25  C   UNL A   1      35.955  29.890  28.167  1.00  0.00     0.060 A 
ATOM     26  C   UNL A   1      36.971  30.020  27.218  1.00  0.00     0.016 A 
ATOM     27  C   UNL A   1      36.252  29.525  29.480  1.00  0.00     0.016 A 
ATOM     28  C   UNL A   1      38.293  29.785  27.568  1.00  0.00     0.010 A 
ATOM     29  C   UNL A   1      37.584  29.279  29.831  1.00  0.00     0.010 A 
ATOM     30  C   UNL A   1      38.607  29.395  28.873  1.00  0.00    -0.014 A 
BRANCH  30  31
ATOM     31  C   UNL A   1      40.010  29.043  29.195  1.00  0.00     0.031 A 
ATOM     32  C   UNL A   1      40.876  30.038  29.914  1.00  0.00     0.074 A 
ATOM     33  C   UNL A   1      40.473  27.815  28.895  1.00  0.00     0.049 A 
ATOM     34  N   UNL A   1      42.139  29.948  30.241  1.00  0.00    -0.248 NA
ATOM     35  C   UNL A   1      40.239  31.301  30.319  1.00  0.00     0.031 C 
ATOM     36  C   UNL A   1      39.697  26.757  28.245  1.00  0.00     0.029 A 
ATOM     37  N   UNL A   1      41.705  27.250  29.097  1.00  0.00    -0.354 N 
ATOM     38  C   UNL A   1      42.452  31.142  30.878  1.00  0.00     0.074 A 
ATOM     39  C   UNL A   1      41.254  31.954  30.869  1.00  0.00     0.031 C 
ATOM     40  C   UNL A   1      40.474  25.671  28.099  1.00  0.00     0.029 A 
ATOM     41  C   UNL A   1      41.812  25.974  28.597  1.00  0.00     0.049 A 
ATOM     42  H   UNL A   1      42.442  27.713  29.557  1.00  0.00     0.167 HD
ATOM     43  C   UNL A   1      43.630  31.517  31.430  1.00  0.00     0.037 A 
ATOM     44  C   UNL A   1      42.880  25.157  28.519  1.00  0.00     0.037 A 
ATOM     45  C   UNL A   1      44.812  30.692  31.438  1.00  0.00     0.049 A 
ATOM     46  C   UNL A   1      44.196  25.629  29.078  1.00  0.00     0.074 A 
ATOM     47  C   UNL A   1      46.059  30.979  31.965  1.00  0.00     0.029 A 
ATOM     48  N   UNL A   1      44.894  29.418  30.894  1.00  0.00    -0.354 N 
ATOM     49  N   UNL A   1      44.481  26.765  29.673  1.00  0.00    -0.248 NA
ATOM     50  C   UNL A   1      45.335  24.710  28.959  1.00  0.00     0.031 C 
ATOM     51  C   UNL A   1      46.907  29.900  31.697  1.00  0.00     0.029 A 
ATOM     52  C   UNL A   1      46.174  28.913  31.056  1.00  0.00     0.049 A 
ATOM     53  H   UNL A   1      44.150  28.941  30.458  1.00  0.00     0.167 HD
ATOM     54  C   UNL A   1      45.826  26.686  30.017  1.00  0.00     0.074 A 
ATOM     55  C   UNL A   1      46.287  25.381  29.591  1.00  0.00     0.031 C 
ATOM     56  C   UNL A   1      46.613  27.609  30.624  1.00  0.00     0.037 A 
BRANCH  43  57
ATOM     57  C   UNL A   1      43.713  32.884  32.055  1.00  0.00     0.058 A 
ATOM     58  C   UNL A   1      43.469  33.087  33.422  1.00  0.00     0.135 A 
ATOM     59  C   UNL A   1      44.104  33.995  31.289  1.00  0.00     0.135 A 
ATOM     60  F   UNL A   1      43.071  32.067  34.199  1.00  0.00    -0.206 F 
ATOM     61  C   UNL A   1      43.605  34.343  34.007  1.00  0.00     0.059 A 
ATOM     62  C   UNL A   1      44.271  35.254  31.857  1.00  0.00     0.059 A 
ATOM     63  F   UNL A   1      44.341  33.859  29.975  1.00  0.00    -0.206 F 
ATOM     64  C   UNL A   1      44.014  35.419  33.217  1.00  0.00     0.060 A 
BRANCH  64  65
ATOM     65  S   UNL A   1      44.222  37.032  34.000  1.00  0.00     0.124 S 
ATOM     66  O   UNL A   1      43.725  36.770  35.347  1.00  0.00    -0.237 OA
ATOM     67  O   UNL A   1      45.661  37.249  33.886  1.00  0.00    -0.237 OA
ATOM     68  O   UNL A   1      43.392  37.917  33.188  1.00  0.00    -0.744 OA
ENDBRANCH  64  65
ENDBRANCH  43  57
BRANCH  44  69
ATOM     69  C   UNL A   1      42.764  23.831  27.851  1.00  0.00     0.058 A 
ATOM     70  C   UNL A   1      42.497  22.664  28.583  1.00  0.00     0.135 A 
ATOM     71  C   UNL A   1      42.949  23.700  26.466  1.00  0.00     0.135 A 
ATOM     72  F   UNL A   1      42.318  22.733  29.912  1.00  0.00    -0.206 F 
ATOM     73  C   UNL A   1      42.452  21.415  27.974  1.00  0.00     0.059 A 
ATOM     74  C   UNL A   1      42.876  22.467  25.828  1.00  0.00     0.059 A 
ATOM     75  F   UNL A   1      43.195  24.785  25.714  1.00  0.00    -0.206 F 
ATOM     76  C   UNL A   1      42.646  21.326  26.594  1.00  0.00     0.060 A 
BRANCH  76  77
ATOM     77  S   UNL A   1      42.579  19.701  25.809  1.00  0.00     0.124 S 
ATOM     78  O   UNL A   1      43.531  19.865  24.717  1.00  0.00    -0.237 OA
ATOM     79  O   UNL A   1      42.996  18.819  26.894  1.00  0.00    -0.237 OA
ATOM     80  O   UNL A   1      41.179  19.579  25.413  1.00  0.00    -0.744 OA
ENDBRANCH  76  77
ENDBRANCH  44  69
BRANCH  56  81
ATOM     81  C   UNL A   1      48.042  27.220  30.892  1.00  0.00     0.058 A 
ATOM     82  C   UNL A   1      49.049  27.396  29.930  1.00  0.00     0.135 A 
ATOM     83  C   UNL A   1      48.411  26.674  32.132  1.00  0.00     0.135 A 
ATOM     84  F   UNL A   1      48.751  27.910  28.725  1.00  0.00    -0.206 F 
ATOM     85  C   UNL A   1      50.360  27.001  30.169  1.00  0.00     0.059 A 
ATOM     86  C   UNL A   1      49.723  26.304  32.407  1.00  0.00     0.059 A 
ATOM     87  F   UNL A   1      47.491  26.498  33.095  1.00  0.00    -0.206 F 
ATOM     88  C   UNL A   1      50.687  26.452  31.411  1.00  0.00     0.060 A 
BRANCH  88  89
ATOM     89  S   UNL A   1      52.392  25.941  31.708  1.00  0.00     0.124 S 
ATOM     90  O   UNL A   1      53.011  26.217  30.416  1.00  0.00    -0.237 OA
ATOM     91  O   UNL A   1      52.794  26.817  32.804  1.00  0.00    -0.237 OA
ATOM     92  O   UNL A   1      52.267  24.529  32.056  1.00  0.00    -0.744 OA
ENDBRANCH  88  89
ENDBRANCH  56  81
ENDBRANCH  30  31
ENDBRANCH  23  25
ENDBRANCH  22  23
ENDBRANCH  21  22
ENDBRANCH   1  21
TORSDOF 20
ENDMDL
