MODEL 1
REMARK VINA RESULT:     -11.1      0.000      0.000
REMARK SMILES CCC1C[NH+]([C@H]2COC[C@@]2(C)C(=O)OCCOC(=O)c2ccc(-c3c4nc(c(-c5c(F)cc(S(=O)(=O)[O-])cc5F)c5ccc([nH]5)c(-c5c(F)cc(S(=O)(=O)[O-])cc5F)c5nc(c(-c6c(F)cc(S(=O)(=O)[O-])cc6F)c6ccc3[nH]6)C=C5)C=C4)cc2)C1
REMARK SMILES IDX 16 1 15 2 14 3 12 4 13 5 10 6 6 7 7 8 8 9 9 10 11 11 5 12
REMARK SMILES IDX 3 13 4 14 86 15 2 17 1 18 17 19 18 20 19 21 20 22 21 23
REMARK SMILES IDX 85 24 22 25 84 26 23 27 24 28 25 29 78 30 26 31 83 32 77 33
REMARK SMILES IDX 79 34 27 35 82 36 76 37 75 38 28 40 62 41 41 42 61 43 42 44
REMARK SMILES IDX 45 45 60 46 80 47 43 48 44 49 59 51 81 52 46 53 29 54 30 55
REMARK SMILES IDX 39 56 31 57 32 58 38 59 40 60 33 61 34 62 35 63 36 64 37 65
REMARK SMILES IDX 63 66 64 67 73 68 65 69 66 70 72 71 74 72 67 73 68 74 69 75
REMARK SMILES IDX 70 76 71 77 47 78 48 79 57 80 49 81 50 82 56 83 58 84 51 85
REMARK SMILES IDX 52 86 53 87 54 88 55 89
REMARK H PARENT 5 16 79 39 45 50
REMARK Flexibility Score: inf
ROOT
ATOM      1  C   UNL A   1      34.713  33.225  28.323  1.00  0.00     0.275 C 
ENDROOT
BRANCH   1   2
ATOM      2  C   UNL A   1      33.534  34.172  28.587  1.00  0.00     0.274 C 
BRANCH   2   3
ATOM      3  O   UNL A   1      33.273  34.359  29.995  1.00  0.00    -0.461 OA
BRANCH   3   4
ATOM      4  C   UNL A   1      33.104  35.660  30.340  1.00  0.00     0.320 C 
ATOM      5  O   UNL A   1      32.886  36.551  29.519  1.00  0.00    -0.251 OA
BRANCH   4   6
ATOM      6  C   UNL A   1      33.257  35.974  31.817  1.00  0.00     0.142 C 
ATOM      7  C   UNL A   1      34.153  34.964  32.576  1.00  0.00     0.229 C 
ATOM      8  C   UNL A   1      34.159  35.655  33.941  1.00  0.00     0.226 C 
ATOM      9  O   UNL A   1      34.266  37.070  33.655  1.00  0.00    -0.374 OA
ATOM     10  C   UNL A   1      33.929  37.265  32.248  1.00  0.00     0.185 C 
ATOM     11  C   UNL A   1      31.783  36.026  32.328  1.00  0.00     0.033 C 
BRANCH   7  12
ATOM     12  N   UNL A   1      35.484  34.845  31.905  1.00  0.00    -0.329 N 
ATOM     13  C   UNL A   1      37.359  33.904  31.838  1.00  0.00     0.099 C 
ATOM     14  C   UNL A   1      35.901  33.430  31.757  1.00  0.00     0.271 C 
ATOM     15  C   UNL A   1      36.724  34.980  32.767  1.00  0.00     0.271 C 
ATOM     16  H   UNL A   1      35.310  35.498  31.142  1.00  0.00     0.348 HD
BRANCH  13  17
ATOM     17  C   UNL A   1      38.338  32.834  32.302  1.00  0.00     0.012 C 
ATOM     18  C   UNL A   1      39.660  33.479  32.728  1.00  0.00     0.004 C 
ENDBRANCH  13  17
ENDBRANCH   7  12
ENDBRANCH   4   6
ENDBRANCH   3   4
ENDBRANCH   2   3
ENDBRANCH   1   2
BRANCH   1  19
ATOM     19  O   UNL A   1      34.574  31.974  29.026  1.00  0.00    -0.458 OA
BRANCH  19  20
ATOM     20  C   UNL A   1      34.616  30.869  28.234  1.00  0.00     0.338 C 
ATOM     21  O   UNL A   1      33.773  30.580  27.398  1.00  0.00    -0.246 OA
BRANCH  20  22
ATOM     22  C   UNL A   1      35.900  30.106  28.373  1.00  0.00     0.060 A 
ATOM     23  C   UNL A   1      36.394  29.693  29.613  1.00  0.00     0.016 A 
ATOM     24  C   UNL A   1      36.761  30.066  27.263  1.00  0.00     0.016 A 
ATOM     25  C   UNL A   1      37.769  29.428  29.759  1.00  0.00     0.010 A 
ATOM     26  C   UNL A   1      38.118  29.721  27.403  1.00  0.00     0.010 A 
ATOM     27  C   UNL A   1      38.660  29.443  28.663  1.00  0.00    -0.014 A 
BRANCH  27  28
ATOM     28  C   UNL A   1      40.104  29.069  28.815  1.00  0.00     0.031 A 
ATOM     29  C   UNL A   1      41.185  30.020  29.281  1.00  0.00     0.074 A 
ATOM     30  C   UNL A   1      40.474  27.805  28.552  1.00  0.00     0.049 A 
ATOM     31  N   UNL A   1      42.470  30.045  29.024  1.00  0.00    -0.248 NA
ATOM     32  C   UNL A   1      40.764  31.075  30.196  1.00  0.00     0.031 C 
ATOM     33  C   UNL A   1      39.563  26.714  28.212  1.00  0.00     0.029 A 
ATOM     34  N   UNL A   1      41.714  27.225  28.549  1.00  0.00    -0.354 N 
ATOM     35  C   UNL A   1      42.974  31.201  29.633  1.00  0.00     0.074 A 
ATOM     36  C   UNL A   1      41.860  31.814  30.322  1.00  0.00     0.031 C 
ATOM     37  C   UNL A   1      40.262  25.581  28.105  1.00  0.00     0.029 A 
ATOM     38  C   UNL A   1      41.680  25.906  28.182  1.00  0.00     0.049 A 
ATOM     39  H   UNL A   1      42.541  27.705  28.785  1.00  0.00     0.167 HD
ATOM     40  C   UNL A   1      44.248  31.679  29.623  1.00  0.00     0.037 A 
ATOM     41  C   UNL A   1      42.671  25.067  27.836  1.00  0.00     0.037 A 
ATOM     42  C   UNL A   1      45.370  30.892  29.155  1.00  0.00     0.049 A 
ATOM     43  C   UNL A   1      44.073  25.578  27.808  1.00  0.00     0.074 A 
ATOM     44  C   UNL A   1      46.715  31.221  29.121  1.00  0.00     0.029 A 
ATOM     45  N   UNL A   1      45.275  29.576  28.722  1.00  0.00    -0.354 N 
ATOM     46  N   UNL A   1      44.518  26.775  28.103  1.00  0.00    -0.248 NA
ATOM     47  C   UNL A   1      45.102  24.634  27.366  1.00  0.00     0.031 C 
ATOM     48  C   UNL A   1      47.430  30.103  28.672  1.00  0.00     0.029 A 
ATOM     49  C   UNL A   1      46.535  29.069  28.450  1.00  0.00     0.049 A 
ATOM     50  H   UNL A   1      44.433  29.075  28.623  1.00  0.00     0.167 HD
ATOM     51  C   UNL A   1      45.887  26.733  27.884  1.00  0.00     0.074 A 
ATOM     52  C   UNL A   1      46.194  25.382  27.450  1.00  0.00     0.031 C 
ATOM     53  C   UNL A   1      46.807  27.720  28.022  1.00  0.00     0.037 A 
BRANCH  40  54
ATOM     54  C   UNL A   1      44.523  33.100  30.082  1.00  0.00     0.058 A 
ATOM     55  C   UNL A   1      44.956  33.438  31.373  1.00  0.00     0.135 A 
ATOM     56  C   UNL A   1      44.407  34.160  29.158  1.00  0.00     0.135 A 
ATOM     57  F   UNL A   1      45.113  32.484  32.304  1.00  0.00    -0.206 F 
ATOM     58  C   UNL A   1      45.206  34.763  31.746  1.00  0.00     0.059 A 
ATOM     59  C   UNL A   1      44.682  35.485  29.497  1.00  0.00     0.059 A 
ATOM     60  F   UNL A   1      44.030  33.912  27.892  1.00  0.00    -0.206 F 
ATOM     61  C   UNL A   1      45.054  35.782  30.804  1.00  0.00     0.060 A 
BRANCH  61  62
ATOM     62  S   UNL A   1      45.337  37.498  31.305  1.00  0.00     0.124 S 
ATOM     63  O   UNL A   1      44.820  37.490  32.670  1.00  0.00    -0.237 OA
ATOM     64  O   UNL A   1      46.784  37.633  31.179  1.00  0.00    -0.237 OA
ATOM     65  O   UNL A   1      44.554  38.268  30.343  1.00  0.00    -0.744 OA
ENDBRANCH  61  62
ENDBRANCH  40  54
BRANCH  41  66
ATOM     66  C   UNL A   1      42.300  23.694  27.418  1.00  0.00     0.058 A 
ATOM     67  C   UNL A   1      42.232  23.358  26.061  1.00  0.00     0.135 A 
ATOM     68  C   UNL A   1      42.199  22.659  28.365  1.00  0.00     0.135 A 
ATOM     69  F   UNL A   1      42.322  24.316  25.127  1.00  0.00    -0.206 F 
ATOM     70  C   UNL A   1      42.118  22.035  25.653  1.00  0.00     0.059 A 
ATOM     71  C   UNL A   1      42.121  21.328  27.980  1.00  0.00     0.059 A 
ATOM     72  F   UNL A   1      42.290  22.935  29.676  1.00  0.00    -0.206 F 
ATOM     73  C   UNL A   1      42.089  21.025  26.620  1.00  0.00     0.060 A 
BRANCH  73  74
ATOM     74  S   UNL A   1      42.105  19.304  26.076  1.00  0.00     0.124 S 
ATOM     75  O   UNL A   1      42.579  18.625  27.275  1.00  0.00    -0.237 OA
ATOM     76  O   UNL A   1      40.707  19.081  25.723  1.00  0.00    -0.237 OA
ATOM     77  O   UNL A   1      43.032  19.320  24.948  1.00  0.00    -0.744 OA
ENDBRANCH  73  74
ENDBRANCH  41  66
BRANCH  53  78
ATOM     78  C   UNL A   1      48.230  27.347  27.733  1.00  0.00     0.058 A 
ATOM     79  C   UNL A   1      48.748  27.396  26.431  1.00  0.00     0.135 A 
ATOM     80  C   UNL A   1      49.080  26.927  28.769  1.00  0.00     0.135 A 
ATOM     81  F   UNL A   1      47.966  27.775  25.407  1.00  0.00    -0.206 F 
ATOM     82  C   UNL A   1      50.055  27.012  26.158  1.00  0.00     0.059 A 
ATOM     83  C   UNL A   1      50.397  26.561  28.522  1.00  0.00     0.059 A 
ATOM     84  F   UNL A   1      48.629  26.868  30.032  1.00  0.00    -0.206 F 
ATOM     85  C   UNL A   1      50.871  26.592  27.210  1.00  0.00     0.060 A 
BRANCH  85  86
ATOM     86  S   UNL A   1      52.567  26.100  26.842  1.00  0.00     0.124 S 
ATOM     87  O   UNL A   1      53.172  26.122  28.170  1.00  0.00    -0.237 OA
ATOM     88  O   UNL A   1      52.389  24.780  26.247  1.00  0.00    -0.237 OA
ATOM     89  O   UNL A   1      53.028  27.137  25.924  1.00  0.00    -0.744 OA
ENDBRANCH  85  86
ENDBRANCH  53  78
ENDBRANCH  27  28
ENDBRANCH  20  22
ENDBRANCH  19  20
ENDBRANCH   1  19
TORSDOF 16
ENDMDL
MODEL 2
REMARK VINA RESULT:     -10.5      2.870      5.308
REMARK SMILES CCC1C[NH+]([C@H]2COC[C@@]2(C)C(=O)OCCOC(=O)c2ccc(-c3c4nc(c(-c5c(F)cc(S(=O)(=O)[O-])cc5F)c5ccc([nH]5)c(-c5c(F)cc(S(=O)(=O)[O-])cc5F)c5nc(c(-c6c(F)cc(S(=O)(=O)[O-])cc6F)c6ccc3[nH]6)C=C5)C=C4)cc2)C1
REMARK SMILES IDX 16 1 15 2 14 3 12 4 13 5 10 6 6 7 7 8 8 9 9 10 11 11 5 12
REMARK SMILES IDX 3 13 4 14 86 15 2 17 1 18 17 19 18 20 19 21 20 22 21 23
REMARK SMILES IDX 85 24 22 25 84 26 23 27 24 28 25 29 78 30 26 31 83 32 77 33
REMARK SMILES IDX 79 34 27 35 82 36 76 37 75 38 28 40 62 41 41 42 61 43 42 44
REMARK SMILES IDX 45 45 60 46 80 47 43 48 44 49 59 51 81 52 46 53 29 54 30 55
REMARK SMILES IDX 39 56 31 57 32 58 38 59 40 60 33 61 34 62 35 63 36 64 37 65
REMARK SMILES IDX 63 66 64 67 73 68 65 69 66 70 72 71 74 72 67 73 68 74 69 75
REMARK SMILES IDX 70 76 71 77 47 78 48 79 57 80 49 81 50 82 56 83 58 84 51 85
REMARK SMILES IDX 52 86 53 87 54 88 55 89
REMARK H PARENT 5 16 79 39 45 50
REMARK Flexibility Score: inf
ROOT
ATOM      1  C   UNL A   1      32.848  28.782  27.082  1.00  0.00     0.275 C 
ENDROOT
BRANCH   1   2
ATOM      2  C   UNL A   1      32.888  28.735  25.548  1.00  0.00     0.274 C 
BRANCH   2   3
ATOM      3  O   UNL A   1      31.608  28.406  24.966  1.00  0.00    -0.461 OA
BRANCH   3   4
ATOM      4  C   UNL A   1      31.638  27.285  24.202  1.00  0.00     0.320 C 
ATOM      5  O   UNL A   1      32.112  27.257  23.067  1.00  0.00    -0.251 OA
BRANCH   4   6
ATOM      6  C   UNL A   1      30.993  26.055  24.814  1.00  0.00     0.142 C 
ATOM      7  C   UNL A   1      31.861  24.777  24.698  1.00  0.00     0.229 C 
ATOM      8  C   UNL A   1      30.966  23.828  25.497  1.00  0.00     0.226 C 
ATOM      9  O   UNL A   1      30.479  24.608  26.615  1.00  0.00    -0.374 OA
ATOM     10  C   UNL A   1      30.707  26.017  26.305  1.00  0.00     0.185 C 
ATOM     11  C   UNL A   1      29.621  25.963  24.077  1.00  0.00     0.033 C 
BRANCH   7  12
ATOM     12  N   UNL A   1      33.221  25.018  25.268  1.00  0.00    -0.329 N 
ATOM     13  C   UNL A   1      35.220  24.396  25.414  1.00  0.00     0.099 C 
ATOM     14  C   UNL A   1      34.288  24.796  24.262  1.00  0.00     0.271 C 
ATOM     15  C   UNL A   1      33.882  23.881  26.022  1.00  0.00     0.271 C 
ATOM     16  H   UNL A   1      33.017  25.901  25.737  1.00  0.00     0.348 HD
BRANCH  13  17
ATOM     17  C   UNL A   1      36.377  23.498  24.996  1.00  0.00     0.012 C 
ATOM     18  C   UNL A   1      37.585  23.738  25.905  1.00  0.00     0.004 C 
ENDBRANCH  13  17
ENDBRANCH   7  12
ENDBRANCH   4   6
ENDBRANCH   3   4
ENDBRANCH   2   3
ENDBRANCH   1   2
BRANCH   1  19
ATOM     19  O   UNL A   1      34.168  28.797  27.661  1.00  0.00    -0.458 OA
BRANCH  19  20
ATOM     20  C   UNL A   1      34.609  30.026  28.039  1.00  0.00     0.338 C 
ATOM     21  O   UNL A   1      33.886  30.983  28.273  1.00  0.00    -0.246 OA
BRANCH  20  22
ATOM     22  C   UNL A   1      36.086  30.057  28.301  1.00  0.00     0.060 A 
ATOM     23  C   UNL A   1      37.012  30.429  27.324  1.00  0.00     0.016 A 
ATOM     24  C   UNL A   1      36.557  29.417  29.460  1.00  0.00     0.016 A 
ATOM     25  C   UNL A   1      38.347  29.997  27.433  1.00  0.00     0.010 A 
ATOM     26  C   UNL A   1      37.912  29.060  29.599  1.00  0.00     0.010 A 
ATOM     27  C   UNL A   1      38.824  29.299  28.565  1.00  0.00    -0.014 A 
BRANCH  27  28
ATOM     28  C   UNL A   1      40.269  28.926  28.711  1.00  0.00     0.031 A 
ATOM     29  C   UNL A   1      41.350  29.876  29.177  1.00  0.00     0.074 A 
ATOM     30  C   UNL A   1      40.639  27.663  28.443  1.00  0.00     0.049 A 
ATOM     31  N   UNL A   1      42.634  29.904  28.916  1.00  0.00    -0.248 NA
ATOM     32  C   UNL A   1      40.931  30.928  30.097  1.00  0.00     0.031 C 
ATOM     33  C   UNL A   1      39.729  26.572  28.103  1.00  0.00     0.029 A 
ATOM     34  N   UNL A   1      41.880  27.085  28.434  1.00  0.00    -0.354 N 
ATOM     35  C   UNL A   1      43.139  31.059  29.527  1.00  0.00     0.074 A 
ATOM     36  C   UNL A   1      42.027  31.668  30.222  1.00  0.00     0.031 C 
ATOM     37  C   UNL A   1      40.429  25.440  27.990  1.00  0.00     0.029 A 
ATOM     38  C   UNL A   1      41.846  25.767  28.063  1.00  0.00     0.049 A 
ATOM     39  H   UNL A   1      42.707  27.565  28.669  1.00  0.00     0.167 HD
ATOM     40  C   UNL A   1      44.413  31.538  29.514  1.00  0.00     0.037 A 
ATOM     41  C   UNL A   1      42.837  24.930  27.711  1.00  0.00     0.037 A 
ATOM     42  C   UNL A   1      45.533  30.754  29.040  1.00  0.00     0.049 A 
ATOM     43  C   UNL A   1      44.238  25.443  27.680  1.00  0.00     0.074 A 
ATOM     44  C   UNL A   1      46.878  31.085  29.002  1.00  0.00     0.029 A 
ATOM     45  N   UNL A   1      45.438  29.439  28.603  1.00  0.00    -0.354 N 
ATOM     46  N   UNL A   1      44.683  26.640  27.978  1.00  0.00    -0.248 NA
ATOM     47  C   UNL A   1      45.267  24.502  27.231  1.00  0.00     0.031 C 
ATOM     48  C   UNL A   1      47.593  29.969  28.548  1.00  0.00     0.029 A 
ATOM     49  C   UNL A   1      46.698  28.935  28.326  1.00  0.00     0.049 A 
ATOM     50  H   UNL A   1      44.597  28.938  28.505  1.00  0.00     0.167 HD
ATOM     51  C   UNL A   1      46.052  26.600  27.754  1.00  0.00     0.074 A 
ATOM     52  C   UNL A   1      46.358  25.251  27.314  1.00  0.00     0.031 C 
ATOM     53  C   UNL A   1      46.971  27.588  27.892  1.00  0.00     0.037 A 
BRANCH  40  54
ATOM     54  C   UNL A   1      44.687  32.958  29.978  1.00  0.00     0.058 A 
ATOM     55  C   UNL A   1      45.205  33.286  31.239  1.00  0.00     0.135 A 
ATOM     56  C   UNL A   1      44.480  34.029  29.082  1.00  0.00     0.135 A 
ATOM     57  F   UNL A   1      45.451  32.321  32.139  1.00  0.00    -0.206 F 
ATOM     58  C   UNL A   1      45.450  34.610  31.617  1.00  0.00     0.059 A 
ATOM     59  C   UNL A   1      44.749  35.356  29.424  1.00  0.00     0.059 A 
ATOM     60  F   UNL A   1      44.018  33.792  27.843  1.00  0.00    -0.206 F 
ATOM     61  C   UNL A   1      45.208  35.641  30.705  1.00  0.00     0.060 A 
BRANCH  61  62
ATOM     62  S   UNL A   1      45.486  37.355  31.215  1.00  0.00     0.124 S 
ATOM     63  O   UNL A   1      46.250  37.171  32.445  1.00  0.00    -0.237 OA
ATOM     64  O   UNL A   1      46.229  37.906  30.086  1.00  0.00    -0.237 OA
ATOM     65  O   UNL A   1      44.136  37.883  31.388  1.00  0.00    -0.744 OA
ENDBRANCH  61  62
ENDBRANCH  40  54
BRANCH  41  66
ATOM     66  C   UNL A   1      42.466  23.558  27.289  1.00  0.00     0.058 A 
ATOM     67  C   UNL A   1      42.454  23.210  25.934  1.00  0.00     0.135 A 
ATOM     68  C   UNL A   1      42.310  22.534  28.241  1.00  0.00     0.135 A 
ATOM     69  F   UNL A   1      42.597  24.158  24.996  1.00  0.00    -0.206 F 
ATOM     70  C   UNL A   1      42.339  21.885  25.534  1.00  0.00     0.059 A 
ATOM     71  C   UNL A   1      42.232  21.200  27.864  1.00  0.00     0.059 A 
ATOM     72  F   UNL A   1      42.348  22.821  29.552  1.00  0.00    -0.206 F 
ATOM     73  C   UNL A   1      42.255  20.885  26.508  1.00  0.00     0.060 A 
BRANCH  73  74
ATOM     74  S   UNL A   1      42.272  19.159  25.980  1.00  0.00     0.124 S 
ATOM     75  O   UNL A   1      43.197  19.207  24.856  1.00  0.00    -0.237 OA
ATOM     76  O   UNL A   1      42.753  18.477  27.177  1.00  0.00    -0.237 OA
ATOM     77  O   UNL A   1      40.875  18.900  25.642  1.00  0.00    -0.744 OA
ENDBRANCH  73  74
ENDBRANCH  41  66
BRANCH  53  78
ATOM     78  C   UNL A   1      48.393  27.217  27.597  1.00  0.00     0.058 A 
ATOM     79  C   UNL A   1      48.967  27.463  26.341  1.00  0.00     0.135 A 
ATOM     80  C   UNL A   1      49.186  26.601  28.579  1.00  0.00     0.135 A 
ATOM     81  F   UNL A   1      48.240  28.035  25.367  1.00  0.00    -0.206 F 
ATOM     82  C   UNL A   1      50.272  27.084  26.056  1.00  0.00     0.059 A 
ATOM     83  C   UNL A   1      50.502  26.234  28.323  1.00  0.00     0.059 A 
ATOM     84  F   UNL A   1      48.681  26.349  29.796  1.00  0.00    -0.206 F 
ATOM     85  C   UNL A   1      51.031  26.466  27.052  1.00  0.00     0.060 A 
BRANCH  85  86
ATOM     86  S   UNL A   1      52.726  25.982  26.670  1.00  0.00     0.124 S 
ATOM     87  O   UNL A   1      53.391  26.212  27.948  1.00  0.00    -0.237 OA
ATOM     88  O   UNL A   1      52.572  24.586  26.276  1.00  0.00    -0.237 OA
ATOM     89  O   UNL A   1      53.103  26.892  25.593  1.00  0.00    -0.744 OA
ENDBRANCH  85  86
ENDBRANCH  53  78
ENDBRANCH  27  28
ENDBRANCH  20  22
ENDBRANCH  19  20
ENDBRANCH   1  19
TORSDOF 16
ENDMDL
MODEL 3
REMARK VINA RESULT:     -10.4      5.964     12.910
REMARK SMILES CCC1C[NH+]([C@H]2COC[C@@]2(C)C(=O)OCCOC(=O)c2ccc(-c3c4nc(c(-c5c(F)cc(S(=O)(=O)[O-])cc5F)c5ccc([nH]5)c(-c5c(F)cc(S(=O)(=O)[O-])cc5F)c5nc(c(-c6c(F)cc(S(=O)(=O)[O-])cc6F)c6ccc3[nH]6)C=C5)C=C4)cc2)C1
REMARK SMILES IDX 16 1 15 2 14 3 12 4 13 5 10 6 6 7 7 8 8 9 9 10 11 11 5 12
REMARK SMILES IDX 3 13 4 14 86 15 2 17 1 18 17 19 18 20 19 21 20 22 21 23
REMARK SMILES IDX 85 24 22 25 84 26 23 27 24 28 25 29 78 30 26 31 83 32 77 33
REMARK SMILES IDX 79 34 27 35 82 36 76 37 75 38 28 40 62 41 41 42 61 43 42 44
REMARK SMILES IDX 45 45 60 46 80 47 43 48 44 49 59 51 81 52 46 53 29 54 30 55
REMARK SMILES IDX 39 56 31 57 32 58 38 59 40 60 33 61 34 62 35 63 36 64 37 65
REMARK SMILES IDX 63 66 64 67 73 68 65 69 66 70 72 71 74 72 67 73 68 74 69 75
REMARK SMILES IDX 70 76 71 77 47 78 48 79 57 80 49 81 50 82 56 83 58 84 51 85
REMARK SMILES IDX 52 86 53 87 54 88 55 89
REMARK H PARENT 5 16 79 39 45 50
REMARK Flexibility Score: inf
ROOT
ATOM      1  C   UNL A   1      38.545  21.536  25.695  1.00  0.00     0.275 C 
ENDROOT
BRANCH   1   2
ATOM      2  C   UNL A   1      37.403  21.231  24.716  1.00  0.00     0.274 C 
BRANCH   2   3
ATOM      3  O   UNL A   1      36.232  20.696  25.373  1.00  0.00    -0.461 OA
BRANCH   3   4
ATOM      4  C   UNL A   1      35.365  21.654  25.786  1.00  0.00     0.320 C 
ATOM      5  O   UNL A   1      35.585  22.391  26.747  1.00  0.00    -0.251 OA
BRANCH   4   6
ATOM      6  C   UNL A   1      34.058  21.731  25.020  1.00  0.00     0.142 C 
ATOM      7  C   UNL A   1      33.740  20.453  24.204  1.00  0.00     0.229 C 
ATOM      8  C   UNL A   1      32.355  20.854  23.694  1.00  0.00     0.226 C 
ATOM      9  O   UNL A   1      31.710  21.514  24.810  1.00  0.00    -0.374 OA
ATOM     10  C   UNL A   1      32.747  21.867  25.775  1.00  0.00     0.185 C 
ATOM     11  C   UNL A   1      34.225  23.017  24.150  1.00  0.00     0.033 C 
BRANCH   7  12
ATOM     12  N   UNL A   1      33.781  19.248  25.089  1.00  0.00    -0.329 N 
ATOM     13  C   UNL A   1      33.533  17.173  25.272  1.00  0.00     0.099 C 
ATOM     14  C   UNL A   1      34.414  18.090  24.413  1.00  0.00     0.271 C 
ATOM     15  C   UNL A   1      32.547  18.370  25.143  1.00  0.00     0.271 C 
ATOM     16  H   UNL A   1      34.126  19.710  25.930  1.00  0.00     0.348 HD
BRANCH  13  17
ATOM     17  C   UNL A   1      33.297  15.793  24.670  1.00  0.00     0.012 C 
ATOM     18  C   UNL A   1      32.515  14.918  25.653  1.00  0.00     0.004 C 
ENDBRANCH  13  17
ENDBRANCH   7  12
ENDBRANCH   4   6
ENDBRANCH   3   4
ENDBRANCH   2   3
ENDBRANCH   1   2
BRANCH   1  19
ATOM     19  O   UNL A   1      38.734  22.953  25.885  1.00  0.00    -0.458 OA
BRANCH  19  20
ATOM     20  C   UNL A   1      39.927  23.297  26.438  1.00  0.00     0.338 C 
ATOM     21  O   UNL A   1      40.959  22.654  26.323  1.00  0.00    -0.246 OA
BRANCH  20  22
ATOM     22  C   UNL A   1      39.897  24.651  27.084  1.00  0.00     0.060 A 
ATOM     23  C   UNL A   1      40.834  25.643  26.786  1.00  0.00     0.016 A 
ATOM     24  C   UNL A   1      39.088  24.814  28.223  1.00  0.00     0.016 A 
ATOM     25  C   UNL A   1      41.072  26.673  27.715  1.00  0.00     0.010 A 
ATOM     26  C   UNL A   1      39.279  25.893  29.106  1.00  0.00     0.010 A 
ATOM     27  C   UNL A   1      40.309  26.817  28.896  1.00  0.00    -0.014 A 
BRANCH  27  28
ATOM     28  C   UNL A   1      40.511  27.971  29.831  1.00  0.00     0.031 A 
ATOM     29  C   UNL A   1      41.650  28.074  30.822  1.00  0.00     0.074 A 
ATOM     30  C   UNL A   1      39.652  29.002  29.778  1.00  0.00     0.049 A 
ATOM     31  N   UNL A   1      41.726  28.691  31.976  1.00  0.00    -0.248 NA
ATOM     32  C   UNL A   1      42.895  27.414  30.444  1.00  0.00     0.031 C 
ATOM     33  C   UNL A   1      38.568  29.148  28.809  1.00  0.00     0.029 A 
ATOM     34  N   UNL A   1      39.572  30.131  30.549  1.00  0.00    -0.354 N 
ATOM     35  C   UNL A   1      42.977  28.369  32.517  1.00  0.00     0.074 A 
ATOM     36  C   UNL A   1      43.646  27.550  31.531  1.00  0.00     0.031 C 
ATOM     37  C   UNL A   1      37.976  30.330  28.993  1.00  0.00     0.029 A 
ATOM     38  C   UNL A   1      38.515  30.932  30.204  1.00  0.00     0.049 A 
ATOM     39  H   UNL A   1      40.206  30.343  31.273  1.00  0.00     0.167 HD
ATOM     40  C   UNL A   1      43.506  28.745  33.714  1.00  0.00     0.037 A 
ATOM     41  C   UNL A   1      37.963  31.977  30.844  1.00  0.00     0.037 A 
ATOM     42  C   UNL A   1      42.914  29.779  34.535  1.00  0.00     0.049 A 
ATOM     43  C   UNL A   1      38.524  32.394  32.163  1.00  0.00     0.074 A 
ATOM     44  C   UNL A   1      43.353  30.295  35.743  1.00  0.00     0.029 A 
ATOM     45  N   UNL A   1      41.794  30.518  34.174  1.00  0.00    -0.354 N 
ATOM     46  N   UNL A   1      39.538  31.889  32.823  1.00  0.00    -0.248 NA
ATOM     47  C   UNL A   1      37.842  33.500  32.840  1.00  0.00     0.031 C 
ATOM     48  C   UNL A   1      42.502  31.346  36.108  1.00  0.00     0.029 A 
ATOM     49  C   UNL A   1      41.547  31.503  35.117  1.00  0.00     0.049 A 
ATOM     50  H   UNL A   1      41.254  30.365  33.366  1.00  0.00     0.167 HD
ATOM     51  C   UNL A   1      39.622  32.618  34.000  1.00  0.00     0.074 A 
ATOM     52  C   UNL A   1      38.564  33.611  33.947  1.00  0.00     0.031 C 
ATOM     53  C   UNL A   1      40.489  32.478  35.034  1.00  0.00     0.037 A 
BRANCH  40  54
ATOM     54  C   UNL A   1      44.744  28.042  34.243  1.00  0.00     0.058 A 
ATOM     55  C   UNL A   1      46.051  28.525  34.078  1.00  0.00     0.135 A 
ATOM     56  C   UNL A   1      44.596  26.865  35.006  1.00  0.00     0.135 A 
ATOM     57  F   UNL A   1      46.273  29.651  33.384  1.00  0.00    -0.206 F 
ATOM     58  C   UNL A   1      47.160  27.845  34.594  1.00  0.00     0.059 A 
ATOM     59  C   UNL A   1      45.685  26.188  35.559  1.00  0.00     0.059 A 
ATOM     60  F   UNL A   1      43.373  26.359  35.237  1.00  0.00    -0.206 F 
ATOM     61  C   UNL A   1      46.968  26.670  35.323  1.00  0.00     0.060 A 
BRANCH  61  62
ATOM     62  S   UNL A   1      48.410  25.773  35.950  1.00  0.00     0.124 S 
ATOM     63  O   UNL A   1      48.640  24.809  34.878  1.00  0.00    -0.237 OA
ATOM     64  O   UNL A   1      49.410  26.828  36.077  1.00  0.00    -0.237 OA
ATOM     65  O   UNL A   1      47.939  25.208  37.210  1.00  0.00    -0.744 OA
ENDBRANCH  61  62
ENDBRANCH  40  54
BRANCH  41  66
ATOM     66  C   UNL A   1      36.766  32.605  30.237  1.00  0.00     0.058 A 
ATOM     67  C   UNL A   1      35.488  32.331  30.736  1.00  0.00     0.135 A 
ATOM     68  C   UNL A   1      36.900  33.629  29.282  1.00  0.00     0.135 A 
ATOM     69  F   UNL A   1      35.317  31.360  31.646  1.00  0.00    -0.206 F 
ATOM     70  C   UNL A   1      34.386  33.078  30.341  1.00  0.00     0.059 A 
ATOM     71  C   UNL A   1      35.820  34.413  28.901  1.00  0.00     0.059 A 
ATOM     72  F   UNL A   1      38.113  33.946  28.800  1.00  0.00    -0.206 F 
ATOM     73  C   UNL A   1      34.567  34.134  29.443  1.00  0.00     0.060 A 
BRANCH  73  74
ATOM     74  S   UNL A   1      33.160  35.199  29.063  1.00  0.00     0.124 S 
ATOM     75  O   UNL A   1      33.826  36.381  28.530  1.00  0.00    -0.237 OA
ATOM     76  O   UNL A   1      32.417  34.394  28.100  1.00  0.00    -0.237 OA
ATOM     77  O   UNL A   1      32.510  35.367  30.359  1.00  0.00    -0.744 OA
ENDBRANCH  73  74
ENDBRANCH  41  66
BRANCH  53  78
ATOM     78  C   UNL A   1      40.338  33.452  36.164  1.00  0.00     0.058 A 
ATOM     79  C   UNL A   1      39.464  33.202  37.232  1.00  0.00     0.135 A 
ATOM     80  C   UNL A   1      41.070  34.650  36.172  1.00  0.00     0.135 A 
ATOM     81  F   UNL A   1      38.732  32.076  37.256  1.00  0.00    -0.206 F 
ATOM     82  C   UNL A   1      39.296  34.122  38.258  1.00  0.00     0.059 A 
ATOM     83  C   UNL A   1      40.934  35.575  37.200  1.00  0.00     0.059 A 
ATOM     84  F   UNL A   1      41.921  34.930  35.173  1.00  0.00    -0.206 F 
ATOM     85  C   UNL A   1      40.032  35.309  38.231  1.00  0.00     0.060 A 
BRANCH  85  86
ATOM     86  S   UNL A   1      39.807  36.494  39.573  1.00  0.00     0.124 S 
ATOM     87  O   UNL A   1      39.083  37.566  38.897  1.00  0.00    -0.237 OA
ATOM     88  O   UNL A   1      39.038  35.724  40.545  1.00  0.00    -0.237 OA
ATOM     89  O   UNL A   1      41.173  36.813  39.975  1.00  0.00    -0.744 OA
ENDBRANCH  85  86
ENDBRANCH  53  78
ENDBRANCH  27  28
ENDBRANCH  20  22
ENDBRANCH  19  20
ENDBRANCH   1  19
TORSDOF 16
ENDMDL
