MODEL 1
REMARK VINA RESULT:     -13.1      0.000      0.000
REMARK SMILES CC1(C)Cc2c(-c3ccccc3)c(-c3ccc(Cl)cc3)c(CC(=O)OCCOC(=O)c3ccc(-c4c5nc(c(-c6c(F)cc(S(=O)(=O)[O-])cc6F)c6ccc([nH]6)c(-c6c(F)cc(S(=O)(=O)[O-])cc6F)c6nc(c(-c7c(F)cc(S(=O)(=O)[O-])cc7F)c7ccc4[nH]7)C=C6)C=C5)cc3)n2C1
REMARK SMILES IDX 27 1 26 2 25 3 23 4 24 5 22 6 21 7 1 8 2 9 3 10 4 11 98 12
REMARK SMILES IDX 5 13 97 14 6 15 13 16 7 17 8 18 12 19 9 20 11 21 10 22 14 23
REMARK SMILES IDX 15 24 20 25 16 26 19 27 17 28 18 29 28 30 29 31 30 32 31 33
REMARK SMILES IDX 32 34 96 35 33 36 95 37 34 38 35 39 36 40 89 41 37 42 94 43
REMARK SMILES IDX 88 44 90 45 38 46 93 47 87 48 86 49 39 51 73 52 52 53 72 54
REMARK SMILES IDX 53 55 56 56 71 57 91 58 54 59 55 60 70 62 92 63 57 64 40 65
REMARK SMILES IDX 41 66 50 67 42 68 43 69 49 70 51 71 44 72 45 73 46 74 47 75
REMARK SMILES IDX 48 76 74 77 75 78 84 79 76 80 77 81 83 82 85 83 78 84 79 85
REMARK SMILES IDX 80 86 81 87 82 88 58 89 59 90 68 91 60 92 61 93 67 94 69 95
REMARK SMILES IDX 62 96 63 97 64 98 65 99 66 100
REMARK H PARENT 90 50 56 61
REMARK Flexibility Score: inf
ROOT
ATOM      1  C   UNL A   1      32.568  29.767  26.925  1.00  0.00     0.275 C 
ENDROOT
BRANCH   1   2
ATOM      2  C   UNL A   1      32.335  28.522  26.066  1.00  0.00     0.274 C 
BRANCH   2   3
ATOM      3  O   UNL A   1      33.591  28.054  25.539  1.00  0.00    -0.462 OA
BRANCH   3   4
ATOM      4  C   UNL A   1      33.633  26.782  25.073  1.00  0.00     0.311 C 
ATOM      5  O   UNL A   1      33.528  26.489  23.884  1.00  0.00    -0.252 OA
BRANCH   4   6
ATOM      6  C   UNL A   1      33.925  25.741  26.138  1.00  0.00     0.177 C 
BRANCH   6   7
ATOM      7  C   UNL A   1      33.954  24.288  25.735  1.00  0.00     0.037 A 
ATOM      8  C   UNL A   1      38.495  22.270  25.892  1.00  0.00     0.013 C 
ATOM      9  C   UNL A   1      37.205  22.645  25.167  1.00  0.00    -0.012 C 
ATOM     10  C   UNL A   1      37.498  22.918  23.680  1.00  0.00     0.013 C 
ATOM     11  C   UNL A   1      36.157  21.496  25.300  1.00  0.00     0.063 C 
ATOM     12  C   UNL A   1      36.526  23.891  25.811  1.00  0.00     0.129 C 
ATOM     13  C   UNL A   1      34.899  22.246  25.442  1.00  0.00     0.027 A 
ATOM     14  N   UNL A   1      35.110  23.564  25.723  1.00  0.00    -0.346 N 
ATOM     15  C   UNL A   1      33.561  22.042  25.292  1.00  0.00     0.011 A 
ATOM     16  C   UNL A   1      32.956  23.352  25.436  1.00  0.00     0.011 A 
BRANCH  15  17
ATOM     17  C   UNL A   1      32.953  20.780  24.893  1.00  0.00    -0.016 A 
ATOM     18  C   UNL A   1      32.586  20.556  23.563  1.00  0.00     0.009 A 
ATOM     19  C   UNL A   1      32.866  19.722  25.809  1.00  0.00     0.009 A 
ATOM     20  C   UNL A   1      32.190  19.279  23.150  1.00  0.00     0.001 A 
ATOM     21  C   UNL A   1      32.510  18.441  25.389  1.00  0.00     0.001 A 
ATOM     22  C   UNL A   1      32.176  18.219  24.057  1.00  0.00     0.000 A 
ENDBRANCH  15  17
BRANCH  16  23
ATOM     23  C   UNL A   1      31.585  23.599  25.015  1.00  0.00    -0.016 A 
ATOM     24  C   UNL A   1      31.303  23.747  23.649  1.00  0.00     0.010 A 
ATOM     25  C   UNL A   1      30.781  24.256  25.956  1.00  0.00     0.010 A 
ATOM     26  C   UNL A   1      30.356  24.693  23.244  1.00  0.00     0.021 A 
ATOM     27  C   UNL A   1      29.799  25.153  25.555  1.00  0.00     0.021 A 
ATOM     28  C   UNL A   1      29.664  25.434  24.202  1.00  0.00     0.041 A 
ATOM     29  Cl  UNL A   1      28.840  26.868  23.743  1.00  0.00    -0.084 Cl
ENDBRANCH  16  23
ENDBRANCH   6   7
ENDBRANCH   4   6
ENDBRANCH   3   4
ENDBRANCH   2   3
ENDBRANCH   1   2
BRANCH   1  30
ATOM     30  O   UNL A   1      33.792  30.470  26.634  1.00  0.00    -0.458 OA
BRANCH  30  31
ATOM     31  C   UNL A   1      34.297  31.237  27.638  1.00  0.00     0.338 C 
ATOM     32  O   UNL A   1      33.734  32.173  28.148  1.00  0.00    -0.246 OA
BRANCH  31  33
ATOM     33  C   UNL A   1      35.649  30.767  28.035  1.00  0.00     0.060 A 
ATOM     34  C   UNL A   1      36.547  31.713  28.535  1.00  0.00     0.016 A 
ATOM     35  C   UNL A   1      36.054  29.441  27.847  1.00  0.00     0.016 A 
ATOM     36  C   UNL A   1      37.876  31.359  28.724  1.00  0.00     0.010 A 
ATOM     37  C   UNL A   1      37.380  29.084  28.053  1.00  0.00     0.010 A 
ATOM     38  C   UNL A   1      38.307  30.056  28.432  1.00  0.00    -0.014 A 
BRANCH  38  39
ATOM     39  C   UNL A   1      39.690  29.693  28.761  1.00  0.00     0.031 A 
ATOM     40  C   UNL A   1      39.964  29.785  30.220  1.00  0.00     0.074 A 
ATOM     41  C   UNL A   1      40.583  29.184  27.884  1.00  0.00     0.049 A 
ATOM     42  N   UNL A   1      40.832  30.529  30.823  1.00  0.00    -0.248 NA
ATOM     43  C   UNL A   1      39.023  29.102  31.131  1.00  0.00     0.031 C 
ATOM     44  C   UNL A   1      40.340  28.864  26.479  1.00  0.00     0.029 A 
ATOM     45  N   UNL A   1      41.870  28.752  28.067  1.00  0.00    -0.354 N 
ATOM     46  C   UNL A   1      40.708  30.209  32.171  1.00  0.00     0.074 A 
ATOM     47  C   UNL A   1      39.455  29.517  32.319  1.00  0.00     0.031 C 
ATOM     48  C   UNL A   1      41.360  28.128  25.994  1.00  0.00     0.029 A 
ATOM     49  C   UNL A   1      42.345  27.937  27.039  1.00  0.00     0.049 A 
ATOM     50  H   UNL A   1      42.410  28.995  28.853  1.00  0.00     0.167 HD
ATOM     51  C   UNL A   1      41.781  30.257  33.003  1.00  0.00     0.037 A 
ATOM     52  C   UNL A   1      43.412  27.092  27.054  1.00  0.00     0.037 A 
ATOM     53  C   UNL A   1      42.818  31.111  32.486  1.00  0.00     0.049 A 
ATOM     54  C   UNL A   1      44.310  27.544  28.149  1.00  0.00     0.074 A 
ATOM     55  C   UNL A   1      42.865  32.436  32.096  1.00  0.00     0.029 A 
ATOM     56  N   UNL A   1      43.934  30.519  31.945  1.00  0.00    -0.354 N 
ATOM     57  N   UNL A   1      44.966  28.673  28.119  1.00  0.00    -0.248 NA
ATOM     58  C   UNL A   1      44.093  26.988  29.477  1.00  0.00     0.031 C 
ATOM     59  C   UNL A   1      43.732  32.461  30.967  1.00  0.00     0.029 A 
ATOM     60  C   UNL A   1      44.224  31.170  30.773  1.00  0.00     0.049 A 
ATOM     61  H   UNL A   1      44.435  29.765  32.330  1.00  0.00     0.167 HD
ATOM     62  C   UNL A   1      44.830  29.189  29.400  1.00  0.00     0.074 A 
ATOM     63  C   UNL A   1      44.357  28.071  30.213  1.00  0.00     0.031 C 
ATOM     64  C   UNL A   1      44.834  30.537  29.624  1.00  0.00     0.037 A 
BRANCH  51  65
ATOM     65  C   UNL A   1      42.025  29.210  34.061  1.00  0.00     0.058 A 
ATOM     66  C   UNL A   1      42.166  27.861  33.689  1.00  0.00     0.135 A 
ATOM     67  C   UNL A   1      41.855  29.448  35.446  1.00  0.00     0.135 A 
ATOM     68  F   UNL A   1      42.299  27.521  32.397  1.00  0.00    -0.206 F 
ATOM     69  C   UNL A   1      42.096  26.823  34.620  1.00  0.00     0.059 A 
ATOM     70  C   UNL A   1      41.845  28.436  36.395  1.00  0.00     0.059 A 
ATOM     71  F   UNL A   1      41.584  30.662  35.940  1.00  0.00    -0.206 F 
ATOM     72  C   UNL A   1      41.926  27.124  35.968  1.00  0.00     0.060 A 
BRANCH  72  73
ATOM     73  S   UNL A   1      41.743  25.792  37.165  1.00  0.00     0.124 S 
ATOM     74  O   UNL A   1      42.809  26.105  38.110  1.00  0.00    -0.237 OA
ATOM     75  O   UNL A   1      40.380  26.001  37.641  1.00  0.00    -0.237 OA
ATOM     76  O   UNL A   1      41.943  24.590  36.361  1.00  0.00    -0.744 OA
ENDBRANCH  72  73
ENDBRANCH  51  65
BRANCH  52  77
ATOM     77  C   UNL A   1      43.517  25.748  26.397  1.00  0.00     0.058 A 
ATOM     78  C   UNL A   1      44.445  25.485  25.370  1.00  0.00     0.135 A 
ATOM     79  C   UNL A   1      42.874  24.606  26.931  1.00  0.00     0.135 A 
ATOM     80  F   UNL A   1      45.128  26.492  24.804  1.00  0.00    -0.206 F 
ATOM     81  C   UNL A   1      44.749  24.181  24.940  1.00  0.00     0.059 A 
ATOM     82  C   UNL A   1      43.144  23.307  26.505  1.00  0.00     0.059 A 
ATOM     83  F   UNL A   1      42.020  24.699  27.959  1.00  0.00    -0.206 F 
ATOM     84  C   UNL A   1      44.107  23.095  25.533  1.00  0.00     0.060 A 
BRANCH  84  85
ATOM     85  S   UNL A   1      44.629  21.405  25.148  1.00  0.00     0.124 S 
ATOM     86  O   UNL A   1      45.974  21.365  25.711  1.00  0.00    -0.237 OA
ATOM     87  O   UNL A   1      43.623  20.605  25.837  1.00  0.00    -0.237 OA
ATOM     88  O   UNL A   1      44.564  21.355  23.688  1.00  0.00    -0.744 OA
ENDBRANCH  84  85
ENDBRANCH  52  77
BRANCH  64  89
ATOM     89  C   UNL A   1      45.297  31.454  28.520  1.00  0.00     0.058 A 
ATOM     90  C   UNL A   1      44.537  31.793  27.385  1.00  0.00     0.135 A 
ATOM     91  C   UNL A   1      46.498  32.155  28.714  1.00  0.00     0.135 A 
ATOM     92  F   UNL A   1      43.331  31.246  27.175  1.00  0.00    -0.206 F 
ATOM     93  C   UNL A   1      44.969  32.759  26.471  1.00  0.00     0.059 A 
ATOM     94  C   UNL A   1      46.933  33.142  27.835  1.00  0.00     0.059 A 
ATOM     95  F   UNL A   1      47.241  31.923  29.809  1.00  0.00    -0.206 F 
ATOM     96  C   UNL A   1      46.169  33.431  26.707  1.00  0.00     0.060 A 
BRANCH  96  97
ATOM     97  S   UNL A   1      46.694  34.735  25.571  1.00  0.00     0.124 S 
ATOM     98  O   UNL A   1      45.702  34.633  24.506  1.00  0.00    -0.237 OA
ATOM     99  O   UNL A   1      46.615  35.935  26.400  1.00  0.00    -0.237 OA
ATOM    100  O   UNL A   1      48.051  34.337  25.199  1.00  0.00    -0.744 OA
ENDBRANCH  96  97
ENDBRANCH  64  89
ENDBRANCH  38  39
ENDBRANCH  31  33
ENDBRANCH  30  31
ENDBRANCH   1  30
TORSDOF 17
ENDMDL
MODEL 2
REMARK VINA RESULT:     -13.0      1.391      2.875
REMARK SMILES CC1(C)Cc2c(-c3ccccc3)c(-c3ccc(Cl)cc3)c(CC(=O)OCCOC(=O)c3ccc(-c4c5nc(c(-c6c(F)cc(S(=O)(=O)[O-])cc6F)c6ccc([nH]6)c(-c6c(F)cc(S(=O)(=O)[O-])cc6F)c6nc(c(-c7c(F)cc(S(=O)(=O)[O-])cc7F)c7ccc4[nH]7)C=C6)C=C5)cc3)n2C1
REMARK SMILES IDX 27 1 26 2 25 3 23 4 24 5 22 6 21 7 1 8 2 9 3 10 4 11 98 12
REMARK SMILES IDX 5 13 97 14 6 15 13 16 7 17 8 18 12 19 9 20 11 21 10 22 14 23
REMARK SMILES IDX 15 24 20 25 16 26 19 27 17 28 18 29 28 30 29 31 30 32 31 33
REMARK SMILES IDX 32 34 96 35 33 36 95 37 34 38 35 39 36 40 89 41 37 42 94 43
REMARK SMILES IDX 88 44 90 45 38 46 93 47 87 48 86 49 39 51 73 52 52 53 72 54
REMARK SMILES IDX 53 55 56 56 71 57 91 58 54 59 55 60 70 62 92 63 57 64 40 65
REMARK SMILES IDX 41 66 50 67 42 68 43 69 49 70 51 71 44 72 45 73 46 74 47 75
REMARK SMILES IDX 48 76 74 77 75 78 84 79 76 80 77 81 83 82 85 83 78 84 79 85
REMARK SMILES IDX 80 86 81 87 82 88 58 89 59 90 68 91 60 92 61 93 67 94 69 95
REMARK SMILES IDX 62 96 63 97 64 98 65 99 66 100
REMARK H PARENT 90 50 56 61
REMARK Flexibility Score: inf
ROOT
ATOM      1  C   UNL A   1      32.576  30.500  26.433  1.00  0.00     0.275 C 
ENDROOT
BRANCH   1   2
ATOM      2  C   UNL A   1      32.494  29.299  25.488  1.00  0.00     0.274 C 
BRANCH   2   3
ATOM      3  O   UNL A   1      33.358  29.513  24.356  1.00  0.00    -0.462 OA
BRANCH   3   4
ATOM      4  C   UNL A   1      33.637  28.440  23.576  1.00  0.00     0.311 C 
ATOM      5  O   UNL A   1      33.585  28.459  22.347  1.00  0.00    -0.252 OA
BRANCH   4   6
ATOM      6  C   UNL A   1      34.121  27.224  24.344  1.00  0.00     0.177 C 
BRANCH   6   7
ATOM      7  C   UNL A   1      33.341  25.938  24.222  1.00  0.00     0.037 A 
ATOM      8  C   UNL A   1      28.427  26.616  23.896  1.00  0.00     0.013 C 
ATOM      9  C   UNL A   1      29.671  26.024  24.555  1.00  0.00    -0.012 C 
ATOM     10  C   UNL A   1      29.436  25.860  26.067  1.00  0.00     0.013 C 
ATOM     11  C   UNL A   1      30.014  24.643  23.916  1.00  0.00     0.063 C 
ATOM     12  C   UNL A   1      30.928  26.912  24.307  1.00  0.00     0.129 C 
ATOM     13  C   UNL A   1      31.485  24.673  23.900  1.00  0.00     0.027 A 
ATOM     14  N   UNL A   1      31.981  25.924  24.116  1.00  0.00    -0.346 N 
ATOM     15  C   UNL A   1      32.528  23.801  23.818  1.00  0.00     0.011 A 
ATOM     16  C   UNL A   1      33.714  24.598  24.066  1.00  0.00     0.011 A 
BRANCH  15  17
ATOM     17  C   UNL A   1      32.394  22.356  23.687  1.00  0.00    -0.016 A 
ATOM     18  C   UNL A   1      32.192  21.771  22.434  1.00  0.00     0.009 A 
ATOM     19  C   UNL A   1      32.617  21.528  24.796  1.00  0.00     0.009 A 
ATOM     20  C   UNL A   1      32.264  20.381  22.289  1.00  0.00     0.001 A 
ATOM     21  C   UNL A   1      32.728  20.145  24.645  1.00  0.00     0.001 A 
ATOM     22  C   UNL A   1      32.555  19.572  23.389  1.00  0.00     0.000 A 
ENDBRANCH  15  17
BRANCH  16  23
ATOM     23  C   UNL A   1      34.988  23.972  24.389  1.00  0.00    -0.016 A 
ATOM     24  C   UNL A   1      35.748  23.394  23.362  1.00  0.00     0.010 A 
ATOM     25  C   UNL A   1      35.087  23.457  25.689  1.00  0.00     0.010 A 
ATOM     26  C   UNL A   1      36.437  22.202  23.609  1.00  0.00     0.021 A 
ATOM     27  C   UNL A   1      35.820  22.305  25.947  1.00  0.00     0.021 A 
ATOM     28  C   UNL A   1      36.407  21.636  24.883  1.00  0.00     0.041 A 
ATOM     29  Cl  UNL A   1      36.864  19.995  25.101  1.00  0.00    -0.084 Cl
ENDBRANCH  16  23
ENDBRANCH   6   7
ENDBRANCH   4   6
ENDBRANCH   3   4
ENDBRANCH   2   3
ENDBRANCH   1   2
BRANCH   1  30
ATOM     30  O   UNL A   1      33.498  30.334  27.527  1.00  0.00    -0.458 OA
BRANCH  30  31
ATOM     31  C   UNL A   1      34.352  31.369  27.757  1.00  0.00     0.338 C 
ATOM     32  O   UNL A   1      34.067  32.536  27.666  1.00  0.00    -0.246 OA
BRANCH  31  33
ATOM     33  C   UNL A   1      35.696  30.872  28.144  1.00  0.00     0.060 A 
ATOM     34  C   UNL A   1      36.613  31.796  28.651  1.00  0.00     0.016 A 
ATOM     35  C   UNL A   1      36.078  29.540  27.940  1.00  0.00     0.016 A 
ATOM     36  C   UNL A   1      37.936  31.417  28.831  1.00  0.00     0.010 A 
ATOM     37  C   UNL A   1      37.399  29.159  28.136  1.00  0.00     0.010 A 
ATOM     38  C   UNL A   1      38.343  30.110  28.523  1.00  0.00    -0.014 A 
BRANCH  38  39
ATOM     39  C   UNL A   1      39.721  29.720  28.843  1.00  0.00     0.031 A 
ATOM     40  C   UNL A   1      39.996  29.773  30.304  1.00  0.00     0.074 A 
ATOM     41  C   UNL A   1      40.607  29.220  27.954  1.00  0.00     0.049 A 
ATOM     42  N   UNL A   1      40.874  30.490  30.924  1.00  0.00    -0.248 NA
ATOM     43  C   UNL A   1      39.046  29.082  31.198  1.00  0.00     0.031 C 
ATOM     44  C   UNL A   1      40.360  28.937  26.542  1.00  0.00     0.029 A 
ATOM     45  N   UNL A   1      41.887  28.766  28.125  1.00  0.00    -0.354 N 
ATOM     46  C   UNL A   1      40.746  30.140  32.264  1.00  0.00     0.074 A 
ATOM     47  C   UNL A   1      39.484  29.462  32.396  1.00  0.00     0.031 C 
ATOM     48  C   UNL A   1      41.369  28.199  26.039  1.00  0.00     0.029 A 
ATOM     49  C   UNL A   1      42.352  27.969  27.078  1.00  0.00     0.049 A 
ATOM     50  H   UNL A   1      42.431  28.982  28.917  1.00  0.00     0.167 HD
ATOM     51  C   UNL A   1      41.820  30.152  33.097  1.00  0.00     0.037 A 
ATOM     52  C   UNL A   1      43.407  27.109  27.073  1.00  0.00     0.037 A 
ATOM     53  C   UNL A   1      42.868  31.004  32.600  1.00  0.00     0.049 A 
ATOM     54  C   UNL A   1      44.310  27.522  28.178  1.00  0.00     0.074 A 
ATOM     55  C   UNL A   1      42.934  32.337  32.242  1.00  0.00     0.029 A 
ATOM     56  N   UNL A   1      43.976  30.410  32.045  1.00  0.00    -0.354 N 
ATOM     57  N   UNL A   1      44.982  28.642  28.175  1.00  0.00    -0.248 NA
ATOM     58  C   UNL A   1      44.086  26.937  29.492  1.00  0.00     0.031 C 
ATOM     59  C   UNL A   1      43.801  32.377  31.113  1.00  0.00     0.029 A 
ATOM     60  C   UNL A   1      44.275  31.085  30.889  1.00  0.00     0.049 A 
ATOM     61  H   UNL A   1      44.466  29.640  32.412  1.00  0.00     0.167 HD
ATOM     62  C   UNL A   1      44.853  29.129  29.468  1.00  0.00     0.074 A 
ATOM     63  C   UNL A   1      44.364  27.998  30.254  1.00  0.00     0.031 C 
ATOM     64  C   UNL A   1      44.876  30.471  29.725  1.00  0.00     0.037 A 
BRANCH  51  65
ATOM     65  C   UNL A   1      42.048  29.077  34.129  1.00  0.00     0.058 A 
ATOM     66  C   UNL A   1      42.249  27.746  33.719  1.00  0.00     0.135 A 
ATOM     67  C   UNL A   1      41.808  29.261  35.511  1.00  0.00     0.135 A 
ATOM     68  F   UNL A   1      42.451  27.456  32.424  1.00  0.00    -0.206 F 
ATOM     69  C   UNL A   1      42.170  26.675  34.610  1.00  0.00     0.059 A 
ATOM     70  C   UNL A   1      41.788  28.217  36.425  1.00  0.00     0.059 A 
ATOM     71  F   UNL A   1      41.478  30.448  36.033  1.00  0.00    -0.206 F 
ATOM     72  C   UNL A   1      41.930  26.923  35.959  1.00  0.00     0.060 A 
BRANCH  72  73
ATOM     73  S   UNL A   1      41.736  25.545  37.100  1.00  0.00     0.124 S 
ATOM     74  O   UNL A   1      40.474  25.883  37.748  1.00  0.00    -0.237 OA
ATOM     75  O   UNL A   1      41.706  24.404  36.191  1.00  0.00    -0.237 OA
ATOM     76  O   UNL A   1      42.924  25.637  37.942  1.00  0.00    -0.744 OA
ENDBRANCH  72  73
ENDBRANCH  51  65
BRANCH  52  77
ATOM     77  C   UNL A   1      43.492  25.780  26.384  1.00  0.00     0.058 A 
ATOM     78  C   UNL A   1      44.431  25.522  25.365  1.00  0.00     0.135 A 
ATOM     79  C   UNL A   1      42.816  24.640  26.878  1.00  0.00     0.135 A 
ATOM     80  F   UNL A   1      45.146  26.528  24.836  1.00  0.00    -0.206 F 
ATOM     81  C   UNL A   1      44.714  24.223  24.907  1.00  0.00     0.059 A 
ATOM     82  C   UNL A   1      43.064  23.346  26.424  1.00  0.00     0.059 A 
ATOM     83  F   UNL A   1      41.948  24.725  27.895  1.00  0.00    -0.206 F 
ATOM     84  C   UNL A   1      44.038  23.137  25.461  1.00  0.00     0.060 A 
BRANCH  84  85
ATOM     85  S   UNL A   1      44.529  21.446  25.042  1.00  0.00     0.124 S 
ATOM     86  O   UNL A   1      44.506  21.474  23.584  1.00  0.00    -0.237 OA
ATOM     87  O   UNL A   1      45.847  21.345  25.659  1.00  0.00    -0.237 OA
ATOM     88  O   UNL A   1      43.491  20.627  25.665  1.00  0.00    -0.744 OA
ENDBRANCH  84  85
ENDBRANCH  52  77
BRANCH  64  89
ATOM     89  C   UNL A   1      45.353  31.408  28.643  1.00  0.00     0.058 A 
ATOM     90  C   UNL A   1      44.559  31.876  27.579  1.00  0.00     0.135 A 
ATOM     91  C   UNL A   1      46.620  31.991  28.795  1.00  0.00     0.135 A 
ATOM     92  F   UNL A   1      43.299  31.447  27.419  1.00  0.00    -0.206 F 
ATOM     93  C   UNL A   1      45.020  32.853  26.691  1.00  0.00     0.059 A 
ATOM     94  C   UNL A   1      47.088  32.986  27.943  1.00  0.00     0.059 A 
ATOM     95  F   UNL A   1      47.404  31.633  29.827  1.00  0.00    -0.206 F 
ATOM     96  C   UNL A   1      46.287  33.405  26.884  1.00  0.00     0.060 A 
BRANCH  96  97
ATOM     97  S   UNL A   1      46.857  34.723  25.787  1.00  0.00     0.124 S 
ATOM     98  O   UNL A   1      45.874  34.674  24.710  1.00  0.00    -0.237 OA
ATOM     99  O   UNL A   1      46.800  35.904  26.645  1.00  0.00    -0.237 OA
ATOM    100  O   UNL A   1      48.207  34.300  25.418  1.00  0.00    -0.744 OA
ENDBRANCH  96  97
ENDBRANCH  64  89
ENDBRANCH  38  39
ENDBRANCH  31  33
ENDBRANCH  30  31
ENDBRANCH   1  30
TORSDOF 17
ENDMDL
MODEL 3
REMARK VINA RESULT:     -12.9      2.856      9.055
REMARK SMILES CC1(C)Cc2c(-c3ccccc3)c(-c3ccc(Cl)cc3)c(CC(=O)OCCOC(=O)c3ccc(-c4c5nc(c(-c6c(F)cc(S(=O)(=O)[O-])cc6F)c6ccc([nH]6)c(-c6c(F)cc(S(=O)(=O)[O-])cc6F)c6nc(c(-c7c(F)cc(S(=O)(=O)[O-])cc7F)c7ccc4[nH]7)C=C6)C=C5)cc3)n2C1
REMARK SMILES IDX 27 1 26 2 25 3 23 4 24 5 22 6 21 7 1 8 2 9 3 10 4 11 98 12
REMARK SMILES IDX 5 13 97 14 6 15 13 16 7 17 8 18 12 19 9 20 11 21 10 22 14 23
REMARK SMILES IDX 15 24 20 25 16 26 19 27 17 28 18 29 28 30 29 31 30 32 31 33
REMARK SMILES IDX 32 34 96 35 33 36 95 37 34 38 35 39 36 40 89 41 37 42 94 43
REMARK SMILES IDX 88 44 90 45 38 46 93 47 87 48 86 49 39 51 73 52 52 53 72 54
REMARK SMILES IDX 53 55 56 56 71 57 91 58 54 59 55 60 70 62 92 63 57 64 40 65
REMARK SMILES IDX 41 66 50 67 42 68 43 69 49 70 51 71 44 72 45 73 46 74 47 75
REMARK SMILES IDX 48 76 74 77 75 78 84 79 76 80 77 81 83 82 85 83 78 84 79 85
REMARK SMILES IDX 80 86 81 87 82 88 58 89 59 90 68 91 60 92 61 93 67 94 69 95
REMARK SMILES IDX 62 96 63 97 64 98 65 99 66 100
REMARK H PARENT 90 50 56 61
REMARK Flexibility Score: inf
ROOT
ATOM      1  C   UNL A   1      37.233  21.241  25.592  1.00  0.00     0.275 C 
ENDROOT
BRANCH   1   2
ATOM      2  C   UNL A   1      35.927  22.039  25.640  1.00  0.00     0.274 C 
BRANCH   2   3
ATOM      3  O   UNL A   1      35.183  21.680  26.820  1.00  0.00    -0.462 OA
BRANCH   3   4
ATOM      4  C   UNL A   1      34.185  22.514  27.203  1.00  0.00     0.311 C 
ATOM      5  O   UNL A   1      33.295  22.195  27.988  1.00  0.00    -0.252 OA
BRANCH   4   6
ATOM      6  C   UNL A   1      34.312  23.923  26.655  1.00  0.00     0.177 C 
BRANCH   6   7
ATOM      7  C   UNL A   1      33.225  24.444  25.748  1.00  0.00     0.037 A 
ATOM      8  C   UNL A   1      31.873  21.220  22.213  1.00  0.00     0.013 C 
ATOM      9  C   UNL A   1      32.399  22.576  22.679  1.00  0.00    -0.012 C 
ATOM     10  C   UNL A   1      33.361  23.156  21.627  1.00  0.00     0.013 C 
ATOM     11  C   UNL A   1      31.213  23.562  22.917  1.00  0.00     0.063 C 
ATOM     12  C   UNL A   1      33.121  22.468  24.056  1.00  0.00     0.129 C 
ATOM     13  C   UNL A   1      31.669  24.306  24.101  1.00  0.00     0.027 A 
ATOM     14  N   UNL A   1      32.720  23.698  24.723  1.00  0.00    -0.346 N 
ATOM     15  C   UNL A   1      31.415  25.485  24.733  1.00  0.00     0.011 A 
ATOM     16  C   UNL A   1      32.433  25.598  25.759  1.00  0.00     0.011 A 
BRANCH  15  17
ATOM     17  C   UNL A   1      30.425  26.463  24.299  1.00  0.00    -0.016 A 
ATOM     18  C   UNL A   1      30.813  27.597  23.581  1.00  0.00     0.009 A 
ATOM     19  C   UNL A   1      29.058  26.199  24.469  1.00  0.00     0.009 A 
ATOM     20  C   UNL A   1      29.844  28.423  22.999  1.00  0.00     0.001 A 
ATOM     21  C   UNL A   1      28.095  27.000  23.855  1.00  0.00     0.001 A 
ATOM     22  C   UNL A   1      28.489  28.110  23.115  1.00  0.00     0.000 A 
ENDBRANCH  15  17
BRANCH  16  23
ATOM     23  C   UNL A   1      32.697  26.867  26.422  1.00  0.00    -0.016 A 
ATOM     24  C   UNL A   1      31.741  27.391  27.304  1.00  0.00     0.010 A 
ATOM     25  C   UNL A   1      33.537  27.743  25.722  1.00  0.00     0.010 A 
ATOM     26  C   UNL A   1      31.512  28.772  27.323  1.00  0.00     0.021 A 
ATOM     27  C   UNL A   1      33.349  29.118  25.786  1.00  0.00     0.021 A 
ATOM     28  C   UNL A   1      32.274  29.611  26.512  1.00  0.00     0.041 A 
ATOM     29  Cl  UNL A   1      31.739  31.212  26.195  1.00  0.00    -0.084 Cl
ENDBRANCH  16  23
ENDBRANCH   6   7
ENDBRANCH   4   6
ENDBRANCH   3   4
ENDBRANCH   2   3
ENDBRANCH   1   2
BRANCH   1  30
ATOM     30  O   UNL A   1      38.405  22.034  25.324  1.00  0.00    -0.458 OA
BRANCH  30  31
ATOM     31  C   UNL A   1      39.450  21.871  26.180  1.00  0.00     0.338 C 
ATOM     32  O   UNL A   1      39.981  20.820  26.434  1.00  0.00    -0.246 OA
BRANCH  31  33
ATOM     33  C   UNL A   1      39.862  23.171  26.768  1.00  0.00     0.060 A 
ATOM     34  C   UNL A   1      41.016  23.194  27.556  1.00  0.00     0.016 A 
ATOM     35  C   UNL A   1      39.089  24.328  26.616  1.00  0.00     0.016 A 
ATOM     36  C   UNL A   1      41.321  24.335  28.286  1.00  0.00     0.010 A 
ATOM     37  C   UNL A   1      39.405  25.473  27.335  1.00  0.00     0.010 A 
ATOM     38  C   UNL A   1      40.486  25.459  28.218  1.00  0.00    -0.014 A 
BRANCH  38  39
ATOM     39  C   UNL A   1      40.911  26.682  28.910  1.00  0.00     0.031 A 
ATOM     40  C   UNL A   1      42.135  27.273  28.307  1.00  0.00     0.074 A 
ATOM     41  C   UNL A   1      40.206  27.301  29.882  1.00  0.00     0.049 A 
ATOM     42  N   UNL A   1      43.280  27.479  28.868  1.00  0.00    -0.248 NA
ATOM     43  C   UNL A   1      42.136  27.483  26.846  1.00  0.00     0.031 C 
ATOM     44  C   UNL A   1      38.895  26.910  30.395  1.00  0.00     0.029 A 
ATOM     45  N   UNL A   1      40.454  28.464  30.563  1.00  0.00    -0.354 N 
ATOM     46  C   UNL A   1      44.061  28.081  27.887  1.00  0.00     0.074 A 
ATOM     47  C   UNL A   1      43.397  27.851  26.631  1.00  0.00     0.031 C 
ATOM     48  C   UNL A   1      38.384  27.901  31.151  1.00  0.00     0.029 A 
ATOM     49  C   UNL A   1      39.333  28.994  31.204  1.00  0.00     0.049 A 
ATOM     50  H   UNL A   1      41.342  28.887  30.597  1.00  0.00     0.167 HD
ATOM     51  C   UNL A   1      45.019  28.988  28.213  1.00  0.00     0.037 A 
ATOM     52  C   UNL A   1      39.144  30.260  31.669  1.00  0.00     0.037 A 
ATOM     53  C   UNL A   1      45.442  28.846  29.582  1.00  0.00     0.049 A 
ATOM     54  C   UNL A   1      40.492  30.858  31.863  1.00  0.00     0.074 A 
ATOM     55  C   UNL A   1      45.958  27.800  30.324  1.00  0.00     0.029 A 
ATOM     56  N   UNL A   1      45.004  29.775  30.494  1.00  0.00    -0.354 N 
ATOM     57  N   UNL A   1      41.334  30.448  32.773  1.00  0.00    -0.248 NA
ATOM     58  C   UNL A   1      41.088  31.564  30.739  1.00  0.00     0.031 C 
ATOM     59  C   UNL A   1      45.378  27.940  31.617  1.00  0.00     0.029 A 
ATOM     60  C   UNL A   1      44.601  29.098  31.617  1.00  0.00     0.049 A 
ATOM     61  H   UNL A   1      44.983  30.751  30.365  1.00  0.00     0.167 HD
ATOM     62  C   UNL A   1      42.561  30.424  32.127  1.00  0.00     0.074 A 
ATOM     63  C   UNL A   1      42.363  31.201  30.904  1.00  0.00     0.031 C 
ATOM     64  C   UNL A   1      43.538  29.542  32.493  1.00  0.00     0.037 A 
BRANCH  51  65
ATOM     65  C   UNL A   1      45.252  30.238  27.402  1.00  0.00     0.058 A 
ATOM     66  C   UNL A   1      46.558  30.576  27.001  1.00  0.00     0.135 A 
ATOM     67  C   UNL A   1      44.279  31.252  27.236  1.00  0.00     0.135 A 
ATOM     68  F   UNL A   1      47.564  29.700  27.146  1.00  0.00    -0.206 F 
ATOM     69  C   UNL A   1      46.879  31.845  26.516  1.00  0.00     0.059 A 
ATOM     70  C   UNL A   1      44.564  32.498  26.698  1.00  0.00     0.059 A 
ATOM     71  F   UNL A   1      43.024  31.125  27.684  1.00  0.00    -0.206 F 
ATOM     72  C   UNL A   1      45.875  32.800  26.378  1.00  0.00     0.060 A 
BRANCH  72  73
ATOM     73  S   UNL A   1      46.293  34.465  25.840  1.00  0.00     0.124 S 
ATOM     74  O   UNL A   1      47.721  34.333  25.577  1.00  0.00    -0.237 OA
ATOM     75  O   UNL A   1      45.437  34.627  24.669  1.00  0.00    -0.237 OA
ATOM     76  O   UNL A   1      45.935  35.289  26.990  1.00  0.00    -0.744 OA
ENDBRANCH  72  73
ENDBRANCH  51  65
BRANCH  52  77
ATOM     77  C   UNL A   1      37.878  31.063  31.632  1.00  0.00     0.058 A 
ATOM     78  C   UNL A   1      37.127  31.332  32.793  1.00  0.00     0.135 A 
ATOM     79  C   UNL A   1      37.498  31.801  30.487  1.00  0.00     0.135 A 
ATOM     80  F   UNL A   1      37.414  30.703  33.944  1.00  0.00    -0.206 F 
ATOM     81  C   UNL A   1      36.107  32.299  32.827  1.00  0.00     0.059 A 
ATOM     82  C   UNL A   1      36.476  32.749  30.492  1.00  0.00     0.059 A 
ATOM     83  F   UNL A   1      38.169  31.699  29.332  1.00  0.00    -0.206 F 
ATOM     84  C   UNL A   1      35.805  33.020  31.672  1.00  0.00     0.060 A 
BRANCH  84  85
ATOM     85  S   UNL A   1      34.647  34.410  31.741  1.00  0.00     0.124 S 
ATOM     86  O   UNL A   1      33.516  33.830  32.457  1.00  0.00    -0.237 OA
ATOM     87  O   UNL A   1      35.415  35.417  32.465  1.00  0.00    -0.237 OA
ATOM     88  O   UNL A   1      34.401  34.716  30.333  1.00  0.00    -0.744 OA
ENDBRANCH  84  85
ENDBRANCH  52  77
BRANCH  64  89
ATOM     89  C   UNL A   1      43.395  28.805  33.801  1.00  0.00     0.058 A 
ATOM     90  C   UNL A   1      42.580  27.676  34.002  1.00  0.00     0.135 A 
ATOM     91  C   UNL A   1      44.261  29.160  34.848  1.00  0.00     0.135 A 
ATOM     92  F   UNL A   1      41.797  27.208  33.020  1.00  0.00    -0.206 F 
ATOM     93  C   UNL A   1      42.602  26.956  35.200  1.00  0.00     0.059 A 
ATOM     94  C   UNL A   1      44.323  28.440  36.037  1.00  0.00     0.059 A 
ATOM     95  F   UNL A   1      45.110  30.190  34.697  1.00  0.00    -0.206 F 
ATOM     96  C   UNL A   1      43.481  27.345  36.213  1.00  0.00     0.060 A 
BRANCH  96  97
ATOM     97  S   UNL A   1      43.570  26.372  37.733  1.00  0.00     0.124 S 
ATOM     98  O   UNL A   1      42.163  26.241  38.097  1.00  0.00    -0.237 OA
ATOM     99  O   UNL A   1      44.228  25.145  37.292  1.00  0.00    -0.237 OA
ATOM    100  O   UNL A   1      44.369  27.208  38.627  1.00  0.00    -0.744 OA
ENDBRANCH  96  97
ENDBRANCH  64  89
ENDBRANCH  38  39
ENDBRANCH  31  33
ENDBRANCH  30  31
ENDBRANCH   1  30
TORSDOF 17
ENDMDL
