MODEL 1
REMARK VINA RESULT:     -11.4      0.000      0.000
REMARK SMILES CC[C@@H](C)[C@@H](NC(=O)Cn1ncc2ccccc2c1=O)C(=O)OCCOC(=O)c1ccc(-c2c3nc(c(-c4c(F)cc(S(=O)(=O)[O-])cc4F)c4ccc([nH]4)c(-c4c(F)cc(S(=O)(=O)[O-])cc4F)c4nc(c(-c5c(F)cc(S(=O)(=O)[O-])cc5F)c5ccc2[nH]5)C=C4)C=C3)cc1
REMARK SMILES IDX 24 1 23 2 21 3 22 4 5 5 3 6 4 7 2 8 1 9 6 10 7 11 8 13 9 14
REMARK SMILES IDX 10 15 11 16 19 17 12 18 18 19 20 20 13 21 17 22 14 23 16 24
REMARK SMILES IDX 15 25 25 26 26 27 27 28 28 29 29 30 30 31 94 32 31 33 93 34
REMARK SMILES IDX 32 35 33 36 34 37 87 38 35 39 92 40 86 41 88 42 36 43 91 44
REMARK SMILES IDX 85 45 84 46 37 48 71 49 50 50 70 51 51 52 54 53 69 54 89 55
REMARK SMILES IDX 52 56 53 57 68 59 90 60 55 61 38 62 39 63 48 64 40 65 41 66
REMARK SMILES IDX 47 67 49 68 42 69 43 70 44 71 45 72 46 73 72 74 73 75 82 76
REMARK SMILES IDX 74 77 75 78 81 79 83 80 76 81 77 82 78 83 79 84 80 85 56 86
REMARK SMILES IDX 57 87 66 88 58 89 59 90 65 91 67 92 60 93 61 94 62 95 63 96
REMARK SMILES IDX 64 97
REMARK H PARENT 6 12 88 47 54 58
REMARK Flexibility Score: inf
ROOT
ATOM      1  C   UNL A   1      32.737  29.157  25.404  1.00  0.00     0.274 C 
ENDROOT
BRANCH   1   2
ATOM      2  O   UNL A   1      31.407  29.072  24.830  1.00  0.00    -0.461 OA
BRANCH   2   3
ATOM      3  C   UNL A   1      31.341  28.555  23.577  1.00  0.00     0.329 C 
ATOM      4  O   UNL A   1      31.267  29.248  22.564  1.00  0.00    -0.250 OA
BRANCH   3   5
ATOM      5  C   UNL A   1      31.240  27.017  23.487  1.00  0.00     0.195 C 
BRANCH   5   6
ATOM      6  C   UNL A   1      30.043  26.149  23.979  1.00  0.00     0.019 C 
ATOM      7  C   UNL A   1      28.675  26.786  23.756  1.00  0.00     0.010 C 
BRANCH   6   8
ATOM      8  C   UNL A   1      30.222  25.791  25.484  1.00  0.00     0.002 C 
ATOM      9  C   UNL A   1      31.676  25.700  25.940  1.00  0.00     0.004 C 
ENDBRANCH   6   8
ENDBRANCH   5   6
BRANCH   5  10
ATOM     10  N   UNL A   1      31.793  26.543  22.201  1.00  0.00    -0.341 N 
ATOM     11  C   UNL A   1      32.947  25.899  21.860  1.00  0.00     0.242 C 
ATOM     12  H   UNL A   1      31.209  26.732  21.431  1.00  0.00     0.164 HD
ATOM     13  O   UNL A   1      33.175  25.805  20.646  1.00  0.00    -0.273 OA
BRANCH  11  14
ATOM     14  C   UNL A   1      33.817  25.125  22.861  1.00  0.00     0.248 C 
BRANCH  14  15
ATOM     15  N   UNL A   1      33.369  23.835  23.369  1.00  0.00    -0.220 N 
ATOM     16  N   UNL A   1      32.102  23.422  23.060  1.00  0.00    -0.177 NA
ATOM     17  C   UNL A   1      34.229  23.107  24.196  1.00  0.00     0.275 A 
ATOM     18  C   UNL A   1      31.804  22.177  23.255  1.00  0.00     0.142 A 
ATOM     19  C   UNL A   1      33.902  21.674  24.359  1.00  0.00     0.050 A 
ATOM     20  O   UNL A   1      35.268  23.546  24.680  1.00  0.00    -0.267 OA
ATOM     21  C   UNL A   1      32.732  21.197  23.792  1.00  0.00     0.007 A 
ATOM     22  C   UNL A   1      34.817  20.776  24.917  1.00  0.00     0.014 A 
ATOM     23  C   UNL A   1      32.469  19.830  23.711  1.00  0.00     0.010 A 
ATOM     24  C   UNL A   1      34.563  19.403  24.850  1.00  0.00     0.001 A 
ATOM     25  C   UNL A   1      33.400  18.931  24.232  1.00  0.00     0.001 A 
ENDBRANCH  14  15
ENDBRANCH  11  14
ENDBRANCH   5  10
ENDBRANCH   3   5
ENDBRANCH   2   3
ENDBRANCH   1   2
BRANCH   1  26
ATOM     26  C   UNL A   1      32.687  29.684  26.835  1.00  0.00     0.275 C 
BRANCH  26  27
ATOM     27  O   UNL A   1      33.953  29.421  27.450  1.00  0.00    -0.458 OA
BRANCH  27  28
ATOM     28  C   UNL A   1      34.539  30.499  28.021  1.00  0.00     0.338 C 
ATOM     29  O   UNL A   1      34.012  31.516  28.408  1.00  0.00    -0.246 OA
BRANCH  28  30
ATOM     30  C   UNL A   1      35.927  30.107  28.292  1.00  0.00     0.060 A 
ATOM     31  C   UNL A   1      36.857  30.113  27.257  1.00  0.00     0.016 A 
ATOM     32  C   UNL A   1      36.272  29.678  29.579  1.00  0.00     0.016 A 
ATOM     33  C   UNL A   1      38.149  29.680  27.520  1.00  0.00     0.010 A 
ATOM     34  C   UNL A   1      37.568  29.255  29.845  1.00  0.00     0.010 A 
ATOM     35  C   UNL A   1      38.509  29.260  28.814  1.00  0.00    -0.014 A 
BRANCH  35  36
ATOM     36  C   UNL A   1      39.922  28.938  29.079  1.00  0.00     0.031 A 
ATOM     37  C   UNL A   1      40.473  27.589  28.752  1.00  0.00     0.074 A 
ATOM     38  C   UNL A   1      40.697  29.939  29.536  1.00  0.00     0.049 A 
ATOM     39  N   UNL A   1      41.722  27.212  28.705  1.00  0.00    -0.248 NA
ATOM     40  C   UNL A   1      39.507  26.523  28.436  1.00  0.00     0.031 C 
ATOM     41  C   UNL A   1      40.206  31.269  29.915  1.00  0.00     0.029 A 
ATOM     42  N   UNL A   1      42.050  30.018  29.714  1.00  0.00    -0.354 N 
ATOM     43  C   UNL A   1      41.699  25.880  28.315  1.00  0.00     0.074 A 
ATOM     44  C   UNL A   1      40.310  25.493  28.199  1.00  0.00     0.031 C 
ATOM     45  C   UNL A   1      41.252  32.052  30.214  1.00  0.00     0.029 A 
ATOM     46  C   UNL A   1      42.477  31.276  30.068  1.00  0.00     0.049 A 
ATOM     47  H   UNL A   1      42.657  29.251  29.600  1.00  0.00     0.167 HD
ATOM     48  C   UNL A   1      42.755  25.075  28.052  1.00  0.00     0.037 A 
ATOM     49  C   UNL A   1      43.725  31.751  30.226  1.00  0.00     0.037 A 
ATOM     50  C   UNL A   1      44.125  25.497  28.189  1.00  0.00     0.049 A 
ATOM     51  C   UNL A   1      44.874  30.821  29.952  1.00  0.00     0.074 A 
ATOM     52  C   UNL A   1      45.278  24.773  27.944  1.00  0.00     0.029 A 
ATOM     53  N   UNL A   1      44.526  26.759  28.611  1.00  0.00    -0.354 N 
ATOM     54  N   UNL A   1      44.842  29.581  29.522  1.00  0.00    -0.248 NA
ATOM     55  C   UNL A   1      46.223  31.350  30.178  1.00  0.00     0.031 C 
ATOM     56  C   UNL A   1      46.374  25.583  28.257  1.00  0.00     0.029 A 
ATOM     57  C   UNL A   1      45.908  26.828  28.651  1.00  0.00     0.049 A 
ATOM     58  H   UNL A   1      43.918  27.495  28.846  1.00  0.00     0.167 HD
ATOM     59  C   UNL A   1      46.168  29.185  29.412  1.00  0.00     0.074 A 
ATOM     60  C   UNL A   1      46.975  30.328  29.795  1.00  0.00     0.031 C 
ATOM     61  C   UNL A   1      46.677  27.986  29.037  1.00  0.00     0.037 A 
BRANCH  48  62
ATOM     62  C   UNL A   1      42.486  23.681  27.562  1.00  0.00     0.058 A 
ATOM     63  C   UNL A   1      42.431  23.392  26.189  1.00  0.00     0.135 A 
ATOM     64  C   UNL A   1      42.390  22.605  28.460  1.00  0.00     0.135 A 
ATOM     65  F   UNL A   1      42.498  24.384  25.286  1.00  0.00    -0.206 F 
ATOM     66  C   UNL A   1      42.301  22.088  25.723  1.00  0.00     0.059 A 
ATOM     67  C   UNL A   1      42.280  21.290  28.016  1.00  0.00     0.059 A 
ATOM     68  F   UNL A   1      42.430  22.826  29.783  1.00  0.00    -0.206 F 
ATOM     69  C   UNL A   1      42.239  21.041  26.645  1.00  0.00     0.060 A 
BRANCH  69  70
ATOM     70  S   UNL A   1      42.141  19.350  26.017  1.00  0.00     0.124 S 
ATOM     71  O   UNL A   1      42.993  19.426  24.834  1.00  0.00    -0.237 OA
ATOM     72  O   UNL A   1      42.675  18.576  27.133  1.00  0.00    -0.237 OA
ATOM     73  O   UNL A   1      40.719  19.165  25.752  1.00  0.00    -0.744 OA
ENDBRANCH  69  70
ENDBRANCH  48  62
BRANCH  49  74
ATOM     74  C   UNL A   1      43.944  33.166  30.623  1.00  0.00     0.058 A 
ATOM     75  C   UNL A   1      44.085  33.530  31.971  1.00  0.00     0.135 A 
ATOM     76  C   UNL A   1      44.024  34.185  29.661  1.00  0.00     0.135 A 
ATOM     77  F   UNL A   1      44.023  32.593  32.928  1.00  0.00    -0.206 F 
ATOM     78  C   UNL A   1      44.264  34.856  32.352  1.00  0.00     0.059 A 
ATOM     79  C   UNL A   1      44.233  35.513  30.016  1.00  0.00     0.059 A 
ATOM     80  F   UNL A   1      43.922  33.888  28.356  1.00  0.00    -0.206 F 
ATOM     81  C   UNL A   1      44.333  35.841  31.367  1.00  0.00     0.060 A 
BRANCH  81  82
ATOM     82  S   UNL A   1      44.572  37.558  31.871  1.00  0.00     0.124 S 
ATOM     83  O   UNL A   1      46.026  37.675  31.831  1.00  0.00    -0.237 OA
ATOM     84  O   UNL A   1      43.844  38.285  30.837  1.00  0.00    -0.237 OA
ATOM     85  O   UNL A   1      43.972  37.604  33.202  1.00  0.00    -0.744 OA
ENDBRANCH  81  82
ENDBRANCH  49  74
BRANCH  61  86
ATOM     86  C   UNL A   1      48.173  27.854  29.021  1.00  0.00     0.058 A 
ATOM     87  C   UNL A   1      48.916  28.139  27.866  1.00  0.00     0.135 A 
ATOM     88  C   UNL A   1      48.871  27.504  30.187  1.00  0.00     0.135 A 
ATOM     89  F   UNL A   1      48.292  28.471  26.724  1.00  0.00    -0.206 F 
ATOM     90  C   UNL A   1      50.303  28.064  27.863  1.00  0.00     0.059 A 
ATOM     91  C   UNL A   1      50.259  27.451  30.214  1.00  0.00     0.059 A 
ATOM     92  F   UNL A   1      48.203  27.231  31.319  1.00  0.00    -0.206 F 
ATOM     93  C   UNL A   1      50.966  27.724  29.044  1.00  0.00     0.060 A 
BRANCH  93  94
ATOM     94  S   UNL A   1      52.769  27.676  29.032  1.00  0.00     0.124 S 
ATOM     95  O   UNL A   1      53.092  28.464  30.217  1.00  0.00    -0.237 OA
ATOM     96  O   UNL A   1      53.042  26.245  29.130  1.00  0.00    -0.237 OA
ATOM     97  O   UNL A   1      53.119  28.291  27.755  1.00  0.00    -0.744 OA
ENDBRANCH  93  94
ENDBRANCH  61  86
ENDBRANCH  35  36
ENDBRANCH  28  30
ENDBRANCH  27  28
ENDBRANCH  26  27
ENDBRANCH   1  26
TORSDOF 19
ENDMDL
MODEL 2
REMARK VINA RESULT:     -10.9      1.452      2.294
REMARK SMILES CC[C@@H](C)[C@@H](NC(=O)Cn1ncc2ccccc2c1=O)C(=O)OCCOC(=O)c1ccc(-c2c3nc(c(-c4c(F)cc(S(=O)(=O)[O-])cc4F)c4ccc([nH]4)c(-c4c(F)cc(S(=O)(=O)[O-])cc4F)c4nc(c(-c5c(F)cc(S(=O)(=O)[O-])cc5F)c5ccc2[nH]5)C=C4)C=C3)cc1
REMARK SMILES IDX 24 1 23 2 21 3 22 4 5 5 3 6 4 7 2 8 1 9 6 10 7 11 8 13 9 14
REMARK SMILES IDX 10 15 11 16 19 17 12 18 18 19 20 20 13 21 17 22 14 23 16 24
REMARK SMILES IDX 15 25 25 26 26 27 27 28 28 29 29 30 30 31 94 32 31 33 93 34
REMARK SMILES IDX 32 35 33 36 34 37 87 38 35 39 92 40 86 41 88 42 36 43 91 44
REMARK SMILES IDX 85 45 84 46 37 48 71 49 50 50 70 51 51 52 54 53 69 54 89 55
REMARK SMILES IDX 52 56 53 57 68 59 90 60 55 61 38 62 39 63 48 64 40 65 41 66
REMARK SMILES IDX 47 67 49 68 42 69 43 70 44 71 45 72 46 73 72 74 73 75 82 76
REMARK SMILES IDX 74 77 75 78 81 79 83 80 76 81 77 82 78 83 79 84 80 85 56 86
REMARK SMILES IDX 57 87 66 88 58 89 59 90 65 91 67 92 60 93 61 94 62 95 63 96
REMARK SMILES IDX 64 97
REMARK H PARENT 6 12 88 47 54 58
REMARK Flexibility Score: inf
ROOT
ATOM      1  C   UNL A   1      33.466  27.780  25.328  1.00  0.00     0.274 C 
ENDROOT
BRANCH   1   2
ATOM      2  O   UNL A   1      33.841  26.637  26.140  1.00  0.00    -0.461 OA
BRANCH   2   3
ATOM      3  C   UNL A   1      33.323  25.446  25.749  1.00  0.00     0.329 C 
ATOM      4  O   UNL A   1      32.145  25.135  25.916  1.00  0.00    -0.250 OA
BRANCH   3   5
ATOM      5  C   UNL A   1      34.333  24.426  25.180  1.00  0.00     0.195 C 
BRANCH   5   6
ATOM      6  C   UNL A   1      34.740  23.076  25.844  1.00  0.00     0.019 C 
ATOM      7  C   UNL A   1      34.425  22.991  27.334  1.00  0.00     0.010 C 
BRANCH   6   8
ATOM      8  C   UNL A   1      36.254  22.795  25.604  1.00  0.00     0.002 C 
ATOM      9  C   UNL A   1      37.180  23.928  26.035  1.00  0.00     0.004 C 
ENDBRANCH   6   8
ENDBRANCH   5   6
BRANCH   5  10
ATOM     10  N   UNL A   1      34.174  24.312  23.715  1.00  0.00    -0.341 N 
ATOM     11  C   UNL A   1      33.401  23.518  22.918  1.00  0.00     0.242 C 
ATOM     12  H   UNL A   1      34.742  24.938  23.210  1.00  0.00     0.164 HD
ATOM     13  O   UNL A   1      33.649  23.568  21.704  1.00  0.00    -0.273 OA
BRANCH  11  14
ATOM     14  C   UNL A   1      32.152  22.775  23.411  1.00  0.00     0.248 C 
BRANCH  14  15
ATOM     15  N   UNL A   1      32.095  21.321  23.346  1.00  0.00    -0.220 N 
ATOM     16  N   UNL A   1      31.932  20.734  22.121  1.00  0.00    -0.177 NA
ATOM     17  C   UNL A   1      32.150  20.596  24.539  1.00  0.00     0.275 A 
ATOM     18  C   UNL A   1      32.170  19.464  22.019  1.00  0.00     0.142 A 
ATOM     19  C   UNL A   1      32.479  19.161  24.404  1.00  0.00     0.050 A 
ATOM     20  O   UNL A   1      32.061  21.090  25.659  1.00  0.00    -0.267 OA
ATOM     21  C   UNL A   1      32.589  18.628  23.130  1.00  0.00     0.007 A 
ATOM     22  C   UNL A   1      32.842  18.388  25.511  1.00  0.00     0.014 A 
ATOM     23  C   UNL A   1      33.111  17.353  22.919  1.00  0.00     0.010 A 
ATOM     24  C   UNL A   1      33.359  17.103  25.315  1.00  0.00     0.001 A 
ATOM     25  C   UNL A   1      33.510  16.595  24.021  1.00  0.00     0.001 A 
ENDBRANCH  14  15
ENDBRANCH  11  14
ENDBRANCH   5  10
ENDBRANCH   3   5
ENDBRANCH   2   3
ENDBRANCH   1   2
BRANCH   1  26
ATOM     26  C   UNL A   1      33.350  29.044  26.175  1.00  0.00     0.275 C 
BRANCH  26  27
ATOM     27  O   UNL A   1      34.156  28.870  27.345  1.00  0.00    -0.458 OA
BRANCH  27  28
ATOM     28  C   UNL A   1      34.679  30.014  27.847  1.00  0.00     0.338 C 
ATOM     29  O   UNL A   1      34.096  31.030  28.148  1.00  0.00    -0.246 OA
BRANCH  28  30
ATOM     30  C   UNL A   1      36.076  29.709  28.173  1.00  0.00     0.060 A 
ATOM     31  C   UNL A   1      36.411  29.318  29.465  1.00  0.00     0.016 A 
ATOM     32  C   UNL A   1      37.055  29.875  27.185  1.00  0.00     0.016 A 
ATOM     33  C   UNL A   1      37.746  29.094  29.769  1.00  0.00     0.010 A 
ATOM     34  C   UNL A   1      38.391  29.640  27.486  1.00  0.00     0.010 A 
ATOM     35  C   UNL A   1      38.736  29.245  28.780  1.00  0.00    -0.014 A 
BRANCH  35  36
ATOM     36  C   UNL A   1      40.121  28.867  29.111  1.00  0.00     0.031 A 
ATOM     37  C   UNL A   1      40.641  27.506  28.781  1.00  0.00     0.074 A 
ATOM     38  C   UNL A   1      40.904  29.829  29.631  1.00  0.00     0.049 A 
ATOM     39  N   UNL A   1      41.877  27.086  28.791  1.00  0.00    -0.248 NA
ATOM     40  C   UNL A   1      39.658  26.483  28.390  1.00  0.00     0.031 C 
ATOM     41  C   UNL A   1      40.439  31.167  30.016  1.00  0.00     0.029 A 
ATOM     42  N   UNL A   1      42.247  29.857  29.882  1.00  0.00    -0.354 N 
ATOM     43  C   UNL A   1      41.830  25.765  28.369  1.00  0.00     0.074 A 
ATOM     44  C   UNL A   1      40.437  25.430  28.171  1.00  0.00     0.031 C 
ATOM     45  C   UNL A   1      41.494  31.907  30.388  1.00  0.00     0.029 A 
ATOM     46  C   UNL A   1      42.697  31.091  30.288  1.00  0.00     0.049 A 
ATOM     47  H   UNL A   1      42.833  29.071  29.782  1.00  0.00     0.167 HD
ATOM     48  C   UNL A   1      42.870  24.929  28.143  1.00  0.00     0.037 A 
ATOM     49  C   UNL A   1      43.951  31.518  30.522  1.00  0.00     0.037 A 
ATOM     50  C   UNL A   1      44.245  25.299  28.362  1.00  0.00     0.049 A 
ATOM     51  C   UNL A   1      45.080  30.554  30.288  1.00  0.00     0.074 A 
ATOM     52  C   UNL A   1      45.383  24.541  28.161  1.00  0.00     0.029 A 
ATOM     53  N   UNL A   1      44.666  26.536  28.834  1.00  0.00    -0.354 N 
ATOM     54  N   UNL A   1      45.029  29.325  29.827  1.00  0.00    -0.248 NA
ATOM     55  C   UNL A   1      46.433  31.029  30.596  1.00  0.00     0.031 C 
ATOM     56  C   UNL A   1      46.489  25.303  28.550  1.00  0.00     0.029 A 
ATOM     57  C   UNL A   1      46.044  26.555  28.948  1.00  0.00     0.049 A 
ATOM     58  H   UNL A   1      44.071  27.289  29.054  1.00  0.00     0.167 HD
ATOM     59  C   UNL A   1      46.345  28.884  29.777  1.00  0.00     0.074 A 
ATOM     60  C   UNL A   1      47.169  29.989  30.229  1.00  0.00     0.031 C 
ATOM     61  C   UNL A   1      46.832  27.677  29.401  1.00  0.00     0.037 A 
BRANCH  48  62
ATOM     62  C   UNL A   1      42.580  23.556  27.606  1.00  0.00     0.058 A 
ATOM     63  C   UNL A   1      42.586  23.300  26.226  1.00  0.00     0.135 A 
ATOM     64  C   UNL A   1      42.401  22.465  28.473  1.00  0.00     0.135 A 
ATOM     65  F   UNL A   1      42.734  24.309  25.352  1.00  0.00    -0.206 F 
ATOM     66  C   UNL A   1      42.437  22.012  25.723  1.00  0.00     0.059 A 
ATOM     67  C   UNL A   1      42.270  21.165  27.992  1.00  0.00     0.059 A 
ATOM     68  F   UNL A   1      42.380  22.655  29.801  1.00  0.00    -0.206 F 
ATOM     69  C   UNL A   1      42.292  20.948  26.615  1.00  0.00     0.060 A 
BRANCH  69  70
ATOM     70  S   UNL A   1      42.170  19.276  25.943  1.00  0.00     0.124 S 
ATOM     71  O   UNL A   1      42.650  18.472  27.063  1.00  0.00    -0.237 OA
ATOM     72  O   UNL A   1      40.745  19.166  25.649  1.00  0.00    -0.237 OA
ATOM     73  O   UNL A   1      43.047  19.310  24.777  1.00  0.00    -0.744 OA
ENDBRANCH  69  70
ENDBRANCH  48  62
BRANCH  49  74
ATOM     74  C   UNL A   1      44.197  32.914  30.964  1.00  0.00     0.058 A 
ATOM     75  C   UNL A   1      44.273  33.245  32.325  1.00  0.00     0.135 A 
ATOM     76  C   UNL A   1      44.368  33.950  30.031  1.00  0.00     0.135 A 
ATOM     77  F   UNL A   1      44.124  32.291  33.256  1.00  0.00    -0.206 F 
ATOM     78  C   UNL A   1      44.477  34.555  32.747  1.00  0.00     0.059 A 
ATOM     79  C   UNL A   1      44.603  35.262  30.428  1.00  0.00     0.059 A 
ATOM     80  F   UNL A   1      44.330  33.685  28.716  1.00  0.00    -0.206 F 
ATOM     81  C   UNL A   1      44.638  35.557  31.790  1.00  0.00     0.060 A 
BRANCH  81  82
ATOM     82  S   UNL A   1      44.908  37.253  32.347  1.00  0.00     0.124 S 
ATOM     83  O   UNL A   1      43.805  37.953  31.698  1.00  0.00    -0.237 OA
ATOM     84  O   UNL A   1      44.814  37.118  33.797  1.00  0.00    -0.237 OA
ATOM     85  O   UNL A   1      46.240  37.567  31.838  1.00  0.00    -0.744 OA
ENDBRANCH  81  82
ENDBRANCH  49  74
BRANCH  61  86
ATOM     86  C   UNL A   1      48.320  27.492  29.461  1.00  0.00     0.058 A 
ATOM     87  C   UNL A   1      49.137  27.815  28.368  1.00  0.00     0.135 A 
ATOM     88  C   UNL A   1      48.938  27.052  30.642  1.00  0.00     0.135 A 
ATOM     89  F   UNL A   1      48.592  28.233  27.214  1.00  0.00    -0.206 F 
ATOM     90  C   UNL A   1      50.519  27.691  28.437  1.00  0.00     0.059 A 
ATOM     91  C   UNL A   1      50.320  26.948  30.742  1.00  0.00     0.059 A 
ATOM     92  F   UNL A   1      48.198  26.740  31.717  1.00  0.00    -0.206 F 
ATOM     93  C   UNL A   1      51.102  27.261  29.631  1.00  0.00     0.060 A 
BRANCH  93  94
ATOM     94  S   UNL A   1      52.901  27.149  29.717  1.00  0.00     0.124 S 
ATOM     95  O   UNL A   1      53.221  26.574  28.414  1.00  0.00    -0.237 OA
ATOM     96  O   UNL A   1      53.289  28.543  29.906  1.00  0.00    -0.237 OA
ATOM     97  O   UNL A   1      53.134  26.276  30.863  1.00  0.00    -0.744 OA
ENDBRANCH  93  94
ENDBRANCH  61  86
ENDBRANCH  35  36
ENDBRANCH  28  30
ENDBRANCH  27  28
ENDBRANCH  26  27
ENDBRANCH   1  26
TORSDOF 19
ENDMDL
MODEL 3
REMARK VINA RESULT:     -10.8      3.736      9.589
REMARK SMILES CC[C@@H](C)[C@@H](NC(=O)Cn1ncc2ccccc2c1=O)C(=O)OCCOC(=O)c1ccc(-c2c3nc(c(-c4c(F)cc(S(=O)(=O)[O-])cc4F)c4ccc([nH]4)c(-c4c(F)cc(S(=O)(=O)[O-])cc4F)c4nc(c(-c5c(F)cc(S(=O)(=O)[O-])cc5F)c5ccc2[nH]5)C=C4)C=C3)cc1
REMARK SMILES IDX 24 1 23 2 21 3 22 4 5 5 3 6 4 7 2 8 1 9 6 10 7 11 8 13 9 14
REMARK SMILES IDX 10 15 11 16 19 17 12 18 18 19 20 20 13 21 17 22 14 23 16 24
REMARK SMILES IDX 15 25 25 26 26 27 27 28 28 29 29 30 30 31 94 32 31 33 93 34
REMARK SMILES IDX 32 35 33 36 34 37 87 38 35 39 92 40 86 41 88 42 36 43 91 44
REMARK SMILES IDX 85 45 84 46 37 48 71 49 50 50 70 51 51 52 54 53 69 54 89 55
REMARK SMILES IDX 52 56 53 57 68 59 90 60 55 61 38 62 39 63 48 64 40 65 41 66
REMARK SMILES IDX 47 67 49 68 42 69 43 70 44 71 45 72 46 73 72 74 73 75 82 76
REMARK SMILES IDX 74 77 75 78 81 79 83 80 76 81 77 82 78 83 79 84 80 85 56 86
REMARK SMILES IDX 57 87 66 88 58 89 59 90 65 91 67 92 60 93 61 94 62 95 63 96
REMARK SMILES IDX 64 97
REMARK H PARENT 6 12 88 47 54 58
REMARK Flexibility Score: inf
ROOT
ATOM      1  C   UNL A   1      35.882  22.457  24.477  1.00  0.00     0.274 C 
ENDROOT
BRANCH   1   2
ATOM      2  O   UNL A   1      34.591  22.138  25.059  1.00  0.00    -0.461 OA
BRANCH   2   3
ATOM      3  C   UNL A   1      33.929  23.179  25.623  1.00  0.00     0.329 C 
ATOM      4  O   UNL A   1      34.349  23.795  26.601  1.00  0.00    -0.250 OA
BRANCH   3   5
ATOM      5  C   UNL A   1      32.533  23.485  25.040  1.00  0.00     0.195 C 
BRANCH   5   6
ATOM      6  C   UNL A   1      32.133  23.406  23.535  1.00  0.00     0.019 C 
ATOM      7  C   UNL A   1      31.987  21.985  23.001  1.00  0.00     0.010 C 
BRANCH   6   8
ATOM      8  C   UNL A   1      33.154  24.198  22.666  1.00  0.00     0.002 C 
ATOM      9  C   UNL A   1      32.519  25.203  21.709  1.00  0.00     0.004 C 
ENDBRANCH   6   8
ENDBRANCH   5   6
BRANCH   5  10
ATOM     10  N   UNL A   1      31.480  22.962  25.935  1.00  0.00    -0.341 N 
ATOM     11  C   UNL A   1      30.420  23.543  26.570  1.00  0.00     0.242 C 
ATOM     12  H   UNL A   1      31.559  21.997  26.110  1.00  0.00     0.164 HD
ATOM     13  O   UNL A   1      29.831  22.832  27.397  1.00  0.00    -0.273 OA
BRANCH  11  14
ATOM     14  C   UNL A   1      29.817  24.894  26.159  1.00  0.00     0.248 C 
BRANCH  14  15
ATOM     15  N   UNL A   1      30.690  26.026  25.882  1.00  0.00    -0.220 N 
ATOM     16  N   UNL A   1      31.699  26.299  26.766  1.00  0.00    -0.177 NA
ATOM     17  C   UNL A   1      30.424  26.818  24.761  1.00  0.00     0.275 A 
ATOM     18  C   UNL A   1      32.639  27.104  26.386  1.00  0.00     0.142 A 
ATOM     19  C   UNL A   1      31.531  27.688  24.311  1.00  0.00     0.050 A 
ATOM     20  O   UNL A   1      29.402  26.746  24.085  1.00  0.00    -0.267 OA
ATOM     21  C   UNL A   1      32.680  27.743  25.083  1.00  0.00     0.007 A 
ATOM     22  C   UNL A   1      31.507  28.310  23.059  1.00  0.00     0.014 A 
ATOM     23  C   UNL A   1      33.841  28.357  24.614  1.00  0.00     0.010 A 
ATOM     24  C   UNL A   1      32.661  28.938  22.580  1.00  0.00     0.001 A 
ATOM     25  C   UNL A   1      33.830  28.945  23.348  1.00  0.00     0.001 A 
ENDBRANCH  14  15
ENDBRANCH  11  14
ENDBRANCH   5  10
ENDBRANCH   3   5
ENDBRANCH   2   3
ENDBRANCH   1   2
BRANCH   1  26
ATOM     26  C   UNL A   1      37.019  22.113  25.434  1.00  0.00     0.275 C 
BRANCH  26  27
ATOM     27  O   UNL A   1      37.830  23.281  25.599  1.00  0.00    -0.458 OA
BRANCH  27  28
ATOM     28  C   UNL A   1      39.074  23.043  26.077  1.00  0.00     0.338 C 
ATOM     29  O   UNL A   1      39.816  22.129  25.801  1.00  0.00    -0.246 OA
BRANCH  28  30
ATOM     30  C   UNL A   1      39.451  24.242  26.835  1.00  0.00     0.060 A 
ATOM     31  C   UNL A   1      38.900  24.460  28.093  1.00  0.00     0.016 A 
ATOM     32  C   UNL A   1      40.315  25.173  26.247  1.00  0.00     0.016 A 
ATOM     33  C   UNL A   1      39.221  25.629  28.768  1.00  0.00     0.010 A 
ATOM     34  C   UNL A   1      40.646  26.339  26.926  1.00  0.00     0.010 A 
ATOM     35  C   UNL A   1      40.101  26.565  28.191  1.00  0.00    -0.014 A 
BRANCH  35  36
ATOM     36  C   UNL A   1      40.518  27.724  28.998  1.00  0.00     0.031 A 
ATOM     37  C   UNL A   1      39.630  28.917  29.139  1.00  0.00     0.074 A 
ATOM     38  C   UNL A   1      41.682  27.613  29.664  1.00  0.00     0.049 A 
ATOM     39  N   UNL A   1      39.734  29.911  29.979  1.00  0.00    -0.248 NA
ATOM     40  C   UNL A   1      38.477  29.013  28.228  1.00  0.00     0.031 C 
ATOM     41  C   UNL A   1      42.615  26.488  29.531  1.00  0.00     0.029 A 
ATOM     42  N   UNL A   1      42.257  28.414  30.610  1.00  0.00    -0.354 N 
ATOM     43  C   UNL A   1      38.642  30.730  29.730  1.00  0.00     0.074 A 
ATOM     44  C   UNL A   1      37.920  30.153  28.617  1.00  0.00     0.031 C 
ATOM     45  C   UNL A   1      43.610  26.638  30.417  1.00  0.00     0.029 A 
ATOM     46  C   UNL A   1      43.395  27.874  31.159  1.00  0.00     0.049 A 
ATOM     47  H   UNL A   1      41.891  29.290  30.872  1.00  0.00     0.167 HD
ATOM     48  C   UNL A   1      38.273  31.846  30.401  1.00  0.00     0.037 A 
ATOM     49  C   UNL A   1      44.160  28.319  32.172  1.00  0.00     0.037 A 
ATOM     50  C   UNL A   1      39.026  32.395  31.500  1.00  0.00     0.049 A 
ATOM     51  C   UNL A   1      43.736  29.577  32.876  1.00  0.00     0.074 A 
ATOM     52  C   UNL A   1      38.747  33.515  32.261  1.00  0.00     0.029 A 
ATOM     53  N   UNL A   1      40.210  31.860  31.993  1.00  0.00    -0.354 N 
ATOM     54  N   UNL A   1      42.666  30.310  32.674  1.00  0.00    -0.248 NA
ATOM     55  C   UNL A   1      44.613  30.066  33.946  1.00  0.00     0.031 C 
ATOM     56  C   UNL A   1      39.783  33.681  33.186  1.00  0.00     0.029 A 
ATOM     57  C   UNL A   1      40.684  32.638  33.034  1.00  0.00     0.049 A 
ATOM     58  H   UNL A   1      40.648  31.047  31.651  1.00  0.00     0.167 HD
ATOM     59  C   UNL A   1      42.733  31.341  33.601  1.00  0.00     0.074 A 
ATOM     60  C   UNL A   1      43.935  31.119  34.382  1.00  0.00     0.031 C 
ATOM     61  C   UNL A   1      41.886  32.383  33.789  1.00  0.00     0.037 A 
BRANCH  48  62
ATOM     62  C   UNL A   1      36.997  32.531  30.002  1.00  0.00     0.058 A 
ATOM     63  C   UNL A   1      35.789  32.259  30.663  1.00  0.00     0.135 A 
ATOM     64  C   UNL A   1      36.995  33.544  29.028  1.00  0.00     0.135 A 
ATOM     65  F   UNL A   1      35.729  31.289  31.589  1.00  0.00    -0.206 F 
ATOM     66  C   UNL A   1      34.628  32.971  30.383  1.00  0.00     0.059 A 
ATOM     67  C   UNL A   1      35.850  34.284  28.746  1.00  0.00     0.059 A 
ATOM     68  F   UNL A   1      38.121  33.840  28.361  1.00  0.00    -0.206 F 
ATOM     69  C   UNL A   1      34.671  33.992  29.431  1.00  0.00     0.060 A 
BRANCH  69  70
ATOM     70  S   UNL A   1      33.169  34.950  29.133  1.00  0.00     0.124 S 
ATOM     71  O   UNL A   1      32.546  34.939  30.453  1.00  0.00    -0.237 OA
ATOM     72  O   UNL A   1      33.706  36.235  28.697  1.00  0.00    -0.237 OA
ATOM     73  O   UNL A   1      32.472  34.184  28.106  1.00  0.00    -0.744 OA
ENDBRANCH  69  70
ENDBRANCH  48  62
BRANCH  49  74
ATOM     74  C   UNL A   1      45.364  27.557  32.593  1.00  0.00     0.058 A 
ATOM     75  C   UNL A   1      45.273  26.504  33.515  1.00  0.00     0.135 A 
ATOM     76  C   UNL A   1      46.632  27.862  32.074  1.00  0.00     0.135 A 
ATOM     77  F   UNL A   1      44.084  26.168  34.035  1.00  0.00    -0.206 F 
ATOM     78  C   UNL A   1      46.400  25.803  33.933  1.00  0.00     0.059 A 
ATOM     79  C   UNL A   1      47.768  27.156  32.453  1.00  0.00     0.059 A 
ATOM     80  F   UNL A   1      46.771  28.843  31.168  1.00  0.00    -0.206 F 
ATOM     81  C   UNL A   1      47.644  26.139  33.398  1.00  0.00     0.060 A 
BRANCH  81  82
ATOM     82  S   UNL A   1      49.099  25.219  33.943  1.00  0.00     0.124 S 
ATOM     83  O   UNL A   1      49.508  24.561  32.707  1.00  0.00    -0.237 OA
ATOM     84  O   UNL A   1      49.975  26.285  34.419  1.00  0.00    -0.237 OA
ATOM     85  O   UNL A   1      48.572  24.339  34.981  1.00  0.00    -0.744 OA
ENDBRANCH  81  82
ENDBRANCH  49  74
BRANCH  61  86
ATOM     86  C   UNL A   1      42.231  33.355  34.881  1.00  0.00     0.058 A 
ATOM     87  C   UNL A   1      42.965  34.519  34.613  1.00  0.00     0.135 A 
ATOM     88  C   UNL A   1      41.768  33.151  36.190  1.00  0.00     0.135 A 
ATOM     89  F   UNL A   1      43.437  34.754  33.378  1.00  0.00    -0.206 F 
ATOM     90  C   UNL A   1      43.244  35.443  35.613  1.00  0.00     0.059 A 
ATOM     91  C   UNL A   1      42.010  34.076  37.198  1.00  0.00     0.059 A 
ATOM     92  F   UNL A   1      41.053  32.056  36.492  1.00  0.00    -0.206 F 
ATOM     93  C   UNL A   1      42.758  35.215  36.902  1.00  0.00     0.060 A 
BRANCH  93  94
ATOM     94  S   UNL A   1      43.092  36.448  38.175  1.00  0.00     0.124 S 
ATOM     95  O   UNL A   1      44.221  37.169  37.597  1.00  0.00    -0.237 OA
ATOM     96  O   UNL A   1      41.832  37.184  38.232  1.00  0.00    -0.237 OA
ATOM     97  O   UNL A   1      43.398  35.645  39.356  1.00  0.00    -0.744 OA
ENDBRANCH  93  94
ENDBRANCH  61  86
ENDBRANCH  35  36
ENDBRANCH  28  30
ENDBRANCH  27  28
ENDBRANCH  26  27
ENDBRANCH   1  26
TORSDOF 19
ENDMDL
