MODEL 1
REMARK VINA RESULT:     -10.4      0.000      0.000
REMARK SMILES Cc1nc(C)c(C(=O)N[C@@H](CCS(C)(=O)=O)C(=O)OCCOC(=O)c2ccc(-c3c4nc(c(-c5c(F)cc(S(=O)(=O)[O-])cc5F)c5ccc([nH]5)c(-c5c(F)cc(S(=O)(=O)[O-])cc5F)c5nc(c(-c6c(F)cc(S(=O)(=O)[O-])cc6F)c6ccc3[nH]6)C=C5)C=C4)cc2)s1
REMARK SMILES IDX 20 1 19 2 17 3 18 4 10 5 9 6 7 7 8 8 6 10 1 11 2 12 3 13
REMARK SMILES IDX 91 14 4 15 5 16 11 17 12 18 13 19 14 20 15 21 16 22 21 23
REMARK SMILES IDX 22 24 23 25 24 26 25 27 26 28 90 29 27 30 89 31 28 32 29 33
REMARK SMILES IDX 30 34 83 35 31 36 88 37 82 38 84 39 32 40 87 41 81 42 80 43
REMARK SMILES IDX 33 45 67 46 46 47 66 48 47 49 50 50 65 51 85 52 48 53 49 54
REMARK SMILES IDX 64 56 86 57 51 58 34 59 35 60 44 61 36 62 37 63 43 64 45 65
REMARK SMILES IDX 38 66 39 67 40 68 41 69 42 70 68 71 69 72 78 73 70 74 71 75
REMARK SMILES IDX 77 76 79 77 72 78 73 79 74 80 75 81 76 82 52 83 53 84 62 85
REMARK SMILES IDX 54 86 55 87 61 88 63 89 56 90 57 91 58 92 59 93 60 94
REMARK H PARENT 9 9 84 44 50 55
REMARK Flexibility Score: inf
ROOT
ATOM      1  C   UNL A   1      36.344  20.993  25.276  1.00  0.00     0.274 C 
ENDROOT
BRANCH   1   2
ATOM      2  O   UNL A   1      35.412  21.818  24.541  1.00  0.00    -0.461 OA
BRANCH   2   3
ATOM      3  C   UNL A   1      34.146  21.353  24.448  1.00  0.00     0.328 C 
ATOM      4  O   UNL A   1      33.364  21.625  23.544  1.00  0.00    -0.250 OA
BRANCH   3   5
ATOM      5  C   UNL A   1      33.713  20.504  25.652  1.00  0.00     0.193 C 
BRANCH   5   6
ATOM      6  N   UNL A   1      33.423  21.210  26.898  1.00  0.00    -0.338 N 
ATOM      7  C   UNL A   1      32.869  22.439  27.206  1.00  0.00     0.263 C 
ATOM      8  O   UNL A   1      32.817  22.655  28.421  1.00  0.00    -0.268 OA
ATOM      9  H   UNL A   1      33.678  20.694  27.697  1.00  0.00     0.164 HD
BRANCH   7  10
ATOM     10  C   UNL A   1      32.357  23.406  26.234  1.00  0.00     0.115 A 
ATOM     11  C   UNL A   1      29.970  25.579  24.032  1.00  0.00     0.079 C 
ATOM     12  C   UNL A   1      31.065  24.854  24.739  1.00  0.00     0.091 A 
ATOM     13  N   UNL A   1      32.286  25.313  24.855  1.00  0.00    -0.246 NA
ATOM     14  S   UNL A   1      30.815  23.327  25.471  1.00  0.00    -0.113 S 
ATOM     15  C   UNL A   1      33.049  24.478  25.660  1.00  0.00     0.061 A 
ATOM     16  C   UNL A   1      34.477  24.876  25.809  1.00  0.00     0.068 C 
ENDBRANCH   7  10
ENDBRANCH   5   6
BRANCH   5  17
ATOM     17  C   UNL A   1      32.571  19.534  25.277  1.00  0.00     0.053 C 
BRANCH  17  18
ATOM     18  C   UNL A   1      32.778  18.035  25.494  1.00  0.00     0.139 C 
BRANCH  18  19
ATOM     19  S   UNL A   1      33.718  17.095  24.298  1.00  0.00     0.147 S 
ATOM     20  C   UNL A   1      33.117  17.484  22.665  1.00  0.00     0.158 C 
ATOM     21  O   UNL A   1      35.087  17.573  24.360  1.00  0.00    -0.229 OA
ATOM     22  O   UNL A   1      33.446  15.694  24.548  1.00  0.00    -0.229 OA
ENDBRANCH  18  19
ENDBRANCH  17  18
ENDBRANCH   5  17
ENDBRANCH   3   5
ENDBRANCH   2   3
ENDBRANCH   1   2
BRANCH   1  23
ATOM     23  C   UNL A   1      37.776  21.471  25.055  1.00  0.00     0.275 C 
BRANCH  23  24
ATOM     24  O   UNL A   1      38.014  22.692  25.775  1.00  0.00    -0.458 OA
BRANCH  24  25
ATOM     25  C   UNL A   1      39.279  22.840  26.220  1.00  0.00     0.338 C 
ATOM     26  O   UNL A   1      40.252  22.142  25.958  1.00  0.00    -0.246 OA
BRANCH  25  27
ATOM     27  C   UNL A   1      39.392  24.118  26.921  1.00  0.00     0.060 A 
ATOM     28  C   UNL A   1      40.213  25.087  26.348  1.00  0.00     0.016 A 
ATOM     29  C   UNL A   1      38.788  24.337  28.156  1.00  0.00     0.016 A 
ATOM     30  C   UNL A   1      40.478  26.266  27.024  1.00  0.00     0.010 A 
ATOM     31  C   UNL A   1      39.047  25.532  28.833  1.00  0.00     0.010 A 
ATOM     32  C   UNL A   1      39.921  26.491  28.286  1.00  0.00    -0.014 A 
BRANCH  32  33
ATOM     33  C   UNL A   1      40.355  27.676  29.065  1.00  0.00     0.031 A 
ATOM     34  C   UNL A   1      41.716  27.675  29.701  1.00  0.00     0.074 A 
ATOM     35  C   UNL A   1      39.572  28.770  29.143  1.00  0.00     0.049 A 
ATOM     36  N   UNL A   1      42.226  28.513  30.565  1.00  0.00    -0.248 NA
ATOM     37  C   UNL A   1      42.623  26.580  29.317  1.00  0.00     0.031 C 
ATOM     38  C   UNL A   1      38.276  28.933  28.483  1.00  0.00     0.029 A 
ATOM     39  N   UNL A   1      39.759  29.956  29.807  1.00  0.00    -0.354 N 
ATOM     40  C   UNL A   1      43.487  28.016  30.874  1.00  0.00     0.074 A 
ATOM     41  C   UNL A   1      43.667  26.806  30.101  1.00  0.00     0.031 C 
ATOM     42  C   UNL A   1      37.791  30.153  28.764  1.00  0.00     0.029 A 
ATOM     43  C   UNL A   1      38.699  30.822  29.690  1.00  0.00     0.049 A 
ATOM     44  H   UNL A   1      40.574  30.165  30.319  1.00  0.00     0.167 HD
ATOM     45  C   UNL A   1      44.406  28.525  31.728  1.00  0.00     0.037 A 
ATOM     46  C   UNL A   1      38.461  31.998  30.303  1.00  0.00     0.037 A 
ATOM     47  C   UNL A   1      44.232  29.762  32.445  1.00  0.00     0.049 A 
ATOM     48  C   UNL A   1      39.468  32.518  31.292  1.00  0.00     0.074 A 
ATOM     49  C   UNL A   1      45.094  30.371  33.339  1.00  0.00     0.029 A 
ATOM     50  N   UNL A   1      43.123  30.590  32.333  1.00  0.00    -0.354 N 
ATOM     51  N   UNL A   1      40.621  31.999  31.644  1.00  0.00    -0.248 NA
ATOM     52  C   UNL A   1      39.135  33.771  31.982  1.00  0.00     0.031 C 
ATOM     53  C   UNL A   1      44.493  31.549  33.794  1.00  0.00     0.029 A 
ATOM     54  C   UNL A   1      43.275  31.698  33.151  1.00  0.00     0.049 A 
ATOM     55  H   UNL A   1      42.344  30.417  31.757  1.00  0.00     0.167 HD
ATOM     56  C   UNL A   1      41.155  32.867  32.589  1.00  0.00     0.074 A 
ATOM     57  C   UNL A   1      40.209  33.955  32.737  1.00  0.00     0.031 C 
ATOM     58  C   UNL A   1      42.321  32.771  33.277  1.00  0.00     0.037 A 
BRANCH  45  59
ATOM     59  C   UNL A   1      45.655  27.726  31.971  1.00  0.00     0.058 A 
ATOM     60  C   UNL A   1      46.829  27.926  31.229  1.00  0.00     0.135 A 
ATOM     61  C   UNL A   1      45.682  26.756  32.987  1.00  0.00     0.135 A 
ATOM     62  F   UNL A   1      46.854  28.827  30.234  1.00  0.00    -0.206 F 
ATOM     63  C   UNL A   1      47.978  27.177  31.471  1.00  0.00     0.059 A 
ATOM     64  C   UNL A   1      46.826  26.015  33.264  1.00  0.00     0.059 A 
ATOM     65  F   UNL A   1      44.585  26.522  33.726  1.00  0.00    -0.206 F 
ATOM     66  C   UNL A   1      47.966  26.223  32.489  1.00  0.00     0.060 A 
BRANCH  66  67
ATOM     67  S   UNL A   1      49.465  25.264  32.798  1.00  0.00     0.124 S 
ATOM     68  O   UNL A   1      49.856  24.888  31.443  1.00  0.00    -0.237 OA
ATOM     69  O   UNL A   1      50.329  26.236  33.460  1.00  0.00    -0.237 OA
ATOM     70  O   UNL A   1      49.000  24.168  33.643  1.00  0.00    -0.744 OA
ENDBRANCH  66  67
ENDBRANCH  45  59
BRANCH  46  71
ATOM     71  C   UNL A   1      37.193  32.731  30.040  1.00  0.00     0.058 A 
ATOM     72  C   UNL A   1      37.119  33.718  29.046  1.00  0.00     0.135 A 
ATOM     73  C   UNL A   1      36.027  32.450  30.770  1.00  0.00     0.135 A 
ATOM     74  F   UNL A   1      38.209  34.031  28.329  1.00  0.00    -0.206 F 
ATOM     75  C   UNL A   1      35.936  34.405  28.789  1.00  0.00     0.059 A 
ATOM     76  C   UNL A   1      34.826  33.102  30.511  1.00  0.00     0.059 A 
ATOM     77  F   UNL A   1      36.042  31.508  31.726  1.00  0.00    -0.206 F 
ATOM     78  C   UNL A   1      34.793  34.085  29.524  1.00  0.00     0.060 A 
BRANCH  78  79
ATOM     79  S   UNL A   1      33.247  34.935  29.141  1.00  0.00     0.124 S 
ATOM     80  O   UNL A   1      33.732  36.221  28.654  1.00  0.00    -0.237 OA
ATOM     81  O   UNL A   1      32.653  34.055  28.139  1.00  0.00    -0.237 OA
ATOM     82  O   UNL A   1      32.555  34.965  30.426  1.00  0.00    -0.744 OA
ENDBRANCH  78  79
ENDBRANCH  46  71
BRANCH  58  83
ATOM     83  C   UNL A   1      42.650  33.887  34.228  1.00  0.00     0.058 A 
ATOM     84  C   UNL A   1      42.176  33.891  35.549  1.00  0.00     0.135 A 
ATOM     85  C   UNL A   1      43.485  34.940  33.825  1.00  0.00     0.135 A 
ATOM     86  F   UNL A   1      41.368  32.910  35.980  1.00  0.00    -0.206 F 
ATOM     87  C   UNL A   1      42.502  34.914  36.432  1.00  0.00     0.059 A 
ATOM     88  C   UNL A   1      43.844  35.962  34.698  1.00  0.00     0.059 A 
ATOM     89  F   UNL A   1      43.971  34.977  32.573  1.00  0.00    -0.206 F 
ATOM     90  C   UNL A   1      43.338  35.946  35.997  1.00  0.00     0.060 A 
BRANCH  90  91
ATOM     91  S   UNL A   1      43.776  37.254  37.161  1.00  0.00     0.124 S 
ATOM     92  O   UNL A   1      42.619  37.254  38.050  1.00  0.00    -0.237 OA
ATOM     93  O   UNL A   1      45.020  36.757  37.739  1.00  0.00    -0.237 OA
ATOM     94  O   UNL A   1      43.914  38.432  36.310  1.00  0.00    -0.744 OA
ENDBRANCH  90  91
ENDBRANCH  58  83
ENDBRANCH  32  33
ENDBRANCH  25  27
ENDBRANCH  24  25
ENDBRANCH  23  24
ENDBRANCH   1  23
TORSDOF 19
ENDMDL
MODEL 2
REMARK VINA RESULT:     -10.0      5.382     10.700
REMARK SMILES Cc1nc(C)c(C(=O)N[C@@H](CCS(C)(=O)=O)C(=O)OCCOC(=O)c2ccc(-c3c4nc(c(-c5c(F)cc(S(=O)(=O)[O-])cc5F)c5ccc([nH]5)c(-c5c(F)cc(S(=O)(=O)[O-])cc5F)c5nc(c(-c6c(F)cc(S(=O)(=O)[O-])cc6F)c6ccc3[nH]6)C=C5)C=C4)cc2)s1
REMARK SMILES IDX 20 1 19 2 17 3 18 4 10 5 9 6 7 7 8 8 6 10 1 11 2 12 3 13
REMARK SMILES IDX 91 14 4 15 5 16 11 17 12 18 13 19 14 20 15 21 16 22 21 23
REMARK SMILES IDX 22 24 23 25 24 26 25 27 26 28 90 29 27 30 89 31 28 32 29 33
REMARK SMILES IDX 30 34 83 35 31 36 88 37 82 38 84 39 32 40 87 41 81 42 80 43
REMARK SMILES IDX 33 45 67 46 46 47 66 48 47 49 50 50 65 51 85 52 48 53 49 54
REMARK SMILES IDX 64 56 86 57 51 58 34 59 35 60 44 61 36 62 37 63 43 64 45 65
REMARK SMILES IDX 38 66 39 67 40 68 41 69 42 70 68 71 69 72 78 73 70 74 71 75
REMARK SMILES IDX 77 76 79 77 72 78 73 79 74 80 75 81 76 82 52 83 53 84 62 85
REMARK SMILES IDX 54 86 55 87 61 88 63 89 56 90 57 91 58 92 59 93 60 94
REMARK H PARENT 9 9 84 44 50 55
REMARK Flexibility Score: inf
ROOT
ATOM      1  C   UNL A   1      43.334  24.797  25.076  1.00  0.00     0.274 C 
ENDROOT
BRANCH   1   2
ATOM      2  O   UNL A   1      44.618  24.418  24.533  1.00  0.00    -0.461 OA
BRANCH   2   3
ATOM      3  C   UNL A   1      44.792  23.103  24.272  1.00  0.00     0.328 C 
ATOM      4  O   UNL A   1      44.254  22.493  23.353  1.00  0.00    -0.250 OA
BRANCH   3   5
ATOM      5  C   UNL A   1      45.668  22.381  25.306  1.00  0.00     0.193 C 
BRANCH   5   6
ATOM      6  N   UNL A   1      45.208  22.387  26.693  1.00  0.00    -0.338 N 
ATOM      7  C   UNL A   1      45.321  23.277  27.745  1.00  0.00     0.263 C 
ATOM      8  O   UNL A   1      44.780  22.873  28.780  1.00  0.00    -0.268 OA
ATOM      9  H   UNL A   1      44.702  21.576  26.930  1.00  0.00     0.164 HD
BRANCH   7  10
ATOM     10  C   UNL A   1      45.978  24.583  27.684  1.00  0.00     0.115 A 
ATOM     11  C   UNL A   1      48.353  27.525  26.696  1.00  0.00     0.079 C 
ATOM     12  C   UNL A   1      47.363  26.557  27.251  1.00  0.00     0.091 A 
ATOM     13  N   UNL A   1      46.269  26.912  27.877  1.00  0.00    -0.246 NA
ATOM     14  S   UNL A   1      47.581  24.864  27.119  1.00  0.00    -0.113 S 
ATOM     15  C   UNL A   1      45.493  25.800  28.176  1.00  0.00     0.061 A 
ATOM     16  C   UNL A   1      44.249  26.085  28.944  1.00  0.00     0.068 C 
ENDBRANCH   7  10
ENDBRANCH   5   6
BRANCH   5  17
ATOM     17  C   UNL A   1      46.031  20.954  24.841  1.00  0.00     0.053 C 
BRANCH  17  18
ATOM     18  C   UNL A   1      45.506  19.763  25.643  1.00  0.00     0.139 C 
BRANCH  18  19
ATOM     19  S   UNL A   1      43.859  19.145  25.322  1.00  0.00     0.147 S 
ATOM     20  C   UNL A   1      43.374  18.086  26.672  1.00  0.00     0.158 C 
ATOM     21  O   UNL A   1      42.962  20.285  25.347  1.00  0.00    -0.229 OA
ATOM     22  O   UNL A   1      43.934  18.331  24.125  1.00  0.00    -0.229 OA
ENDBRANCH  18  19
ENDBRANCH  17  18
ENDBRANCH   5  17
ENDBRANCH   3   5
ENDBRANCH   2   3
ENDBRANCH   1   2
BRANCH   1  23
ATOM     23  C   UNL A   1      43.268  26.305  25.301  1.00  0.00     0.275 C 
BRANCH  23  24
ATOM     24  O   UNL A   1      41.927  26.783  25.100  1.00  0.00    -0.458 OA
BRANCH  24  25
ATOM     25  C   UNL A   1      41.017  26.268  25.954  1.00  0.00     0.338 C 
ATOM     26  O   UNL A   1      40.322  25.270  25.796  1.00  0.00    -0.246 OA
BRANCH  25  27
ATOM     27  C   UNL A   1      41.120  26.961  27.236  1.00  0.00     0.060 A 
ATOM     28  C   UNL A   1      40.485  26.376  28.329  1.00  0.00     0.016 A 
ATOM     29  C   UNL A   1      41.742  28.201  27.355  1.00  0.00     0.016 A 
ATOM     30  C   UNL A   1      40.421  27.044  29.540  1.00  0.00     0.010 A 
ATOM     31  C   UNL A   1      41.687  28.871  28.582  1.00  0.00     0.010 A 
ATOM     32  C   UNL A   1      40.997  28.311  29.673  1.00  0.00    -0.014 A 
BRANCH  32  33
ATOM     33  C   UNL A   1      40.768  29.080  30.921  1.00  0.00     0.031 A 
ATOM     34  C   UNL A   1      39.638  30.069  30.972  1.00  0.00     0.074 A 
ATOM     35  C   UNL A   1      41.513  28.846  32.018  1.00  0.00     0.049 A 
ATOM     36  N   UNL A   1      39.368  30.969  31.881  1.00  0.00    -0.248 NA
ATOM     37  C   UNL A   1      38.688  30.045  29.847  1.00  0.00     0.031 C 
ATOM     38  C   UNL A   1      42.569  27.838  32.126  1.00  0.00     0.029 A 
ATOM     39  N   UNL A   1      41.489  29.436  33.256  1.00  0.00    -0.354 N 
ATOM     40  C   UNL A   1      38.256  31.658  31.410  1.00  0.00     0.074 A 
ATOM     41  C   UNL A   1      37.898  31.069  30.138  1.00  0.00     0.031 C 
ATOM     42  C   UNL A   1      43.083  27.871  33.366  1.00  0.00     0.029 A 
ATOM     43  C   UNL A   1      42.452  28.956  34.111  1.00  0.00     0.049 A 
ATOM     44  H   UNL A   1      40.844  30.136  33.507  1.00  0.00     0.167 HD
ATOM     45  C   UNL A   1      37.599  32.691  31.989  1.00  0.00     0.037 A 
ATOM     46  C   UNL A   1      42.821  29.379  35.335  1.00  0.00     0.037 A 
ATOM     47  C   UNL A   1      37.935  33.226  33.284  1.00  0.00     0.049 A 
ATOM     48  C   UNL A   1      42.116  30.564  35.937  1.00  0.00     0.074 A 
ATOM     49  C   UNL A   1      37.340  34.273  33.965  1.00  0.00     0.029 A 
ATOM     50  N   UNL A   1      38.946  32.741  34.101  1.00  0.00    -0.354 N 
ATOM     51  N   UNL A   1      41.121  31.266  35.448  1.00  0.00    -0.248 NA
ATOM     52  C   UNL A   1      42.597  31.028  37.245  1.00  0.00     0.031 C 
ATOM     53  C   UNL A   1      38.015  34.443  35.179  1.00  0.00     0.029 A 
ATOM     54  C   UNL A   1      39.000  33.475  35.274  1.00  0.00     0.049 A 
ATOM     55  H   UNL A   1      39.538  31.987  33.880  1.00  0.00     0.167 HD
ATOM     56  C   UNL A   1      40.849  32.248  36.393  1.00  0.00     0.074 A 
ATOM     57  C   UNL A   1      41.771  32.036  37.492  1.00  0.00     0.031 C 
ATOM     58  C   UNL A   1      39.924  33.241  36.356  1.00  0.00     0.037 A 
BRANCH  45  59
ATOM     59  C   UNL A   1      36.488  33.339  31.212  1.00  0.00     0.058 A 
ATOM     60  C   UNL A   1      35.140  33.211  31.583  1.00  0.00     0.135 A 
ATOM     61  C   UNL A   1      36.783  34.126  30.087  1.00  0.00     0.135 A 
ATOM     62  F   UNL A   1      34.799  32.456  32.639  1.00  0.00    -0.206 F 
ATOM     63  C   UNL A   1      34.124  33.820  30.851  1.00  0.00     0.059 A 
ATOM     64  C   UNL A   1      35.787  34.766  29.357  1.00  0.00     0.059 A 
ATOM     65  F   UNL A   1      38.056  34.279  29.686  1.00  0.00    -0.206 F 
ATOM     66  C   UNL A   1      34.458  34.595  29.739  1.00  0.00     0.060 A 
BRANCH  66  67
ATOM     67  S   UNL A   1      33.132  35.387  28.803  1.00  0.00     0.124 S 
ATOM     68  O   UNL A   1      32.563  34.252  28.084  1.00  0.00    -0.237 OA
ATOM     69  O   UNL A   1      32.297  35.951  29.859  1.00  0.00    -0.237 OA
ATOM     70  O   UNL A   1      33.835  36.364  27.977  1.00  0.00    -0.744 OA
ENDBRANCH  66  67
ENDBRANCH  45  59
BRANCH  46  71
ATOM     71  C   UNL A   1      43.946  28.713  36.045  1.00  0.00     0.058 A 
ATOM     72  C   UNL A   1      43.724  27.603  36.874  1.00  0.00     0.135 A 
ATOM     73  C   UNL A   1      45.267  29.165  35.898  1.00  0.00     0.135 A 
ATOM     74  F   UNL A   1      42.480  27.140  37.056  1.00  0.00    -0.206 F 
ATOM     75  C   UNL A   1      44.772  26.969  37.537  1.00  0.00     0.059 A 
ATOM     76  C   UNL A   1      46.333  28.531  36.527  1.00  0.00     0.059 A 
ATOM     77  F   UNL A   1      45.534  30.218  35.110  1.00  0.00    -0.206 F 
ATOM     78  C   UNL A   1      46.073  27.438  37.352  1.00  0.00     0.060 A 
BRANCH  78  79
ATOM     79  S   UNL A   1      47.434  26.572  38.165  1.00  0.00     0.124 S 
ATOM     80  O   UNL A   1      48.428  27.632  38.282  1.00  0.00    -0.237 OA
ATOM     81  O   UNL A   1      46.817  26.134  39.414  1.00  0.00    -0.237 OA
ATOM     82  O   UNL A   1      47.756  25.501  37.226  1.00  0.00    -0.744 OA
ENDBRANCH  78  79
ENDBRANCH  46  71
BRANCH  58  83
ATOM     83  C   UNL A   1      39.845  34.151  37.549  1.00  0.00     0.058 A 
ATOM     84  C   UNL A   1      39.043  33.840  38.658  1.00  0.00     0.135 A 
ATOM     85  C   UNL A   1      40.616  35.322  37.600  1.00  0.00     0.135 A 
ATOM     86  F   UNL A   1      38.281  32.736  38.653  1.00  0.00    -0.206 F 
ATOM     87  C   UNL A   1      38.991  34.674  39.769  1.00  0.00     0.059 A 
ATOM     88  C   UNL A   1      40.599  36.158  38.713  1.00  0.00     0.059 A 
ATOM     89  F   UNL A   1      41.407  35.658  36.568  1.00  0.00    -0.206 F 
ATOM     90  C   UNL A   1      39.774  35.831  39.787  1.00  0.00     0.060 A 
BRANCH  90  91
ATOM     91  S   UNL A   1      39.719  36.891  41.247  1.00  0.00     0.124 S 
ATOM     92  O   UNL A   1      41.137  37.026  41.566  1.00  0.00    -0.237 OA
ATOM     93  O   UNL A   1      39.065  38.093  40.738  1.00  0.00    -0.237 OA
ATOM     94  O   UNL A   1      38.933  36.114  42.201  1.00  0.00    -0.744 OA
ENDBRANCH  90  91
ENDBRANCH  58  83
ENDBRANCH  32  33
ENDBRANCH  25  27
ENDBRANCH  24  25
ENDBRANCH  23  24
ENDBRANCH   1  23
TORSDOF 19
ENDMDL
MODEL 3
REMARK VINA RESULT:      -9.8      2.507      3.365
REMARK SMILES Cc1nc(C)c(C(=O)N[C@@H](CCS(C)(=O)=O)C(=O)OCCOC(=O)c2ccc(-c3c4nc(c(-c5c(F)cc(S(=O)(=O)[O-])cc5F)c5ccc([nH]5)c(-c5c(F)cc(S(=O)(=O)[O-])cc5F)c5nc(c(-c6c(F)cc(S(=O)(=O)[O-])cc6F)c6ccc3[nH]6)C=C5)C=C4)cc2)s1
REMARK SMILES IDX 20 1 19 2 17 3 18 4 10 5 9 6 7 7 8 8 6 10 1 11 2 12 3 13
REMARK SMILES IDX 91 14 4 15 5 16 11 17 12 18 13 19 14 20 15 21 16 22 21 23
REMARK SMILES IDX 22 24 23 25 24 26 25 27 26 28 90 29 27 30 89 31 28 32 29 33
REMARK SMILES IDX 30 34 83 35 31 36 88 37 82 38 84 39 32 40 87 41 81 42 80 43
REMARK SMILES IDX 33 45 67 46 46 47 66 48 47 49 50 50 65 51 85 52 48 53 49 54
REMARK SMILES IDX 64 56 86 57 51 58 34 59 35 60 44 61 36 62 37 63 43 64 45 65
REMARK SMILES IDX 38 66 39 67 40 68 41 69 42 70 68 71 69 72 78 73 70 74 71 75
REMARK SMILES IDX 77 76 79 77 72 78 73 79 74 80 75 81 76 82 52 83 53 84 62 85
REMARK SMILES IDX 54 86 55 87 61 88 63 89 56 90 57 91 58 92 59 93 60 94
REMARK H PARENT 9 9 84 44 50 55
REMARK Flexibility Score: inf
ROOT
ATOM      1  C   UNL A   1      36.139  21.393  25.023  1.00  0.00     0.274 C 
ENDROOT
BRANCH   1   2
ATOM      2  O   UNL A   1      35.101  22.053  24.266  1.00  0.00    -0.461 OA
BRANCH   2   3
ATOM      3  C   UNL A   1      33.857  21.539  24.383  1.00  0.00     0.328 C 
ATOM      4  O   UNL A   1      32.893  21.873  23.700  1.00  0.00    -0.250 OA
BRANCH   3   5
ATOM      5  C   UNL A   1      33.709  20.539  25.538  1.00  0.00     0.193 C 
BRANCH   5   6
ATOM      6  N   UNL A   1      33.522  21.090  26.879  1.00  0.00    -0.338 N 
ATOM      7  C   UNL A   1      32.964  22.254  27.376  1.00  0.00     0.263 C 
ATOM      8  O   UNL A   1      33.025  22.331  28.608  1.00  0.00    -0.268 OA
ATOM      9  H   UNL A   1      33.870  20.500  27.586  1.00  0.00     0.164 HD
BRANCH   7  10
ATOM     10  C   UNL A   1      32.330  23.301  26.574  1.00  0.00     0.115 A 
ATOM     11  C   UNL A   1      31.741  26.248  24.078  1.00  0.00     0.079 C 
ATOM     12  C   UNL A   1      31.723  25.150  25.086  1.00  0.00     0.091 A 
ATOM     13  N   UNL A   1      30.655  24.455  25.388  1.00  0.00    -0.246 NA
ATOM     14  S   UNL A   1      33.127  24.699  25.957  1.00  0.00    -0.113 S 
ATOM     15  C   UNL A   1      30.971  23.431  26.271  1.00  0.00     0.061 A 
ATOM     16  C   UNL A   1      29.813  22.612  26.729  1.00  0.00     0.068 C 
ENDBRANCH   7  10
ENDBRANCH   5   6
BRANCH   5  17
ATOM     17  C   UNL A   1      32.650  19.462  25.221  1.00  0.00     0.053 C 
BRANCH  17  18
ATOM     18  C   UNL A   1      32.843  18.581  23.987  1.00  0.00     0.139 C 
BRANCH  18  19
ATOM     19  S   UNL A   1      34.060  17.271  24.023  1.00  0.00     0.147 S 
ATOM     20  C   UNL A   1      33.574  16.074  25.251  1.00  0.00     0.158 C 
ATOM     21  O   UNL A   1      33.998  16.595  22.739  1.00  0.00    -0.229 OA
ATOM     22  O   UNL A   1      35.312  17.862  24.450  1.00  0.00    -0.229 OA
ENDBRANCH  18  19
ENDBRANCH  17  18
ENDBRANCH   5  17
ENDBRANCH   3   5
ENDBRANCH   2   3
ENDBRANCH   1   2
BRANCH   1  23
ATOM     23  C   UNL A   1      37.441  22.186  24.960  1.00  0.00     0.275 C 
BRANCH  23  24
ATOM     24  O   UNL A   1      37.914  22.479  26.286  1.00  0.00    -0.458 OA
BRANCH  24  25
ATOM     25  C   UNL A   1      39.252  22.629  26.380  1.00  0.00     0.338 C 
ATOM     26  O   UNL A   1      40.122  21.872  25.964  1.00  0.00    -0.246 OA
BRANCH  25  27
ATOM     27  C   UNL A   1      39.548  23.970  26.880  1.00  0.00     0.060 A 
ATOM     28  C   UNL A   1      40.102  24.877  25.980  1.00  0.00     0.016 A 
ATOM     29  C   UNL A   1      39.377  24.311  28.219  1.00  0.00     0.016 A 
ATOM     30  C   UNL A   1      40.537  26.117  26.416  1.00  0.00     0.010 A 
ATOM     31  C   UNL A   1      39.806  25.568  28.657  1.00  0.00     0.010 A 
ATOM     32  C   UNL A   1      40.419  26.467  27.764  1.00  0.00    -0.014 A 
BRANCH  32  33
ATOM     33  C   UNL A   1      41.047  27.724  28.240  1.00  0.00     0.031 A 
ATOM     34  C   UNL A   1      42.538  27.879  28.142  1.00  0.00     0.074 A 
ATOM     35  C   UNL A   1      40.288  28.742  28.688  1.00  0.00     0.049 A 
ATOM     36  N   UNL A   1      43.309  28.802  28.655  1.00  0.00    -0.248 NA
ATOM     37  C   UNL A   1      43.258  26.856  27.366  1.00  0.00     0.031 C 
ATOM     38  C   UNL A   1      38.825  28.753  28.734  1.00  0.00     0.029 A 
ATOM     39  N   UNL A   1      40.645  29.971  29.183  1.00  0.00    -0.354 N 
ATOM     40  C   UNL A   1      44.608  28.439  28.317  1.00  0.00     0.074 A 
ATOM     41  C   UNL A   1      44.521  27.215  27.551  1.00  0.00     0.031 C 
ATOM     42  C   UNL A   1      38.409  29.934  29.217  1.00  0.00     0.029 A 
ATOM     43  C   UNL A   1      39.574  30.729  29.593  1.00  0.00     0.049 A 
ATOM     44  H   UNL A   1      41.578  30.279  29.239  1.00  0.00     0.167 HD
ATOM     45  C   UNL A   1      45.764  29.072  28.625  1.00  0.00     0.037 A 
ATOM     46  C   UNL A   1      39.538  31.906  30.247  1.00  0.00     0.037 A 
ATOM     47  C   UNL A   1      45.827  30.321  29.340  1.00  0.00     0.049 A 
ATOM     48  C   UNL A   1      40.835  32.565  30.630  1.00  0.00     0.074 A 
ATOM     49  C   UNL A   1      46.943  31.049  29.709  1.00  0.00     0.029 A 
ATOM     50  N   UNL A   1      44.721  31.036  29.777  1.00  0.00    -0.354 N 
ATOM     51  N   UNL A   1      42.063  32.172  30.382  1.00  0.00    -0.248 NA
ATOM     52  C   UNL A   1      40.744  33.813  31.398  1.00  0.00     0.031 C 
ATOM     53  C   UNL A   1      46.514  32.187  30.401  1.00  0.00     0.029 A 
ATOM     54  C   UNL A   1      45.129  32.191  30.423  1.00  0.00     0.049 A 
ATOM     55  H   UNL A   1      43.784  30.764  29.648  1.00  0.00     0.167 HD
ATOM     56  C   UNL A   1      42.890  33.130  30.954  1.00  0.00     0.074 A 
ATOM     57  C   UNL A   1      42.024  34.132  31.543  1.00  0.00     0.031 C 
ATOM     58  C   UNL A   1      44.246  33.177  30.996  1.00  0.00     0.037 A 
BRANCH  45  59
ATOM     59  C   UNL A   1      47.053  28.405  28.235  1.00  0.00     0.058 A 
ATOM     60  C   UNL A   1      47.710  27.493  29.076  1.00  0.00     0.135 A 
ATOM     61  C   UNL A   1      47.628  28.666  26.980  1.00  0.00     0.135 A 
ATOM     62  F   UNL A   1      47.216  27.221  30.293  1.00  0.00    -0.206 F 
ATOM     63  C   UNL A   1      48.903  26.884  28.696  1.00  0.00     0.059 A 
ATOM     64  C   UNL A   1      48.804  28.048  26.569  1.00  0.00     0.059 A 
ATOM     65  F   UNL A   1      47.042  29.533  26.137  1.00  0.00    -0.206 F 
ATOM     66  C   UNL A   1      49.443  27.169  27.441  1.00  0.00     0.060 A 
BRANCH  66  67
ATOM     67  S   UNL A   1      50.986  26.365  26.956  1.00  0.00     0.124 S 
ATOM     68  O   UNL A   1      51.921  26.915  27.932  1.00  0.00    -0.237 OA
ATOM     69  O   UNL A   1      50.665  24.950  27.113  1.00  0.00    -0.237 OA
ATOM     70  O   UNL A   1      51.184  26.810  25.579  1.00  0.00    -0.744 OA
ENDBRANCH  66  67
ENDBRANCH  45  59
BRANCH  46  71
ATOM     71  C   UNL A   1      38.230  32.505  30.629  1.00  0.00     0.058 A 
ATOM     72  C   UNL A   1      37.671  32.275  31.895  1.00  0.00     0.135 A 
ATOM     73  C   UNL A   1      37.521  33.329  29.740  1.00  0.00     0.135 A 
ATOM     74  F   UNL A   1      38.303  31.486  32.775  1.00  0.00    -0.206 F 
ATOM     75  C   UNL A   1      36.451  32.837  32.264  1.00  0.00     0.059 A 
ATOM     76  C   UNL A   1      36.316  33.925  30.097  1.00  0.00     0.059 A 
ATOM     77  F   UNL A   1      38.017  33.588  28.521  1.00  0.00    -0.206 F 
ATOM     78  C   UNL A   1      35.785  33.664  31.359  1.00  0.00     0.060 A 
BRANCH  78  79
ATOM     79  S   UNL A   1      34.235  34.440  31.868  1.00  0.00     0.124 S 
ATOM     80  O   UNL A   1      33.682  33.430  32.763  1.00  0.00    -0.237 OA
ATOM     81  O   UNL A   1      34.701  35.669  32.503  1.00  0.00    -0.237 OA
ATOM     82  O   UNL A   1      33.524  34.626  30.607  1.00  0.00    -0.744 OA
ENDBRANCH  78  79
ENDBRANCH  46  71
BRANCH  58  83
ATOM     83  C   UNL A   1      44.871  34.363  31.674  1.00  0.00     0.058 A 
ATOM     84  C   UNL A   1      45.149  35.547  30.973  1.00  0.00     0.135 A 
ATOM     85  C   UNL A   1      45.153  34.329  33.048  1.00  0.00     0.135 A 
ATOM     86  F   UNL A   1      44.906  35.626  29.656  1.00  0.00    -0.206 F 
ATOM     87  C   UNL A   1      45.707  36.650  31.610  1.00  0.00     0.059 A 
ATOM     88  C   UNL A   1      45.687  35.429  33.711  1.00  0.00     0.059 A 
ATOM     89  F   UNL A   1      44.896  33.221  33.764  1.00  0.00    -0.206 F 
ATOM     90  C   UNL A   1      45.972  36.582  32.980  1.00  0.00     0.060 A 
BRANCH  90  91
ATOM     91  S   UNL A   1      46.670  38.030  33.800  1.00  0.00     0.124 S 
ATOM     92  O   UNL A   1      46.891  37.524  35.152  1.00  0.00    -0.237 OA
ATOM     93  O   UNL A   1      47.873  38.286  33.014  1.00  0.00    -0.237 OA
ATOM     94  O   UNL A   1      45.619  39.034  33.670  1.00  0.00    -0.744 OA
ENDBRANCH  90  91
ENDBRANCH  58  83
ENDBRANCH  32  33
ENDBRANCH  25  27
ENDBRANCH  24  25
ENDBRANCH  23  24
ENDBRANCH   1  23
TORSDOF 19
ENDMDL
