MODEL 1
REMARK VINA RESULT:     -12.4      0.000      0.000
REMARK SMILES Cn1ncc2c(NCCC3=CCCCC3)c(C(=O)OCCOC(=O)c3ccc(-c4c5nc(c(-c6c(F)cc(S(=O)(=O)[O-])cc6F)c6ccc([nH]6)c(-c6c(F)cc(S(=O)(=O)[O-])cc6F)c6nc(c(-c7c(F)cc(S(=O)(=O)[O-])cc7F)c7ccc4[nH]7)C=C6)C=C5)cc3)cnc21
REMARK SMILES IDX 20 1 19 2 17 3 18 4 16 5 1 6 2 7 3 8 93 9 4 10 5 11 92 12
REMARK SMILES IDX 6 13 91 14 7 15 8 17 9 18 10 19 11 20 15 21 12 22 14 23
REMARK SMILES IDX 13 24 21 25 22 26 23 27 24 28 25 29 26 30 90 31 27 32 89 33
REMARK SMILES IDX 28 34 29 35 30 36 83 37 31 38 88 39 82 40 84 41 32 42 87 43
REMARK SMILES IDX 81 44 80 45 33 47 67 48 46 49 66 50 47 51 50 52 65 53 85 54
REMARK SMILES IDX 48 55 49 56 64 58 86 59 51 60 34 61 35 62 44 63 36 64 37 65
REMARK SMILES IDX 43 66 45 67 38 68 39 69 40 70 41 71 42 72 68 73 69 74 78 75
REMARK SMILES IDX 70 76 71 77 77 78 79 79 72 80 73 81 74 82 75 83 76 84 52 85
REMARK SMILES IDX 53 86 62 87 54 88 55 89 61 90 63 91 56 92 57 93 58 94 59 95
REMARK SMILES IDX 60 96
REMARK H PARENT 7 16 84 46 50 57
REMARK Flexibility Score: inf
ROOT
ATOM      1  C   UNL A   1      37.415  21.658  24.785  1.00  0.00     0.275 C 
ENDROOT
BRANCH   1   2
ATOM      2  O   UNL A   1      36.734  22.926  24.894  1.00  0.00    -0.458 OA
BRANCH   2   3
ATOM      3  C   UNL A   1      35.857  23.224  23.894  1.00  0.00     0.341 C 
ATOM      4  O   UNL A   1      36.056  22.979  22.711  1.00  0.00    -0.246 OA
BRANCH   3   5
ATOM      5  C   UNL A   1      34.591  23.825  24.412  1.00  0.00     0.102 A 
ATOM      6  C   UNL A   1      30.176  26.396  24.989  1.00  0.00     0.176 C 
ATOM      7  N   UNL A   1      31.027  25.367  25.530  1.00  0.00    -0.250 N 
ATOM      8  N   UNL A   1      30.592  24.631  26.570  1.00  0.00    -0.179 NA
ATOM      9  C   UNL A   1      32.253  24.983  25.056  1.00  0.00     0.159 A 
ATOM     10  C   UNL A   1      31.606  23.783  26.778  1.00  0.00     0.147 A 
ATOM     11  C   UNL A   1      32.668  23.911  25.843  1.00  0.00     0.063 A 
ATOM     12  N   UNL A   1      32.897  25.544  24.016  1.00  0.00    -0.236 NA
ATOM     13  C   UNL A   1      33.903  23.272  25.541  1.00  0.00     0.063 A 
ATOM     14  C   UNL A   1      34.074  24.938  23.750  1.00  0.00     0.131 A 
BRANCH  13  15
ATOM     15  N   UNL A   1      34.431  22.173  26.208  1.00  0.00    -0.383 N 
ATOM     16  H   UNL A   1      35.263  22.353  26.703  1.00  0.00     0.160 HD
BRANCH  15  17
ATOM     17  C   UNL A   1      33.955  20.801  26.297  1.00  0.00     0.117 C 
BRANCH  17  18
ATOM     18  C   UNL A   1      33.754  20.202  24.890  1.00  0.00     0.052 C 
BRANCH  18  19
ATOM     19  C   UNL A   1      33.603  18.695  24.871  1.00  0.00    -0.072 C 
ATOM     20  C   UNL A   1      32.663  18.074  25.605  1.00  0.00    -0.028 C 
ATOM     21  C   UNL A   1      34.566  17.924  24.001  1.00  0.00     0.031 C 
ATOM     22  C   UNL A   1      32.415  16.600  25.578  1.00  0.00     0.027 C 
ATOM     23  C   UNL A   1      34.174  16.459  23.781  1.00  0.00     0.005 C 
ATOM     24  C   UNL A   1      33.614  15.820  25.048  1.00  0.00     0.004 C 
ENDBRANCH  18  19
ENDBRANCH  17  18
ENDBRANCH  15  17
ENDBRANCH  13  15
ENDBRANCH   3   5
ENDBRANCH   2   3
ENDBRANCH   1   2
BRANCH   1  25
ATOM     25  C   UNL A   1      38.574  21.526  25.771  1.00  0.00     0.275 C 
BRANCH  25  26
ATOM     26  O   UNL A   1      38.877  22.768  26.405  1.00  0.00    -0.458 OA
BRANCH  26  27
ATOM     27  C   UNL A   1      40.020  22.749  27.129  1.00  0.00     0.338 C 
ATOM     28  O   UNL A   1      40.481  21.793  27.734  1.00  0.00    -0.246 OA
BRANCH  27  29
ATOM     29  C   UNL A   1      40.595  24.094  27.212  1.00  0.00     0.060 A 
ATOM     30  C   UNL A   1      41.544  24.303  28.215  1.00  0.00     0.016 A 
ATOM     31  C   UNL A   1      39.999  25.157  26.519  1.00  0.00     0.016 A 
ATOM     32  C   UNL A   1      41.751  25.588  28.663  1.00  0.00     0.010 A 
ATOM     33  C   UNL A   1      40.200  26.443  26.973  1.00  0.00     0.010 A 
ATOM     34  C   UNL A   1      41.009  26.628  28.092  1.00  0.00    -0.014 A 
BRANCH  34  35
ATOM     35  C   UNL A   1      41.068  27.909  28.757  1.00  0.00     0.031 A 
ATOM     36  C   UNL A   1      42.170  28.793  28.331  1.00  0.00     0.074 A 
ATOM     37  C   UNL A   1      40.168  28.264  29.690  1.00  0.00     0.049 A 
ATOM     38  N   UNL A   1      43.232  29.105  28.993  1.00  0.00    -0.248 NA
ATOM     39  C   UNL A   1      42.141  29.292  26.951  1.00  0.00     0.031 C 
ATOM     40  C   UNL A   1      38.885  27.638  30.018  1.00  0.00     0.029 A 
ATOM     41  N   UNL A   1      40.205  29.348  30.505  1.00  0.00    -0.354 N 
ATOM     42  C   UNL A   1      43.929  29.999  28.188  1.00  0.00     0.074 A 
ATOM     43  C   UNL A   1      43.295  29.956  26.892  1.00  0.00     0.031 C 
ATOM     44  C   UNL A   1      38.181  28.476  30.814  1.00  0.00     0.029 A 
ATOM     45  C   UNL A   1      39.012  29.622  31.149  1.00  0.00     0.049 A 
ATOM     46  H   UNL A   1      41.015  29.894  30.628  1.00  0.00     0.167 HD
ATOM     47  C   UNL A   1      44.852  30.857  28.697  1.00  0.00     0.037 A 
ATOM     48  C   UNL A   1      38.724  30.762  31.822  1.00  0.00     0.037 A 
ATOM     49  C   UNL A   1      45.271  30.473  30.021  1.00  0.00     0.049 A 
ATOM     50  C   UNL A   1      40.021  31.386  32.208  1.00  0.00     0.074 A 
ATOM     51  C   UNL A   1      45.881  29.352  30.553  1.00  0.00     0.029 A 
ATOM     52  N   UNL A   1      44.745  31.152  31.094  1.00  0.00    -0.354 N 
ATOM     53  N   UNL A   1      40.850  30.866  33.073  1.00  0.00    -0.248 NA
ATOM     54  C   UNL A   1      40.612  32.358  31.298  1.00  0.00     0.031 C 
ATOM     55  C   UNL A   1      45.276  29.171  31.830  1.00  0.00     0.029 A 
ATOM     56  C   UNL A   1      44.361  30.208  32.014  1.00  0.00     0.049 A 
ATOM     57  H   UNL A   1      44.659  32.129  31.185  1.00  0.00     0.167 HD
ATOM     58  C   UNL A   1      42.117  31.126  32.566  1.00  0.00     0.074 A 
ATOM     59  C   UNL A   1      41.908  32.124  31.520  1.00  0.00     0.031 C 
ATOM     60  C   UNL A   1      43.182  30.316  32.845  1.00  0.00     0.037 A 
BRANCH  47  61
ATOM     61  C   UNL A   1      45.140  32.217  28.120  1.00  0.00     0.058 A 
ATOM     62  C   UNL A   1      46.441  32.527  27.677  1.00  0.00     0.135 A 
ATOM     63  C   UNL A   1      44.255  33.311  28.242  1.00  0.00     0.135 A 
ATOM     64  F   UNL A   1      47.363  31.561  27.535  1.00  0.00    -0.206 F 
ATOM     65  C   UNL A   1      46.853  33.838  27.443  1.00  0.00     0.059 A 
ATOM     66  C   UNL A   1      44.627  34.618  27.956  1.00  0.00     0.059 A 
ATOM     67  F   UNL A   1      43.020  33.177  28.744  1.00  0.00    -0.206 F 
ATOM     68  C   UNL A   1      45.941  34.879  27.606  1.00  0.00     0.060 A 
BRANCH  68  69
ATOM     69  S   UNL A   1      46.506  36.582  27.459  1.00  0.00     0.124 S 
ATOM     70  O   UNL A   1      47.676  36.573  28.331  1.00  0.00    -0.237 OA
ATOM     71  O   UNL A   1      46.774  36.691  26.029  1.00  0.00    -0.237 OA
ATOM     72  O   UNL A   1      45.365  37.357  27.939  1.00  0.00    -0.744 OA
ENDBRANCH  68  69
ENDBRANCH  47  61
BRANCH  48  73
ATOM     73  C   UNL A   1      37.432  31.496  31.801  1.00  0.00     0.058 A 
ATOM     74  C   UNL A   1      36.726  31.773  32.984  1.00  0.00     0.135 A 
ATOM     75  C   UNL A   1      36.987  32.170  30.642  1.00  0.00     0.135 A 
ATOM     76  F   UNL A   1      37.099  31.202  34.140  1.00  0.00    -0.206 F 
ATOM     77  C   UNL A   1      35.668  32.689  33.023  1.00  0.00     0.059 A 
ATOM     78  C   UNL A   1      35.927  33.072  30.654  1.00  0.00     0.059 A 
ATOM     79  F   UNL A   1      37.629  32.042  29.472  1.00  0.00    -0.206 F 
ATOM     80  C   UNL A   1      35.287  33.347  31.854  1.00  0.00     0.060 A 
BRANCH  80  81
ATOM     81  S   UNL A   1      34.033  34.646  31.927  1.00  0.00     0.124 S 
ATOM     82  O   UNL A   1      34.816  35.800  32.356  1.00  0.00    -0.237 OA
ATOM     83  O   UNL A   1      33.548  34.679  30.552  1.00  0.00    -0.237 OA
ATOM     84  O   UNL A   1      33.077  34.141  32.909  1.00  0.00    -0.744 OA
ENDBRANCH  80  81
ENDBRANCH  48  73
BRANCH  60  85
ATOM     85  C   UNL A   1      43.018  29.273  33.921  1.00  0.00     0.058 A 
ATOM     86  C   UNL A   1      43.243  29.524  35.287  1.00  0.00     0.135 A 
ATOM     87  C   UNL A   1      42.455  28.034  33.583  1.00  0.00     0.135 A 
ATOM     88  F   UNL A   1      43.673  30.722  35.703  1.00  0.00    -0.206 F 
ATOM     89  C   UNL A   1      42.961  28.571  36.266  1.00  0.00     0.059 A 
ATOM     90  C   UNL A   1      42.138  27.079  34.546  1.00  0.00     0.059 A 
ATOM     91  F   UNL A   1      42.149  27.761  32.303  1.00  0.00    -0.206 F 
ATOM     92  C   UNL A   1      42.407  27.349  35.887  1.00  0.00     0.060 A 
BRANCH  92  93
ATOM     93  S   UNL A   1      41.964  26.154  37.166  1.00  0.00     0.124 S 
ATOM     94  O   UNL A   1      43.030  26.342  38.145  1.00  0.00    -0.237 OA
ATOM     95  O   UNL A   1      40.638  26.605  37.581  1.00  0.00    -0.237 OA
ATOM     96  O   UNL A   1      41.984  24.875  36.461  1.00  0.00    -0.744 OA
ENDBRANCH  92  93
ENDBRANCH  60  85
ENDBRANCH  34  35
ENDBRANCH  27  29
ENDBRANCH  26  27
ENDBRANCH  25  26
ENDBRANCH   1  25
TORSDOF 18
ENDMDL
MODEL 2
REMARK VINA RESULT:     -12.0      3.567      9.981
REMARK SMILES Cn1ncc2c(NCCC3=CCCCC3)c(C(=O)OCCOC(=O)c3ccc(-c4c5nc(c(-c6c(F)cc(S(=O)(=O)[O-])cc6F)c6ccc([nH]6)c(-c6c(F)cc(S(=O)(=O)[O-])cc6F)c6nc(c(-c7c(F)cc(S(=O)(=O)[O-])cc7F)c7ccc4[nH]7)C=C6)C=C5)cc3)cnc21
REMARK SMILES IDX 20 1 19 2 17 3 18 4 16 5 1 6 2 7 3 8 93 9 4 10 5 11 92 12
REMARK SMILES IDX 6 13 91 14 7 15 8 17 9 18 10 19 11 20 15 21 12 22 14 23
REMARK SMILES IDX 13 24 21 25 22 26 23 27 24 28 25 29 26 30 90 31 27 32 89 33
REMARK SMILES IDX 28 34 29 35 30 36 83 37 31 38 88 39 82 40 84 41 32 42 87 43
REMARK SMILES IDX 81 44 80 45 33 47 67 48 46 49 66 50 47 51 50 52 65 53 85 54
REMARK SMILES IDX 48 55 49 56 64 58 86 59 51 60 34 61 35 62 44 63 36 64 37 65
REMARK SMILES IDX 43 66 45 67 38 68 39 69 40 70 41 71 42 72 68 73 69 74 78 75
REMARK SMILES IDX 70 76 71 77 77 78 79 79 72 80 73 81 74 82 75 83 76 84 52 85
REMARK SMILES IDX 53 86 62 87 54 88 55 89 61 90 63 91 56 92 57 93 58 94 59 95
REMARK SMILES IDX 60 96
REMARK H PARENT 7 16 84 46 50 57
REMARK Flexibility Score: inf
ROOT
ATOM      1  C   UNL A   1      32.102  29.839  27.125  1.00  0.00     0.275 C 
ENDROOT
BRANCH   1   2
ATOM      2  O   UNL A   1      31.742  28.929  26.064  1.00  0.00    -0.458 OA
BRANCH   2   3
ATOM      3  C   UNL A   1      31.633  27.615  26.412  1.00  0.00     0.341 C 
ATOM      4  O   UNL A   1      30.956  27.206  27.346  1.00  0.00    -0.246 OA
BRANCH   3   5
ATOM      5  C   UNL A   1      32.381  26.719  25.480  1.00  0.00     0.102 A 
ATOM      6  C   UNL A   1      35.545  23.256  23.374  1.00  0.00     0.176 C 
ATOM      7  N   UNL A   1      34.364  24.056  23.175  1.00  0.00    -0.250 N 
ATOM      8  N   UNL A   1      33.631  23.884  22.060  1.00  0.00    -0.179 NA
ATOM      9  C   UNL A   1      33.833  24.966  24.050  1.00  0.00     0.159 A 
ATOM     10  C   UNL A   1      32.627  24.752  22.227  1.00  0.00     0.147 A 
ATOM     11  C   UNL A   1      32.657  25.439  23.469  1.00  0.00     0.063 A 
ATOM     12  N   UNL A   1      34.360  25.302  25.241  1.00  0.00    -0.236 NA
ATOM     13  C   UNL A   1      31.861  26.373  24.189  1.00  0.00     0.063 A 
ATOM     14  C   UNL A   1      33.604  26.201  25.906  1.00  0.00     0.131 A 
BRANCH  13  15
ATOM     15  N   UNL A   1      30.651  26.905  23.761  1.00  0.00    -0.383 N 
ATOM     16  H   UNL A   1      29.855  26.507  24.182  1.00  0.00     0.160 HD
BRANCH  15  17
ATOM     17  C   UNL A   1      30.367  27.954  22.795  1.00  0.00     0.117 C 
BRANCH  17  18
ATOM     18  C   UNL A   1      28.918  28.458  22.946  1.00  0.00     0.052 C 
BRANCH  18  19
ATOM     19  C   UNL A   1      28.736  29.931  22.647  1.00  0.00    -0.072 C 
ATOM     20  C   UNL A   1      29.046  30.876  23.553  1.00  0.00    -0.028 C 
ATOM     21  C   UNL A   1      28.178  30.288  21.290  1.00  0.00     0.031 C 
ATOM     22  C   UNL A   1      28.957  32.346  23.296  1.00  0.00     0.027 C 
ATOM     23  C   UNL A   1      28.307  31.772  20.932  1.00  0.00     0.005 C 
ATOM     24  C   UNL A   1      28.032  32.676  22.129  1.00  0.00     0.004 C 
ENDBRANCH  18  19
ENDBRANCH  17  18
ENDBRANCH  15  17
ENDBRANCH  13  15
ENDBRANCH   3   5
ENDBRANCH   2   3
ENDBRANCH   1   2
BRANCH   1  25
ATOM     25  C   UNL A   1      33.363  30.640  26.809  1.00  0.00     0.275 C 
BRANCH  25  26
ATOM     26  O   UNL A   1      34.455  30.265  27.647  1.00  0.00    -0.458 OA
BRANCH  26  27
ATOM     27  C   UNL A   1      35.281  31.290  27.963  1.00  0.00     0.338 C 
ATOM     28  O   UNL A   1      35.223  32.430  27.529  1.00  0.00    -0.246 OA
BRANCH  27  29
ATOM     29  C   UNL A   1      36.372  30.820  28.821  1.00  0.00     0.060 A 
ATOM     30  C   UNL A   1      37.542  31.583  28.811  1.00  0.00     0.016 A 
ATOM     31  C   UNL A   1      36.329  29.531  29.372  1.00  0.00     0.016 A 
ATOM     32  C   UNL A   1      38.722  30.976  29.175  1.00  0.00     0.010 A 
ATOM     33  C   UNL A   1      37.513  28.921  29.728  1.00  0.00     0.010 A 
ATOM     34  C   UNL A   1      38.699  29.627  29.544  1.00  0.00    -0.014 A 
BRANCH  34  35
ATOM     35  C   UNL A   1      39.978  28.966  29.670  1.00  0.00     0.031 A 
ATOM     36  C   UNL A   1      40.495  28.844  31.046  1.00  0.00     0.074 A 
ATOM     37  C   UNL A   1      40.637  28.489  28.599  1.00  0.00     0.049 A 
ATOM     38  N   UNL A   1      41.480  29.484  31.579  1.00  0.00    -0.248 NA
ATOM     39  C   UNL A   1      39.745  27.993  31.976  1.00  0.00     0.031 C 
ATOM     40  C   UNL A   1      40.148  28.283  27.233  1.00  0.00     0.029 A 
ATOM     41  N   UNL A   1      41.904  28.010  28.554  1.00  0.00    -0.354 N 
ATOM     42  C   UNL A   1      41.602  28.982  32.869  1.00  0.00     0.074 A 
ATOM     43  C   UNL A   1      40.422  28.187  33.108  1.00  0.00     0.031 C 
ATOM     44  C   UNL A   1      41.046  27.529  26.558  1.00  0.00     0.029 A 
ATOM     45  C   UNL A   1      42.214  27.316  27.398  1.00  0.00     0.049 A 
ATOM     46  H   UNL A   1      42.551  28.145  29.284  1.00  0.00     0.167 HD
ATOM     47  C   UNL A   1      42.757  29.092  33.578  1.00  0.00     0.037 A 
ATOM     48  C   UNL A   1      43.317  26.552  27.209  1.00  0.00     0.037 A 
ATOM     49  C   UNL A   1      43.644  30.076  33.011  1.00  0.00     0.049 A 
ATOM     50  C   UNL A   1      44.346  27.013  28.183  1.00  0.00     0.074 A 
ATOM     51  C   UNL A   1      43.551  31.434  32.771  1.00  0.00     0.029 A 
ATOM     52  N   UNL A   1      44.706  29.639  32.256  1.00  0.00    -0.354 N 
ATOM     53  N   UNL A   1      44.922  28.185  28.133  1.00  0.00    -0.248 NA
ATOM     54  C   UNL A   1      44.405  26.354  29.482  1.00  0.00     0.031 C 
ATOM     55  C   UNL A   1      44.233  31.641  31.537  1.00  0.00     0.029 A 
ATOM     56  C   UNL A   1      44.728  30.405  31.118  1.00  0.00     0.049 A 
ATOM     57  H   UNL A   1      45.331  28.914  32.488  1.00  0.00     0.167 HD
ATOM     58  C   UNL A   1      45.054  28.583  29.457  1.00  0.00     0.074 A 
ATOM     59  C   UNL A   1      44.801  27.379  30.242  1.00  0.00     0.031 C 
ATOM     60  C   UNL A   1      45.085  29.904  29.808  1.00  0.00     0.037 A 
BRANCH  47  61
ATOM     61  C   UNL A   1      43.213  28.086  34.600  1.00  0.00     0.058 A 
ATOM     62  C   UNL A   1      43.484  28.503  35.918  1.00  0.00     0.135 A 
ATOM     63  C   UNL A   1      43.653  26.787  34.262  1.00  0.00     0.135 A 
ATOM     64  F   UNL A   1      43.116  29.723  36.339  1.00  0.00    -0.206 F 
ATOM     65  C   UNL A   1      44.207  27.713  36.812  1.00  0.00     0.059 A 
ATOM     66  C   UNL A   1      44.322  25.961  35.156  1.00  0.00     0.059 A 
ATOM     67  F   UNL A   1      43.549  26.299  33.019  1.00  0.00    -0.206 F 
ATOM     68  C   UNL A   1      44.639  26.451  36.412  1.00  0.00     0.060 A 
BRANCH  68  69
ATOM     69  S   UNL A   1      45.706  25.493  37.502  1.00  0.00     0.124 S 
ATOM     70  O   UNL A   1      44.740  24.977  38.466  1.00  0.00    -0.237 OA
ATOM     71  O   UNL A   1      46.280  24.516  36.584  1.00  0.00    -0.237 OA
ATOM     72  O   UNL A   1      46.642  26.489  38.015  1.00  0.00    -0.744 OA
ENDBRANCH  68  69
ENDBRANCH  47  61
BRANCH  48  73
ATOM     73  C   UNL A   1      43.371  25.238  26.516  1.00  0.00     0.058 A 
ATOM     74  C   UNL A   1      44.131  25.056  25.348  1.00  0.00     0.135 A 
ATOM     75  C   UNL A   1      42.886  24.062  27.129  1.00  0.00     0.135 A 
ATOM     76  F   UNL A   1      44.659  26.116  24.716  1.00  0.00    -0.206 F 
ATOM     77  C   UNL A   1      44.421  23.785  24.839  1.00  0.00     0.059 A 
ATOM     78  C   UNL A   1      43.148  22.789  26.631  1.00  0.00     0.059 A 
ATOM     79  F   UNL A   1      42.213  24.107  28.288  1.00  0.00    -0.206 F 
ATOM     80  C   UNL A   1      43.939  22.655  25.499  1.00  0.00     0.060 A 
BRANCH  80  81
ATOM     81  S   UNL A   1      44.442  21.011  24.943  1.00  0.00     0.124 S 
ATOM     82  O   UNL A   1      45.698  20.820  25.660  1.00  0.00    -0.237 OA
ATOM     83  O   UNL A   1      43.323  20.185  25.383  1.00  0.00    -0.237 OA
ATOM     84  O   UNL A   1      44.567  21.165  23.496  1.00  0.00    -0.744 OA
ENDBRANCH  80  81
ENDBRANCH  48  73
BRANCH  60  85
ATOM     85  C   UNL A   1      45.228  30.928  28.711  1.00  0.00     0.058 A 
ATOM     86  C   UNL A   1      44.137  31.476  28.013  1.00  0.00     0.135 A 
ATOM     87  C   UNL A   1      46.489  31.495  28.474  1.00  0.00     0.135 A 
ATOM     88  F   UNL A   1      42.886  31.068  28.265  1.00  0.00    -0.206 F 
ATOM     89  C   UNL A   1      44.297  32.511  27.091  1.00  0.00     0.059 A 
ATOM     90  C   UNL A   1      46.669  32.548  27.580  1.00  0.00     0.059 A 
ATOM     91  F   UNL A   1      47.560  31.064  29.161  1.00  0.00    -0.206 F 
ATOM     92  C   UNL A   1      45.569  33.043  26.881  1.00  0.00     0.060 A 
BRANCH  92  93
ATOM     93  S   UNL A   1      45.758  34.439  25.751  1.00  0.00     0.124 S 
ATOM     94  O   UNL A   1      47.192  34.421  25.478  1.00  0.00    -0.237 OA
ATOM     95  O   UNL A   1      44.896  34.066  24.634  1.00  0.00    -0.237 OA
ATOM     96  O   UNL A   1      45.288  35.579  26.535  1.00  0.00    -0.744 OA
ENDBRANCH  92  93
ENDBRANCH  60  85
ENDBRANCH  34  35
ENDBRANCH  27  29
ENDBRANCH  26  27
ENDBRANCH  25  26
ENDBRANCH   1  25
TORSDOF 18
ENDMDL
MODEL 3
REMARK VINA RESULT:     -11.8      5.377     12.077
REMARK SMILES Cn1ncc2c(NCCC3=CCCCC3)c(C(=O)OCCOC(=O)c3ccc(-c4c5nc(c(-c6c(F)cc(S(=O)(=O)[O-])cc6F)c6ccc([nH]6)c(-c6c(F)cc(S(=O)(=O)[O-])cc6F)c6nc(c(-c7c(F)cc(S(=O)(=O)[O-])cc7F)c7ccc4[nH]7)C=C6)C=C5)cc3)cnc21
REMARK SMILES IDX 20 1 19 2 17 3 18 4 16 5 1 6 2 7 3 8 93 9 4 10 5 11 92 12
REMARK SMILES IDX 6 13 91 14 7 15 8 17 9 18 10 19 11 20 15 21 12 22 14 23
REMARK SMILES IDX 13 24 21 25 22 26 23 27 24 28 25 29 26 30 90 31 27 32 89 33
REMARK SMILES IDX 28 34 29 35 30 36 83 37 31 38 88 39 82 40 84 41 32 42 87 43
REMARK SMILES IDX 81 44 80 45 33 47 67 48 46 49 66 50 47 51 50 52 65 53 85 54
REMARK SMILES IDX 48 55 49 56 64 58 86 59 51 60 34 61 35 62 44 63 36 64 37 65
REMARK SMILES IDX 43 66 45 67 38 68 39 69 40 70 41 71 42 72 68 73 69 74 78 75
REMARK SMILES IDX 70 76 71 77 77 78 79 79 72 80 73 81 74 82 75 83 76 84 52 85
REMARK SMILES IDX 53 86 62 87 54 88 55 89 61 90 63 91 56 92 57 93 58 94 59 95
REMARK SMILES IDX 60 96
REMARK H PARENT 7 16 84 46 50 57
REMARK Flexibility Score: inf
ROOT
ATOM      1  C   UNL A   1      34.831  34.300  30.344  1.00  0.00     0.275 C 
ENDROOT
BRANCH   1   2
ATOM      2  O   UNL A   1      35.385  33.804  31.580  1.00  0.00    -0.458 OA
BRANCH   2   3
ATOM      3  C   UNL A   1      36.679  34.146  31.837  1.00  0.00     0.341 C 
ATOM      4  O   UNL A   1      37.461  34.559  30.991  1.00  0.00    -0.246 OA
BRANCH   3   5
ATOM      5  C   UNL A   1      37.020  34.024  33.287  1.00  0.00     0.102 A 
ATOM      6  C   UNL A   1      37.097  32.893  38.302  1.00  0.00     0.176 C 
ATOM      7  N   UNL A   1      37.866  33.380  37.186  1.00  0.00    -0.250 N 
ATOM      8  N   UNL A   1      39.185  33.603  37.341  1.00  0.00    -0.179 NA
ATOM      9  C   UNL A   1      37.417  33.593  35.910  1.00  0.00     0.159 A 
ATOM     10  C   UNL A   1      39.562  34.011  36.124  1.00  0.00     0.147 A 
ATOM     11  C   UNL A   1      38.521  33.992  35.158  1.00  0.00     0.063 A 
ATOM     12  N   UNL A   1      36.149  33.422  35.491  1.00  0.00    -0.236 NA
ATOM     13  C   UNL A   1      38.354  34.237  33.766  1.00  0.00     0.063 A 
ATOM     14  C   UNL A   1      36.002  33.673  34.174  1.00  0.00     0.131 A 
BRANCH  13  15
ATOM     15  N   UNL A   1      39.361  34.603  32.883  1.00  0.00    -0.383 N 
ATOM     16  H   UNL A   1      39.162  35.399  32.338  1.00  0.00     0.160 HD
BRANCH  15  17
ATOM     17  C   UNL A   1      40.663  34.005  32.631  1.00  0.00     0.117 C 
BRANCH  17  18
ATOM     18  C   UNL A   1      40.767  33.520  31.171  1.00  0.00     0.052 C 
BRANCH  18  19
ATOM     19  C   UNL A   1      41.475  34.486  30.243  1.00  0.00    -0.072 C 
ATOM     20  C   UNL A   1      42.745  34.868  30.462  1.00  0.00    -0.028 C 
ATOM     21  C   UNL A   1      40.681  35.009  29.069  1.00  0.00     0.031 C 
ATOM     22  C   UNL A   1      43.522  35.761  29.549  1.00  0.00     0.027 C 
ATOM     23  C   UNL A   1      41.528  35.723  28.011  1.00  0.00     0.005 C 
ATOM     24  C   UNL A   1      42.620  36.586  28.637  1.00  0.00     0.004 C 
ENDBRANCH  18  19
ENDBRANCH  17  18
ENDBRANCH  15  17
ENDBRANCH  13  15
ENDBRANCH   3   5
ENDBRANCH   2   3
ENDBRANCH   1   2
BRANCH   1  25
ATOM     25  C   UNL A   1      34.275  33.186  29.459  1.00  0.00     0.275 C 
BRANCH  25  26
ATOM     26  O   UNL A   1      35.067  32.989  28.289  1.00  0.00    -0.458 OA
BRANCH  26  27
ATOM     27  C   UNL A   1      35.282  31.688  27.985  1.00  0.00     0.338 C 
ATOM     28  O   UNL A   1      34.652  31.017  27.182  1.00  0.00    -0.246 OA
BRANCH  27  29
ATOM     29  C   UNL A   1      36.314  31.122  28.858  1.00  0.00     0.060 A 
ATOM     30  C   UNL A   1      37.461  31.896  29.045  1.00  0.00     0.016 A 
ATOM     31  C   UNL A   1      36.260  29.770  29.225  1.00  0.00     0.016 A 
ATOM     32  C   UNL A   1      38.624  31.262  29.419  1.00  0.00     0.010 A 
ATOM     33  C   UNL A   1      37.427  29.134  29.591  1.00  0.00     0.010 A 
ATOM     34  C   UNL A   1      38.606  29.875  29.600  1.00  0.00    -0.014 A 
BRANCH  34  35
ATOM     35  C   UNL A   1      39.887  29.223  29.740  1.00  0.00     0.031 A 
ATOM     36  C   UNL A   1      40.337  29.000  31.127  1.00  0.00     0.074 A 
ATOM     37  C   UNL A   1      40.607  28.839  28.671  1.00  0.00     0.049 A 
ATOM     38  N   UNL A   1      41.283  29.608  31.758  1.00  0.00    -0.248 NA
ATOM     39  C   UNL A   1      39.555  28.069  31.949  1.00  0.00     0.031 C 
ATOM     40  C   UNL A   1      40.191  28.734  27.270  1.00  0.00     0.029 A 
ATOM     41  N   UNL A   1      41.883  28.380  28.654  1.00  0.00    -0.354 N 
ATOM     42  C   UNL A   1      41.349  29.008  33.010  1.00  0.00     0.074 A 
ATOM     43  C   UNL A   1      40.171  28.182  33.126  1.00  0.00     0.031 C 
ATOM     44  C   UNL A   1      41.133  28.046  26.585  1.00  0.00     0.029 A 
ATOM     45  C   UNL A   1      42.261  27.782  27.465  1.00  0.00     0.049 A 
ATOM     46  H   UNL A   1      42.490  28.465  29.425  1.00  0.00     0.167 HD
ATOM     47  C   UNL A   1      42.465  29.076  33.784  1.00  0.00     0.037 A 
ATOM     48  C   UNL A   1      43.384  27.048  27.274  1.00  0.00     0.037 A 
ATOM     49  C   UNL A   1      43.363  30.112  33.341  1.00  0.00     0.049 A 
ATOM     50  C   UNL A   1      44.355  27.444  28.333  1.00  0.00     0.074 A 
ATOM     51  C   UNL A   1      43.261  31.484  33.202  1.00  0.00     0.029 A 
ATOM     52  N   UNL A   1      44.469  29.748  32.610  1.00  0.00    -0.354 N 
ATOM     53  N   UNL A   1      44.915  28.623  28.403  1.00  0.00    -0.248 NA
ATOM     54  C   UNL A   1      44.360  26.687  29.577  1.00  0.00     0.031 C 
ATOM     55  C   UNL A   1      44.001  31.794  32.024  1.00  0.00     0.029 A 
ATOM     56  C   UNL A   1      44.536  30.601  31.536  1.00  0.00     0.049 A 
ATOM     57  H   UNL A   1      45.093  29.014  32.817  1.00  0.00     0.167 HD
ATOM     58  C   UNL A   1      44.974  28.919  29.758  1.00  0.00     0.074 A 
ATOM     59  C   UNL A   1      44.701  27.653  30.434  1.00  0.00     0.031 C 
ATOM     60  C   UNL A   1      44.966  30.208  30.212  1.00  0.00     0.037 A 
BRANCH  47  61
ATOM     61  C   UNL A   1      42.885  27.999  34.747  1.00  0.00     0.058 A 
ATOM     62  C   UNL A   1      43.068  28.311  36.108  1.00  0.00     0.135 A 
ATOM     63  C   UNL A   1      43.378  26.741  34.332  1.00  0.00     0.135 A 
ATOM     64  F   UNL A   1      42.644  29.484  36.603  1.00  0.00    -0.206 F 
ATOM     65  C   UNL A   1      43.756  27.465  36.977  1.00  0.00     0.059 A 
ATOM     66  C   UNL A   1      44.013  25.858  35.195  1.00  0.00     0.059 A 
ATOM     67  F   UNL A   1      43.360  26.356  33.050  1.00  0.00    -0.206 F 
ATOM     68  C   UNL A   1      44.243  26.250  36.503  1.00  0.00     0.060 A 
BRANCH  68  69
ATOM     69  S   UNL A   1      45.267  25.228  37.576  1.00  0.00     0.124 S 
ATOM     70  O   UNL A   1      45.088  23.911  36.973  1.00  0.00    -0.237 OA
ATOM     71  O   UNL A   1      46.583  25.835  37.409  1.00  0.00    -0.237 OA
ATOM     72  O   UNL A   1      44.661  25.409  38.891  1.00  0.00    -0.744 OA
ENDBRANCH  68  69
ENDBRANCH  47  61
BRANCH  48  73
ATOM     73  C   UNL A   1      43.494  25.794  26.485  1.00  0.00     0.058 A 
ATOM     74  C   UNL A   1      44.428  25.662  25.443  1.00  0.00     0.135 A 
ATOM     75  C   UNL A   1      42.862  24.603  26.905  1.00  0.00     0.135 A 
ATOM     76  F   UNL A   1      45.100  26.736  25.002  1.00  0.00    -0.206 F 
ATOM     77  C   UNL A   1      44.742  24.421  24.877  1.00  0.00     0.059 A 
ATOM     78  C   UNL A   1      43.146  23.360  26.345  1.00  0.00     0.059 A 
ATOM     79  F   UNL A   1      42.009  24.593  27.939  1.00  0.00    -0.206 F 
ATOM     80  C   UNL A   1      44.107  23.272  25.348  1.00  0.00     0.060 A 
BRANCH  80  81
ATOM     81  S   UNL A   1      44.621  21.651  24.737  1.00  0.00     0.124 S 
ATOM     82  O   UNL A   1      44.608  21.854  23.292  1.00  0.00    -0.237 OA
ATOM     83  O   UNL A   1      45.937  21.497  25.348  1.00  0.00    -0.237 OA
ATOM     84  O   UNL A   1      43.591  20.751  25.250  1.00  0.00    -0.744 OA
ENDBRANCH  80  81
ENDBRANCH  48  73
BRANCH  60  85
ATOM     85  C   UNL A   1      45.147  31.316  29.206  1.00  0.00     0.058 A 
ATOM     86  C   UNL A   1      46.405  31.755  28.752  1.00  0.00     0.135 A 
ATOM     87  C   UNL A   1      44.017  31.834  28.557  1.00  0.00     0.135 A 
ATOM     88  F   UNL A   1      47.534  31.226  29.243  1.00  0.00    -0.206 F 
ATOM     89  C   UNL A   1      46.531  32.695  27.730  1.00  0.00     0.059 A 
ATOM     90  C   UNL A   1      44.120  32.752  27.514  1.00  0.00     0.059 A 
ATOM     91  F   UNL A   1      42.791  31.402  28.895  1.00  0.00    -0.206 F 
ATOM     92  C   UNL A   1      45.382  33.189  27.114  1.00  0.00     0.060 A 
BRANCH  92  93
ATOM     93  S   UNL A   1      45.554  34.341  25.734  1.00  0.00     0.124 S 
ATOM     94  O   UNL A   1      44.711  33.726  24.714  1.00  0.00    -0.237 OA
ATOM     95  O   UNL A   1      45.054  35.592  26.298  1.00  0.00    -0.237 OA
ATOM     96  O   UNL A   1      46.987  34.325  25.451  1.00  0.00    -0.744 OA
ENDBRANCH  92  93
ENDBRANCH  60  85
ENDBRANCH  34  35
ENDBRANCH  27  29
ENDBRANCH  26  27
ENDBRANCH  25  26
ENDBRANCH   1  25
TORSDOF 18
ENDMDL
