MODEL 1
REMARK VINA RESULT:     -10.8      0.000      0.000
REMARK SMILES O=C(OCCOC(=O)c1ncc2ccccc2n1)c1ccc(-c2c3nc(c(-c4c(F)cc(S(=O)(=O)[O-])cc4F)c4ccc([nH]4)c(-c4c(F)cc(S(=O)(=O)[O-])cc4F)c4nc(c(-c5c(F)cc(S(=O)(=O)[O-])cc5F)c5ccc2[nH]5)C=C4)C=C3)cc1
REMARK SMILES IDX 3 1 2 2 1 3 19 4 20 5 84 6 21 7 83 8 22 9 23 10 24 11 77 12
REMARK SMILES IDX 25 13 82 14 76 15 78 16 26 17 81 18 75 19 74 20 27 22 61 23
REMARK SMILES IDX 40 24 60 25 41 26 44 27 59 28 79 29 42 30 43 31 58 33 80 34
REMARK SMILES IDX 45 35 28 36 29 37 38 38 30 39 31 40 37 41 39 42 32 43 33 44
REMARK SMILES IDX 34 45 35 46 36 47 62 48 63 49 72 50 64 51 65 52 71 53 73 54
REMARK SMILES IDX 66 55 67 56 68 57 69 58 70 59 46 60 47 61 56 62 48 63 49 64
REMARK SMILES IDX 55 65 57 66 50 67 51 68 52 69 53 70 54 71 4 72 5 73 6 74
REMARK SMILES IDX 7 75 8 76 9 77 10 78 18 79 11 80 17 81 12 82 16 83 13 84
REMARK SMILES IDX 15 85 14 86
REMARK H PARENT 78 21 44 32
REMARK Flexibility Score: inf
ROOT
ATOM      1  O   UNL A   1      33.745  31.716  27.537  1.00  0.00    -0.458 OA
ENDROOT
BRANCH   1   2
ATOM      2  C   UNL A   1      34.327  30.505  27.346  1.00  0.00     0.338 C 
ATOM      3  O   UNL A   1      33.715  29.622  26.749  1.00  0.00    -0.246 OA
BRANCH   2   4
ATOM      4  C   UNL A   1      35.610  30.139  28.014  1.00  0.00     0.060 A 
ATOM      5  C   UNL A   1      35.725  29.671  29.322  1.00  0.00     0.016 A 
ATOM      6  C   UNL A   1      36.787  30.346  27.274  1.00  0.00     0.016 A 
ATOM      7  C   UNL A   1      36.973  29.325  29.848  1.00  0.00     0.010 A 
ATOM      8  C   UNL A   1      38.039  29.999  27.794  1.00  0.00     0.010 A 
ATOM      9  C   UNL A   1      38.137  29.475  29.086  1.00  0.00    -0.014 A 
BRANCH   9  10
ATOM     10  C   UNL A   1      39.445  29.161  29.705  1.00  0.00     0.031 A 
ATOM     11  C   UNL A   1      39.923  29.985  30.864  1.00  0.00     0.074 A 
ATOM     12  C   UNL A   1      40.146  28.089  29.289  1.00  0.00     0.049 A 
ATOM     13  N   UNL A   1      40.968  29.802  31.627  1.00  0.00    -0.248 NA
ATOM     14  C   UNL A   1      39.102  31.150  31.233  1.00  0.00     0.031 C 
ATOM     15  C   UNL A   1      39.748  27.191  28.205  1.00  0.00     0.029 A 
ATOM     16  N   UNL A   1      41.337  27.572  29.727  1.00  0.00    -0.354 N 
ATOM     17  C   UNL A   1      40.890  30.780  32.609  1.00  0.00     0.074 A 
ATOM     18  C   UNL A   1      39.749  31.613  32.293  1.00  0.00     0.031 C 
ATOM     19  C   UNL A   1      40.703  26.261  28.032  1.00  0.00     0.029 A 
ATOM     20  C   UNL A   1      41.771  26.491  28.996  1.00  0.00     0.049 A 
ATOM     21  H   UNL A   1      41.836  27.939  30.492  1.00  0.00     0.167 HD
ATOM     22  C   UNL A   1      41.671  30.937  33.704  1.00  0.00     0.037 A 
ATOM     23  C   UNL A   1      42.906  25.773  29.093  1.00  0.00     0.037 A 
ATOM     24  C   UNL A   1      42.828  30.132  33.985  1.00  0.00     0.049 A 
ATOM     25  C   UNL A   1      43.844  26.062  30.232  1.00  0.00     0.074 A 
ATOM     26  C   UNL A   1      43.709  30.224  35.048  1.00  0.00     0.029 A 
ATOM     27  N   UNL A   1      43.272  29.087  33.186  1.00  0.00    -0.354 N 
ATOM     28  N   UNL A   1      43.734  26.967  31.176  1.00  0.00    -0.248 NA
ATOM     29  C   UNL A   1      45.036  25.212  30.345  1.00  0.00     0.031 C 
ATOM     30  C   UNL A   1      44.706  29.256  34.873  1.00  0.00     0.029 A 
ATOM     31  C   UNL A   1      44.425  28.537  33.721  1.00  0.00     0.049 A 
ATOM     32  H   UNL A   1      42.832  28.781  32.360  1.00  0.00     0.167 HD
ATOM     33  C   UNL A   1      44.820  26.768  32.018  1.00  0.00     0.074 A 
ATOM     34  C   UNL A   1      45.576  25.659  31.471  1.00  0.00     0.031 C 
ATOM     35  C   UNL A   1      45.155  27.432  33.153  1.00  0.00     0.037 A 
BRANCH  22  36
ATOM     36  C   UNL A   1      41.271  32.011  34.675  1.00  0.00     0.058 A 
ATOM     37  C   UNL A   1      40.335  31.751  35.690  1.00  0.00     0.135 A 
ATOM     38  C   UNL A   1      41.813  33.301  34.596  1.00  0.00     0.135 A 
ATOM     39  F   UNL A   1      39.771  30.537  35.795  1.00  0.00    -0.206 F 
ATOM     40  C   UNL A   1      39.931  32.742  36.578  1.00  0.00     0.059 A 
ATOM     41  C   UNL A   1      41.437  34.303  35.486  1.00  0.00     0.059 A 
ATOM     42  F   UNL A   1      42.704  33.602  33.639  1.00  0.00    -0.206 F 
ATOM     43  C   UNL A   1      40.484  34.017  36.464  1.00  0.00     0.060 A 
BRANCH  43  44
ATOM     44  S   UNL A   1      39.937  35.298  37.613  1.00  0.00     0.124 S 
ATOM     45  O   UNL A   1      39.807  36.449  36.725  1.00  0.00    -0.237 OA
ATOM     46  O   UNL A   1      38.686  34.746  38.123  1.00  0.00    -0.237 OA
ATOM     47  O   UNL A   1      41.027  35.373  38.581  1.00  0.00    -0.744 OA
ENDBRANCH  43  44
ENDBRANCH  22  36
BRANCH  23  48
ATOM     48  C   UNL A   1      43.225  24.727  28.085  1.00  0.00     0.058 A 
ATOM     49  C   UNL A   1      42.867  23.384  28.269  1.00  0.00     0.135 A 
ATOM     50  C   UNL A   1      43.932  25.059  26.919  1.00  0.00     0.135 A 
ATOM     51  F   UNL A   1      42.199  23.014  29.372  1.00  0.00    -0.206 F 
ATOM     52  C   UNL A   1      43.222  22.403  27.347  1.00  0.00     0.059 A 
ATOM     53  C   UNL A   1      44.278  24.102  25.971  1.00  0.00     0.059 A 
ATOM     54  F   UNL A   1      44.297  26.331  26.695  1.00  0.00    -0.206 F 
ATOM     55  C   UNL A   1      43.932  22.772  26.202  1.00  0.00     0.060 A 
BRANCH  55  56
ATOM     56  S   UNL A   1      44.386  21.497  25.005  1.00  0.00     0.124 S 
ATOM     57  O   UNL A   1      43.357  20.493  25.244  1.00  0.00    -0.237 OA
ATOM     58  O   UNL A   1      44.295  22.218  23.738  1.00  0.00    -0.237 OA
ATOM     59  O   UNL A   1      45.739  21.126  25.411  1.00  0.00    -0.744 OA
ENDBRANCH  55  56
ENDBRANCH  23  48
BRANCH  35  60
ATOM     60  C   UNL A   1      46.371  26.947  33.886  1.00  0.00     0.058 A 
ATOM     61  C   UNL A   1      46.290  25.944  34.863  1.00  0.00     0.135 A 
ATOM     62  C   UNL A   1      47.636  27.480  33.590  1.00  0.00     0.135 A 
ATOM     63  F   UNL A   1      45.100  25.411  35.186  1.00  0.00    -0.206 F 
ATOM     64  C   UNL A   1      47.419  25.503  35.544  1.00  0.00     0.059 A 
ATOM     65  C   UNL A   1      48.782  27.037  34.242  1.00  0.00     0.059 A 
ATOM     66  F   UNL A   1      47.767  28.436  32.657  1.00  0.00    -0.206 F 
ATOM     67  C   UNL A   1      48.660  26.059  35.228  1.00  0.00     0.060 A 
BRANCH  67  68
ATOM     68  S   UNL A   1      50.124  25.470  36.104  1.00  0.00     0.124 S 
ATOM     69  O   UNL A   1      49.898  26.004  37.443  1.00  0.00    -0.237 OA
ATOM     70  O   UNL A   1      50.008  24.020  35.973  1.00  0.00    -0.237 OA
ATOM     71  O   UNL A   1      51.227  26.072  35.362  1.00  0.00    -0.744 OA
ENDBRANCH  67  68
ENDBRANCH  35  60
ENDBRANCH   9  10
ENDBRANCH   2   4
ENDBRANCH   1   2
BRANCH   1  72
ATOM     72  C   UNL A   1      34.309  32.859  28.204  1.00  0.00     0.275 C 
BRANCH  72  73
ATOM     73  C   UNL A   1      33.421  34.106  28.205  1.00  0.00     0.275 C 
BRANCH  73  74
ATOM     74  O   UNL A   1      32.803  34.355  29.472  1.00  0.00    -0.456 OA
BRANCH  74  75
ATOM     75  C   UNL A   1      33.130  35.550  30.045  1.00  0.00     0.376 C 
ATOM     76  O   UNL A   1      32.728  36.650  29.690  1.00  0.00    -0.242 OA
BRANCH  75  77
ATOM     77  C   UNL A   1      33.947  35.298  31.269  1.00  0.00     0.239 A 
ATOM     78  N   UNL A   1      33.818  36.211  32.254  1.00  0.00    -0.230 NA
ATOM     79  N   UNL A   1      34.672  34.161  31.325  1.00  0.00    -0.222 NA
ATOM     80  C   UNL A   1      34.425  35.897  33.409  1.00  0.00     0.124 A 
ATOM     81  C   UNL A   1      35.295  33.908  32.488  1.00  0.00     0.075 A 
ATOM     82  C   UNL A   1      35.163  34.740  33.607  1.00  0.00     0.019 A 
ATOM     83  C   UNL A   1      36.092  32.779  32.627  1.00  0.00     0.029 A 
ATOM     84  C   UNL A   1      35.737  34.403  34.847  1.00  0.00     0.012 A 
ATOM     85  C   UNL A   1      36.673  32.431  33.853  1.00  0.00     0.002 A 
ATOM     86  C   UNL A   1      36.480  33.235  34.969  1.00  0.00     0.001 A 
ENDBRANCH  75  77
ENDBRANCH  74  75
ENDBRANCH  73  74
ENDBRANCH  72  73
ENDBRANCH   1  72
TORSDOF 14
ENDMDL
MODEL 2
REMARK VINA RESULT:     -10.8      3.388     12.207
REMARK SMILES O=C(OCCOC(=O)c1ncc2ccccc2n1)c1ccc(-c2c3nc(c(-c4c(F)cc(S(=O)(=O)[O-])cc4F)c4ccc([nH]4)c(-c4c(F)cc(S(=O)(=O)[O-])cc4F)c4nc(c(-c5c(F)cc(S(=O)(=O)[O-])cc5F)c5ccc2[nH]5)C=C4)C=C3)cc1
REMARK SMILES IDX 3 1 2 2 1 3 19 4 20 5 84 6 21 7 83 8 22 9 23 10 24 11 77 12
REMARK SMILES IDX 25 13 82 14 76 15 78 16 26 17 81 18 75 19 74 20 27 22 61 23
REMARK SMILES IDX 40 24 60 25 41 26 44 27 59 28 79 29 42 30 43 31 58 33 80 34
REMARK SMILES IDX 45 35 28 36 29 37 38 38 30 39 31 40 37 41 39 42 32 43 33 44
REMARK SMILES IDX 34 45 35 46 36 47 62 48 63 49 72 50 64 51 65 52 71 53 73 54
REMARK SMILES IDX 66 55 67 56 68 57 69 58 70 59 46 60 47 61 56 62 48 63 49 64
REMARK SMILES IDX 55 65 57 66 50 67 51 68 52 69 53 70 54 71 4 72 5 73 6 74
REMARK SMILES IDX 7 75 8 76 9 77 10 78 18 79 11 80 17 81 12 82 16 83 13 84
REMARK SMILES IDX 15 85 14 86
REMARK H PARENT 78 21 44 32
REMARK Flexibility Score: inf
ROOT
ATOM      1  O   UNL A   1      41.441  23.955  26.365  1.00  0.00    -0.458 OA
ENDROOT
BRANCH   1   2
ATOM      2  C   UNL A   1      41.285  25.298  26.251  1.00  0.00     0.338 C 
ATOM      3  O   UNL A   1      41.546  25.853  25.185  1.00  0.00    -0.246 OA
BRANCH   2   4
ATOM      4  C   UNL A   1      41.002  26.157  27.437  1.00  0.00     0.060 A 
ATOM      5  C   UNL A   1      39.869  26.057  28.245  1.00  0.00     0.016 A 
ATOM      6  C   UNL A   1      41.927  27.178  27.712  1.00  0.00     0.016 A 
ATOM      7  C   UNL A   1      39.710  26.890  29.356  1.00  0.00     0.010 A 
ATOM      8  C   UNL A   1      41.775  28.013  28.824  1.00  0.00     0.010 A 
ATOM      9  C   UNL A   1      40.665  27.865  29.660  1.00  0.00    -0.014 A 
BRANCH   9  10
ATOM     10  C   UNL A   1      40.423  28.772  30.806  1.00  0.00     0.031 A 
ATOM     11  C   UNL A   1      41.211  28.584  32.068  1.00  0.00     0.074 A 
ATOM     12  C   UNL A   1      39.573  29.808  30.675  1.00  0.00     0.049 A 
ATOM     13  N   UNL A   1      41.248  29.337  33.135  1.00  0.00    -0.248 NA
ATOM     14  C   UNL A   1      42.099  27.410  32.127  1.00  0.00     0.031 C 
ATOM     15  C   UNL A   1      38.793  30.113  29.476  1.00  0.00     0.029 A 
ATOM     16  N   UNL A   1      39.222  30.797  31.558  1.00  0.00    -0.354 N 
ATOM     17  C   UNL A   1      42.212  28.774  33.958  1.00  0.00     0.074 A 
ATOM     18  C   UNL A   1      42.672  27.564  33.312  1.00  0.00     0.031 C 
ATOM     19  C   UNL A   1      38.021  31.187  29.714  1.00  0.00     0.029 A 
ATOM     20  C   UNL A   1      38.257  31.650  31.076  1.00  0.00     0.049 A 
ATOM     21  H   UNL A   1      39.622  30.888  32.453  1.00  0.00     0.167 HD
ATOM     22  C   UNL A   1      42.707  29.253  35.124  1.00  0.00     0.037 A 
ATOM     23  C   UNL A   1      37.633  32.684  31.671  1.00  0.00     0.037 A 
ATOM     24  C   UNL A   1      42.213  30.434  35.780  1.00  0.00     0.049 A 
ATOM     25  C   UNL A   1      38.092  33.111  33.037  1.00  0.00     0.074 A 
ATOM     26  C   UNL A   1      42.619  30.991  36.979  1.00  0.00     0.029 A 
ATOM     27  N   UNL A   1      41.191  31.235  35.291  1.00  0.00    -0.354 N 
ATOM     28  N   UNL A   1      39.035  32.589  33.786  1.00  0.00    -0.248 NA
ATOM     29  C   UNL A   1      37.434  34.286  33.623  1.00  0.00     0.031 C 
ATOM     30  C   UNL A   1      41.817  32.110  37.232  1.00  0.00     0.029 A 
ATOM     31  C   UNL A   1      40.938  32.272  36.172  1.00  0.00     0.049 A 
ATOM     32  H   UNL A   1      40.715  31.088  34.442  1.00  0.00     0.167 HD
ATOM     33  C   UNL A   1      39.113  33.397  34.913  1.00  0.00     0.074 A 
ATOM     34  C   UNL A   1      38.119  34.440  34.748  1.00  0.00     0.031 C 
ATOM     35  C   UNL A   1      39.942  33.297  35.981  1.00  0.00     0.037 A 
BRANCH  22  36
ATOM     36  C   UNL A   1      43.851  28.498  35.738  1.00  0.00     0.058 A 
ATOM     37  C   UNL A   1      45.180  28.799  35.394  1.00  0.00     0.135 A 
ATOM     38  C   UNL A   1      43.630  27.471  36.665  1.00  0.00     0.135 A 
ATOM     39  F   UNL A   1      45.444  29.760  34.494  1.00  0.00    -0.206 F 
ATOM     40  C   UNL A   1      46.249  28.089  35.928  1.00  0.00     0.059 A 
ATOM     41  C   UNL A   1      44.687  26.759  37.228  1.00  0.00     0.059 A 
ATOM     42  F   UNL A   1      42.379  27.138  37.021  1.00  0.00    -0.206 F 
ATOM     43  C   UNL A   1      45.991  27.066  36.842  1.00  0.00     0.060 A 
BRANCH  43  44
ATOM     44  S   UNL A   1      47.388  26.143  37.515  1.00  0.00     0.124 S 
ATOM     45  O   UNL A   1      47.082  24.787  37.070  1.00  0.00    -0.237 OA
ATOM     46  O   UNL A   1      48.528  26.781  36.864  1.00  0.00    -0.237 OA
ATOM     47  O   UNL A   1      47.283  26.369  38.954  1.00  0.00    -0.744 OA
ENDBRANCH  43  44
ENDBRANCH  22  36
BRANCH  23  48
ATOM     48  C   UNL A   1      36.506  33.376  30.990  1.00  0.00     0.058 A 
ATOM     49  C   UNL A   1      36.707  34.215  29.885  1.00  0.00     0.135 A 
ATOM     50  C   UNL A   1      35.193  33.230  31.466  1.00  0.00     0.135 A 
ATOM     51  F   UNL A   1      37.944  34.395  29.398  1.00  0.00    -0.206 F 
ATOM     52  C   UNL A   1      35.652  34.904  29.292  1.00  0.00     0.059 A 
ATOM     53  C   UNL A   1      34.120  33.889  30.878  1.00  0.00     0.059 A 
ATOM     54  F   UNL A   1      34.947  32.438  32.521  1.00  0.00    -0.206 F 
ATOM     55  C   UNL A   1      34.362  34.738  29.800  1.00  0.00     0.060 A 
BRANCH  55  56
ATOM     56  S   UNL A   1      32.996  35.630  29.024  1.00  0.00     0.124 S 
ATOM     57  O   UNL A   1      33.705  36.676  28.297  1.00  0.00    -0.237 OA
ATOM     58  O   UNL A   1      32.374  34.591  28.208  1.00  0.00    -0.237 OA
ATOM     59  O   UNL A   1      32.202  36.079  30.165  1.00  0.00    -0.744 OA
ENDBRANCH  55  56
ENDBRANCH  23  48
BRANCH  35  60
ATOM     60  C   UNL A   1      39.826  34.363  37.031  1.00  0.00     0.058 A 
ATOM     61  C   UNL A   1      40.492  35.591  36.908  1.00  0.00     0.135 A 
ATOM     62  C   UNL A   1      39.020  34.159  38.162  1.00  0.00     0.135 A 
ATOM     63  F   UNL A   1      41.281  35.828  35.848  1.00  0.00    -0.206 F 
ATOM     64  C   UNL A   1      40.386  36.573  37.886  1.00  0.00     0.059 A 
ATOM     65  C   UNL A   1      38.880  35.136  39.141  1.00  0.00     0.059 A 
ATOM     66  F   UNL A   1      38.355  33.003  38.320  1.00  0.00    -0.206 F 
ATOM     67  C   UNL A   1      39.579  36.334  39.001  1.00  0.00     0.060 A 
BRANCH  67  68
ATOM     68  S   UNL A   1      39.433  37.620  40.258  1.00  0.00     0.124 S 
ATOM     69  O   UNL A   1      40.815  38.073  40.376  1.00  0.00    -0.237 OA
ATOM     70  O   UNL A   1      38.508  38.564  39.638  1.00  0.00    -0.237 OA
ATOM     71  O   UNL A   1      38.903  36.903  41.414  1.00  0.00    -0.744 OA
ENDBRANCH  67  68
ENDBRANCH  35  60
ENDBRANCH   9  10
ENDBRANCH   2   4
ENDBRANCH   1   2
BRANCH   1  72
ATOM     72  C   UNL A   1      40.760  23.072  27.275  1.00  0.00     0.275 C 
BRANCH  72  73
ATOM     73  C   UNL A   1      39.938  21.968  26.605  1.00  0.00     0.275 C 
BRANCH  73  74
ATOM     74  O   UNL A   1      40.239  20.661  27.106  1.00  0.00    -0.456 OA
BRANCH  74  75
ATOM     75  C   UNL A   1      40.487  19.721  26.147  1.00  0.00     0.376 C 
ATOM     76  O   UNL A   1      39.644  19.153  25.465  1.00  0.00    -0.242 OA
BRANCH  75  77
ATOM     77  C   UNL A   1      41.962  19.594  25.956  1.00  0.00     0.239 A 
ATOM     78  N   UNL A   1      42.455  18.342  26.055  1.00  0.00    -0.230 NA
ATOM     79  N   UNL A   1      42.657  20.703  25.626  1.00  0.00    -0.222 NA
ATOM     80  C   UNL A   1      43.749  18.210  25.724  1.00  0.00     0.124 A 
ATOM     81  C   UNL A   1      43.958  20.528  25.342  1.00  0.00     0.075 A 
ATOM     82  C   UNL A   1      44.560  19.262  25.328  1.00  0.00     0.019 A 
ATOM     83  C   UNL A   1      44.761  21.616  25.026  1.00  0.00     0.029 A 
ATOM     84  C   UNL A   1      45.897  19.088  24.925  1.00  0.00     0.012 A 
ATOM     85  C   UNL A   1      46.094  21.460  24.626  1.00  0.00     0.002 A 
ATOM     86  C   UNL A   1      46.657  20.192  24.557  1.00  0.00     0.001 A 
ENDBRANCH  75  77
ENDBRANCH  74  75
ENDBRANCH  73  74
ENDBRANCH  72  73
ENDBRANCH   1  72
TORSDOF 14
ENDMDL
MODEL 3
REMARK VINA RESULT:     -10.6      3.442     11.316
REMARK SMILES O=C(OCCOC(=O)c1ncc2ccccc2n1)c1ccc(-c2c3nc(c(-c4c(F)cc(S(=O)(=O)[O-])cc4F)c4ccc([nH]4)c(-c4c(F)cc(S(=O)(=O)[O-])cc4F)c4nc(c(-c5c(F)cc(S(=O)(=O)[O-])cc5F)c5ccc2[nH]5)C=C4)C=C3)cc1
REMARK SMILES IDX 3 1 2 2 1 3 19 4 20 5 84 6 21 7 83 8 22 9 23 10 24 11 77 12
REMARK SMILES IDX 25 13 82 14 76 15 78 16 26 17 81 18 75 19 74 20 27 22 61 23
REMARK SMILES IDX 40 24 60 25 41 26 44 27 59 28 79 29 42 30 43 31 58 33 80 34
REMARK SMILES IDX 45 35 28 36 29 37 38 38 30 39 31 40 37 41 39 42 32 43 33 44
REMARK SMILES IDX 34 45 35 46 36 47 62 48 63 49 72 50 64 51 65 52 71 53 73 54
REMARK SMILES IDX 66 55 67 56 68 57 69 58 70 59 46 60 47 61 56 62 48 63 49 64
REMARK SMILES IDX 55 65 57 66 50 67 51 68 52 69 53 70 54 71 4 72 5 73 6 74
REMARK SMILES IDX 7 75 8 76 9 77 10 78 18 79 11 80 17 81 12 82 16 83 13 84
REMARK SMILES IDX 15 85 14 86
REMARK H PARENT 78 21 44 32
REMARK Flexibility Score: inf
ROOT
ATOM      1  O   UNL A   1      42.834  24.211  26.232  1.00  0.00    -0.458 OA
ENDROOT
BRANCH   1   2
ATOM      2  C   UNL A   1      42.108  25.352  26.119  1.00  0.00     0.338 C 
ATOM      3  O   UNL A   1      41.883  25.824  25.006  1.00  0.00    -0.246 OA
BRANCH   2   4
ATOM      4  C   UNL A   1      41.746  26.170  27.312  1.00  0.00     0.060 A 
ATOM      5  C   UNL A   1      40.627  25.959  28.118  1.00  0.00     0.016 A 
ATOM      6  C   UNL A   1      42.573  27.271  27.597  1.00  0.00     0.016 A 
ATOM      7  C   UNL A   1      40.392  26.764  29.235  1.00  0.00     0.010 A 
ATOM      8  C   UNL A   1      42.344  28.078  28.716  1.00  0.00     0.010 A 
ATOM      9  C   UNL A   1      41.252  27.821  29.550  1.00  0.00    -0.014 A 
BRANCH   9  10
ATOM     10  C   UNL A   1      40.927  28.691  30.703  1.00  0.00     0.031 A 
ATOM     11  C   UNL A   1      41.673  28.509  31.992  1.00  0.00     0.074 A 
ATOM     12  C   UNL A   1      40.039  29.693  30.560  1.00  0.00     0.049 A 
ATOM     13  N   UNL A   1      41.636  29.240  33.074  1.00  0.00    -0.248 NA
ATOM     14  C   UNL A   1      42.608  27.373  32.062  1.00  0.00     0.031 C 
ATOM     15  C   UNL A   1      39.293  29.991  29.337  1.00  0.00     0.029 A 
ATOM     16  N   UNL A   1      39.611  30.646  31.448  1.00  0.00    -0.354 N 
ATOM     17  C   UNL A   1      42.591  28.700  33.924  1.00  0.00     0.074 A 
ATOM     18  C   UNL A   1      43.128  27.525  33.272  1.00  0.00     0.031 C 
ATOM     19  C   UNL A   1      38.467  31.025  29.566  1.00  0.00     0.029 A 
ATOM     20  C   UNL A   1      38.630  31.468  30.945  1.00  0.00     0.049 A 
ATOM     21  H   UNL A   1      39.972  30.734  32.360  1.00  0.00     0.167 HD
ATOM     22  C   UNL A   1      43.019  29.173  35.118  1.00  0.00     0.037 A 
ATOM     23  C   UNL A   1      37.938  32.461  31.536  1.00  0.00     0.037 A 
ATOM     24  C   UNL A   1      42.449  30.317  35.777  1.00  0.00     0.049 A 
ATOM     25  C   UNL A   1      38.325  32.877  32.927  1.00  0.00     0.074 A 
ATOM     26  C   UNL A   1      42.784  30.865  37.002  1.00  0.00     0.029 A 
ATOM     27  N   UNL A   1      41.413  31.085  35.265  1.00  0.00    -0.354 N 
ATOM     28  N   UNL A   1      39.260  32.379  33.703  1.00  0.00    -0.248 NA
ATOM     29  C   UNL A   1      37.595  34.009  33.511  1.00  0.00     0.031 C 
ATOM     30  C   UNL A   1      41.925  31.944  37.246  1.00  0.00     0.029 A 
ATOM     31  C   UNL A   1      41.081  32.091  36.156  1.00  0.00     0.049 A 
ATOM     32  H   UNL A   1      40.977  30.937  34.394  1.00  0.00     0.167 HD
ATOM     33  C   UNL A   1      39.259  33.165  34.848  1.00  0.00     0.074 A 
ATOM     34  C   UNL A   1      38.229  34.168  34.665  1.00  0.00     0.031 C 
ATOM     35  C   UNL A   1      40.050  33.076  35.946  1.00  0.00     0.037 A 
BRANCH  22  36
ATOM     36  C   UNL A   1      44.170  28.455  35.761  1.00  0.00     0.058 A 
ATOM     37  C   UNL A   1      43.948  27.414  36.678  1.00  0.00     0.135 A 
ATOM     38  C   UNL A   1      45.497  28.802  35.471  1.00  0.00     0.135 A 
ATOM     39  F   UNL A   1      42.696  27.058  37.006  1.00  0.00    -0.206 F 
ATOM     40  C   UNL A   1      45.002  26.761  37.307  1.00  0.00     0.059 A 
ATOM     41  C   UNL A   1      46.568  28.148  36.074  1.00  0.00     0.059 A 
ATOM     42  F   UNL A   1      45.763  29.795  34.608  1.00  0.00    -0.206 F 
ATOM     43  C   UNL A   1      46.309  27.139  37.001  1.00  0.00     0.060 A 
BRANCH  43  44
ATOM     44  S   UNL A   1      47.667  26.292  37.838  1.00  0.00     0.124 S 
ATOM     45  O   UNL A   1      48.544  27.409  38.174  1.00  0.00    -0.237 OA
ATOM     46  O   UNL A   1      46.992  25.654  38.963  1.00  0.00    -0.237 OA
ATOM     47  O   UNL A   1      48.177  25.380  36.818  1.00  0.00    -0.744 OA
ENDBRANCH  43  44
ENDBRANCH  22  36
BRANCH  23  48
ATOM     48  C   UNL A   1      36.810  33.120  30.825  1.00  0.00     0.058 A 
ATOM     49  C   UNL A   1      37.020  34.042  29.791  1.00  0.00     0.135 A 
ATOM     50  C   UNL A   1      35.484  32.852  31.202  1.00  0.00     0.135 A 
ATOM     51  F   UNL A   1      38.268  34.338  29.401  1.00  0.00    -0.206 F 
ATOM     52  C   UNL A   1      35.957  34.697  29.173  1.00  0.00     0.059 A 
ATOM     53  C   UNL A   1      34.405  33.475  30.584  1.00  0.00     0.059 A 
ATOM     54  F   UNL A   1      35.229  31.977  32.186  1.00  0.00    -0.206 F 
ATOM     55  C   UNL A   1      34.653  34.409  29.580  1.00  0.00     0.060 A 
BRANCH  55  56
ATOM     56  S   UNL A   1      33.277  35.257  28.772  1.00  0.00     0.124 S 
ATOM     57  O   UNL A   1      33.977  36.274  27.995  1.00  0.00    -0.237 OA
ATOM     58  O   UNL A   1      32.659  34.179  28.006  1.00  0.00    -0.237 OA
ATOM     59  O   UNL A   1      32.486  35.753  29.894  1.00  0.00    -0.744 OA
ENDBRANCH  55  56
ENDBRANCH  23  48
BRANCH  35  60
ATOM     60  C   UNL A   1      39.848  34.113  37.012  1.00  0.00     0.058 A 
ATOM     61  C   UNL A   1      39.047  33.866  38.136  1.00  0.00     0.135 A 
ATOM     62  C   UNL A   1      40.482  35.362  36.915  1.00  0.00     0.135 A 
ATOM     63  F   UNL A   1      38.413  32.689  38.268  1.00  0.00    -0.206 F 
ATOM     64  C   UNL A   1      38.858  34.832  39.118  1.00  0.00     0.059 A 
ATOM     65  C   UNL A   1      40.327  36.335  37.896  1.00  0.00     0.059 A 
ATOM     66  F   UNL A   1      41.266  35.643  35.862  1.00  0.00    -0.206 F 
ATOM     67  C   UNL A   1      39.500  36.065  38.986  1.00  0.00     0.060 A 
BRANCH  67  68
ATOM     68  S   UNL A   1      39.264  37.309  40.272  1.00  0.00     0.124 S 
ATOM     69  O   UNL A   1      38.505  38.329  39.557  1.00  0.00    -0.237 OA
ATOM     70  O   UNL A   1      38.527  36.570  41.294  1.00  0.00    -0.237 OA
ATOM     71  O   UNL A   1      40.628  37.679  40.639  1.00  0.00    -0.744 OA
ENDBRANCH  67  68
ENDBRANCH  35  60
ENDBRANCH   9  10
ENDBRANCH   2   4
ENDBRANCH   1   2
BRANCH   1  72
ATOM     72  C   UNL A   1      42.991  23.177  25.244  1.00  0.00     0.275 C 
BRANCH  72  73
ATOM     73  C   UNL A   1      42.664  21.764  25.735  1.00  0.00     0.275 C 
BRANCH  73  74
ATOM     74  O   UNL A   1      41.550  21.725  26.633  1.00  0.00    -0.456 OA
BRANCH  74  75
ATOM     75  C   UNL A   1      40.537  20.891  26.256  1.00  0.00     0.376 C 
ATOM     76  O   UNL A   1      40.611  19.674  26.151  1.00  0.00    -0.242 OA
BRANCH  75  77
ATOM     77  C   UNL A   1      39.276  21.680  26.126  1.00  0.00     0.239 A 
ATOM     78  N   UNL A   1      39.322  22.936  26.618  1.00  0.00    -0.230 NA
ATOM     79  N   UNL A   1      38.241  21.117  25.469  1.00  0.00    -0.222 NA
ATOM     80  C   UNL A   1      38.245  23.693  26.355  1.00  0.00     0.124 A 
ATOM     81  C   UNL A   1      37.169  21.901  25.263  1.00  0.00     0.075 A 
ATOM     82  C   UNL A   1      37.136  23.246  25.654  1.00  0.00     0.019 A 
ATOM     83  C   UNL A   1      36.042  21.397  24.627  1.00  0.00     0.029 A 
ATOM     84  C   UNL A   1      36.047  24.078  25.335  1.00  0.00     0.012 A 
ATOM     85  C   UNL A   1      34.948  22.211  24.306  1.00  0.00     0.002 A 
ATOM     86  C   UNL A   1      34.959  23.558  24.644  1.00  0.00     0.001 A 
ENDBRANCH  75  77
ENDBRANCH  74  75
ENDBRANCH  73  74
ENDBRANCH  72  73
ENDBRANCH   1  72
TORSDOF 14
ENDMDL
