MODEL 1
REMARK VINA RESULT:     -10.3      0.000      0.000
REMARK SMILES CCCCn1cc(C(N)=O)c2cc(C(=O)OCCOC(=O)c3ccc(-c4c5nc(c(-c6c(F)cc(S(=O)(=O)[O-])cc6F)c6ccc([nH]6)c(-c6c(F)cc(S(=O)(=O)[O-])cc6F)c6nc(c(-c7c(F)cc(S(=O)(=O)[O-])cc7F)c7ccc4[nH]7)C=C6)C=C5)cc3)cnc21
REMARK SMILES IDX 17 1 16 2 14 3 15 4 13 5 5 6 6 7 90 8 7 9 11 10 89 11 12 12
REMARK SMILES IDX 88 13 4 14 3 15 2 16 1 17 8 18 9 19 10 20 18 23 19 24 20 25
REMARK SMILES IDX 21 26 22 27 23 28 87 29 24 30 86 31 25 32 26 33 27 34 80 35
REMARK SMILES IDX 28 36 85 37 79 38 81 39 29 40 84 41 78 42 77 43 30 45 64 46
REMARK SMILES IDX 43 47 63 48 44 49 47 50 62 51 82 52 45 53 46 54 61 56 83 57
REMARK SMILES IDX 48 58 31 59 32 60 41 61 33 62 34 63 40 64 42 65 35 66 36 67
REMARK SMILES IDX 37 68 38 69 39 70 65 71 66 72 75 73 67 74 68 75 74 76 76 77
REMARK SMILES IDX 69 78 70 79 71 80 72 81 73 82 49 83 50 84 59 85 51 86 52 87
REMARK SMILES IDX 58 88 60 89 53 90 54 91 55 92 56 93 57 94
REMARK H PARENT 9 21 9 22 81 44 47 55
REMARK Flexibility Score: inf
ROOT
ATOM      1  C   UNL A   1      33.925  34.324  29.267  1.00  0.00     0.275 C 
ENDROOT
BRANCH   1   2
ATOM      2  O   UNL A   1      34.194  33.598  30.483  1.00  0.00    -0.458 OA
BRANCH   2   3
ATOM      3  C   UNL A   1      34.157  34.337  31.620  1.00  0.00     0.339 C 
ATOM      4  O   UNL A   1      33.151  34.816  32.130  1.00  0.00    -0.246 OA
BRANCH   3   5
ATOM      5  C   UNL A   1      35.480  34.404  32.277  1.00  0.00     0.079 A 
ATOM      6  N   UNL A   1      39.206  34.521  33.888  1.00  0.00    -0.332 N 
ATOM      7  C   UNL A   1      40.023  34.525  32.793  1.00  0.00     0.102 A 
ATOM      8  C   UNL A   1      37.898  34.534  33.478  1.00  0.00     0.140 A 
ATOM      9  C   UNL A   1      39.259  34.355  31.649  1.00  0.00     0.066 A 
ATOM     10  C   UNL A   1      37.890  34.377  32.086  1.00  0.00     0.033 A 
ATOM     11  N   UNL A   1      36.826  34.651  34.293  1.00  0.00    -0.237 NA
ATOM     12  C   UNL A   1      36.624  34.263  31.480  1.00  0.00     0.030 A 
ATOM     13  C   UNL A   1      35.638  34.625  33.636  1.00  0.00     0.129 A 
BRANCH   6  14
ATOM     14  C   UNL A   1      39.673  34.500  35.264  1.00  0.00     0.123 C 
BRANCH  14  15
ATOM     15  C   UNL A   1      39.319  33.209  36.020  1.00  0.00     0.022 C 
BRANCH  15  16
ATOM     16  C   UNL A   1      39.704  31.887  35.342  1.00  0.00    -0.002 C 
ATOM     17  C   UNL A   1      38.871  30.693  35.785  1.00  0.00     0.004 C 
ENDBRANCH  15  16
ENDBRANCH  14  15
ENDBRANCH   6  14
BRANCH   9  18
ATOM     18  C   UNL A   1      39.884  34.187  30.343  1.00  0.00     0.250 C 
ATOM     19  N   UNL A   1      39.320  34.833  29.286  1.00  0.00    -0.366 N 
ATOM     20  O   UNL A   1      40.883  33.495  30.167  1.00  0.00    -0.269 OA
ATOM     21  H   UNL A   1      38.519  35.389  29.419  1.00  0.00     0.159 HD
ATOM     22  H   UNL A   1      39.713  34.744  28.388  1.00  0.00     0.159 HD
ENDBRANCH   9  18
ENDBRANCH   3   5
ENDBRANCH   2   3
ENDBRANCH   1   2
BRANCH   1  23
ATOM     23  C   UNL A   1      33.604  33.398  28.095  1.00  0.00     0.275 C 
BRANCH  23  24
ATOM     24  O   UNL A   1      34.760  32.762  27.544  1.00  0.00    -0.458 OA
BRANCH  24  25
ATOM     25  C   UNL A   1      34.746  31.416  27.670  1.00  0.00     0.338 C 
ATOM     26  O   UNL A   1      33.846  30.655  27.359  1.00  0.00    -0.246 OA
BRANCH  25  27
ATOM     27  C   UNL A   1      35.905  30.963  28.432  1.00  0.00     0.060 A 
ATOM     28  C   UNL A   1      36.883  31.912  28.752  1.00  0.00     0.016 A 
ATOM     29  C   UNL A   1      36.140  29.587  28.529  1.00  0.00     0.016 A 
ATOM     30  C   UNL A   1      38.154  31.472  29.062  1.00  0.00     0.010 A 
ATOM     31  C   UNL A   1      37.414  29.152  28.817  1.00  0.00     0.010 A 
ATOM     32  C   UNL A   1      38.420  30.100  29.022  1.00  0.00    -0.014 A 
BRANCH  32  33
ATOM     33  C   UNL A   1      39.783  29.659  29.255  1.00  0.00     0.031 A 
ATOM     34  C   UNL A   1      40.188  29.636  30.682  1.00  0.00     0.074 A 
ATOM     35  C   UNL A   1      40.534  29.149  28.260  1.00  0.00     0.049 A 
ATOM     36  N   UNL A   1      41.182  30.235  31.251  1.00  0.00    -0.248 NA
ATOM     37  C   UNL A   1      39.296  28.932  31.620  1.00  0.00     0.031 C 
ATOM     38  C   UNL A   1      40.113  28.840  26.890  1.00  0.00     0.029 A 
ATOM     39  N   UNL A   1      41.806  28.669  28.307  1.00  0.00    -0.354 N 
ATOM     40  C   UNL A   1      41.156  29.822  32.581  1.00  0.00     0.074 A 
ATOM     41  C   UNL A   1      39.894  29.162  32.786  1.00  0.00     0.031 C 
ATOM     42  C   UNL A   1      41.029  28.026  26.320  1.00  0.00     0.029 A 
ATOM     43  C   UNL A   1      42.142  27.849  27.239  1.00  0.00     0.049 A 
ATOM     44  H   UNL A   1      42.433  28.884  29.036  1.00  0.00     0.167 HD
ATOM     45  C   UNL A   1      42.263  29.845  33.369  1.00  0.00     0.037 A 
ATOM     46  C   UNL A   1      43.208  27.012  27.171  1.00  0.00     0.037 A 
ATOM     47  C   UNL A   1      43.279  30.717  32.847  1.00  0.00     0.049 A 
ATOM     48  C   UNL A   1      44.181  27.449  28.206  1.00  0.00     0.074 A 
ATOM     49  C   UNL A   1      43.341  32.067  32.563  1.00  0.00     0.029 A 
ATOM     50  N   UNL A   1      44.351  30.148  32.204  1.00  0.00    -0.354 N 
ATOM     51  N   UNL A   1      44.846  28.572  28.167  1.00  0.00    -0.248 NA
ATOM     52  C   UNL A   1      44.113  26.816  29.516  1.00  0.00     0.031 C 
ATOM     53  C   UNL A   1      44.159  32.168  31.403  1.00  0.00     0.029 A 
ATOM     54  C   UNL A   1      44.576  30.879  31.065  1.00  0.00     0.049 A 
ATOM     55  H   UNL A   1      44.863  29.363  32.504  1.00  0.00     0.167 HD
ATOM     56  C   UNL A   1      44.925  28.989  29.488  1.00  0.00     0.074 A 
ATOM     57  C   UNL A   1      44.553  27.821  30.279  1.00  0.00     0.031 C 
ATOM     58  C   UNL A   1      45.016  30.314  29.809  1.00  0.00     0.037 A 
BRANCH  45  59
ATOM     59  C   UNL A   1      42.540  28.812  34.431  1.00  0.00     0.058 A 
ATOM     60  C   UNL A   1      42.776  29.215  35.758  1.00  0.00     0.135 A 
ATOM     61  C   UNL A   1      42.851  27.465  34.133  1.00  0.00     0.135 A 
ATOM     62  F   UNL A   1      42.536  30.479  36.141  1.00  0.00    -0.206 F 
ATOM     63  C   UNL A   1      43.335  28.357  36.706  1.00  0.00     0.059 A 
ATOM     64  C   UNL A   1      43.350  26.578  35.076  1.00  0.00     0.059 A 
ATOM     65  F   UNL A   1      42.780  26.976  32.888  1.00  0.00    -0.206 F 
ATOM     66  C   UNL A   1      43.632  27.044  36.349  1.00  0.00     0.060 A 
BRANCH  66  67
ATOM     67  S   UNL A   1      44.471  25.971  37.526  1.00  0.00     0.124 S 
ATOM     68  O   UNL A   1      43.737  26.258  38.753  1.00  0.00    -0.237 OA
ATOM     69  O   UNL A   1      44.255  24.651  36.943  1.00  0.00    -0.237 OA
ATOM     70  O   UNL A   1      45.851  26.447  37.489  1.00  0.00    -0.744 OA
ENDBRANCH  66  67
ENDBRANCH  45  59
BRANCH  46  71
ATOM     71  C   UNL A   1      43.291  25.685  26.503  1.00  0.00     0.058 A 
ATOM     72  C   UNL A   1      44.140  25.481  25.400  1.00  0.00     0.135 A 
ATOM     73  C   UNL A   1      42.748  24.523  27.088  1.00  0.00     0.135 A 
ATOM     74  F   UNL A   1      44.722  26.527  24.793  1.00  0.00    -0.206 F 
ATOM     75  C   UNL A   1      44.468  24.202  24.936  1.00  0.00     0.059 A 
ATOM     76  C   UNL A   1      43.045  23.239  26.632  1.00  0.00     0.059 A 
ATOM     77  F   UNL A   1      41.982  24.588  28.186  1.00  0.00    -0.206 F 
ATOM     78  C   UNL A   1      43.929  23.085  25.574  1.00  0.00     0.060 A 
BRANCH  78  79
ATOM     79  S   UNL A   1      44.485  21.433  25.094  1.00  0.00     0.124 S 
ATOM     80  O   UNL A   1      43.398  20.593  25.587  1.00  0.00    -0.237 OA
ATOM     81  O   UNL A   1      44.592  21.554  23.645  1.00  0.00    -0.237 OA
ATOM     82  O   UNL A   1      45.756  21.285  25.800  1.00  0.00    -0.744 OA
ENDBRANCH  78  79
ENDBRANCH  46  71
BRANCH  58  83
ATOM     83  C   UNL A   1      45.339  31.291  28.708  1.00  0.00     0.058 A 
ATOM     84  C   UNL A   1      44.368  31.947  27.932  1.00  0.00     0.135 A 
ATOM     85  C   UNL A   1      46.671  31.701  28.549  1.00  0.00     0.135 A 
ATOM     86  F   UNL A   1      43.064  31.690  28.097  1.00  0.00    -0.206 F 
ATOM     87  C   UNL A   1      44.710  32.942  27.014  1.00  0.00     0.059 A 
ATOM     88  C   UNL A   1      47.032  32.712  27.663  1.00  0.00     0.059 A 
ATOM     89  F   UNL A   1      47.637  31.156  29.307  1.00  0.00    -0.206 F 
ATOM     90  C   UNL A   1      46.045  33.322  26.891  1.00  0.00     0.060 A 
BRANCH  90  91
ATOM     91  S   UNL A   1      46.470  34.678  25.775  1.00  0.00     0.124 S 
ATOM     92  O   UNL A   1      47.880  34.423  25.504  1.00  0.00    -0.237 OA
ATOM     93  O   UNL A   1      45.559  34.462  24.652  1.00  0.00    -0.237 OA
ATOM     94  O   UNL A   1      46.192  35.873  26.567  1.00  0.00    -0.744 OA
ENDBRANCH  90  91
ENDBRANCH  58  83
ENDBRANCH  32  33
ENDBRANCH  25  27
ENDBRANCH  24  25
ENDBRANCH  23  24
ENDBRANCH   1  23
TORSDOF 18
ENDMDL
MODEL 2
REMARK VINA RESULT:      -9.9      2.858     11.444
REMARK SMILES CCCCn1cc(C(N)=O)c2cc(C(=O)OCCOC(=O)c3ccc(-c4c5nc(c(-c6c(F)cc(S(=O)(=O)[O-])cc6F)c6ccc([nH]6)c(-c6c(F)cc(S(=O)(=O)[O-])cc6F)c6nc(c(-c7c(F)cc(S(=O)(=O)[O-])cc7F)c7ccc4[nH]7)C=C6)C=C5)cc3)cnc21
REMARK SMILES IDX 17 1 16 2 14 3 15 4 13 5 5 6 6 7 90 8 7 9 11 10 89 11 12 12
REMARK SMILES IDX 88 13 4 14 3 15 2 16 1 17 8 18 9 19 10 20 18 23 19 24 20 25
REMARK SMILES IDX 21 26 22 27 23 28 87 29 24 30 86 31 25 32 26 33 27 34 80 35
REMARK SMILES IDX 28 36 85 37 79 38 81 39 29 40 84 41 78 42 77 43 30 45 64 46
REMARK SMILES IDX 43 47 63 48 44 49 47 50 62 51 82 52 45 53 46 54 61 56 83 57
REMARK SMILES IDX 48 58 31 59 32 60 41 61 33 62 34 63 40 64 42 65 35 66 36 67
REMARK SMILES IDX 37 68 38 69 39 70 65 71 66 72 75 73 67 74 68 75 74 76 76 77
REMARK SMILES IDX 69 78 70 79 71 80 72 81 73 82 49 83 50 84 59 85 51 86 52 87
REMARK SMILES IDX 58 88 60 89 53 90 54 91 55 92 56 93 57 94
REMARK H PARENT 9 21 9 22 81 44 47 55
REMARK Flexibility Score: inf
ROOT
ATOM      1  C   UNL A   1      42.038  19.459  26.374  1.00  0.00     0.275 C 
ENDROOT
BRANCH   1   2
ATOM      2  O   UNL A   1      42.607  19.923  25.134  1.00  0.00    -0.458 OA
BRANCH   2   3
ATOM      3  C   UNL A   1      43.953  20.093  25.141  1.00  0.00     0.339 C 
ATOM      4  O   UNL A   1      44.786  19.218  24.940  1.00  0.00    -0.246 OA
BRANCH   3   5
ATOM      5  C   UNL A   1      44.328  21.515  25.293  1.00  0.00     0.079 A 
ATOM      6  N   UNL A   1      45.296  25.408  25.929  1.00  0.00    -0.332 N 
ATOM      7  C   UNL A   1      45.371  25.496  27.291  1.00  0.00     0.102 A 
ATOM      8  C   UNL A   1      45.022  24.112  25.573  1.00  0.00     0.140 A 
ATOM      9  C   UNL A   1      44.964  24.295  27.851  1.00  0.00     0.066 A 
ATOM     10  C   UNL A   1      44.755  23.399  26.749  1.00  0.00     0.033 A 
ATOM     11  N   UNL A   1      44.994  23.641  24.306  1.00  0.00    -0.237 NA
ATOM     12  C   UNL A   1      44.349  22.060  26.585  1.00  0.00     0.030 A 
ATOM     13  C   UNL A   1      44.685  22.321  24.224  1.00  0.00     0.129 A 
BRANCH   6  14
ATOM     14  C   UNL A   1      45.478  26.526  25.020  1.00  0.00     0.123 C 
BRANCH  14  15
ATOM     15  C   UNL A   1      46.746  27.351  25.297  1.00  0.00     0.022 C 
BRANCH  15  16
ATOM     16  C   UNL A   1      47.933  27.126  24.352  1.00  0.00    -0.002 C 
ATOM     17  C   UNL A   1      48.423  25.686  24.299  1.00  0.00     0.004 C 
ENDBRANCH  15  16
ENDBRANCH  14  15
ENDBRANCH   6  14
BRANCH   9  18
ATOM     18  C   UNL A   1      44.816  24.149  29.294  1.00  0.00     0.250 C 
ATOM     19  N   UNL A   1      44.652  22.891  29.787  1.00  0.00    -0.366 N 
ATOM     20  O   UNL A   1      44.834  25.104  30.066  1.00  0.00    -0.269 OA
ATOM     21  H   UNL A   1      44.637  22.120  29.175  1.00  0.00     0.159 HD
ATOM     22  H   UNL A   1      44.549  22.751  30.756  1.00  0.00     0.159 HD
ENDBRANCH   9  18
ENDBRANCH   3   5
ENDBRANCH   2   3
ENDBRANCH   1   2
BRANCH   1  23
ATOM     23  C   UNL A   1      40.864  20.322  26.834  1.00  0.00     0.275 C 
BRANCH  23  24
ATOM     24  O   UNL A   1      40.780  21.574  26.149  1.00  0.00    -0.458 OA
BRANCH  24  25
ATOM     25  C   UNL A   1      39.654  22.268  26.430  1.00  0.00     0.338 C 
ATOM     26  O   UNL A   1      38.504  21.873  26.350  1.00  0.00    -0.246 OA
BRANCH  25  27
ATOM     27  C   UNL A   1      39.967  23.674  26.669  1.00  0.00     0.060 A 
ATOM     28  C   UNL A   1      41.317  24.028  26.781  1.00  0.00     0.016 A 
ATOM     29  C   UNL A   1      38.935  24.523  27.083  1.00  0.00     0.016 A 
ATOM     30  C   UNL A   1      41.639  25.204  27.426  1.00  0.00     0.010 A 
ATOM     31  C   UNL A   1      39.261  25.685  27.746  1.00  0.00     0.010 A 
ATOM     32  C   UNL A   1      40.609  25.984  27.961  1.00  0.00    -0.014 A 
BRANCH  32  33
ATOM     33  C   UNL A   1      40.968  27.167  28.721  1.00  0.00     0.031 A 
ATOM     34  C   UNL A   1      42.158  27.891  28.208  1.00  0.00     0.074 A 
ATOM     35  C   UNL A   1      40.169  27.646  29.693  1.00  0.00     0.049 A 
ATOM     36  N   UNL A   1      43.251  28.194  28.829  1.00  0.00    -0.248 NA
ATOM     37  C   UNL A   1      42.171  28.226  26.773  1.00  0.00     0.031 C 
ATOM     38  C   UNL A   1      38.825  27.182  30.055  1.00  0.00     0.029 A 
ATOM     39  N   UNL A   1      40.336  28.745  30.476  1.00  0.00    -0.354 N 
ATOM     40  C   UNL A   1      44.004  28.934  27.920  1.00  0.00     0.074 A 
ATOM     41  C   UNL A   1      43.372  28.782  26.637  1.00  0.00     0.031 C 
ATOM     42  C   UNL A   1      38.223  28.124  30.814  1.00  0.00     0.029 A 
ATOM     43  C   UNL A   1      39.169  29.196  31.077  1.00  0.00     0.049 A 
ATOM     44  H   UNL A   1      41.210  29.182  30.605  1.00  0.00     0.167 HD
ATOM     45  C   UNL A   1      44.965  29.808  28.318  1.00  0.00     0.037 A 
ATOM     46  C   UNL A   1      38.979  30.408  31.656  1.00  0.00     0.037 A 
ATOM     47  C   UNL A   1      45.402  29.554  29.664  1.00  0.00     0.049 A 
ATOM     48  C   UNL A   1      40.322  30.977  31.944  1.00  0.00     0.074 A 
ATOM     49  C   UNL A   1      45.986  28.479  30.303  1.00  0.00     0.029 A 
ATOM     50  N   UNL A   1      44.936  30.376  30.660  1.00  0.00    -0.354 N 
ATOM     51  N   UNL A   1      41.153  30.497  32.829  1.00  0.00    -0.248 NA
ATOM     52  C   UNL A   1      40.920  31.852  30.945  1.00  0.00     0.031 C 
ATOM     53  C   UNL A   1      45.435  28.480  31.616  1.00  0.00     0.029 A 
ATOM     54  C   UNL A   1      44.574  29.574  31.712  1.00  0.00     0.049 A 
ATOM     55  H   UNL A   1      44.874  31.358  30.626  1.00  0.00     0.167 HD
ATOM     56  C   UNL A   1      42.411  30.669  32.270  1.00  0.00     0.074 A 
ATOM     57  C   UNL A   1      42.214  31.600  31.165  1.00  0.00     0.031 C 
ATOM     58  C   UNL A   1      43.445  29.831  32.580  1.00  0.00     0.037 A 
BRANCH  45  59
ATOM     59  C   UNL A   1      45.257  31.097  27.594  1.00  0.00     0.058 A 
ATOM     60  C   UNL A   1      46.514  31.295  26.992  1.00  0.00     0.135 A 
ATOM     61  C   UNL A   1      44.441  32.246  27.707  1.00  0.00     0.135 A 
ATOM     62  F   UNL A   1      47.375  30.274  26.857  1.00  0.00    -0.206 F 
ATOM     63  C   UNL A   1      46.952  32.556  26.586  1.00  0.00     0.059 A 
ATOM     64  C   UNL A   1      44.833  33.498  27.254  1.00  0.00     0.059 A 
ATOM     65  F   UNL A   1      43.269  32.227  28.354  1.00  0.00    -0.206 F 
ATOM     66  C   UNL A   1      46.107  33.654  26.736  1.00  0.00     0.060 A 
BRANCH  66  67
ATOM     67  S   UNL A   1      46.712  35.301  26.335  1.00  0.00     0.124 S 
ATOM     68  O   UNL A   1      45.498  36.098  26.477  1.00  0.00    -0.237 OA
ATOM     69  O   UNL A   1      47.736  35.506  27.353  1.00  0.00    -0.237 OA
ATOM     70  O   UNL A   1      47.213  35.151  24.972  1.00  0.00    -0.744 OA
ENDBRANCH  66  67
ENDBRANCH  45  59
BRANCH  46  71
ATOM     71  C   UNL A   1      37.739  31.231  31.675  1.00  0.00     0.058 A 
ATOM     72  C   UNL A   1      37.077  31.516  32.883  1.00  0.00     0.135 A 
ATOM     73  C   UNL A   1      37.325  31.977  30.553  1.00  0.00     0.135 A 
ATOM     74  F   UNL A   1      37.421  30.873  34.010  1.00  0.00    -0.206 F 
ATOM     75  C   UNL A   1      36.098  32.511  32.982  1.00  0.00     0.059 A 
ATOM     76  C   UNL A   1      36.339  32.960  30.623  1.00  0.00     0.059 A 
ATOM     77  F   UNL A   1      37.930  31.843  29.364  1.00  0.00    -0.206 F 
ATOM     78  C   UNL A   1      35.750  33.242  31.847  1.00  0.00     0.060 A 
BRANCH  78  79
ATOM     79  S   UNL A   1      34.618  34.643  32.004  1.00  0.00     0.124 S 
ATOM     80  O   UNL A   1      35.429  35.606  32.742  1.00  0.00    -0.237 OA
ATOM     81  O   UNL A   1      34.345  34.973  30.610  1.00  0.00    -0.237 OA
ATOM     82  O   UNL A   1      33.488  34.084  32.743  1.00  0.00    -0.744 OA
ENDBRANCH  78  79
ENDBRANCH  46  71
BRANCH  58  83
ATOM     83  C   UNL A   1      43.284  28.912  33.763  1.00  0.00     0.058 A 
ATOM     84  C   UNL A   1      43.566  29.284  35.090  1.00  0.00     0.135 A 
ATOM     85  C   UNL A   1      42.665  27.669  33.564  1.00  0.00     0.135 A 
ATOM     86  F   UNL A   1      44.059  30.496  35.375  1.00  0.00    -0.206 F 
ATOM     87  C   UNL A   1      43.277  28.444  36.166  1.00  0.00     0.059 A 
ATOM     88  C   UNL A   1      42.339  26.828  34.625  1.00  0.00     0.059 A 
ATOM     89  F   UNL A   1      42.314  27.283  32.326  1.00  0.00    -0.206 F 
ATOM     90  C   UNL A   1      42.657  27.219  35.924  1.00  0.00     0.060 A 
BRANCH  90  91
ATOM     91  S   UNL A   1      42.195  26.179  37.327  1.00  0.00     0.124 S 
ATOM     92  O   UNL A   1      40.817  26.588  37.573  1.00  0.00    -0.237 OA
ATOM     93  O   UNL A   1      42.370  24.830  36.794  1.00  0.00    -0.237 OA
ATOM     94  O   UNL A   1      43.153  26.557  38.363  1.00  0.00    -0.744 OA
ENDBRANCH  90  91
ENDBRANCH  58  83
ENDBRANCH  32  33
ENDBRANCH  25  27
ENDBRANCH  24  25
ENDBRANCH  23  24
ENDBRANCH   1  23
TORSDOF 18
ENDMDL
MODEL 3
REMARK VINA RESULT:      -9.9      3.517      6.292
REMARK SMILES CCCCn1cc(C(N)=O)c2cc(C(=O)OCCOC(=O)c3ccc(-c4c5nc(c(-c6c(F)cc(S(=O)(=O)[O-])cc6F)c6ccc([nH]6)c(-c6c(F)cc(S(=O)(=O)[O-])cc6F)c6nc(c(-c7c(F)cc(S(=O)(=O)[O-])cc7F)c7ccc4[nH]7)C=C6)C=C5)cc3)cnc21
REMARK SMILES IDX 17 1 16 2 14 3 15 4 13 5 5 6 6 7 90 8 7 9 11 10 89 11 12 12
REMARK SMILES IDX 88 13 4 14 3 15 2 16 1 17 8 18 9 19 10 20 18 23 19 24 20 25
REMARK SMILES IDX 21 26 22 27 23 28 87 29 24 30 86 31 25 32 26 33 27 34 80 35
REMARK SMILES IDX 28 36 85 37 79 38 81 39 29 40 84 41 78 42 77 43 30 45 64 46
REMARK SMILES IDX 43 47 63 48 44 49 47 50 62 51 82 52 45 53 46 54 61 56 83 57
REMARK SMILES IDX 48 58 31 59 32 60 41 61 33 62 34 63 40 64 42 65 35 66 36 67
REMARK SMILES IDX 37 68 38 69 39 70 65 71 66 72 75 73 67 74 68 75 74 76 76 77
REMARK SMILES IDX 69 78 70 79 71 80 72 81 73 82 49 83 50 84 59 85 51 86 52 87
REMARK SMILES IDX 58 88 60 89 53 90 54 91 55 92 56 93 57 94
REMARK H PARENT 9 21 9 22 81 44 47 55
REMARK Flexibility Score: inf
ROOT
ATOM      1  C   UNL A   1      32.169  30.587  26.033  1.00  0.00     0.275 C 
ENDROOT
BRANCH   1   2
ATOM      2  O   UNL A   1      32.554  29.827  24.870  1.00  0.00    -0.458 OA
BRANCH   2   3
ATOM      3  C   UNL A   1      31.642  28.918  24.443  1.00  0.00     0.339 C 
ATOM      4  O   UNL A   1      30.496  29.167  24.086  1.00  0.00    -0.246 OA
BRANCH   3   5
ATOM      5  C   UNL A   1      32.226  27.566  24.322  1.00  0.00     0.079 A 
ATOM      6  N   UNL A   1      33.728  23.795  24.183  1.00  0.00    -0.332 N 
ATOM      7  C   UNL A   1      32.943  23.110  25.067  1.00  0.00     0.102 A 
ATOM      8  C   UNL A   1      33.287  25.090  24.095  1.00  0.00     0.140 A 
ATOM      9  C   UNL A   1      32.092  23.997  25.708  1.00  0.00     0.066 A 
ATOM     10  C   UNL A   1      32.301  25.268  25.073  1.00  0.00     0.033 A 
ATOM     11  N   UNL A   1      33.757  26.017  23.229  1.00  0.00    -0.237 NA
ATOM     12  C   UNL A   1      31.791  26.574  25.212  1.00  0.00     0.030 A 
ATOM     13  C   UNL A   1      33.159  27.229  23.354  1.00  0.00     0.129 A 
BRANCH   6  14
ATOM     14  C   UNL A   1      34.851  23.220  23.462  1.00  0.00     0.123 C 
BRANCH  14  15
ATOM     15  C   UNL A   1      35.523  22.048  24.195  1.00  0.00     0.022 C 
BRANCH  15  16
ATOM     16  C   UNL A   1      36.894  22.327  24.827  1.00  0.00    -0.002 C 
ATOM     17  C   UNL A   1      37.061  23.744  25.355  1.00  0.00     0.004 C 
ENDBRANCH  15  16
ENDBRANCH  14  15
ENDBRANCH   6  14
BRANCH   9  18
ATOM     18  C   UNL A   1      31.234  23.561  26.803  1.00  0.00     0.250 C 
ATOM     19  N   UNL A   1      29.919  23.906  26.750  1.00  0.00    -0.366 N 
ATOM     20  O   UNL A   1      31.650  22.904  27.754  1.00  0.00    -0.269 OA
ATOM     21  H   UNL A   1      29.579  24.432  25.991  1.00  0.00     0.159 HD
ATOM     22  H   UNL A   1      29.308  23.629  27.470  1.00  0.00     0.159 HD
ENDBRANCH   9  18
ENDBRANCH   3   5
ENDBRANCH   2   3
ENDBRANCH   1   2
BRANCH   1  23
ATOM     23  C   UNL A   1      32.995  30.224  27.266  1.00  0.00     0.275 C 
BRANCH  23  24
ATOM     24  O   UNL A   1      34.404  30.325  27.051  1.00  0.00    -0.458 OA
BRANCH  24  25
ATOM     25  C   UNL A   1      34.990  31.308  27.771  1.00  0.00     0.338 C 
ATOM     26  O   UNL A   1      34.734  32.499  27.739  1.00  0.00    -0.246 OA
BRANCH  25  27
ATOM     27  C   UNL A   1      36.152  30.792  28.489  1.00  0.00     0.060 A 
ATOM     28  C   UNL A   1      37.087  31.721  28.961  1.00  0.00     0.016 A 
ATOM     29  C   UNL A   1      36.437  29.426  28.397  1.00  0.00     0.016 A 
ATOM     30  C   UNL A   1      38.368  31.286  29.235  1.00  0.00     0.010 A 
ATOM     31  C   UNL A   1      37.722  29.000  28.650  1.00  0.00     0.010 A 
ATOM     32  C   UNL A   1      38.687  29.944  29.010  1.00  0.00    -0.014 A 
BRANCH  32  33
ATOM     33  C   UNL A   1      40.062  29.523  29.209  1.00  0.00     0.031 A 
ATOM     34  C   UNL A   1      40.496  29.488  30.628  1.00  0.00     0.074 A 
ATOM     35  C   UNL A   1      40.801  29.039  28.193  1.00  0.00     0.049 A 
ATOM     36  N   UNL A   1      41.491  30.096  31.185  1.00  0.00    -0.248 NA
ATOM     37  C   UNL A   1      39.634  28.757  31.573  1.00  0.00     0.031 C 
ATOM     38  C   UNL A   1      40.358  28.741  26.827  1.00  0.00     0.029 A 
ATOM     39  N   UNL A   1      42.081  28.580  28.209  1.00  0.00    -0.354 N 
ATOM     40  C   UNL A   1      41.498  29.665  32.510  1.00  0.00     0.074 A 
ATOM     41  C   UNL A   1      40.252  28.981  32.730  1.00  0.00     0.031 C 
ATOM     42  C   UNL A   1      41.276  27.951  26.228  1.00  0.00     0.029 A 
ATOM     43  C   UNL A   1      42.409  27.780  27.123  1.00  0.00     0.049 A 
ATOM     44  H   UNL A   1      42.719  28.796  28.927  1.00  0.00     0.167 HD
ATOM     45  C   UNL A   1      42.620  29.697  33.276  1.00  0.00     0.037 A 
ATOM     46  C   UNL A   1      43.487  26.962  27.022  1.00  0.00     0.037 A 
ATOM     47  C   UNL A   1      43.610  30.592  32.745  1.00  0.00     0.049 A 
ATOM     48  C   UNL A   1      44.474  27.402  28.044  1.00  0.00     0.074 A 
ATOM     49  C   UNL A   1      43.645  31.947  32.479  1.00  0.00     0.029 A 
ATOM     50  N   UNL A   1      44.679  30.050  32.073  1.00  0.00    -0.354 N 
ATOM     51  N   UNL A   1      45.119  28.536  28.007  1.00  0.00    -0.248 NA
ATOM     52  C   UNL A   1      44.443  26.751  29.346  1.00  0.00     0.031 C 
ATOM     53  C   UNL A   1      44.438  32.077  31.304  1.00  0.00     0.029 A 
ATOM     54  C   UNL A   1      44.869  30.800  30.941  1.00  0.00     0.049 A 
ATOM     55  H   UNL A   1      45.209  29.269  32.353  1.00  0.00     0.167 HD
ATOM     56  C   UNL A   1      45.218  28.937  29.331  1.00  0.00     0.074 A 
ATOM     57  C   UNL A   1      44.881  27.753  30.113  1.00  0.00     0.031 C 
ATOM     58  C   UNL A   1      45.293  30.259  29.668  1.00  0.00     0.037 A 
BRANCH  45  59
ATOM     59  C   UNL A   1      42.935  28.654  34.318  1.00  0.00     0.058 A 
ATOM     60  C   UNL A   1      43.216  29.046  35.640  1.00  0.00     0.135 A 
ATOM     61  C   UNL A   1      43.237  27.310  33.996  1.00  0.00     0.135 A 
ATOM     62  F   UNL A   1      42.988  30.306  36.042  1.00  0.00    -0.206 F 
ATOM     63  C   UNL A   1      43.809  28.180  36.560  1.00  0.00     0.059 A 
ATOM     64  C   UNL A   1      43.770  26.416  34.914  1.00  0.00     0.059 A 
ATOM     65  F   UNL A   1      43.123  26.833  32.750  1.00  0.00    -0.206 F 
ATOM     66  C   UNL A   1      44.096  26.870  36.180  1.00  0.00     0.060 A 
BRANCH  66  67
ATOM     67  S   UNL A   1      44.976  25.788  37.318  1.00  0.00     0.124 S 
ATOM     68  O   UNL A   1      45.059  24.557  36.540  1.00  0.00    -0.237 OA
ATOM     69  O   UNL A   1      46.230  26.509  37.514  1.00  0.00    -0.237 OA
ATOM     70  O   UNL A   1      44.099  25.742  38.484  1.00  0.00    -0.744 OA
ENDBRANCH  66  67
ENDBRANCH  45  59
BRANCH  46  71
ATOM     71  C   UNL A   1      43.580  25.646  26.334  1.00  0.00     0.058 A 
ATOM     72  C   UNL A   1      44.568  25.402  25.364  1.00  0.00     0.135 A 
ATOM     73  C   UNL A   1      42.877  24.514  26.798  1.00  0.00     0.135 A 
ATOM     74  F   UNL A   1      45.305  26.415  24.882  1.00  0.00    -0.206 F 
ATOM     75  C   UNL A   1      44.874  24.112  24.916  1.00  0.00     0.059 A 
ATOM     76  C   UNL A   1      43.150  23.222  26.353  1.00  0.00     0.059 A 
ATOM     77  F   UNL A   1      41.961  24.613  27.772  1.00  0.00    -0.206 F 
ATOM     78  C   UNL A   1      44.170  23.025  25.433  1.00  0.00     0.060 A 
BRANCH  78  79
ATOM     79  S   UNL A   1      44.678  21.347  24.993  1.00  0.00     0.124 S 
ATOM     80  O   UNL A   1      46.025  21.281  25.550  1.00  0.00    -0.237 OA
ATOM     81  O   UNL A   1      43.669  20.535  25.663  1.00  0.00    -0.237 OA
ATOM     82  O   UNL A   1      44.607  21.344  23.533  1.00  0.00    -0.744 OA
ENDBRANCH  78  79
ENDBRANCH  46  71
BRANCH  58  83
ATOM     83  C   UNL A   1      45.578  31.255  28.575  1.00  0.00     0.058 A 
ATOM     84  C   UNL A   1      44.595  31.785  27.721  1.00  0.00     0.135 A 
ATOM     85  C   UNL A   1      46.861  31.817  28.501  1.00  0.00     0.135 A 
ATOM     86  F   UNL A   1      43.321  31.378  27.800  1.00  0.00    -0.206 F 
ATOM     87  C   UNL A   1      44.883  32.804  26.811  1.00  0.00     0.059 A 
ATOM     88  C   UNL A   1      47.164  32.855  27.624  1.00  0.00     0.059 A 
ATOM     89  F   UNL A   1      47.828  31.397  29.335  1.00  0.00    -0.206 F 
ATOM     90  C   UNL A   1      46.170  33.337  26.774  1.00  0.00     0.060 A 
BRANCH  90  91
ATOM     91  S   UNL A   1      46.513  34.721  25.665  1.00  0.00     0.124 S 
ATOM     92  O   UNL A   1      46.292  35.873  26.533  1.00  0.00    -0.237 OA
ATOM     93  O   UNL A   1      47.901  34.479  25.275  1.00  0.00    -0.237 OA
ATOM     94  O   UNL A   1      45.536  34.550  24.592  1.00  0.00    -0.744 OA
ENDBRANCH  90  91
ENDBRANCH  58  83
ENDBRANCH  32  33
ENDBRANCH  25  27
ENDBRANCH  24  25
ENDBRANCH  23  24
ENDBRANCH   1  23
TORSDOF 18
ENDMDL
