MODEL 1
REMARK VINA RESULT:     -10.7      0.000      0.000
REMARK SMILES O=C(CN1C(=O)/C(=C\c2cccs2)SC1=S)Nc1ccccc1C(=O)OCCOC(=O)c1ccc(-c2c3nc(c(-c4c(F)cc(S(=O)(=O)[O-])cc4F)c4ccc([nH]4)c(-c4c(F)cc(S(=O)(=O)[O-])cc4F)c4nc(c(-c5c(F)cc(S(=O)(=O)[O-])cc5F)c5ccc2[nH]5)C=C4)C=C3)cc1
REMARK SMILES IDX 27 1 26 2 24 3 25 4 23 5 18 6 19 7 20 8 22 9 21 10 17 11
REMARK SMILES IDX 1 12 2 13 3 15 4 16 5 17 15 18 6 19 7 20 14 21 16 22 8 23
REMARK SMILES IDX 9 24 10 25 13 26 11 27 12 28 28 29 29 30 30 31 31 32 32 33
REMARK SMILES IDX 33 34 97 35 34 36 96 37 35 38 36 39 37 40 90 41 38 42 95 43
REMARK SMILES IDX 89 44 91 45 39 46 94 47 88 48 87 49 40 51 74 52 53 53 73 54
REMARK SMILES IDX 54 55 57 56 72 57 92 58 55 59 56 60 71 62 93 63 58 64 41 65
REMARK SMILES IDX 42 66 51 67 43 68 44 69 50 70 52 71 45 72 46 73 47 74 48 75
REMARK SMILES IDX 49 76 75 77 76 78 85 79 77 80 78 81 84 82 86 83 79 84 80 85
REMARK SMILES IDX 81 86 82 87 83 88 59 89 60 90 69 91 61 92 62 93 68 94 70 95
REMARK SMILES IDX 63 96 64 97 65 98 66 99 67 100
REMARK H PARENT 17 14 91 50 57 61
REMARK Flexibility Score: inf
ROOT
ATOM      1  C   UNL A   1      34.017  32.559  28.188  1.00  0.00     0.275 C 
ENDROOT
BRANCH   1   2
ATOM      2  O   UNL A   1      33.893  33.213  29.464  1.00  0.00    -0.458 OA
BRANCH   2   3
ATOM      3  C   UNL A   1      33.511  34.523  29.454  1.00  0.00     0.340 C 
ATOM      4  O   UNL A   1      32.848  35.072  28.600  1.00  0.00    -0.246 OA
BRANCH   3   5
ATOM      5  C   UNL A   1      33.886  35.155  30.751  1.00  0.00     0.083 A 
ATOM      6  C   UNL A   1      35.027  34.803  31.489  1.00  0.00     0.055 A 
ATOM      7  C   UNL A   1      35.145  35.243  32.817  1.00  0.00     0.027 A 
ATOM      8  C   UNL A   1      34.185  36.091  33.376  1.00  0.00     0.002 A 
ATOM      9  C   UNL A   1      32.948  36.043  31.308  1.00  0.00     0.018 A 
ATOM     10  C   UNL A   1      33.095  36.503  32.617  1.00  0.00     0.001 A 
BRANCH   6  11
ATOM     11  N   UNL A   1      36.094  34.024  30.993  1.00  0.00    -0.324 N 
ATOM     12  O   UNL A   1      37.822  34.858  32.299  1.00  0.00    -0.273 OA
ATOM     13  C   UNL A   1      37.426  34.179  31.356  1.00  0.00     0.244 C 
ATOM     14  H   UNL A   1      35.878  33.319  30.342  1.00  0.00     0.170 HD
BRANCH  13  15
ATOM     15  C   UNL A   1      38.387  33.294  30.564  1.00  0.00     0.227 C 
BRANCH  15  16
ATOM     16  N   UNL A   1      39.737  33.614  31.022  1.00  0.00    -0.283 N 
ATOM     17  C   UNL A   1      40.458  34.507  30.258  1.00  0.00     0.266 C 
ATOM     18  C   UNL A   1      40.387  33.049  32.093  1.00  0.00     0.148 C 
ATOM     19  O   UNL A   1      39.978  35.136  29.323  1.00  0.00    -0.268 OA
ATOM     20  C   UNL A   1      41.883  34.527  30.674  1.00  0.00     0.081 C 
ATOM     21  S   UNL A   1      42.044  33.656  32.155  1.00  0.00    -0.054 SA
ATOM     22  S   UNL A   1      39.784  31.986  33.224  1.00  0.00    -0.052 S 
ATOM     23  C   UNL A   1      42.927  34.999  29.976  1.00  0.00     0.040 C 
BRANCH  23  24
ATOM     24  C   UNL A   1      42.801  35.567  28.676  1.00  0.00     0.028 A 
ATOM     25  C   UNL A   1      42.761  34.957  27.433  1.00  0.00     0.020 A 
ATOM     26  S   UNL A   1      42.681  37.277  28.511  1.00  0.00    -0.144 S 
ATOM     27  C   UNL A   1      42.735  35.890  26.356  1.00  0.00     0.012 A 
ATOM     28  C   UNL A   1      42.699  37.189  26.805  1.00  0.00     0.065 A 
ENDBRANCH  23  24
ENDBRANCH  15  16
ENDBRANCH  13  15
ENDBRANCH   6  11
ENDBRANCH   3   5
ENDBRANCH   2   3
ENDBRANCH   1   2
BRANCH   1  29
ATOM     29  C   UNL A   1      35.471  32.168  27.941  1.00  0.00     0.275 C 
BRANCH  29  30
ATOM     30  O   UNL A   1      35.641  30.788  28.293  1.00  0.00    -0.458 OA
BRANCH  30  31
ATOM     31  C   UNL A   1      36.233  30.542  29.482  1.00  0.00     0.338 C 
ATOM     32  O   UNL A   1      35.748  30.625  30.598  1.00  0.00    -0.246 OA
BRANCH  31  33
ATOM     33  C   UNL A   1      37.590  30.059  29.205  1.00  0.00     0.060 A 
ATOM     34  C   UNL A   1      38.420  29.775  30.288  1.00  0.00     0.016 A 
ATOM     35  C   UNL A   1      38.058  29.923  27.901  1.00  0.00     0.016 A 
ATOM     36  C   UNL A   1      39.733  29.374  30.082  1.00  0.00     0.010 A 
ATOM     37  C   UNL A   1      39.362  29.462  27.693  1.00  0.00     0.010 A 
ATOM     38  C   UNL A   1      40.215  29.193  28.781  1.00  0.00    -0.014 A 
BRANCH  38  39
ATOM     39  C   UNL A   1      41.617  28.749  28.558  1.00  0.00     0.031 A 
ATOM     40  C   UNL A   1      42.741  29.742  28.665  1.00  0.00     0.074 A 
ATOM     41  C   UNL A   1      41.885  27.460  28.269  1.00  0.00     0.049 A 
ATOM     42  N   UNL A   1      43.997  29.610  28.326  1.00  0.00    -0.248 NA
ATOM     43  C   UNL A   1      42.404  31.063  29.219  1.00  0.00     0.031 C 
ATOM     44  C   UNL A   1      40.893  26.385  28.192  1.00  0.00     0.029 A 
ATOM     45  N   UNL A   1      43.073  26.832  27.988  1.00  0.00    -0.354 N 
ATOM     46  C   UNL A   1      44.588  30.843  28.573  1.00  0.00     0.074 A 
ATOM     47  C   UNL A   1      43.554  31.711  29.095  1.00  0.00     0.031 C 
ATOM     48  C   UNL A   1      41.515  25.230  27.910  1.00  0.00     0.029 A 
ATOM     49  C   UNL A   1      42.935  25.494  27.701  1.00  0.00     0.049 A 
ATOM     50  H   UNL A   1      43.941  27.296  27.990  1.00  0.00     0.167 HD
ATOM     51  C   UNL A   1      45.876  31.214  28.377  1.00  0.00     0.037 A 
ATOM     52  C   UNL A   1      43.837  24.591  27.270  1.00  0.00     0.037 A 
ATOM     53  C   UNL A   1      46.906  30.327  27.900  1.00  0.00     0.049 A 
ATOM     54  C   UNL A   1      45.250  25.036  27.017  1.00  0.00     0.074 A 
ATOM     55  C   UNL A   1      48.244  30.602  27.677  1.00  0.00     0.029 A 
ATOM     56  N   UNL A   1      46.714  28.990  27.585  1.00  0.00    -0.354 N 
ATOM     57  N   UNL A   1      45.783  26.221  27.194  1.00  0.00    -0.248 NA
ATOM     58  C   UNL A   1      46.177  24.031  26.478  1.00  0.00     0.031 C 
ATOM     59  C   UNL A   1      48.855  29.437  27.196  1.00  0.00     0.029 A 
ATOM     60  C   UNL A   1      47.906  28.429  27.154  1.00  0.00     0.049 A 
ATOM     61  H   UNL A   1      45.858  28.510  27.656  1.00  0.00     0.167 HD
ATOM     62  C   UNL A   1      47.107  26.107  26.786  1.00  0.00     0.074 A 
ATOM     63  C   UNL A   1      47.301  24.730  26.378  1.00  0.00     0.031 C 
ATOM     64  C   UNL A   1      48.073  27.057  26.744  1.00  0.00     0.037 A 
BRANCH  51  65
ATOM     65  C   UNL A   1      46.234  32.651  28.637  1.00  0.00     0.058 A 
ATOM     66  C   UNL A   1      46.124  33.637  27.646  1.00  0.00     0.135 A 
ATOM     67  C   UNL A   1      46.670  33.049  29.912  1.00  0.00     0.135 A 
ATOM     68  F   UNL A   1      45.731  33.308  26.405  1.00  0.00    -0.206 F 
ATOM     69  C   UNL A   1      46.459  34.964  27.901  1.00  0.00     0.059 A 
ATOM     70  C   UNL A   1      46.988  34.373  30.196  1.00  0.00     0.059 A 
ATOM     71  F   UNL A   1      46.795  32.145  30.896  1.00  0.00    -0.206 F 
ATOM     72  C   UNL A   1      46.893  35.321  29.180  1.00  0.00     0.060 A 
BRANCH  72  73
ATOM     73  S   UNL A   1      47.324  37.047  29.498  1.00  0.00     0.124 S 
ATOM     74  O   UNL A   1      48.780  37.003  29.403  1.00  0.00    -0.237 OA
ATOM     75  O   UNL A   1      46.641  37.747  28.415  1.00  0.00    -0.237 OA
ATOM     76  O   UNL A   1      46.789  37.289  30.833  1.00  0.00    -0.744 OA
ENDBRANCH  72  73
ENDBRANCH  51  65
BRANCH  52  77
ATOM     77  C   UNL A   1      43.412  23.192  26.996  1.00  0.00     0.058 A 
ATOM     78  C   UNL A   1      43.211  22.741  25.684  1.00  0.00     0.135 A 
ATOM     79  C   UNL A   1      43.222  22.272  28.040  1.00  0.00     0.135 A 
ATOM     80  F   UNL A   1      43.365  23.586  24.653  1.00  0.00    -0.206 F 
ATOM     81  C   UNL A   1      42.839  21.427  25.414  1.00  0.00     0.059 A 
ATOM     82  C   UNL A   1      42.875  20.948  27.795  1.00  0.00     0.059 A 
ATOM     83  F   UNL A   1      43.408  22.653  29.313  1.00  0.00    -0.206 F 
ATOM     84  C   UNL A   1      42.678  20.536  26.477  1.00  0.00     0.060 A 
BRANCH  84  85
ATOM     85  S   UNL A   1      42.260  18.816  26.119  1.00  0.00     0.124 S 
ATOM     86  O   UNL A   1      40.863  18.931  25.719  1.00  0.00    -0.237 OA
ATOM     87  O   UNL A   1      43.202  18.483  25.055  1.00  0.00    -0.237 OA
ATOM     88  O   UNL A   1      42.500  18.142  27.391  1.00  0.00    -0.744 OA
ENDBRANCH  84  85
ENDBRANCH  52  77
BRANCH  64  89
ATOM     89  C   UNL A   1      49.425  26.637  26.245  1.00  0.00     0.058 A 
ATOM     90  C   UNL A   1      49.789  26.801  24.899  1.00  0.00     0.135 A 
ATOM     91  C   UNL A   1      50.379  26.105  27.126  1.00  0.00     0.135 A 
ATOM     92  F   UNL A   1      48.908  27.297  24.016  1.00  0.00    -0.206 F 
ATOM     93  C   UNL A   1      51.050  26.436  24.441  1.00  0.00     0.059 A 
ATOM     94  C   UNL A   1      51.653  25.753  26.694  1.00  0.00     0.059 A 
ATOM     95  F   UNL A   1      50.079  25.935  28.424  1.00  0.00    -0.206 F 
ATOM     96  C   UNL A   1      51.976  25.913  25.346  1.00  0.00     0.060 A 
BRANCH  96  97
ATOM     97  S   UNL A   1      53.621  25.474  24.747  1.00  0.00     0.124 S 
ATOM     98  O   UNL A   1      53.545  24.018  24.720  1.00  0.00    -0.237 OA
ATOM     99  O   UNL A   1      53.668  26.131  23.445  1.00  0.00    -0.237 OA
ATOM    100  O   UNL A   1      54.511  26.038  25.758  1.00  0.00    -0.744 OA
ENDBRANCH  96  97
ENDBRANCH  64  89
ENDBRANCH  38  39
ENDBRANCH  31  33
ENDBRANCH  30  31
ENDBRANCH  29  30
ENDBRANCH   1  29
TORSDOF 18
ENDMDL
MODEL 2
REMARK VINA RESULT:     -10.7      4.212     11.946
REMARK SMILES O=C(CN1C(=O)/C(=C\c2cccs2)SC1=S)Nc1ccccc1C(=O)OCCOC(=O)c1ccc(-c2c3nc(c(-c4c(F)cc(S(=O)(=O)[O-])cc4F)c4ccc([nH]4)c(-c4c(F)cc(S(=O)(=O)[O-])cc4F)c4nc(c(-c5c(F)cc(S(=O)(=O)[O-])cc5F)c5ccc2[nH]5)C=C4)C=C3)cc1
REMARK SMILES IDX 27 1 26 2 24 3 25 4 23 5 18 6 19 7 20 8 22 9 21 10 17 11
REMARK SMILES IDX 1 12 2 13 3 15 4 16 5 17 15 18 6 19 7 20 14 21 16 22 8 23
REMARK SMILES IDX 9 24 10 25 13 26 11 27 12 28 28 29 29 30 30 31 31 32 32 33
REMARK SMILES IDX 33 34 97 35 34 36 96 37 35 38 36 39 37 40 90 41 38 42 95 43
REMARK SMILES IDX 89 44 91 45 39 46 94 47 88 48 87 49 40 51 74 52 53 53 73 54
REMARK SMILES IDX 54 55 57 56 72 57 92 58 55 59 56 60 71 62 93 63 58 64 41 65
REMARK SMILES IDX 42 66 51 67 43 68 44 69 50 70 52 71 45 72 46 73 47 74 48 75
REMARK SMILES IDX 49 76 75 77 76 78 85 79 77 80 78 81 84 82 86 83 79 84 80 85
REMARK SMILES IDX 81 86 82 87 83 88 59 89 60 90 69 91 61 92 62 93 68 94 70 95
REMARK SMILES IDX 63 96 64 97 65 98 66 99 67 100
REMARK H PARENT 17 14 91 50 57 61
REMARK Flexibility Score: inf
ROOT
ATOM      1  C   UNL A   1      42.196  19.132  26.678  1.00  0.00     0.275 C 
ENDROOT
BRANCH   1   2
ATOM      2  O   UNL A   1      41.755  20.374  26.100  1.00  0.00    -0.458 OA
BRANCH   2   3
ATOM      3  C   UNL A   1      40.413  20.621  26.112  1.00  0.00     0.340 C 
ATOM      4  O   UNL A   1      39.539  19.863  25.748  1.00  0.00    -0.246 OA
BRANCH   3   5
ATOM      5  C   UNL A   1      40.155  21.913  26.809  1.00  0.00     0.083 A 
ATOM      6  C   UNL A   1      39.319  22.920  26.302  1.00  0.00     0.055 A 
ATOM      7  C   UNL A   1      39.360  24.198  26.880  1.00  0.00     0.027 A 
ATOM      8  C   UNL A   1      40.157  24.451  28.000  1.00  0.00     0.002 A 
ATOM      9  C   UNL A   1      40.920  22.165  27.962  1.00  0.00     0.018 A 
ATOM     10  C   UNL A   1      40.925  23.430  28.551  1.00  0.00     0.001 A 
BRANCH   6  11
ATOM     11  N   UNL A   1      38.416  22.748  25.231  1.00  0.00    -0.324 N 
ATOM     12  O   UNL A   1      36.428  23.247  26.318  1.00  0.00    -0.273 OA
ATOM     13  C   UNL A   1      37.033  22.820  25.339  1.00  0.00     0.244 C 
ATOM     14  H   UNL A   1      38.795  22.564  24.342  1.00  0.00     0.170 HD
BRANCH  13  15
ATOM     15  C   UNL A   1      36.295  22.458  24.052  1.00  0.00     0.227 C 
BRANCH  15  16
ATOM     16  N   UNL A   1      34.891  22.264  24.406  1.00  0.00    -0.283 N 
ATOM     17  C   UNL A   1      34.487  20.970  24.659  1.00  0.00     0.266 C 
ATOM     18  C   UNL A   1      33.917  23.234  24.429  1.00  0.00     0.148 C 
ATOM     19  O   UNL A   1      35.261  20.026  24.741  1.00  0.00    -0.268 OA
ATOM     20  C   UNL A   1      33.006  20.885  24.730  1.00  0.00     0.081 C 
ATOM     21  S   UNL A   1      32.356  22.484  24.775  1.00  0.00    -0.054 SA
ATOM     22  S   UNL A   1      34.089  24.876  24.216  1.00  0.00    -0.052 S 
ATOM     23  C   UNL A   1      32.250  19.782  24.629  1.00  0.00     0.040 C 
BRANCH  23  24
ATOM     24  C   UNL A   1      32.794  18.482  24.423  1.00  0.00     0.028 A 
ATOM     25  C   UNL A   1      33.287  17.891  23.272  1.00  0.00     0.020 A 
ATOM     26  S   UNL A   1      32.889  17.389  25.750  1.00  0.00    -0.144 S 
ATOM     27  C   UNL A   1      33.645  16.523  23.458  1.00  0.00     0.012 A 
ATOM     28  C   UNL A   1      33.468  16.121  24.761  1.00  0.00     0.065 A 
ENDBRANCH  23  24
ENDBRANCH  15  16
ENDBRANCH  13  15
ENDBRANCH   6  11
ENDBRANCH   3   5
ENDBRANCH   2   3
ENDBRANCH   1   2
BRANCH   1  29
ATOM     29  C   UNL A   1      43.208  18.458  25.757  1.00  0.00     0.275 C 
BRANCH  29  30
ATOM     30  O   UNL A   1      43.406  19.290  24.606  1.00  0.00    -0.458 OA
BRANCH  30  31
ATOM     31  C   UNL A   1      44.687  19.557  24.273  1.00  0.00     0.338 C 
ATOM     32  O   UNL A   1      45.503  18.812  23.757  1.00  0.00    -0.246 OA
BRANCH  31  33
ATOM     33  C   UNL A   1      44.932  20.973  24.568  1.00  0.00     0.060 A 
ATOM     34  C   UNL A   1      45.447  21.303  25.821  1.00  0.00     0.016 A 
ATOM     35  C   UNL A   1      44.625  21.969  23.645  1.00  0.00     0.016 A 
ATOM     36  C   UNL A   1      45.640  22.632  26.174  1.00  0.00     0.010 A 
ATOM     37  C   UNL A   1      44.876  23.304  23.978  1.00  0.00     0.010 A 
ATOM     38  C   UNL A   1      45.375  23.649  25.249  1.00  0.00    -0.014 A 
BRANCH  38  39
ATOM     39  C   UNL A   1      45.596  25.072  25.620  1.00  0.00     0.031 A 
ATOM     40  C   UNL A   1      46.970  25.671  25.499  1.00  0.00     0.074 A 
ATOM     41  C   UNL A   1      44.569  25.830  26.055  1.00  0.00     0.049 A 
ATOM     42  N   UNL A   1      47.414  26.818  25.942  1.00  0.00    -0.248 NA
ATOM     43  C   UNL A   1      47.981  24.867  24.793  1.00  0.00     0.031 C 
ATOM     44  C   UNL A   1      43.177  25.388  26.163  1.00  0.00     0.029 A 
ATOM     45  N   UNL A   1      44.535  27.133  26.485  1.00  0.00    -0.354 N 
ATOM     46  C   UNL A   1      48.766  26.851  25.619  1.00  0.00     0.074 A 
ATOM     47  C   UNL A   1      49.068  25.610  24.937  1.00  0.00     0.031 C 
ATOM     48  C   UNL A   1      42.424  26.407  26.605  1.00  0.00     0.029 A 
ATOM     49  C   UNL A   1      43.289  27.547  26.892  1.00  0.00     0.049 A 
ATOM     50  H   UNL A   1      45.329  27.716  26.501  1.00  0.00     0.167 HD
ATOM     51  C   UNL A   1      49.669  27.828  25.873  1.00  0.00     0.037 A 
ATOM     52  C   UNL A   1      42.893  28.694  27.476  1.00  0.00     0.037 A 
ATOM     53  C   UNL A   1      49.345  29.078  26.511  1.00  0.00     0.049 A 
ATOM     54  C   UNL A   1      43.919  29.746  27.789  1.00  0.00     0.074 A 
ATOM     55  C   UNL A   1      50.185  30.138  26.805  1.00  0.00     0.029 A 
ATOM     56  N   UNL A   1      48.078  29.440  26.943  1.00  0.00    -0.354 N 
ATOM     57  N   UNL A   1      45.206  29.740  27.536  1.00  0.00    -0.248 NA
ATOM     58  C   UNL A   1      43.448  30.947  28.493  1.00  0.00     0.031 C 
ATOM     59  C   UNL A   1      49.430  31.130  27.444  1.00  0.00     0.029 A 
ATOM     60  C   UNL A   1      48.114  30.702  27.514  1.00  0.00     0.049 A 
ATOM     61  H   UNL A   1      47.271  28.883  26.855  1.00  0.00     0.167 HD
ATOM     62  C   UNL A   1      45.700  30.932  28.051  1.00  0.00     0.074 A 
ATOM     63  C   UNL A   1      44.570  31.647  28.607  1.00  0.00     0.031 C 
ATOM     64  C   UNL A   1      46.976  31.391  28.070  1.00  0.00     0.037 A 
BRANCH  51  65
ATOM     65  C   UNL A   1      51.102  27.567  25.499  1.00  0.00     0.058 A 
ATOM     66  C   UNL A   1      51.622  27.929  24.247  1.00  0.00     0.135 A 
ATOM     67  C   UNL A   1      51.973  26.966  26.422  1.00  0.00     0.135 A 
ATOM     68  F   UNL A   1      50.829  28.489  23.321  1.00  0.00    -0.206 F 
ATOM     69  C   UNL A   1      52.951  27.682  23.915  1.00  0.00     0.059 A 
ATOM     70  C   UNL A   1      53.311  26.730  26.120  1.00  0.00     0.059 A 
ATOM     71  F   UNL A   1      51.526  26.598  27.633  1.00  0.00    -0.206 F 
ATOM     72  C   UNL A   1      53.787  27.079  24.858  1.00  0.00     0.060 A 
BRANCH  72  73
ATOM     73  S   UNL A   1      55.509  26.764  24.413  1.00  0.00     0.124 S 
ATOM     74  O   UNL A   1      55.448  26.822  22.956  1.00  0.00    -0.237 OA
ATOM     75  O   UNL A   1      56.209  27.868  25.061  1.00  0.00    -0.237 OA
ATOM     76  O   UNL A   1      55.769  25.444  24.978  1.00  0.00    -0.744 OA
ENDBRANCH  72  73
ENDBRANCH  51  65
BRANCH  52  77
ATOM     77  C   UNL A   1      41.466  28.878  27.856  1.00  0.00     0.058 A 
ATOM     78  C   UNL A   1      41.060  28.820  29.197  1.00  0.00     0.135 A 
ATOM     79  C   UNL A   1      40.483  29.139  26.887  1.00  0.00     0.135 A 
ATOM     80  F   UNL A   1      41.959  28.558  30.159  1.00  0.00    -0.206 F 
ATOM     81  C   UNL A   1      39.732  29.016  29.566  1.00  0.00     0.059 A 
ATOM     82  C   UNL A   1      39.155  29.363  27.232  1.00  0.00     0.059 A 
ATOM     83  F   UNL A   1      40.821  29.210  25.590  1.00  0.00    -0.206 F 
ATOM     84  C   UNL A   1      38.788  29.292  28.575  1.00  0.00     0.060 A 
BRANCH  84  85
ATOM     85  S   UNL A   1      37.079  29.612  29.065  1.00  0.00     0.124 S 
ATOM     86  O   UNL A   1      37.019  28.956  30.365  1.00  0.00    -0.237 OA
ATOM     87  O   UNL A   1      37.029  31.071  29.084  1.00  0.00    -0.237 OA
ATOM     88  O   UNL A   1      36.303  28.981  28.002  1.00  0.00    -0.744 OA
ENDBRANCH  84  85
ENDBRANCH  52  77
BRANCH  64  89
ATOM     89  C   UNL A   1      47.213  32.728  28.709  1.00  0.00     0.058 A 
ATOM     90  C   UNL A   1      47.563  32.839  30.063  1.00  0.00     0.135 A 
ATOM     91  C   UNL A   1      47.130  33.907  27.951  1.00  0.00     0.135 A 
ATOM     92  F   UNL A   1      47.645  31.741  30.832  1.00  0.00    -0.206 F 
ATOM     93  C   UNL A   1      47.808  34.076  30.649  1.00  0.00     0.059 A 
ATOM     94  C   UNL A   1      47.391  35.153  28.511  1.00  0.00     0.059 A 
ATOM     95  F   UNL A   1      46.805  33.851  26.649  1.00  0.00    -0.206 F 
ATOM     96  C   UNL A   1      47.720  35.228  29.865  1.00  0.00     0.060 A 
BRANCH  96  97
ATOM     97  S   UNL A   1      48.072  36.825  30.628  1.00  0.00     0.124 S 
ATOM     98  O   UNL A   1      46.971  36.948  31.575  1.00  0.00    -0.237 OA
ATOM     99  O   UNL A   1      49.392  36.610  31.213  1.00  0.00    -0.237 OA
ATOM    100  O   UNL A   1      48.038  37.753  29.501  1.00  0.00    -0.744 OA
ENDBRANCH  96  97
ENDBRANCH  64  89
ENDBRANCH  38  39
ENDBRANCH  31  33
ENDBRANCH  30  31
ENDBRANCH  29  30
ENDBRANCH   1  29
TORSDOF 18
ENDMDL
MODEL 3
REMARK VINA RESULT:     -10.3      6.786     13.391
REMARK SMILES O=C(CN1C(=O)/C(=C\c2cccs2)SC1=S)Nc1ccccc1C(=O)OCCOC(=O)c1ccc(-c2c3nc(c(-c4c(F)cc(S(=O)(=O)[O-])cc4F)c4ccc([nH]4)c(-c4c(F)cc(S(=O)(=O)[O-])cc4F)c4nc(c(-c5c(F)cc(S(=O)(=O)[O-])cc5F)c5ccc2[nH]5)C=C4)C=C3)cc1
REMARK SMILES IDX 27 1 26 2 24 3 25 4 23 5 18 6 19 7 20 8 22 9 21 10 17 11
REMARK SMILES IDX 1 12 2 13 3 15 4 16 5 17 15 18 6 19 7 20 14 21 16 22 8 23
REMARK SMILES IDX 9 24 10 25 13 26 11 27 12 28 28 29 29 30 30 31 31 32 32 33
REMARK SMILES IDX 33 34 97 35 34 36 96 37 35 38 36 39 37 40 90 41 38 42 95 43
REMARK SMILES IDX 89 44 91 45 39 46 94 47 88 48 87 49 40 51 74 52 53 53 73 54
REMARK SMILES IDX 54 55 57 56 72 57 92 58 55 59 56 60 71 62 93 63 58 64 41 65
REMARK SMILES IDX 42 66 51 67 43 68 44 69 50 70 52 71 45 72 46 73 47 74 48 75
REMARK SMILES IDX 49 76 75 77 76 78 85 79 77 80 78 81 84 82 86 83 79 84 80 85
REMARK SMILES IDX 81 86 82 87 83 88 59 89 60 90 69 91 61 92 62 93 68 94 70 95
REMARK SMILES IDX 63 96 64 97 65 98 66 99 67 100
REMARK H PARENT 17 14 91 50 57 61
REMARK Flexibility Score: inf
ROOT
ATOM      1  C   UNL A   1      37.654  23.462  25.801  1.00  0.00     0.275 C 
ENDROOT
BRANCH   1   2
ATOM      2  O   UNL A   1      36.635  22.566  25.323  1.00  0.00    -0.458 OA
BRANCH   2   3
ATOM      3  C   UNL A   1      35.438  22.584  25.978  1.00  0.00     0.340 C 
ATOM      4  O   UNL A   1      35.104  23.363  26.846  1.00  0.00    -0.246 OA
BRANCH   3   5
ATOM      5  C   UNL A   1      34.514  21.601  25.344  1.00  0.00     0.083 A 
ATOM      6  C   UNL A   1      33.133  21.809  25.201  1.00  0.00     0.055 A 
ATOM      7  C   UNL A   1      32.311  20.725  24.855  1.00  0.00     0.027 A 
ATOM      8  C   UNL A   1      32.861  19.472  24.573  1.00  0.00     0.002 A 
ATOM      9  C   UNL A   1      35.063  20.348  25.016  1.00  0.00     0.018 A 
ATOM     10  C   UNL A   1      34.239  19.288  24.637  1.00  0.00     0.001 A 
BRANCH   6  11
ATOM     11  N   UNL A   1      32.486  23.050  25.379  1.00  0.00    -0.324 N 
ATOM     12  O   UNL A   1      31.752  22.793  27.566  1.00  0.00    -0.273 OA
ATOM     13  C   UNL A   1      31.756  23.410  26.504  1.00  0.00     0.244 C 
ATOM     14  H   UNL A   1      32.558  23.710  24.653  1.00  0.00     0.170 HD
BRANCH  13  15
ATOM     15  C   UNL A   1      31.049  24.758  26.375  1.00  0.00     0.227 C 
BRANCH  15  16
ATOM     16  N   UNL A   1      31.714  25.488  25.298  1.00  0.00    -0.283 N 
ATOM     17  C   UNL A   1      32.594  26.482  25.672  1.00  0.00     0.266 C 
ATOM     18  C   UNL A   1      31.486  25.335  23.951  1.00  0.00     0.148 C 
ATOM     19  O   UNL A   1      32.941  26.675  26.830  1.00  0.00    -0.268 OA
ATOM     20  C   UNL A   1      32.978  27.312  24.503  1.00  0.00     0.081 C 
ATOM     21  S   UNL A   1      32.424  26.538  23.062  1.00  0.00    -0.054 SA
ATOM     22  S   UNL A   1      30.530  24.206  23.186  1.00  0.00    -0.052 S 
ATOM     23  C   UNL A   1      33.531  28.534  24.520  1.00  0.00     0.040 C 
BRANCH  23  24
ATOM     24  C   UNL A   1      33.830  29.235  25.722  1.00  0.00     0.028 A 
ATOM     25  C   UNL A   1      34.952  29.184  26.532  1.00  0.00     0.020 A 
ATOM     26  S   UNL A   1      32.675  30.341  26.362  1.00  0.00    -0.144 S 
ATOM     27  C   UNL A   1      34.820  29.967  27.716  1.00  0.00     0.012 A 
ATOM     28  C   UNL A   1      33.622  30.642  27.752  1.00  0.00     0.065 A 
ENDBRANCH  23  24
ENDBRANCH  15  16
ENDBRANCH  13  15
ENDBRANCH   6  11
ENDBRANCH   3   5
ENDBRANCH   2   3
ENDBRANCH   1   2
BRANCH   1  29
ATOM     29  C   UNL A   1      38.921  22.682  26.138  1.00  0.00     0.275 C 
BRANCH  29  30
ATOM     30  O   UNL A   1      39.559  23.308  27.261  1.00  0.00    -0.458 OA
BRANCH  30  31
ATOM     31  C   UNL A   1      40.586  24.138  26.980  1.00  0.00     0.338 C 
ATOM     32  O   UNL A   1      41.406  24.047  26.082  1.00  0.00    -0.246 OA
BRANCH  31  33
ATOM     33  C   UNL A   1      40.509  25.265  27.917  1.00  0.00     0.060 A 
ATOM     34  C   UNL A   1      41.628  26.084  28.052  1.00  0.00     0.016 A 
ATOM     35  C   UNL A   1      39.369  25.493  28.682  1.00  0.00     0.016 A 
ATOM     36  C   UNL A   1      41.631  27.126  28.969  1.00  0.00     0.010 A 
ATOM     37  C   UNL A   1      39.349  26.580  29.563  1.00  0.00     0.010 A 
ATOM     38  C   UNL A   1      40.483  27.400  29.722  1.00  0.00    -0.014 A 
BRANCH  38  39
ATOM     39  C   UNL A   1      40.477  28.526  30.694  1.00  0.00     0.031 A 
ATOM     40  C   UNL A   1      41.463  28.536  31.830  1.00  0.00     0.074 A 
ATOM     41  C   UNL A   1      39.600  29.540  30.556  1.00  0.00     0.049 A 
ATOM     42  N   UNL A   1      41.503  29.311  32.882  1.00  0.00    -0.248 NA
ATOM     43  C   UNL A   1      42.540  27.535  31.779  1.00  0.00     0.031 C 
ATOM     44  C   UNL A   1      38.631  29.680  29.467  1.00  0.00     0.029 A 
ATOM     45  N   UNL A   1      39.382  30.649  31.336  1.00  0.00    -0.354 N 
ATOM     46  C   UNL A   1      42.573  28.858  33.645  1.00  0.00     0.074 A 
ATOM     47  C   UNL A   1      43.158  27.743  32.932  1.00  0.00     0.031 C 
ATOM     48  C   UNL A   1      37.941  30.819  29.634  1.00  0.00     0.029 A 
ATOM     49  C   UNL A   1      38.357  31.447  30.884  1.00  0.00     0.049 A 
ATOM     50  H   UNL A   1      39.908  30.853  32.142  1.00  0.00     0.167 HD
ATOM     51  C   UNL A   1      43.020  29.330  34.834  1.00  0.00     0.037 A 
ATOM     52  C   UNL A   1      37.782  32.533  31.436  1.00  0.00     0.037 A 
ATOM     53  C   UNL A   1      42.456  30.470  35.511  1.00  0.00     0.049 A 
ATOM     54  C   UNL A   1      38.264  33.013  32.776  1.00  0.00     0.074 A 
ATOM     55  C   UNL A   1      42.843  31.035  36.713  1.00  0.00     0.029 A 
ATOM     56  N   UNL A   1      41.395  31.226  35.037  1.00  0.00    -0.354 N 
ATOM     57  N   UNL A   1      39.236  32.538  33.518  1.00  0.00    -0.248 NA
ATOM     58  C   UNL A   1      37.555  34.155  33.368  1.00  0.00     0.031 C 
ATOM     59  C   UNL A   1      41.993  32.115  36.982  1.00  0.00     0.029 A 
ATOM     60  C   UNL A   1      41.101  32.244  35.930  1.00  0.00     0.049 A 
ATOM     61  H   UNL A   1      40.919  31.063  34.190  1.00  0.00     0.167 HD
ATOM     62  C   UNL A   1      39.254  33.320  34.666  1.00  0.00     0.074 A 
ATOM     63  C   UNL A   1      38.214  34.316  34.509  1.00  0.00     0.031 C 
ATOM     64  C   UNL A   1      40.054  33.219  35.756  1.00  0.00     0.037 A 
BRANCH  51  65
ATOM     65  C   UNL A   1      44.147  28.589  35.498  1.00  0.00     0.058 A 
ATOM     66  C   UNL A   1      45.492  28.897  35.246  1.00  0.00     0.135 A 
ATOM     67  C   UNL A   1      43.870  27.570  36.425  1.00  0.00     0.135 A 
ATOM     68  F   UNL A   1      45.812  29.849  34.356  1.00  0.00    -0.206 F 
ATOM     69  C   UNL A   1      46.525  28.203  35.870  1.00  0.00     0.059 A 
ATOM     70  C   UNL A   1      44.887  26.878  37.077  1.00  0.00     0.059 A 
ATOM     71  F   UNL A   1      42.600  27.234  36.701  1.00  0.00    -0.206 F 
ATOM     72  C   UNL A   1      46.211  27.193  36.782  1.00  0.00     0.060 A 
BRANCH  72  73
ATOM     73  S   UNL A   1      47.562  26.300  37.584  1.00  0.00     0.124 S 
ATOM     74  O   UNL A   1      48.421  27.399  38.013  1.00  0.00    -0.237 OA
ATOM     75  O   UNL A   1      46.874  25.581  38.651  1.00  0.00    -0.237 OA
ATOM     76  O   UNL A   1      48.098  25.465  36.514  1.00  0.00    -0.744 OA
ENDBRANCH  72  73
ENDBRANCH  51  65
BRANCH  52  77
ATOM     77  C   UNL A   1      36.646  33.201  30.745  1.00  0.00     0.058 A 
ATOM     78  C   UNL A   1      35.321  32.971  31.142  1.00  0.00     0.135 A 
ATOM     79  C   UNL A   1      36.865  34.102  29.690  1.00  0.00     0.135 A 
ATOM     80  F   UNL A   1      35.059  32.107  32.136  1.00  0.00    -0.206 F 
ATOM     81  C   UNL A   1      34.252  33.610  30.521  1.00  0.00     0.059 A 
ATOM     82  C   UNL A   1      35.816  34.771  29.070  1.00  0.00     0.059 A 
ATOM     83  F   UNL A   1      38.114  34.360  29.276  1.00  0.00    -0.206 F 
ATOM     84  C   UNL A   1      34.511  34.513  29.487  1.00  0.00     0.060 A 
BRANCH  84  85
ATOM     85  S   UNL A   1      33.127  35.391  28.729  1.00  0.00     0.124 S 
ATOM     86  O   UNL A   1      32.467  34.317  27.995  1.00  0.00    -0.237 OA
ATOM     87  O   UNL A   1      32.409  35.904  29.891  1.00  0.00    -0.237 OA
ATOM     88  O   UNL A   1      33.783  36.405  27.910  1.00  0.00    -0.744 OA
ENDBRANCH  84  85
ENDBRANCH  52  77
BRANCH  64  89
ATOM     89  C   UNL A   1      39.836  34.214  36.859  1.00  0.00     0.058 A 
ATOM     90  C   UNL A   1      39.115  33.876  38.015  1.00  0.00     0.135 A 
ATOM     91  C   UNL A   1      40.387  35.502  36.779  1.00  0.00     0.135 A 
ATOM     92  F   UNL A   1      38.561  32.659  38.134  1.00  0.00    -0.206 F 
ATOM     93  C   UNL A   1      38.935  34.788  39.049  1.00  0.00     0.059 A 
ATOM     94  C   UNL A   1      40.238  36.423  37.810  1.00  0.00     0.059 A 
ATOM     95  F   UNL A   1      41.091  35.869  35.696  1.00  0.00    -0.206 F 
ATOM     96  C   UNL A   1      39.501  36.060  38.937  1.00  0.00     0.060 A 
BRANCH  96  97
ATOM     97  S   UNL A   1      39.288  37.225  40.299  1.00  0.00     0.124 S 
ATOM     98  O   UNL A   1      40.670  37.468  40.697  1.00  0.00    -0.237 OA
ATOM     99  O   UNL A   1      38.608  38.344  39.654  1.00  0.00    -0.237 OA
ATOM    100  O   UNL A   1      38.480  36.479  41.260  1.00  0.00    -0.744 OA
ENDBRANCH  96  97
ENDBRANCH  64  89
ENDBRANCH  38  39
ENDBRANCH  31  33
ENDBRANCH  30  31
ENDBRANCH  29  30
ENDBRANCH   1  29
TORSDOF 18
ENDMDL
