MODEL 1
REMARK VINA RESULT:     -11.2      0.000      0.000
REMARK SMILES Cc1nc([C@]2(C)CCCO2)nc(C)c1C(=O)OCCOC(=O)c1ccc(-c2c3nc(c(-c4c(F)cc(S(=O)(=O)[O-])cc4F)c4ccc([nH]4)c(-c4c(F)cc(S(=O)(=O)[O-])cc4F)c4nc(c(-c5c(F)cc(S(=O)(=O)[O-])cc5F)c5ccc2[nH]5)C=C4)C=C3)cc1
REMARK SMILES IDX 19 1 18 2 17 3 15 4 16 5 14 6 1 7 2 8 3 9 4 10 12 11 11 12
REMARK SMILES IDX 13 13 5 14 7 15 10 16 6 17 8 18 9 19 20 20 21 21 22 22 23 23
REMARK SMILES IDX 24 24 88 25 25 26 87 27 26 28 27 29 28 30 81 31 29 32 86 33
REMARK SMILES IDX 80 34 82 35 30 36 85 37 79 38 78 39 31 41 65 42 44 43 64 44
REMARK SMILES IDX 45 45 48 46 63 47 83 48 46 49 47 50 62 52 84 53 49 54 32 55
REMARK SMILES IDX 33 56 42 57 34 58 35 59 41 60 43 61 36 62 37 63 38 64 39 65
REMARK SMILES IDX 40 66 66 67 67 68 76 69 68 70 69 71 75 72 77 73 70 74 71 75
REMARK SMILES IDX 72 76 73 77 74 78 50 79 51 80 60 81 52 82 53 83 59 84 61 85
REMARK SMILES IDX 54 86 55 87 56 88 57 89 58 90
REMARK H PARENT 82 40 48 51
REMARK Flexibility Score: inf
ROOT
ATOM      1  C   UNL A   1      32.620  31.343  27.317  1.00  0.00     0.275 C 
ENDROOT
BRANCH   1   2
ATOM      2  C   UNL A   1      31.813  30.803  26.138  1.00  0.00     0.275 C 
BRANCH   2   3
ATOM      3  O   UNL A   1      32.592  29.874  25.347  1.00  0.00    -0.458 OA
BRANCH   3   4
ATOM      4  C   UNL A   1      31.889  29.025  24.553  1.00  0.00     0.341 C 
ATOM      5  O   UNL A   1      30.847  29.296  23.988  1.00  0.00    -0.246 OA
BRANCH   4   6
ATOM      6  C   UNL A   1      32.534  27.695  24.436  1.00  0.00     0.102 A 
ATOM      7  C   UNL A   1      33.817  28.266  22.320  1.00  0.00     0.068 C 
ATOM      8  C   UNL A   1      33.436  27.341  23.439  1.00  0.00     0.056 A 
ATOM      9  N   UNL A   1      34.031  26.113  23.392  1.00  0.00    -0.234 NA
ATOM     10  C   UNL A   1      33.737  25.231  24.371  1.00  0.00     0.160 A 
ATOM     11  C   UNL A   1      32.328  26.728  25.409  1.00  0.00     0.056 A 
ATOM     12  N   UNL A   1      32.948  25.536  25.401  1.00  0.00    -0.234 NA
ATOM     13  C   UNL A   1      31.265  26.772  26.446  1.00  0.00     0.068 C 
BRANCH  10  14
ATOM     14  C   UNL A   1      34.276  23.796  24.347  1.00  0.00     0.125 C 
ATOM     15  C   UNL A   1      34.344  23.241  22.929  1.00  0.00     0.046 C 
ATOM     16  O   UNL A   1      33.389  22.904  25.058  1.00  0.00    -0.367 OA
ATOM     17  C   UNL A   1      35.653  23.722  25.030  1.00  0.00     0.051 C 
ATOM     18  C   UNL A   1      32.948  22.706  22.714  1.00  0.00     0.032 C 
ATOM     19  C   UNL A   1      32.499  22.306  24.108  1.00  0.00     0.161 C 
ENDBRANCH  10  14
ENDBRANCH   4   6
ENDBRANCH   3   4
ENDBRANCH   2   3
ENDBRANCH   1   2
BRANCH   1  20
ATOM     20  O   UNL A   1      33.776  30.515  27.539  1.00  0.00    -0.458 OA
BRANCH  20  21
ATOM     21  C   UNL A   1      34.660  30.987  28.448  1.00  0.00     0.338 C 
ATOM     22  O   UNL A   1      34.480  31.885  29.255  1.00  0.00    -0.246 OA
BRANCH  21  23
ATOM     23  C   UNL A   1      35.892  30.181  28.422  1.00  0.00     0.060 A 
ATOM     24  C   UNL A   1      36.370  29.696  29.627  1.00  0.00     0.016 A 
ATOM     25  C   UNL A   1      36.696  30.117  27.287  1.00  0.00     0.016 A 
ATOM     26  C   UNL A   1      37.718  29.358  29.742  1.00  0.00     0.010 A 
ATOM     27  C   UNL A   1      38.001  29.597  27.382  1.00  0.00     0.010 A 
ATOM     28  C   UNL A   1      38.569  29.279  28.630  1.00  0.00    -0.014 A 
BRANCH  28  29
ATOM     29  C   UNL A   1      40.028  28.934  28.795  1.00  0.00     0.031 A 
ATOM     30  C   UNL A   1      41.015  29.968  29.309  1.00  0.00     0.074 A 
ATOM     31  C   UNL A   1      40.499  27.690  28.538  1.00  0.00     0.049 A 
ATOM     32  N   UNL A   1      42.325  29.966  29.252  1.00  0.00    -0.248 NA
ATOM     33  C   UNL A   1      40.459  31.169  29.955  1.00  0.00     0.031 C 
ATOM     34  C   UNL A   1      39.698  26.540  28.110  1.00  0.00     0.029 A 
ATOM     35  N   UNL A   1      41.775  27.173  28.613  1.00  0.00    -0.354 N 
ATOM     36  C   UNL A   1      42.740  31.193  29.767  1.00  0.00     0.074 A 
ATOM     37  C   UNL A   1      41.541  31.913  30.139  1.00  0.00     0.031 C 
ATOM     38  C   UNL A   1      40.471  25.449  28.046  1.00  0.00     0.029 A 
ATOM     39  C   UNL A   1      41.856  25.848  28.245  1.00  0.00     0.049 A 
ATOM     40  H   UNL A   1      42.554  27.701  28.902  1.00  0.00     0.167 HD
ATOM     41  C   UNL A   1      44.001  31.673  29.910  1.00  0.00     0.037 A 
ATOM     42  C   UNL A   1      42.911  25.047  27.994  1.00  0.00     0.037 A 
ATOM     43  C   UNL A   1      45.193  30.914  29.623  1.00  0.00     0.049 A 
ATOM     44  C   UNL A   1      44.297  25.613  28.097  1.00  0.00     0.074 A 
ATOM     45  C   UNL A   1      46.516  31.312  29.735  1.00  0.00     0.029 A 
ATOM     46  N   UNL A   1      45.213  29.593  29.200  1.00  0.00    -0.354 N 
ATOM     47  N   UNL A   1      44.668  26.817  28.460  1.00  0.00    -0.248 NA
ATOM     48  C   UNL A   1      45.406  24.726  27.724  1.00  0.00     0.031 C 
ATOM     49  C   UNL A   1      47.332  30.250  29.336  1.00  0.00     0.029 A 
ATOM     50  C   UNL A   1      46.522  29.168  29.032  1.00  0.00     0.049 A 
ATOM     51  H   UNL A   1      44.415  29.039  29.042  1.00  0.00     0.167 HD
ATOM     52  C   UNL A   1      46.054  26.827  28.371  1.00  0.00     0.074 A 
ATOM     53  C   UNL A   1      46.456  25.504  27.942  1.00  0.00     0.031 C 
ATOM     54  C   UNL A   1      46.916  27.845  28.617  1.00  0.00     0.037 A 
BRANCH  41  55
ATOM     55  C   UNL A   1      44.174  33.105  30.354  1.00  0.00     0.058 A 
ATOM     56  C   UNL A   1      44.228  34.178  29.452  1.00  0.00     0.135 A 
ATOM     57  C   UNL A   1      44.221  33.411  31.727  1.00  0.00     0.135 A 
ATOM     58  F   UNL A   1      44.199  33.950  28.129  1.00  0.00    -0.206 F 
ATOM     59  C   UNL A   1      44.347  35.496  29.891  1.00  0.00     0.059 A 
ATOM     60  C   UNL A   1      44.309  34.721  32.190  1.00  0.00     0.059 A 
ATOM     61  F   UNL A   1      44.168  32.427  32.640  1.00  0.00    -0.206 F 
ATOM     62  C   UNL A   1      44.384  35.757  31.263  1.00  0.00     0.060 A 
BRANCH  62  63
ATOM     63  S   UNL A   1      44.525  37.471  31.816  1.00  0.00     0.124 S 
ATOM     64  O   UNL A   1      43.830  38.181  30.747  1.00  0.00    -0.237 OA
ATOM     65  O   UNL A   1      43.841  37.441  33.105  1.00  0.00    -0.237 OA
ATOM     66  O   UNL A   1      45.967  37.692  31.880  1.00  0.00    -0.744 OA
ENDBRANCH  62  63
ENDBRANCH  41  55
BRANCH  42  67
ATOM     67  C   UNL A   1      42.690  23.652  27.513  1.00  0.00     0.058 A 
ATOM     68  C   UNL A   1      42.679  23.345  26.145  1.00  0.00     0.135 A 
ATOM     69  C   UNL A   1      42.493  22.594  28.418  1.00  0.00     0.135 A 
ATOM     70  F   UNL A   1      42.843  24.319  25.236  1.00  0.00    -0.206 F 
ATOM     71  C   UNL A   1      42.477  22.044  25.691  1.00  0.00     0.059 A 
ATOM     72  C   UNL A   1      42.330  21.282  27.991  1.00  0.00     0.059 A 
ATOM     73  F   UNL A   1      42.498  22.829  29.740  1.00  0.00    -0.206 F 
ATOM     74  C   UNL A   1      42.311  21.018  26.624  1.00  0.00     0.060 A 
BRANCH  74  75
ATOM     75  S   UNL A   1      42.100  19.326  26.032  1.00  0.00     0.124 S 
ATOM     76  O   UNL A   1      42.946  19.324  24.843  1.00  0.00    -0.237 OA
ATOM     77  O   UNL A   1      42.586  18.541  27.162  1.00  0.00    -0.237 OA
ATOM     78  O   UNL A   1      40.664  19.233  25.784  1.00  0.00    -0.744 OA
ENDBRANCH  74  75
ENDBRANCH  42  67
BRANCH  54  79
ATOM     79  C   UNL A   1      48.383  27.554  28.476  1.00  0.00     0.058 A 
ATOM     80  C   UNL A   1      49.079  27.804  27.284  1.00  0.00     0.135 A 
ATOM     81  C   UNL A   1      49.109  27.044  29.566  1.00  0.00     0.135 A 
ATOM     82  F   UNL A   1      48.428  28.280  26.210  1.00  0.00    -0.206 F 
ATOM     83  C   UNL A   1      50.438  27.537  27.167  1.00  0.00     0.059 A 
ATOM     84  C   UNL A   1      50.475  26.797  29.481  1.00  0.00     0.059 A 
ATOM     85  F   UNL A   1      48.493  26.791  30.731  1.00  0.00    -0.206 F 
ATOM     86  C   UNL A   1      51.129  27.036  28.272  1.00  0.00     0.060 A 
BRANCH  86  87
ATOM     87  S   UNL A   1      52.899  26.720  28.116  1.00  0.00     0.124 S 
ATOM     88  O   UNL A   1      53.387  28.009  27.638  1.00  0.00    -0.237 OA
ATOM     89  O   UNL A   1      53.274  26.369  29.482  1.00  0.00    -0.237 OA
ATOM     90  O   UNL A   1      52.967  25.626  27.152  1.00  0.00    -0.744 OA
ENDBRANCH  86  87
ENDBRANCH  54  79
ENDBRANCH  28  29
ENDBRANCH  21  23
ENDBRANCH  20  21
ENDBRANCH   1  20
TORSDOF 15
ENDMDL
MODEL 2
REMARK VINA RESULT:     -10.9      1.724      2.548
REMARK SMILES Cc1nc([C@]2(C)CCCO2)nc(C)c1C(=O)OCCOC(=O)c1ccc(-c2c3nc(c(-c4c(F)cc(S(=O)(=O)[O-])cc4F)c4ccc([nH]4)c(-c4c(F)cc(S(=O)(=O)[O-])cc4F)c4nc(c(-c5c(F)cc(S(=O)(=O)[O-])cc5F)c5ccc2[nH]5)C=C4)C=C3)cc1
REMARK SMILES IDX 19 1 18 2 17 3 15 4 16 5 14 6 1 7 2 8 3 9 4 10 12 11 11 12
REMARK SMILES IDX 13 13 5 14 7 15 10 16 6 17 8 18 9 19 20 20 21 21 22 22 23 23
REMARK SMILES IDX 24 24 88 25 25 26 87 27 26 28 27 29 28 30 81 31 29 32 86 33
REMARK SMILES IDX 80 34 82 35 30 36 85 37 79 38 78 39 31 41 65 42 44 43 64 44
REMARK SMILES IDX 45 45 48 46 63 47 83 48 46 49 47 50 62 52 84 53 49 54 32 55
REMARK SMILES IDX 33 56 42 57 34 58 35 59 41 60 43 61 36 62 37 63 38 64 39 65
REMARK SMILES IDX 40 66 66 67 67 68 76 69 68 70 69 71 75 72 77 73 70 74 71 75
REMARK SMILES IDX 72 76 73 77 74 78 50 79 51 80 60 81 52 82 53 83 59 84 61 85
REMARK SMILES IDX 54 86 55 87 56 88 57 89 58 90
REMARK H PARENT 82 40 48 51
REMARK Flexibility Score: inf
ROOT
ATOM      1  C   UNL A   1      34.118  31.803  27.991  1.00  0.00     0.275 C 
ENDROOT
BRANCH   1   2
ATOM      2  C   UNL A   1      32.998  30.995  27.341  1.00  0.00     0.275 C 
BRANCH   2   3
ATOM      3  O   UNL A   1      33.461  30.311  26.153  1.00  0.00    -0.458 OA
BRANCH   3   4
ATOM      4  C   UNL A   1      32.521  29.631  25.446  1.00  0.00     0.341 C 
ATOM      5  O   UNL A   1      31.508  30.116  24.981  1.00  0.00    -0.246 OA
BRANCH   4   6
ATOM      6  C   UNL A   1      32.859  28.196  25.290  1.00  0.00     0.102 A 
ATOM      7  C   UNL A   1      34.046  28.498  23.065  1.00  0.00     0.068 C 
ATOM      8  C   UNL A   1      33.577  27.666  24.223  1.00  0.00     0.056 A 
ATOM      9  N   UNL A   1      33.894  26.341  24.140  1.00  0.00    -0.234 NA
ATOM     10  C   UNL A   1      33.506  25.534  25.152  1.00  0.00     0.160 A 
ATOM     11  C   UNL A   1      32.539  27.287  26.289  1.00  0.00     0.056 A 
ATOM     12  N   UNL A   1      32.891  25.991  26.241  1.00  0.00    -0.234 NA
ATOM     13  C   UNL A   1      31.603  27.548  27.413  1.00  0.00     0.068 C 
BRANCH  10  14
ATOM     14  C   UNL A   1      33.727  24.018  25.098  1.00  0.00     0.125 C 
ATOM     15  C   UNL A   1      34.791  23.566  26.092  1.00  0.00     0.046 C 
ATOM     16  O   UNL A   1      34.228  23.619  23.804  1.00  0.00    -0.367 OA
ATOM     17  C   UNL A   1      32.405  23.268  25.335  1.00  0.00     0.051 C 
ATOM     18  C   UNL A   1      36.073  23.766  25.320  1.00  0.00     0.032 C 
ATOM     19  C   UNL A   1      35.657  23.560  23.875  1.00  0.00     0.161 C 
ENDBRANCH  10  14
ENDBRANCH   4   6
ENDBRANCH   3   4
ENDBRANCH   2   3
ENDBRANCH   1   2
BRANCH   1  20
ATOM     20  O   UNL A   1      35.370  31.108  27.850  1.00  0.00    -0.458 OA
BRANCH  20  21
ATOM     21  C   UNL A   1      36.106  31.003  28.979  1.00  0.00     0.338 C 
ATOM     22  O   UNL A   1      35.849  31.479  30.074  1.00  0.00    -0.246 OA
BRANCH  21  23
ATOM     23  C   UNL A   1      37.260  30.117  28.752  1.00  0.00     0.060 A 
ATOM     24  C   UNL A   1      37.937  29.644  29.864  1.00  0.00     0.016 A 
ATOM     25  C   UNL A   1      37.819  29.958  27.487  1.00  0.00     0.016 A 
ATOM     26  C   UNL A   1      39.259  29.221  29.730  1.00  0.00     0.010 A 
ATOM     27  C   UNL A   1      39.083  29.355  27.351  1.00  0.00     0.010 A 
ATOM     28  C   UNL A   1      39.867  29.045  28.478  1.00  0.00    -0.014 A 
BRANCH  28  29
ATOM     29  C   UNL A   1      41.307  28.609  28.372  1.00  0.00     0.031 A 
ATOM     30  C   UNL A   1      42.435  29.605  28.583  1.00  0.00     0.074 A 
ATOM     31  C   UNL A   1      41.645  27.320  28.134  1.00  0.00     0.049 A 
ATOM     32  N   UNL A   1      43.702  29.504  28.261  1.00  0.00    -0.248 NA
ATOM     33  C   UNL A   1      42.093  30.886  29.222  1.00  0.00     0.031 C 
ATOM     34  C   UNL A   1      40.710  26.201  27.979  1.00  0.00     0.029 A 
ATOM     35  N   UNL A   1      42.878  26.718  27.992  1.00  0.00    -0.354 N 
ATOM     36  C   UNL A   1      44.282  30.733  28.573  1.00  0.00     0.074 A 
ATOM     37  C   UNL A   1      43.229  31.562  29.117  1.00  0.00     0.031 C 
ATOM     38  C   UNL A   1      41.392  25.056  27.854  1.00  0.00     0.029 A 
ATOM     39  C   UNL A   1      42.807  25.368  27.732  1.00  0.00     0.049 A 
ATOM     40  H   UNL A   1      43.728  27.209  28.070  1.00  0.00     0.167 HD
ATOM     41  C   UNL A   1      45.570  31.131  28.414  1.00  0.00     0.037 A 
ATOM     42  C   UNL A   1      43.741  24.477  27.342  1.00  0.00     0.037 A 
ATOM     43  C   UNL A   1      46.632  30.269  27.958  1.00  0.00     0.049 A 
ATOM     44  C   UNL A   1      45.147  24.948  27.111  1.00  0.00     0.074 A 
ATOM     45  C   UNL A   1      47.969  30.578  27.763  1.00  0.00     0.029 A 
ATOM     46  N   UNL A   1      46.491  28.922  27.655  1.00  0.00    -0.354 N 
ATOM     47  N   UNL A   1      45.652  26.146  27.285  1.00  0.00    -0.248 NA
ATOM     48  C   UNL A   1      46.103  23.959  26.598  1.00  0.00     0.031 C 
ATOM     49  C   UNL A   1      48.625  29.433  27.300  1.00  0.00     0.029 A 
ATOM     50  C   UNL A   1      47.711  28.393  27.262  1.00  0.00     0.049 A 
ATOM     51  H   UNL A   1      45.648  28.417  27.711  1.00  0.00     0.167 HD
ATOM     52  C   UNL A   1      46.987  26.049  26.916  1.00  0.00     0.074 A 
ATOM     53  C   UNL A   1      47.217  24.673  26.531  1.00  0.00     0.031 C 
ATOM     54  C   UNL A   1      47.935  27.019  26.892  1.00  0.00     0.037 A 
BRANCH  41  55
ATOM     55  C   UNL A   1      45.910  32.575  28.688  1.00  0.00     0.058 A 
ATOM     56  C   UNL A   1      46.393  33.018  29.929  1.00  0.00     0.135 A 
ATOM     57  C   UNL A   1      45.808  33.527  27.656  1.00  0.00     0.135 A 
ATOM     58  F   UNL A   1      46.501  32.160  30.956  1.00  0.00    -0.206 F 
ATOM     59  C   UNL A   1      46.739  34.351  30.144  1.00  0.00     0.059 A 
ATOM     60  C   UNL A   1      46.178  34.856  27.838  1.00  0.00     0.059 A 
ATOM     61  F   UNL A   1      45.358  33.162  26.445  1.00  0.00    -0.206 F 
ATOM     62  C   UNL A   1      46.630  35.262  29.091  1.00  0.00     0.060 A 
BRANCH  62  63
ATOM     63  S   UNL A   1      47.096  36.984  29.382  1.00  0.00     0.124 S 
ATOM     64  O   UNL A   1      48.499  36.978  28.983  1.00  0.00    -0.237 OA
ATOM     65  O   UNL A   1      46.189  37.707  28.497  1.00  0.00    -0.237 OA
ATOM     66  O   UNL A   1      46.851  37.167  30.810  1.00  0.00    -0.744 OA
ENDBRANCH  62  63
ENDBRANCH  41  55
BRANCH  42  67
ATOM     67  C   UNL A   1      43.348  23.070  27.038  1.00  0.00     0.058 A 
ATOM     68  C   UNL A   1      43.242  22.610  25.718  1.00  0.00     0.135 A 
ATOM     69  C   UNL A   1      43.078  22.153  28.069  1.00  0.00     0.135 A 
ATOM     70  F   UNL A   1      43.469  23.448  24.695  1.00  0.00    -0.206 F 
ATOM     71  C   UNL A   1      42.879  21.297  25.430  1.00  0.00     0.059 A 
ATOM     72  C   UNL A   1      42.754  20.827  27.808  1.00  0.00     0.059 A 
ATOM     73  F   UNL A   1      43.169  22.537  29.353  1.00  0.00    -0.206 F 
ATOM     74  C   UNL A   1      42.645  20.411  26.484  1.00  0.00     0.060 A 
BRANCH  74  75
ATOM     75  S   UNL A   1      42.225  18.697  26.106  1.00  0.00     0.124 S 
ATOM     76  O   UNL A   1      42.513  18.038  27.374  1.00  0.00    -0.237 OA
ATOM     77  O   UNL A   1      40.814  18.798  25.744  1.00  0.00    -0.237 OA
ATOM     78  O   UNL A   1      43.124  18.365  25.004  1.00  0.00    -0.744 OA
ENDBRANCH  74  75
ENDBRANCH  42  67
BRANCH  54  79
ATOM     79  C   UNL A   1      49.323  26.613  26.482  1.00  0.00     0.058 A 
ATOM     80  C   UNL A   1      50.228  26.044  27.390  1.00  0.00     0.135 A 
ATOM     81  C   UNL A   1      49.740  26.768  25.149  1.00  0.00     0.135 A 
ATOM     82  F   UNL A   1      49.883  25.886  28.679  1.00  0.00    -0.206 F 
ATOM     83  C   UNL A   1      51.508  25.666  26.999  1.00  0.00     0.059 A 
ATOM     84  C   UNL A   1      51.004  26.369  24.729  1.00  0.00     0.059 A 
ATOM     85  F   UNL A   1      48.911  27.301  24.239  1.00  0.00    -0.206 F 
ATOM     86  C   UNL A   1      51.886  25.830  25.665  1.00  0.00     0.060 A 
BRANCH  86  87
ATOM     87  S   UNL A   1      53.540  25.308  25.164  1.00  0.00     0.124 S 
ATOM     88  O   UNL A   1      54.381  26.080  26.074  1.00  0.00    -0.237 OA
ATOM     89  O   UNL A   1      53.499  23.870  25.408  1.00  0.00    -0.237 OA
ATOM     90  O   UNL A   1      53.610  25.699  23.760  1.00  0.00    -0.744 OA
ENDBRANCH  86  87
ENDBRANCH  54  79
ENDBRANCH  28  29
ENDBRANCH  21  23
ENDBRANCH  20  21
ENDBRANCH   1  20
TORSDOF 15
ENDMDL
MODEL 3
REMARK VINA RESULT:     -10.8      2.470      9.068
REMARK SMILES Cc1nc([C@]2(C)CCCO2)nc(C)c1C(=O)OCCOC(=O)c1ccc(-c2c3nc(c(-c4c(F)cc(S(=O)(=O)[O-])cc4F)c4ccc([nH]4)c(-c4c(F)cc(S(=O)(=O)[O-])cc4F)c4nc(c(-c5c(F)cc(S(=O)(=O)[O-])cc5F)c5ccc2[nH]5)C=C4)C=C3)cc1
REMARK SMILES IDX 19 1 18 2 17 3 15 4 16 5 14 6 1 7 2 8 3 9 4 10 12 11 11 12
REMARK SMILES IDX 13 13 5 14 7 15 10 16 6 17 8 18 9 19 20 20 21 21 22 22 23 23
REMARK SMILES IDX 24 24 88 25 25 26 87 27 26 28 27 29 28 30 81 31 29 32 86 33
REMARK SMILES IDX 80 34 82 35 30 36 85 37 79 38 78 39 31 41 65 42 44 43 64 44
REMARK SMILES IDX 45 45 48 46 63 47 83 48 46 49 47 50 62 52 84 53 49 54 32 55
REMARK SMILES IDX 33 56 42 57 34 58 35 59 41 60 43 61 36 62 37 63 38 64 39 65
REMARK SMILES IDX 40 66 66 67 67 68 76 69 68 70 69 71 75 72 77 73 70 74 71 75
REMARK SMILES IDX 72 76 73 77 74 78 50 79 51 80 60 81 52 82 53 83 59 84 61 85
REMARK SMILES IDX 54 86 55 87 56 88 57 89 58 90
REMARK H PARENT 82 40 48 51
REMARK Flexibility Score: inf
ROOT
ATOM      1  C   UNL A   1      35.626  31.999  31.394  1.00  0.00     0.275 C 
ENDROOT
BRANCH   1   2
ATOM      2  C   UNL A   1      34.984  32.894  30.336  1.00  0.00     0.275 C 
BRANCH   2   3
ATOM      3  O   UNL A   1      34.115  32.136  29.461  1.00  0.00    -0.458 OA
BRANCH   3   4
ATOM      4  C   UNL A   1      34.446  32.130  28.144  1.00  0.00     0.341 C 
ATOM      5  O   UNL A   1      35.158  32.949  27.596  1.00  0.00    -0.246 OA
BRANCH   4   6
ATOM      6  C   UNL A   1      33.838  30.991  27.413  1.00  0.00     0.102 A 
ATOM      7  C   UNL A   1      35.872  29.486  27.635  1.00  0.00     0.068 C 
ATOM      8  C   UNL A   1      34.465  29.770  27.195  1.00  0.00     0.056 A 
ATOM      9  N   UNL A   1      33.851  28.737  26.546  1.00  0.00    -0.234 NA
ATOM     10  C   UNL A   1      32.580  28.922  26.126  1.00  0.00     0.160 A 
ATOM     11  C   UNL A   1      32.525  31.063  26.972  1.00  0.00     0.056 A 
ATOM     12  N   UNL A   1      31.894  30.036  26.377  1.00  0.00    -0.234 NA
ATOM     13  C   UNL A   1      31.718  32.308  26.889  1.00  0.00     0.068 C 
BRANCH  10  14
ATOM     14  C   UNL A   1      31.846  27.860  25.300  1.00  0.00     0.125 C 
ATOM     15  C   UNL A   1      32.788  27.131  24.349  1.00  0.00     0.046 C 
ATOM     16  O   UNL A   1      30.851  28.470  24.449  1.00  0.00    -0.367 OA
ATOM     17  C   UNL A   1      31.120  26.862  26.220  1.00  0.00     0.051 C 
ATOM     18  C   UNL A   1      32.807  28.038  23.141  1.00  0.00     0.032 C 
ATOM     19  C   UNL A   1      31.437  28.689  23.161  1.00  0.00     0.161 C 
ENDBRANCH  10  14
ENDBRANCH   4   6
ENDBRANCH   3   4
ENDBRANCH   2   3
ENDBRANCH   1   2
BRANCH   1  20
ATOM     20  O   UNL A   1      36.229  30.853  30.766  1.00  0.00    -0.458 OA
BRANCH  20  21
ATOM     21  C   UNL A   1      37.070  30.139  31.549  1.00  0.00     0.338 C 
ATOM     22  O   UNL A   1      36.769  29.404  32.476  1.00  0.00    -0.246 OA
BRANCH  21  23
ATOM     23  C   UNL A   1      38.453  30.273  31.061  1.00  0.00     0.060 A 
ATOM     24  C   UNL A   1      38.637  30.683  29.752  1.00  0.00     0.016 A 
ATOM     25  C   UNL A   1      39.531  29.766  31.783  1.00  0.00     0.016 A 
ATOM     26  C   UNL A   1      39.834  30.380  29.103  1.00  0.00     0.010 A 
ATOM     27  C   UNL A   1      40.788  29.638  31.164  1.00  0.00     0.010 A 
ATOM     28  C   UNL A   1      40.949  29.869  29.785  1.00  0.00    -0.014 A 
BRANCH  28  29
ATOM     29  C   UNL A   1      42.219  29.529  29.046  1.00  0.00     0.031 A 
ATOM     30  C   UNL A   1      42.421  28.147  28.448  1.00  0.00     0.074 A 
ATOM     31  C   UNL A   1      43.195  30.447  28.849  1.00  0.00     0.049 A 
ATOM     32  N   UNL A   1      43.526  27.574  28.036  1.00  0.00    -0.248 NA
ATOM     33  C   UNL A   1      41.231  27.291  28.310  1.00  0.00     0.031 C 
ATOM     34  C   UNL A   1      43.156  31.848  29.279  1.00  0.00     0.029 A 
ATOM     35  N   UNL A   1      44.418  30.346  28.220  1.00  0.00    -0.354 N 
ATOM     36  C   UNL A   1      43.181  26.271  27.680  1.00  0.00     0.074 A 
ATOM     37  C   UNL A   1      41.760  26.140  27.917  1.00  0.00     0.031 C 
ATOM     38  C   UNL A   1      44.244  32.487  28.832  1.00  0.00     0.029 A 
ATOM     39  C   UNL A   1      45.150  31.512  28.246  1.00  0.00     0.049 A 
ATOM     40  H   UNL A   1      44.737  29.518  27.793  1.00  0.00     0.167 HD
ATOM     41  C   UNL A   1      43.976  25.279  27.207  1.00  0.00     0.037 A 
ATOM     42  C   UNL A   1      46.435  31.775  27.932  1.00  0.00     0.037 A 
ATOM     43  C   UNL A   1      45.373  25.446  26.885  1.00  0.00     0.049 A 
ATOM     44  C   UNL A   1      47.316  30.653  27.469  1.00  0.00     0.074 A 
ATOM     45  C   UNL A   1      46.264  24.502  26.400  1.00  0.00     0.029 A 
ATOM     46  N   UNL A   1      46.076  26.638  26.983  1.00  0.00    -0.354 N 
ATOM     47  N   UNL A   1      47.007  29.396  27.262  1.00  0.00    -0.248 NA
ATOM     48  C   UNL A   1      48.729  30.974  27.228  1.00  0.00     0.031 C 
ATOM     49  C   UNL A   1      47.514  25.110  26.250  1.00  0.00     0.029 A 
ATOM     50  C   UNL A   1      47.390  26.449  26.584  1.00  0.00     0.049 A 
ATOM     51  H   UNL A   1      45.697  27.493  27.292  1.00  0.00     0.167 HD
ATOM     52  C   UNL A   1      48.183  28.780  26.855  1.00  0.00     0.074 A 
ATOM     53  C   UNL A   1      49.204  29.806  26.823  1.00  0.00     0.031 C 
ATOM     54  C   UNL A   1      48.398  27.478  26.542  1.00  0.00     0.037 A 
BRANCH  41  55
ATOM     55  C   UNL A   1      43.381  23.902  27.044  1.00  0.00     0.058 A 
ATOM     56  C   UNL A   1      43.145  23.045  28.129  1.00  0.00     0.135 A 
ATOM     57  C   UNL A   1      42.979  23.460  25.770  1.00  0.00     0.135 A 
ATOM     58  F   UNL A   1      43.517  23.406  29.368  1.00  0.00    -0.206 F 
ATOM     59  C   UNL A   1      42.556  21.794  27.956  1.00  0.00     0.059 A 
ATOM     60  C   UNL A   1      42.360  22.228  25.577  1.00  0.00     0.059 A 
ATOM     61  F   UNL A   1      43.173  24.238  24.693  1.00  0.00    -0.206 F 
ATOM     62  C   UNL A   1      42.165  21.395  26.676  1.00  0.00     0.060 A 
BRANCH  62  63
ATOM     63  S   UNL A   1      41.390  19.775  26.470  1.00  0.00     0.124 S 
ATOM     64  O   UNL A   1      40.001  20.147  26.219  1.00  0.00    -0.237 OA
ATOM     65  O   UNL A   1      42.115  19.225  25.330  1.00  0.00    -0.237 OA
ATOM     66  O   UNL A   1      41.640  19.113  27.747  1.00  0.00    -0.744 OA
ENDBRANCH  62  63
ENDBRANCH  41  55
BRANCH  42  67
ATOM     67  C   UNL A   1      46.990  33.142  28.153  1.00  0.00     0.058 A 
ATOM     68  C   UNL A   1      47.602  33.494  29.365  1.00  0.00     0.135 A 
ATOM     69  C   UNL A   1      46.929  34.123  27.147  1.00  0.00     0.135 A 
ATOM     70  F   UNL A   1      47.671  32.604  30.366  1.00  0.00    -0.206 F 
ATOM     71  C   UNL A   1      48.125  34.768  29.574  1.00  0.00     0.059 A 
ATOM     72  C   UNL A   1      47.481  35.387  27.317  1.00  0.00     0.059 A 
ATOM     73  F   UNL A   1      46.360  33.840  25.965  1.00  0.00    -0.206 F 
ATOM     74  C   UNL A   1      48.066  35.704  28.540  1.00  0.00     0.060 A 
BRANCH  74  75
ATOM     75  S   UNL A   1      48.793  37.336  28.799  1.00  0.00     0.124 S 
ATOM     76  O   UNL A   1      48.317  37.660  30.138  1.00  0.00    -0.237 OA
ATOM     77  O   UNL A   1      50.221  37.061  28.678  1.00  0.00    -0.237 OA
ATOM     78  O   UNL A   1      48.222  38.134  27.716  1.00  0.00    -0.744 OA
ENDBRANCH  74  75
ENDBRANCH  42  67
BRANCH  54  79
ATOM     79  C   UNL A   1      49.780  27.098  26.089  1.00  0.00     0.058 A 
ATOM     80  C   UNL A   1      50.751  26.628  26.986  1.00  0.00     0.135 A 
ATOM     81  C   UNL A   1      50.124  27.178  24.730  1.00  0.00     0.135 A 
ATOM     82  F   UNL A   1      50.476  26.545  28.298  1.00  0.00    -0.206 F 
ATOM     83  C   UNL A   1      52.024  26.273  26.555  1.00  0.00     0.059 A 
ATOM     84  C   UNL A   1      51.382  26.800  24.272  1.00  0.00     0.059 A 
ATOM     85  F   UNL A   1      49.230  27.616  23.830  1.00  0.00    -0.206 F 
ATOM     86  C   UNL A   1      52.330  26.360  25.196  1.00  0.00     0.060 A 
BRANCH  86  87
ATOM     87  S   UNL A   1      53.978  25.869  24.646  1.00  0.00     0.124 S 
ATOM     88  O   UNL A   1      54.829  26.586  25.590  1.00  0.00    -0.237 OA
ATOM     89  O   UNL A   1      53.939  24.419  24.803  1.00  0.00    -0.237 OA
ATOM     90  O   UNL A   1      54.033  26.344  23.267  1.00  0.00    -0.744 OA
ENDBRANCH  86  87
ENDBRANCH  54  79
ENDBRANCH  28  29
ENDBRANCH  21  23
ENDBRANCH  20  21
ENDBRANCH   1  20
TORSDOF 15
ENDMDL
