MODEL 1
REMARK VINA RESULT:     -13.5      0.000      0.000
REMARK SMILES CC(=O)O[C@@H]1CC[C@@]23C(=O)O[C@@]4(CC[C@]2(O)C1)[C@H]3CC[C@]1(C)[C@H](C(=O)OCCOC(=O)c2ccc(-c3c5nc(c(-c6c(F)cc(S(=O)(=O)[O-])cc6F)c6ccc([nH]6)c(-c6c(F)cc(S(=O)(=O)[O-])cc6F)c6nc(c(-c7c(F)cc(S(=O)(=O)[O-])cc7F)c7ccc3[nH]7)C=C6)C=C5)cc2)CC[C@@H]14
REMARK SMILES IDX 28 1 27 2 26 3 24 4 25 5 23 6 5 7 6 8 17 9 7 10 15 11 8 12
REMARK SMILES IDX 14 13 9 14 18 15 13 16 10 17 11 18 12 19 19 20 100 21 20 22
REMARK SMILES IDX 21 23 99 24 22 25 98 26 4 27 2 28 1 29 3 30 16 31 29 33
REMARK SMILES IDX 30 34 31 35 32 36 33 37 97 38 34 39 96 40 35 41 36 42 37 43
REMARK SMILES IDX 90 44 38 45 95 46 89 47 91 48 39 49 94 50 88 51 87 52 40 54
REMARK SMILES IDX 74 55 53 56 73 57 54 58 57 59 72 60 92 61 55 62 56 63 71 65
REMARK SMILES IDX 93 66 58 67 41 68 42 69 51 70 43 71 44 72 50 73 52 74 45 75
REMARK SMILES IDX 46 76 47 77 48 78 49 79 75 80 76 81 85 82 77 83 78 84 84 85
REMARK SMILES IDX 86 86 79 87 80 88 81 89 82 90 83 91 59 92 60 93 69 94 61 95
REMARK SMILES IDX 62 96 68 97 70 98 63 99 64 100 65 101 66 102 67 103
REMARK H PARENT 16 32 91 53 57 64
REMARK Flexibility Score: inf
ROOT
ATOM      1  C   UNL A   1      38.584  23.301  26.228  1.00  0.00     0.275 C 
ENDROOT
BRANCH   1   2
ATOM      2  C   UNL A   1      38.351  21.882  25.688  1.00  0.00     0.274 C 
BRANCH   2   3
ATOM      3  O   UNL A   1      37.504  21.878  24.521  1.00  0.00    -0.462 OA
BRANCH   3   4
ATOM      4  C   UNL A   1      36.452  21.061  24.695  1.00  0.00     0.309 C 
ATOM      5  O   UNL A   1      36.547  19.874  25.020  1.00  0.00    -0.252 OA
BRANCH   4   6
ATOM      6  C   UNL A   1      35.109  21.602  24.333  1.00  0.00     0.105 C 
ATOM      7  C   UNL A   1      31.047  27.762  22.802  1.00  0.00     0.179 C 
ATOM      8  C   UNL A   1      31.732  26.601  22.101  1.00  0.00     0.047 C 
ATOM      9  C   UNL A   1      30.558  27.571  24.265  1.00  0.00     0.081 C 
ATOM     10  C   UNL A   1      31.324  25.275  22.702  1.00  0.00     0.026 C 
ATOM     11  C   UNL A   1      30.970  26.322  25.049  1.00  0.00     0.085 C 
ATOM     12  C   UNL A   1      31.639  25.190  24.198  1.00  0.00     0.103 C 
ATOM     13  C   UNL A   1      30.031  25.519  25.905  1.00  0.00     0.041 C 
ATOM     14  C   UNL A   1      33.073  25.516  24.562  1.00  0.00     0.316 C 
ATOM     15  C   UNL A   1      31.247  23.564  24.649  1.00  0.00     0.054 C 
ATOM     16  C   UNL A   1      31.028  24.431  26.604  1.00  0.00     0.052 C 
ATOM     17  O   UNL A   1      33.823  26.390  24.129  1.00  0.00    -0.251 OA
ATOM     18  O   UNL A   1      33.366  24.736  25.600  1.00  0.00    -0.458 OA
ATOM     19  C   UNL A   1      32.355  23.779  25.590  1.00  0.00     0.120 C 
ATOM     20  C   UNL A   1      31.355  22.040  25.723  1.00  0.00     0.009 C 
ATOM     21  C   UNL A   1      32.994  22.684  24.229  1.00  0.00     0.040 C 
ATOM     22  C   UNL A   1      32.929  21.524  26.181  1.00  0.00     0.008 C 
ATOM     23  C   UNL A   1      33.649  21.417  24.849  1.00  0.00    -0.013 C 
ATOM     24  C   UNL A   1      34.002  23.270  23.222  1.00  0.00     0.009 C 
ATOM     25  C   UNL A   1      33.152  20.046  24.297  1.00  0.00     0.013 C 
ATOM     26  C   UNL A   1      35.321  23.034  23.875  1.00  0.00     0.016 C 
BRANCH   7  27
ATOM     27  O   UNL A   1      29.851  28.049  22.052  1.00  0.00    -0.462 OA
BRANCH  27  28
ATOM     28  C   UNL A   1      29.429  29.339  22.145  1.00  0.00     0.302 C 
ATOM     29  C   UNL A   1      27.989  29.341  22.535  1.00  0.00     0.139 C 
ATOM     30  O   UNL A   1      30.133  30.335  22.086  1.00  0.00    -0.253 OA
ENDBRANCH  27  28
ENDBRANCH   7  27
BRANCH  11  31
ATOM     31  O   UNL A   1      31.794  26.902  26.104  1.00  0.00    -0.389 OA
ATOM     32  H   UNL A   1      32.720  26.647  25.968  1.00  0.00     0.211 HD
ENDBRANCH  11  31
ENDBRANCH   4   6
ENDBRANCH   3   4
ENDBRANCH   2   3
ENDBRANCH   1   2
BRANCH   1  33
ATOM     33  O   UNL A   1      39.602  23.383  27.253  1.00  0.00    -0.458 OA
BRANCH  33  34
ATOM     34  C   UNL A   1      40.587  24.281  27.013  1.00  0.00     0.338 C 
ATOM     35  O   UNL A   1      41.498  24.158  26.209  1.00  0.00    -0.246 OA
BRANCH  34  36
ATOM     36  C   UNL A   1      40.435  25.506  27.825  1.00  0.00     0.060 A 
ATOM     37  C   UNL A   1      41.441  26.472  27.822  1.00  0.00     0.016 A 
ATOM     38  C   UNL A   1      39.409  25.589  28.762  1.00  0.00     0.016 A 
ATOM     39  C   UNL A   1      41.481  27.469  28.798  1.00  0.00     0.010 A 
ATOM     40  C   UNL A   1      39.395  26.648  29.682  1.00  0.00     0.010 A 
ATOM     41  C   UNL A   1      40.445  27.584  29.730  1.00  0.00    -0.014 A 
BRANCH  41  42
ATOM     42  C   UNL A   1      40.450  28.676  30.746  1.00  0.00     0.031 A 
ATOM     43  C   UNL A   1      41.371  28.605  31.937  1.00  0.00     0.074 A 
ATOM     44  C   UNL A   1      39.604  29.719  30.620  1.00  0.00     0.049 A 
ATOM     45  N   UNL A   1      41.381  29.335  33.022  1.00  0.00    -0.248 NA
ATOM     46  C   UNL A   1      42.410  27.564  31.908  1.00  0.00     0.031 C 
ATOM     47  C   UNL A   1      38.690  29.940  29.497  1.00  0.00     0.029 A 
ATOM     48  N   UNL A   1      39.358  30.783  31.456  1.00  0.00    -0.354 N 
ATOM     49  C   UNL A   1      42.394  28.819  33.823  1.00  0.00     0.074 A 
ATOM     50  C   UNL A   1      42.966  27.701  33.104  1.00  0.00     0.031 C 
ATOM     51  C   UNL A   1      37.988  31.062  29.710  1.00  0.00     0.029 A 
ATOM     52  C   UNL A   1      38.338  31.597  31.020  1.00  0.00     0.049 A 
ATOM     53  H   UNL A   1      39.862  30.945  32.285  1.00  0.00     0.167 HD
ATOM     54  C   UNL A   1      42.807  29.241  35.045  1.00  0.00     0.037 A 
ATOM     55  C   UNL A   1      37.711  32.626  31.624  1.00  0.00     0.037 A 
ATOM     56  C   UNL A   1      42.242  30.370  35.742  1.00  0.00     0.049 A 
ATOM     57  C   UNL A   1      38.141  33.036  33.005  1.00  0.00     0.074 A 
ATOM     58  C   UNL A   1      42.599  30.885  36.976  1.00  0.00     0.029 A 
ATOM     59  N   UNL A   1      41.203  31.158  35.267  1.00  0.00    -0.354 N 
ATOM     60  N   UNL A   1      39.086  32.526  33.759  1.00  0.00    -0.248 NA
ATOM     61  C   UNL A   1      37.419  34.157  33.620  1.00  0.00     0.031 C 
ATOM     62  C   UNL A   1      41.742  31.951  37.271  1.00  0.00     0.029 A 
ATOM     63  C   UNL A   1      40.892  32.142  36.194  1.00  0.00     0.049 A 
ATOM     64  H   UNL A   1      40.754  31.038  34.400  1.00  0.00     0.167 HD
ATOM     65  C   UNL A   1      39.088  33.280  34.927  1.00  0.00     0.074 A 
ATOM     66  C   UNL A   1      38.061  34.289  34.773  1.00  0.00     0.031 C 
ATOM     67  C   UNL A   1      39.872  33.148  36.025  1.00  0.00     0.037 A 
BRANCH  54  68
ATOM     68  C   UNL A   1      43.902  28.459  35.725  1.00  0.00     0.058 A 
ATOM     69  C   UNL A   1      45.260  28.760  35.535  1.00  0.00     0.135 A 
ATOM     70  C   UNL A   1      43.586  27.414  36.608  1.00  0.00     0.135 A 
ATOM     71  F   UNL A   1      45.626  29.740  34.693  1.00  0.00    -0.206 F 
ATOM     72  C   UNL A   1      46.265  28.033  36.170  1.00  0.00     0.059 A 
ATOM     73  C   UNL A   1      44.571  26.693  37.279  1.00  0.00     0.059 A 
ATOM     74  F   UNL A   1      42.304  27.082  36.833  1.00  0.00    -0.206 F 
ATOM     75  C   UNL A   1      45.909  27.000  37.040  1.00  0.00     0.060 A 
BRANCH  75  76
ATOM     76  S   UNL A   1      47.224  26.065  37.850  1.00  0.00     0.124 S 
ATOM     77  O   UNL A   1      48.382  26.918  37.603  1.00  0.00    -0.237 OA
ATOM     78  O   UNL A   1      46.761  26.012  39.234  1.00  0.00    -0.237 OA
ATOM     79  O   UNL A   1      47.223  24.789  37.142  1.00  0.00    -0.744 OA
ENDBRANCH  75  76
ENDBRANCH  54  68
BRANCH  55  80
ATOM     80  C   UNL A   1      36.583  33.312  30.936  1.00  0.00     0.058 A 
ATOM     81  C   UNL A   1      35.258  33.121  31.351  1.00  0.00     0.135 A 
ATOM     82  C   UNL A   1      36.810  34.188  29.860  1.00  0.00     0.135 A 
ATOM     83  F   UNL A   1      34.988  32.287  32.367  1.00  0.00    -0.206 F 
ATOM     84  C   UNL A   1      34.196  33.762  30.721  1.00  0.00     0.059 A 
ATOM     85  C   UNL A   1      35.767  34.865  29.234  1.00  0.00     0.059 A 
ATOM     86  F   UNL A   1      38.060  34.416  29.429  1.00  0.00    -0.206 F 
ATOM     87  C   UNL A   1      34.462  34.638  29.666  1.00  0.00     0.060 A 
BRANCH  87  88
ATOM     88  S   UNL A   1      33.080  35.503  28.890  1.00  0.00     0.124 S 
ATOM     89  O   UNL A   1      32.475  34.438  28.098  1.00  0.00    -0.237 OA
ATOM     90  O   UNL A   1      32.314  35.952  30.048  1.00  0.00    -0.237 OA
ATOM     91  O   UNL A   1      33.733  36.564  28.128  1.00  0.00    -0.744 OA
ENDBRANCH  87  88
ENDBRANCH  55  80
BRANCH  67  92
ATOM     92  C   UNL A   1      39.683  34.149  37.134  1.00  0.00     0.058 A 
ATOM     93  C   UNL A   1      38.922  33.858  38.277  1.00  0.00     0.135 A 
ATOM     94  C   UNL A   1      40.315  35.402  37.070  1.00  0.00     0.135 A 
ATOM     95  F   UNL A   1      38.290  32.679  38.386  1.00  0.00    -0.206 F 
ATOM     96  C   UNL A   1      38.774  34.784  39.306  1.00  0.00     0.059 A 
ATOM     97  C   UNL A   1      40.206  36.330  38.101  1.00  0.00     0.059 A 
ATOM     98  F   UNL A   1      41.062  35.730  36.003  1.00  0.00    -0.206 F 
ATOM     99  C   UNL A   1      39.423  36.016  39.210  1.00  0.00     0.060 A 
BRANCH  99 100
ATOM    100  S   UNL A   1      39.253  37.192  40.569  1.00  0.00     0.124 S 
ATOM    101  O   UNL A   1      38.346  38.180  39.991  1.00  0.00    -0.237 OA
ATOM    102  O   UNL A   1      38.693  36.362  41.631  1.00  0.00    -0.237 OA
ATOM    103  O   UNL A   1      40.619  37.653  40.795  1.00  0.00    -0.744 OA
ENDBRANCH  99 100
ENDBRANCH  67  92
ENDBRANCH  41  42
ENDBRANCH  34  36
ENDBRANCH  33  34
ENDBRANCH   1  33
TORSDOF 17
ENDMDL
MODEL 2
REMARK VINA RESULT:     -13.2      6.444     11.977
REMARK SMILES CC(=O)O[C@@H]1CC[C@@]23C(=O)O[C@@]4(CC[C@]2(O)C1)[C@H]3CC[C@]1(C)[C@H](C(=O)OCCOC(=O)c2ccc(-c3c5nc(c(-c6c(F)cc(S(=O)(=O)[O-])cc6F)c6ccc([nH]6)c(-c6c(F)cc(S(=O)(=O)[O-])cc6F)c6nc(c(-c7c(F)cc(S(=O)(=O)[O-])cc7F)c7ccc3[nH]7)C=C6)C=C5)cc2)CC[C@@H]14
REMARK SMILES IDX 28 1 27 2 26 3 24 4 25 5 23 6 5 7 6 8 17 9 7 10 15 11 8 12
REMARK SMILES IDX 14 13 9 14 18 15 13 16 10 17 11 18 12 19 19 20 100 21 20 22
REMARK SMILES IDX 21 23 99 24 22 25 98 26 4 27 2 28 1 29 3 30 16 31 29 33
REMARK SMILES IDX 30 34 31 35 32 36 33 37 97 38 34 39 96 40 35 41 36 42 37 43
REMARK SMILES IDX 90 44 38 45 95 46 89 47 91 48 39 49 94 50 88 51 87 52 40 54
REMARK SMILES IDX 74 55 53 56 73 57 54 58 57 59 72 60 92 61 55 62 56 63 71 65
REMARK SMILES IDX 93 66 58 67 41 68 42 69 51 70 43 71 44 72 50 73 52 74 45 75
REMARK SMILES IDX 46 76 47 77 48 78 49 79 75 80 76 81 85 82 77 83 78 84 84 85
REMARK SMILES IDX 86 86 79 87 80 88 81 89 82 90 83 91 59 92 60 93 69 94 61 95
REMARK SMILES IDX 62 96 68 97 70 98 63 99 64 100 65 101 66 102 67 103
REMARK H PARENT 16 32 91 53 57 64
REMARK Flexibility Score: inf
ROOT
ATOM      1  C   UNL A   1      34.732  30.193  27.583  1.00  0.00     0.275 C 
ENDROOT
BRANCH   1   2
ATOM      2  C   UNL A   1      33.377  30.838  27.256  1.00  0.00     0.274 C 
BRANCH   2   3
ATOM      3  O   UNL A   1      32.307  29.874  27.235  1.00  0.00    -0.462 OA
BRANCH   3   4
ATOM      4  C   UNL A   1      31.638  29.925  26.071  1.00  0.00     0.309 C 
ATOM      5  O   UNL A   1      31.209  30.967  25.568  1.00  0.00    -0.252 OA
BRANCH   4   6
ATOM      6  C   UNL A   1      31.283  28.622  25.436  1.00  0.00     0.105 C 
ATOM      7  C   UNL A   1      32.534  21.193  25.275  1.00  0.00     0.179 C 
ATOM      8  C   UNL A   1      31.529  22.205  25.799  1.00  0.00     0.047 C 
ATOM      9  C   UNL A   1      33.377  21.554  24.021  1.00  0.00     0.081 C 
ATOM     10  C   UNL A   1      31.081  23.153  24.710  1.00  0.00     0.026 C 
ATOM     11  C   UNL A   1      33.357  22.985  23.476  1.00  0.00     0.085 C 
ATOM     12  C   UNL A   1      32.252  23.914  24.082  1.00  0.00     0.103 C 
ATOM     13  C   UNL A   1      33.251  23.327  22.017  1.00  0.00     0.041 C 
ATOM     14  C   UNL A   1      33.145  24.633  25.073  1.00  0.00     0.316 C 
ATOM     15  C   UNL A   1      31.520  25.041  22.988  1.00  0.00     0.054 C 
ATOM     16  C   UNL A   1      33.436  24.949  22.017  1.00  0.00     0.052 C 
ATOM     17  O   UNL A   1      33.555  24.274  26.177  1.00  0.00    -0.251 OA
ATOM     18  O   UNL A   1      33.556  25.735  24.453  1.00  0.00    -0.458 OA
ATOM     19  C   UNL A   1      32.685  25.851  23.373  1.00  0.00     0.120 C 
ATOM     20  C   UNL A   1      31.467  26.599  21.959  1.00  0.00     0.009 C 
ATOM     21  C   UNL A   1      31.209  26.560  24.254  1.00  0.00     0.040 C 
ATOM     22  C   UNL A   1      31.978  28.052  22.723  1.00  0.00     0.008 C 
ATOM     23  C   UNL A   1      31.127  28.089  23.979  1.00  0.00    -0.013 C 
ATOM     24  C   UNL A   1      31.095  26.366  25.778  1.00  0.00     0.009 C 
ATOM     25  C   UNL A   1      29.760  28.621  23.453  1.00  0.00     0.013 C 
ATOM     26  C   UNL A   1      31.841  27.530  26.332  1.00  0.00     0.016 C 
BRANCH   7  27
ATOM     27  O   UNL A   1      31.781  20.027  24.885  1.00  0.00    -0.462 OA
BRANCH  27  28
ATOM     28  C   UNL A   1      32.441  18.851  25.058  1.00  0.00     0.302 C 
ATOM     29  C   UNL A   1      32.530  18.157  23.741  1.00  0.00     0.139 C 
ATOM     30  O   UNL A   1      33.015  18.488  26.074  1.00  0.00    -0.253 OA
ENDBRANCH  27  28
ENDBRANCH   7  27
BRANCH  11  31
ATOM     31  O   UNL A   1      34.738  23.400  23.703  1.00  0.00    -0.389 OA
ATOM     32  H   UNL A   1      34.792  23.906  24.528  1.00  0.00     0.211 HD
ENDBRANCH  11  31
ENDBRANCH   4   6
ENDBRANCH   3   4
ENDBRANCH   2   3
ENDBRANCH   1   2
BRANCH   1  33
ATOM     33  O   UNL A   1      35.716  31.116  28.103  1.00  0.00    -0.458 OA
BRANCH  33  34
ATOM     34  C   UNL A   1      36.280  30.752  29.280  1.00  0.00     0.338 C 
ATOM     35  O   UNL A   1      35.808  30.925  30.393  1.00  0.00    -0.246 OA
BRANCH  34  36
ATOM     36  C   UNL A   1      37.569  30.057  29.089  1.00  0.00     0.060 A 
ATOM     37  C   UNL A   1      38.360  29.740  30.194  1.00  0.00     0.016 A 
ATOM     38  C   UNL A   1      38.100  29.927  27.808  1.00  0.00     0.016 A 
ATOM     39  C   UNL A   1      39.698  29.379  30.038  1.00  0.00     0.010 A 
ATOM     40  C   UNL A   1      39.417  29.470  27.647  1.00  0.00     0.010 A 
ATOM     41  C   UNL A   1      40.241  29.217  28.760  1.00  0.00    -0.014 A 
BRANCH  41  42
ATOM     42  C   UNL A   1      41.656  28.782  28.580  1.00  0.00     0.031 A 
ATOM     43  C   UNL A   1      42.776  29.789  28.641  1.00  0.00     0.074 A 
ATOM     44  C   UNL A   1      41.938  27.488  28.327  1.00  0.00     0.049 A 
ATOM     45  N   UNL A   1      44.035  29.650  28.309  1.00  0.00    -0.248 NA
ATOM     46  C   UNL A   1      42.431  31.134  29.128  1.00  0.00     0.031 C 
ATOM     47  C   UNL A   1      40.959  26.399  28.284  1.00  0.00     0.029 A 
ATOM     48  N   UNL A   1      43.130  26.867  28.038  1.00  0.00    -0.354 N 
ATOM     49  C   UNL A   1      44.622  30.895  28.505  1.00  0.00     0.074 A 
ATOM     50  C   UNL A   1      43.577  31.783  28.969  1.00  0.00     0.031 C 
ATOM     51  C   UNL A   1      41.584  25.251  27.990  1.00  0.00     0.029 A 
ATOM     52  C   UNL A   1      42.993  25.530  27.740  1.00  0.00     0.049 A 
ATOM     53  H   UNL A   1      43.996  27.333  28.044  1.00  0.00     0.167 HD
ATOM     54  C   UNL A   1      45.915  31.262  28.315  1.00  0.00     0.037 A 
ATOM     55  C   UNL A   1      43.883  24.636  27.265  1.00  0.00     0.037 A 
ATOM     56  C   UNL A   1      46.951  30.363  27.872  1.00  0.00     0.049 A 
ATOM     57  C   UNL A   1      45.295  25.080  27.000  1.00  0.00     0.074 A 
ATOM     58  C   UNL A   1      48.293  30.633  27.662  1.00  0.00     0.029 A 
ATOM     59  N   UNL A   1      46.765  29.021  27.572  1.00  0.00    -0.354 N 
ATOM     60  N   UNL A   1      45.832  26.265  27.170  1.00  0.00    -0.248 NA
ATOM     61  C   UNL A   1      46.221  24.069  26.475  1.00  0.00     0.031 C 
ATOM     62  C   UNL A   1      48.905  29.470  27.185  1.00  0.00     0.029 A 
ATOM     63  C   UNL A   1      47.962  28.456  27.158  1.00  0.00     0.049 A 
ATOM     64  H   UNL A   1      45.909  28.540  27.643  1.00  0.00     0.167 HD
ATOM     65  C   UNL A   1      47.164  26.135  26.796  1.00  0.00     0.074 A 
ATOM     66  C   UNL A   1      47.355  24.753  26.406  1.00  0.00     0.031 C 
ATOM     67  C   UNL A   1      48.141  27.075  26.780  1.00  0.00     0.037 A 
BRANCH  54  68
ATOM     68  C   UNL A   1      46.278  32.706  28.553  1.00  0.00     0.058 A 
ATOM     69  C   UNL A   1      46.733  33.165  29.799  1.00  0.00     0.135 A 
ATOM     70  C   UNL A   1      46.201  33.639  27.505  1.00  0.00     0.135 A 
ATOM     71  F   UNL A   1      46.815  32.324  30.842  1.00  0.00    -0.206 F 
ATOM     72  C   UNL A   1      47.068  34.500  30.007  1.00  0.00     0.059 A 
ATOM     73  C   UNL A   1      46.561  34.973  27.680  1.00  0.00     0.059 A 
ATOM     74  F   UNL A   1      45.776  33.258  26.290  1.00  0.00    -0.206 F 
ATOM     75  C   UNL A   1      46.977  35.398  28.941  1.00  0.00     0.060 A 
BRANCH  75  76
ATOM     76  S   UNL A   1      47.410  37.127  29.230  1.00  0.00     0.124 S 
ATOM     77  O   UNL A   1      47.434  37.180  30.688  1.00  0.00    -0.237 OA
ATOM     78  O   UNL A   1      48.708  37.237  28.572  1.00  0.00    -0.237 OA
ATOM     79  O   UNL A   1      46.323  37.863  28.593  1.00  0.00    -0.744 OA
ENDBRANCH  75  76
ENDBRANCH  54  68
BRANCH  55  80
ATOM     80  C   UNL A   1      43.449  23.242  26.976  1.00  0.00     0.058 A 
ATOM     81  C   UNL A   1      43.357  22.772  25.659  1.00  0.00     0.135 A 
ATOM     82  C   UNL A   1      43.136  22.345  28.012  1.00  0.00     0.135 A 
ATOM     83  F   UNL A   1      43.634  23.592  24.634  1.00  0.00    -0.206 F 
ATOM     84  C   UNL A   1      42.959  21.469  25.376  1.00  0.00     0.059 A 
ATOM     85  C   UNL A   1      42.768  21.028  27.756  1.00  0.00     0.059 A 
ATOM     86  F   UNL A   1      43.220  22.740  29.292  1.00  0.00    -0.206 F 
ATOM     87  C   UNL A   1      42.672  20.602  26.433  1.00  0.00     0.060 A 
BRANCH  87  88
ATOM     88  S   UNL A   1      42.207  18.899  26.054  1.00  0.00     0.124 S 
ATOM     89  O   UNL A   1      43.030  18.625  24.880  1.00  0.00    -0.237 OA
ATOM     90  O   UNL A   1      42.588  18.200  27.277  1.00  0.00    -0.237 OA
ATOM     91  O   UNL A   1      40.771  18.988  25.811  1.00  0.00    -0.744 OA
ENDBRANCH  87  88
ENDBRANCH  55  80
BRANCH  67  92
ATOM     92  C   UNL A   1      49.520  26.633  26.370  1.00  0.00     0.058 A 
ATOM     93  C   UNL A   1      50.389  25.985  27.261  1.00  0.00     0.135 A 
ATOM     94  C   UNL A   1      49.959  26.822  25.048  1.00  0.00     0.135 A 
ATOM     95  F   UNL A   1      50.024  25.787  28.537  1.00  0.00    -0.206 F 
ATOM     96  C   UNL A   1      51.654  25.560  26.863  1.00  0.00     0.059 A 
ATOM     97  C   UNL A   1      51.206  26.377  24.621  1.00  0.00     0.059 A 
ATOM     98  F   UNL A   1      49.166  27.430  24.152  1.00  0.00    -0.206 F 
ATOM     99  C   UNL A   1      52.051  25.758  25.539  1.00  0.00     0.060 A 
BRANCH  99 100
ATOM    100  S   UNL A   1      53.680  25.170  25.027  1.00  0.00     0.124 S 
ATOM    101  O   UNL A   1      54.556  25.888  25.948  1.00  0.00    -0.237 OA
ATOM    102  O   UNL A   1      53.574  23.730  25.246  1.00  0.00    -0.237 OA
ATOM    103  O   UNL A   1      53.767  25.581  23.630  1.00  0.00    -0.744 OA
ENDBRANCH  99 100
ENDBRANCH  67  92
ENDBRANCH  41  42
ENDBRANCH  34  36
ENDBRANCH  33  34
ENDBRANCH   1  33
TORSDOF 17
ENDMDL
MODEL 3
REMARK VINA RESULT:     -12.9      0.589      7.971
REMARK SMILES CC(=O)O[C@@H]1CC[C@@]23C(=O)O[C@@]4(CC[C@]2(O)C1)[C@H]3CC[C@]1(C)[C@H](C(=O)OCCOC(=O)c2ccc(-c3c5nc(c(-c6c(F)cc(S(=O)(=O)[O-])cc6F)c6ccc([nH]6)c(-c6c(F)cc(S(=O)(=O)[O-])cc6F)c6nc(c(-c7c(F)cc(S(=O)(=O)[O-])cc7F)c7ccc3[nH]7)C=C6)C=C5)cc2)CC[C@@H]14
REMARK SMILES IDX 28 1 27 2 26 3 24 4 25 5 23 6 5 7 6 8 17 9 7 10 15 11 8 12
REMARK SMILES IDX 14 13 9 14 18 15 13 16 10 17 11 18 12 19 19 20 100 21 20 22
REMARK SMILES IDX 21 23 99 24 22 25 98 26 4 27 2 28 1 29 3 30 16 31 29 33
REMARK SMILES IDX 30 34 31 35 32 36 33 37 97 38 34 39 96 40 35 41 36 42 37 43
REMARK SMILES IDX 90 44 38 45 95 46 89 47 91 48 39 49 94 50 88 51 87 52 40 54
REMARK SMILES IDX 74 55 53 56 73 57 54 58 57 59 72 60 92 61 55 62 56 63 71 65
REMARK SMILES IDX 93 66 58 67 41 68 42 69 51 70 43 71 44 72 50 73 52 74 45 75
REMARK SMILES IDX 46 76 47 77 48 78 49 79 75 80 76 81 85 82 77 83 78 84 84 85
REMARK SMILES IDX 86 86 79 87 80 88 81 89 82 90 83 91 59 92 60 93 69 94 61 95
REMARK SMILES IDX 62 96 68 97 70 98 63 99 64 100 65 101 66 102 67 103
REMARK H PARENT 16 32 91 53 57 64
REMARK Flexibility Score: inf
ROOT
ATOM      1  C   UNL A   1      38.592  23.900  26.128  1.00  0.00     0.275 C 
ENDROOT
BRANCH   1   2
ATOM      2  C   UNL A   1      38.169  22.434  25.947  1.00  0.00     0.274 C 
BRANCH   2   3
ATOM      3  O   UNL A   1      37.560  22.199  24.663  1.00  0.00    -0.462 OA
BRANCH   3   4
ATOM      4  C   UNL A   1      36.534  21.339  24.769  1.00  0.00     0.309 C 
ATOM      5  O   UNL A   1      36.662  20.144  25.049  1.00  0.00    -0.252 OA
BRANCH   4   6
ATOM      6  C   UNL A   1      35.184  21.847  24.383  1.00  0.00     0.105 C 
ATOM      7  C   UNL A   1      30.998  27.904  22.777  1.00  0.00     0.179 C 
ATOM      8  C   UNL A   1      31.723  26.759  22.089  1.00  0.00     0.047 C 
ATOM      9  C   UNL A   1      30.490  27.702  24.231  1.00  0.00     0.081 C 
ATOM     10  C   UNL A   1      31.338  25.425  22.684  1.00  0.00     0.026 C 
ATOM     11  C   UNL A   1      30.918  26.464  25.024  1.00  0.00     0.085 C 
ATOM     12  C   UNL A   1      31.629  25.348  24.185  1.00  0.00     0.103 C 
ATOM     13  C   UNL A   1      29.985  25.639  25.865  1.00  0.00     0.041 C 
ATOM     14  C   UNL A   1      33.049  25.709  24.574  1.00  0.00     0.316 C 
ATOM     15  C   UNL A   1      31.270  23.713  24.631  1.00  0.00     0.054 C 
ATOM     16  C   UNL A   1      30.996  24.576  26.581  1.00  0.00     0.052 C 
ATOM     17  O   UNL A   1      33.785  26.601  24.153  1.00  0.00    -0.251 OA
ATOM     18  O   UNL A   1      33.343  24.938  25.617  1.00  0.00    -0.458 OA
ATOM     19  C   UNL A   1      32.356  23.956  25.591  1.00  0.00     0.120 C 
ATOM     20  C   UNL A   1      31.397  22.193  25.709  1.00  0.00     0.009 C 
ATOM     21  C   UNL A   1      33.045  22.877  24.243  1.00  0.00     0.040 C 
ATOM     22  C   UNL A   1      32.976  21.716  26.194  1.00  0.00     0.008 C 
ATOM     23  C   UNL A   1      33.721  21.626  24.875  1.00  0.00    -0.013 C 
ATOM     24  C   UNL A   1      34.056  23.486  23.252  1.00  0.00     0.009 C 
ATOM     25  C   UNL A   1      33.266  20.243  24.316  1.00  0.00     0.013 C 
ATOM     26  C   UNL A   1      35.368  23.283  23.927  1.00  0.00     0.016 C 
BRANCH   7  27
ATOM     27  O   UNL A   1      29.809  28.161  22.006  1.00  0.00    -0.462 OA
BRANCH  27  28
ATOM     28  C   UNL A   1      29.280  29.400  22.191  1.00  0.00     0.302 C 
ATOM     29  C   UNL A   1      27.875  29.252  22.670  1.00  0.00     0.139 C 
ATOM     30  O   UNL A   1      29.887  30.460  22.140  1.00  0.00    -0.253 OA
ENDBRANCH  27  28
ENDBRANCH   7  27
BRANCH  11  31
ATOM     31  O   UNL A   1      31.710  27.065  26.093  1.00  0.00    -0.389 OA
ATOM     32  H   UNL A   1      31.280  27.879  26.395  1.00  0.00     0.211 HD
ENDBRANCH  11  31
ENDBRANCH   4   6
ENDBRANCH   3   4
ENDBRANCH   2   3
ENDBRANCH   1   2
BRANCH   1  33
ATOM     33  O   UNL A   1      39.964  24.070  26.554  1.00  0.00    -0.458 OA
BRANCH  33  34
ATOM     34  C   UNL A   1      40.451  25.328  26.430  1.00  0.00     0.338 C 
ATOM     35  O   UNL A   1      40.780  25.877  25.389  1.00  0.00    -0.246 OA
BRANCH  34  36
ATOM     36  C   UNL A   1      40.519  26.031  27.727  1.00  0.00     0.060 A 
ATOM     37  C   UNL A   1      39.543  25.799  28.697  1.00  0.00     0.016 A 
ATOM     38  C   UNL A   1      41.412  27.086  27.894  1.00  0.00     0.016 A 
ATOM     39  C   UNL A   1      39.395  26.658  29.785  1.00  0.00     0.010 A 
ATOM     40  C   UNL A   1      41.325  27.892  29.039  1.00  0.00     0.010 A 
ATOM     41  C   UNL A   1      40.299  27.706  29.984  1.00  0.00    -0.014 A 
BRANCH  41  42
ATOM     42  C   UNL A   1      40.181  28.602  31.172  1.00  0.00     0.031 A 
ATOM     43  C   UNL A   1      39.202  29.747  31.168  1.00  0.00     0.074 A 
ATOM     44  C   UNL A   1      40.978  28.410  32.243  1.00  0.00     0.049 A 
ATOM     45  N   UNL A   1      39.095  30.748  32.003  1.00  0.00    -0.248 NA
ATOM     46  C   UNL A   1      38.221  29.775  30.072  1.00  0.00     0.031 C 
ATOM     47  C   UNL A   1      41.940  27.316  32.401  1.00  0.00     0.029 A 
ATOM     48  N   UNL A   1      41.123  29.141  33.398  1.00  0.00    -0.354 N 
ATOM     49  C   UNL A   1      38.067  31.548  31.514  1.00  0.00     0.074 A 
ATOM     50  C   UNL A   1      37.594  30.921  30.298  1.00  0.00     0.031 C 
ATOM     51  C   UNL A   1      42.569  27.446  33.577  1.00  0.00     0.029 A 
ATOM     52  C   UNL A   1      42.121  28.674  34.221  1.00  0.00     0.049 A 
ATOM     53  H   UNL A   1      40.565  29.923  33.615  1.00  0.00     0.167 HD
ATOM     54  C   UNL A   1      37.566  32.697  32.033  1.00  0.00     0.037 A 
ATOM     55  C   UNL A   1      42.660  29.197  35.340  1.00  0.00     0.037 A 
ATOM     56  C   UNL A   1      38.033  33.299  33.257  1.00  0.00     0.049 A 
ATOM     57  C   UNL A   1      42.134  30.505  35.862  1.00  0.00     0.074 A 
ATOM     58  C   UNL A   1      37.582  34.454  33.874  1.00  0.00     0.029 A 
ATOM     59  N   UNL A   1      39.054  32.797  34.052  1.00  0.00    -0.354 N 
ATOM     60  N   UNL A   1      41.177  31.261  35.378  1.00  0.00    -0.248 NA
ATOM     61  C   UNL A   1      42.763  31.035  37.079  1.00  0.00     0.031 C 
ATOM     62  C   UNL A   1      38.365  34.678  35.011  1.00  0.00     0.029 A 
ATOM     63  C   UNL A   1      39.262  33.630  35.140  1.00  0.00     0.049 A 
ATOM     64  H   UNL A   1      39.556  31.971  33.870  1.00  0.00     0.167 HD
ATOM     65  C   UNL A   1      41.071  32.342  36.245  1.00  0.00     0.074 A 
ATOM     66  C   UNL A   1      42.052  32.135  37.291  1.00  0.00     0.031 C 
ATOM     67  C   UNL A   1      40.237  33.408  36.181  1.00  0.00     0.037 A 
BRANCH  54  68
ATOM     68  C   UNL A   1      36.477  33.400  31.263  1.00  0.00     0.058 A 
ATOM     69  C   UNL A   1      36.731  34.071  30.057  1.00  0.00     0.135 A 
ATOM     70  C   UNL A   1      35.149  33.371  31.723  1.00  0.00     0.135 A 
ATOM     71  F   UNL A   1      37.982  34.145  29.573  1.00  0.00    -0.206 F 
ATOM     72  C   UNL A   1      35.718  34.716  29.353  1.00  0.00     0.059 A 
ATOM     73  C   UNL A   1      34.114  33.981  31.020  1.00  0.00     0.059 A 
ATOM     74  F   UNL A   1      34.844  32.740  32.869  1.00  0.00    -0.206 F 
ATOM     75  C   UNL A   1      34.411  34.666  29.844  1.00  0.00     0.060 A 
BRANCH  75  76
ATOM     76  S   UNL A   1      33.110  35.511  28.920  1.00  0.00     0.124 S 
ATOM     77  O   UNL A   1      33.885  36.469  28.137  1.00  0.00    -0.237 OA
ATOM     78  O   UNL A   1      32.506  34.419  28.164  1.00  0.00    -0.237 OA
ATOM     79  O   UNL A   1      32.269  36.089  29.964  1.00  0.00    -0.744 OA
ENDBRANCH  75  76
ENDBRANCH  54  68
BRANCH  55  80
ATOM     80  C   UNL A   1      43.787  28.498  36.016  1.00  0.00     0.058 A 
ATOM     81  C   UNL A   1      45.115  28.893  35.805  1.00  0.00     0.135 A 
ATOM     82  C   UNL A   1      43.557  27.431  36.902  1.00  0.00     0.135 A 
ATOM     83  F   UNL A   1      45.388  29.899  34.960  1.00  0.00    -0.206 F 
ATOM     84  C   UNL A   1      46.176  28.252  36.436  1.00  0.00     0.059 A 
ATOM     85  C   UNL A   1      44.599  26.796  37.570  1.00  0.00     0.059 A 
ATOM     86  F   UNL A   1      42.304  27.020  37.150  1.00  0.00    -0.206 F 
ATOM     87  C   UNL A   1      45.907  27.207  37.323  1.00  0.00     0.060 A 
BRANCH  87  88
ATOM     88  S   UNL A   1      47.289  26.417  38.175  1.00  0.00     0.124 S 
ATOM     89  O   UNL A   1      46.784  25.060  38.357  1.00  0.00    -0.237 OA
ATOM     90  O   UNL A   1      48.371  26.572  37.208  1.00  0.00    -0.237 OA
ATOM     91  O   UNL A   1      47.428  27.207  39.395  1.00  0.00    -0.744 OA
ENDBRANCH  87  88
ENDBRANCH  55  80
BRANCH  67  92
ATOM     92  C   UNL A   1      40.312  34.415  37.298  1.00  0.00     0.058 A 
ATOM     93  C   UNL A   1      41.203  35.499  37.264  1.00  0.00     0.135 A 
ATOM     94  C   UNL A   1      39.444  34.316  38.398  1.00  0.00     0.135 A 
ATOM     95  F   UNL A   1      42.061  35.636  36.240  1.00  0.00    -0.206 F 
ATOM     96  C   UNL A   1      41.247  36.435  38.292  1.00  0.00     0.059 A 
ATOM     97  C   UNL A   1      39.449  35.258  39.422  1.00  0.00     0.059 A 
ATOM     98  F   UNL A   1      38.566  33.303  38.479  1.00  0.00    -0.206 F 
ATOM     99  C   UNL A   1      40.363  36.308  39.365  1.00  0.00     0.060 A 
BRANCH  99 100
ATOM    100  S   UNL A   1      40.406  37.551  40.674  1.00  0.00     0.124 S 
ATOM    101  O   UNL A   1      41.026  36.807  41.767  1.00  0.00    -0.237 OA
ATOM    102  O   UNL A   1      41.225  38.602  40.079  1.00  0.00    -0.237 OA
ATOM    103  O   UNL A   1      39.000  37.893  40.866  1.00  0.00    -0.744 OA
ENDBRANCH  99 100
ENDBRANCH  67  92
ENDBRANCH  41  42
ENDBRANCH  34  36
ENDBRANCH  33  34
ENDBRANCH   1  33
TORSDOF 17
ENDMDL
