MODEL 1
REMARK VINA RESULT:      -9.5      0.000      0.000
REMARK SMILES CC[C@@H](NC(=O)[C@H](C)C[NH2+]C)C(=O)OCCOC(=O)c1ccc(-c2c3nc(c(-c4c(F)cc(S(=O)(=O)[O-])cc4F)c4ccc([nH]4)c(-c4c(F)cc(S(=O)(=O)[O-])cc4F)c4nc(c(-c5c(F)cc(S(=O)(=O)[O-])cc5F)c5ccc2[nH]5)C=C4)C=C3)cc1
REMARK SMILES IDX 15 1 14 2 12 3 13 4 3 5 2 6 1 7 4 8 5 9 6 11 7 12 8 13 9 14
REMARK SMILES IDX 10 15 11 16 16 19 17 20 18 21 19 22 20 23 21 24 85 25 22 26
REMARK SMILES IDX 84 27 23 28 24 29 25 30 78 31 26 32 83 33 77 34 79 35 27 36
REMARK SMILES IDX 82 37 76 38 75 39 28 41 62 42 41 43 61 44 42 45 45 46 60 47
REMARK SMILES IDX 80 48 43 49 44 50 59 52 81 53 46 54 29 55 30 56 39 57 31 58
REMARK SMILES IDX 32 59 38 60 40 61 33 62 34 63 35 64 36 65 37 66 63 67 64 68
REMARK SMILES IDX 73 69 65 70 66 71 72 72 74 73 67 74 68 75 69 76 70 77 71 78
REMARK SMILES IDX 47 79 48 80 57 81 49 82 50 83 56 84 58 85 51 86 52 87 53 88
REMARK SMILES IDX 54 89 55 90
REMARK H PARENT 4 10 10 17 10 18 79 40 45 51
REMARK Flexibility Score: inf
ROOT
ATOM      1  C   UNL A   1      34.487  32.593  27.868  1.00  0.00     0.274 C 
ENDROOT
BRANCH   1   2
ATOM      2  O   UNL A   1      34.726  33.826  28.581  1.00  0.00    -0.461 OA
BRANCH   2   3
ATOM      3  C   UNL A   1      33.620  34.432  29.093  1.00  0.00     0.328 C 
ATOM      4  O   UNL A   1      32.546  34.499  28.506  1.00  0.00    -0.250 OA
BRANCH   3   5
ATOM      5  C   UNL A   1      33.843  35.094  30.464  1.00  0.00     0.192 C 
BRANCH   5   6
ATOM      6  C   UNL A   1      32.915  36.321  30.609  1.00  0.00     0.033 C 
ATOM      7  C   UNL A   1      33.294  37.232  31.772  1.00  0.00     0.007 C 
ENDBRANCH   5   6
BRANCH   5   8
ATOM      8  N   UNL A   1      33.771  34.288  31.704  1.00  0.00    -0.342 N 
ATOM      9  C   UNL A   1      34.722  33.842  32.568  1.00  0.00     0.229 C 
ATOM     10  H   UNL A   1      32.855  34.024  31.951  1.00  0.00     0.164 HD
ATOM     11  O   UNL A   1      34.470  33.947  33.771  1.00  0.00    -0.275 OA
BRANCH   9  12
ATOM     12  C   UNL A   1      35.954  33.073  32.105  1.00  0.00     0.130 C 
ATOM     13  C   UNL A   1      36.377  31.974  33.070  1.00  0.00     0.024 C 
BRANCH  12  14
ATOM     14  C   UNL A   1      37.020  34.082  31.637  1.00  0.00     0.273 C 
BRANCH  14  15
ATOM     15  N   UNL A   1      37.173  34.205  30.183  1.00  0.00    -0.348 N 
ATOM     16  C   UNL A   1      38.562  33.973  29.802  1.00  0.00     0.330 C 
ATOM     17  H   UNL A   1      36.897  35.144  29.893  1.00  0.00     0.346 HD
ATOM     18  H   UNL A   1      36.580  33.514  29.725  1.00  0.00     0.346 HD
ENDBRANCH  14  15
ENDBRANCH  12  14
ENDBRANCH   9  12
ENDBRANCH   5   8
ENDBRANCH   3   5
ENDBRANCH   2   3
ENDBRANCH   1   2
BRANCH   1  19
ATOM     19  C   UNL A   1      34.851  31.334  28.663  1.00  0.00     0.275 C 
BRANCH  19  20
ATOM     20  O   UNL A   1      36.109  31.469  29.341  1.00  0.00    -0.458 OA
BRANCH  20  21
ATOM     21  C   UNL A   1      36.584  30.318  29.872  1.00  0.00     0.338 C 
ATOM     22  O   UNL A   1      35.927  29.438  30.403  1.00  0.00    -0.246 OA
BRANCH  21  23
ATOM     23  C   UNL A   1      38.019  30.176  29.581  1.00  0.00     0.060 A 
ATOM     24  C   UNL A   1      38.388  29.897  28.259  1.00  0.00     0.016 A 
ATOM     25  C   UNL A   1      38.979  30.239  30.593  1.00  0.00     0.016 A 
ATOM     26  C   UNL A   1      39.718  29.646  27.945  1.00  0.00     0.010 A 
ATOM     27  C   UNL A   1      40.312  29.970  30.279  1.00  0.00     0.010 A 
ATOM     28  C   UNL A   1      40.678  29.643  28.962  1.00  0.00    -0.014 A 
BRANCH  28  29
ATOM     29  C   UNL A   1      42.036  29.133  28.677  1.00  0.00     0.031 A 
ATOM     30  C   UNL A   1      43.184  30.101  28.716  1.00  0.00     0.074 A 
ATOM     31  C   UNL A   1      42.235  27.832  28.408  1.00  0.00     0.049 A 
ATOM     32  N   UNL A   1      44.438  29.913  28.407  1.00  0.00    -0.248 NA
ATOM     33  C   UNL A   1      42.872  31.470  29.164  1.00  0.00     0.031 C 
ATOM     34  C   UNL A   1      41.195  26.804  28.400  1.00  0.00     0.029 A 
ATOM     35  N   UNL A   1      43.380  27.158  28.076  1.00  0.00    -0.354 N 
ATOM     36  C   UNL A   1      45.064  31.138  28.607  1.00  0.00     0.074 A 
ATOM     37  C   UNL A   1      44.047  32.069  29.048  1.00  0.00     0.031 C 
ATOM     38  C   UNL A   1      41.749  25.627  28.057  1.00  0.00     0.029 A 
ATOM     39  C   UNL A   1      43.171  25.831  27.787  1.00  0.00     0.049 A 
ATOM     40  H   UNL A   1      44.268  27.583  28.048  1.00  0.00     0.167 HD
ATOM     41  C   UNL A   1      46.369  31.453  28.438  1.00  0.00     0.037 A 
ATOM     42  C   UNL A   1      44.027  24.900  27.325  1.00  0.00     0.037 A 
ATOM     43  C   UNL A   1      47.365  30.514  27.996  1.00  0.00     0.049 A 
ATOM     44  C   UNL A   1      45.463  25.289  27.087  1.00  0.00     0.074 A 
ATOM     45  C   UNL A   1      48.715  30.725  27.780  1.00  0.00     0.029 A 
ATOM     46  N   UNL A   1      47.114  29.181  27.702  1.00  0.00    -0.354 N 
ATOM     47  N   UNL A   1      46.042  26.452  27.266  1.00  0.00    -0.248 NA
ATOM     48  C   UNL A   1      46.361  24.241  26.583  1.00  0.00     0.031 C 
ATOM     49  C   UNL A   1      49.273  29.527  27.321  1.00  0.00     0.029 A 
ATOM     50  C   UNL A   1      48.280  28.559  27.293  1.00  0.00     0.049 A 
ATOM     51  H   UNL A   1      46.235  28.743  27.774  1.00  0.00     0.167 HD
ATOM     52  C   UNL A   1      47.376  26.272  26.917  1.00  0.00     0.074 A 
ATOM     53  C   UNL A   1      47.520  24.884  26.527  1.00  0.00     0.031 C 
ATOM     54  C   UNL A   1      48.393  27.171  26.918  1.00  0.00     0.037 A 
BRANCH  41  55
ATOM     55  C   UNL A   1      46.778  32.876  28.700  1.00  0.00     0.058 A 
ATOM     56  C   UNL A   1      46.761  33.848  27.688  1.00  0.00     0.135 A 
ATOM     57  C   UNL A   1      47.183  33.273  29.984  1.00  0.00     0.135 A 
ATOM     58  F   UNL A   1      46.405  33.516  26.437  1.00  0.00    -0.206 F 
ATOM     59  C   UNL A   1      47.156  35.160  27.933  1.00  0.00     0.059 A 
ATOM     60  C   UNL A   1      47.559  34.585  30.258  1.00  0.00     0.059 A 
ATOM     61  F   UNL A   1      47.225  32.381  30.986  1.00  0.00    -0.206 F 
ATOM     62  C   UNL A   1      47.556  35.518  29.223  1.00  0.00     0.060 A 
BRANCH  62  63
ATOM     63  S   UNL A   1      48.069  37.222  29.527  1.00  0.00     0.124 S 
ATOM     64  O   UNL A   1      46.936  37.735  30.289  1.00  0.00    -0.237 OA
ATOM     65  O   UNL A   1      49.309  37.047  30.276  1.00  0.00    -0.237 OA
ATOM     66  O   UNL A   1      48.224  37.774  28.185  1.00  0.00    -0.744 OA
ENDBRANCH  62  63
ENDBRANCH  41  55
BRANCH  42  67
ATOM     67  C   UNL A   1      43.544  23.525  27.031  1.00  0.00     0.058 A 
ATOM     68  C   UNL A   1      43.345  23.091  25.712  1.00  0.00     0.135 A 
ATOM     69  C   UNL A   1      43.279  22.614  28.065  1.00  0.00     0.135 A 
ATOM     70  F   UNL A   1      43.574  23.928  24.689  1.00  0.00    -0.206 F 
ATOM     71  C   UNL A   1      42.888  21.807  25.429  1.00  0.00     0.059 A 
ATOM     72  C   UNL A   1      42.845  21.318  27.806  1.00  0.00     0.059 A 
ATOM     73  F   UNL A   1      43.463  22.976  29.345  1.00  0.00    -0.206 F 
ATOM     74  C   UNL A   1      42.642  20.927  26.484  1.00  0.00     0.060 A 
BRANCH  74  75
ATOM     75  S   UNL A   1      42.095  19.247  26.105  1.00  0.00     0.124 S 
ATOM     76  O   UNL A   1      42.472  18.535  27.321  1.00  0.00    -0.237 OA
ATOM     77  O   UNL A   1      40.663  19.430  25.891  1.00  0.00    -0.237 OA
ATOM     78  O   UNL A   1      42.860  18.907  24.910  1.00  0.00    -0.744 OA
ENDBRANCH  74  75
ENDBRANCH  42  67
BRANCH  54  79
ATOM     79  C   UNL A   1      49.753  26.672  26.520  1.00  0.00     0.058 A 
ATOM     80  C   UNL A   1      50.618  26.076  27.449  1.00  0.00     0.135 A 
ATOM     81  C   UNL A   1      50.166  26.739  25.180  1.00  0.00     0.135 A 
ATOM     82  F   UNL A   1      50.269  25.994  28.743  1.00  0.00    -0.206 F 
ATOM     83  C   UNL A   1      51.860  25.581  27.066  1.00  0.00     0.059 A 
ATOM     84  C   UNL A   1      51.393  26.228  24.771  1.00  0.00     0.059 A 
ATOM     85  F   UNL A   1      49.369  27.289  24.252  1.00  0.00    -0.206 F 
ATOM     86  C   UNL A   1      52.238  25.659  25.725  1.00  0.00     0.060 A 
BRANCH  86  87
ATOM     87  S   UNL A   1      53.836  24.979  25.232  1.00  0.00     0.124 S 
ATOM     88  O   UNL A   1      54.236  25.902  24.175  1.00  0.00    -0.237 OA
ATOM     89  O   UNL A   1      54.606  25.059  26.470  1.00  0.00    -0.237 OA
ATOM     90  O   UNL A   1      53.507  23.626  24.793  1.00  0.00    -0.744 OA
ENDBRANCH  86  87
ENDBRANCH  54  79
ENDBRANCH  28  29
ENDBRANCH  21  23
ENDBRANCH  20  21
ENDBRANCH  19  20
ENDBRANCH   1  19
TORSDOF 19
ENDMDL
MODEL 2
REMARK VINA RESULT:      -9.4      3.288     11.829
REMARK SMILES CC[C@@H](NC(=O)[C@H](C)C[NH2+]C)C(=O)OCCOC(=O)c1ccc(-c2c3nc(c(-c4c(F)cc(S(=O)(=O)[O-])cc4F)c4ccc([nH]4)c(-c4c(F)cc(S(=O)(=O)[O-])cc4F)c4nc(c(-c5c(F)cc(S(=O)(=O)[O-])cc5F)c5ccc2[nH]5)C=C4)C=C3)cc1
REMARK SMILES IDX 15 1 14 2 12 3 13 4 3 5 2 6 1 7 4 8 5 9 6 11 7 12 8 13 9 14
REMARK SMILES IDX 10 15 11 16 16 19 17 20 18 21 19 22 20 23 21 24 85 25 22 26
REMARK SMILES IDX 84 27 23 28 24 29 25 30 78 31 26 32 83 33 77 34 79 35 27 36
REMARK SMILES IDX 82 37 76 38 75 39 28 41 62 42 41 43 61 44 42 45 45 46 60 47
REMARK SMILES IDX 80 48 43 49 44 50 59 52 81 53 46 54 29 55 30 56 39 57 31 58
REMARK SMILES IDX 32 59 38 60 40 61 33 62 34 63 35 64 36 65 37 66 63 67 64 68
REMARK SMILES IDX 73 69 65 70 66 71 72 72 74 73 67 74 68 75 69 76 70 77 71 78
REMARK SMILES IDX 47 79 48 80 57 81 49 82 50 83 56 84 58 85 51 86 52 87 53 88
REMARK SMILES IDX 54 89 55 90
REMARK H PARENT 4 10 10 17 10 18 79 40 45 51
REMARK Flexibility Score: inf
ROOT
ATOM      1  C   UNL A   1      41.425  19.672  26.590  1.00  0.00     0.274 C 
ENDROOT
BRANCH   1   2
ATOM      2  O   UNL A   1      41.997  19.202  25.350  1.00  0.00    -0.461 OA
BRANCH   2   3
ATOM      3  C   UNL A   1      43.356  19.121  25.324  1.00  0.00     0.328 C 
ATOM      4  O   UNL A   1      43.975  18.062  25.321  1.00  0.00    -0.250 OA
BRANCH   3   5
ATOM      5  C   UNL A   1      44.068  20.484  25.361  1.00  0.00     0.192 C 
BRANCH   5   6
ATOM      6  C   UNL A   1      45.033  20.602  24.160  1.00  0.00     0.033 C 
ATOM      7  C   UNL A   1      46.399  21.167  24.535  1.00  0.00     0.007 C 
ENDBRANCH   5   6
BRANCH   5   8
ATOM      8  N   UNL A   1      43.284  21.734  25.472  1.00  0.00    -0.342 N 
ATOM      9  C   UNL A   1      43.527  22.921  26.090  1.00  0.00     0.229 C 
ATOM     10  H   UNL A   1      42.417  21.700  25.008  1.00  0.00     0.164 HD
ATOM     11  O   UNL A   1      43.250  23.943  25.457  1.00  0.00    -0.275 OA
BRANCH   9  12
ATOM     12  C   UNL A   1      43.937  23.014  27.556  1.00  0.00     0.130 C 
ATOM     13  C   UNL A   1      42.859  23.616  28.447  1.00  0.00     0.024 C 
BRANCH  12  14
ATOM     14  C   UNL A   1      45.360  23.599  27.636  1.00  0.00     0.273 C 
BRANCH  14  15
ATOM     15  N   UNL A   1      45.863  24.199  26.395  1.00  0.00    -0.348 N 
ATOM     16  C   UNL A   1      47.298  24.444  26.502  1.00  0.00     0.330 C 
ATOM     17  H   UNL A   1      45.382  25.083  26.229  1.00  0.00     0.346 HD
ATOM     18  H   UNL A   1      45.690  23.559  25.620  1.00  0.00     0.346 HD
ENDBRANCH  14  15
ENDBRANCH  12  14
ENDBRANCH   9  12
ENDBRANCH   5   8
ENDBRANCH   3   5
ENDBRANCH   2   3
ENDBRANCH   1   2
BRANCH   1  19
ATOM     19  C   UNL A   1      40.143  20.492  26.412  1.00  0.00     0.275 C 
BRANCH  19  20
ATOM     20  O   UNL A   1      40.339  21.877  26.736  1.00  0.00    -0.458 OA
BRANCH  20  21
ATOM     21  C   UNL A   1      39.289  22.676  26.432  1.00  0.00     0.338 C 
ATOM     22  O   UNL A   1      38.212  22.321  25.981  1.00  0.00    -0.246 OA
BRANCH  21  23
ATOM     23  C   UNL A   1      39.552  24.055  26.874  1.00  0.00     0.060 A 
ATOM     24  C   UNL A   1      40.119  24.936  25.944  1.00  0.00     0.016 A 
ATOM     25  C   UNL A   1      39.320  24.456  28.191  1.00  0.00     0.016 A 
ATOM     26  C   UNL A   1      40.488  26.218  26.335  1.00  0.00     0.010 A 
ATOM     27  C   UNL A   1      39.707  25.738  28.586  1.00  0.00     0.010 A 
ATOM     28  C   UNL A   1      40.319  26.608  27.668  1.00  0.00    -0.014 A 
BRANCH  28  29
ATOM     29  C   UNL A   1      40.936  27.866  28.139  1.00  0.00     0.031 A 
ATOM     30  C   UNL A   1      42.430  28.002  28.054  1.00  0.00     0.074 A 
ATOM     31  C   UNL A   1      40.174  28.866  28.613  1.00  0.00     0.049 A 
ATOM     32  N   UNL A   1      43.202  28.959  28.493  1.00  0.00    -0.248 NA
ATOM     33  C   UNL A   1      43.150  26.905  27.385  1.00  0.00     0.031 C 
ATOM     34  C   UNL A   1      38.714  28.852  28.685  1.00  0.00     0.029 A 
ATOM     35  N   UNL A   1      40.528  30.081  29.137  1.00  0.00    -0.354 N 
ATOM     36  C   UNL A   1      44.498  28.577  28.168  1.00  0.00     0.074 A 
ATOM     37  C   UNL A   1      44.411  27.291  27.510  1.00  0.00     0.031 C 
ATOM     38  C   UNL A   1      38.295  30.002  29.243  1.00  0.00     0.029 A 
ATOM     39  C   UNL A   1      39.459  30.810  29.600  1.00  0.00     0.049 A 
ATOM     40  H   UNL A   1      41.458  30.402  29.177  1.00  0.00     0.167 HD
ATOM     41  C   UNL A   1      45.653  29.242  28.399  1.00  0.00     0.037 A 
ATOM     42  C   UNL A   1      39.433  31.980  30.266  1.00  0.00     0.037 A 
ATOM     43  C   UNL A   1      45.719  30.519  29.058  1.00  0.00     0.049 A 
ATOM     44  C   UNL A   1      40.736  32.675  30.565  1.00  0.00     0.074 A 
ATOM     45  C   UNL A   1      46.835  31.281  29.354  1.00  0.00     0.029 A 
ATOM     46  N   UNL A   1      44.617  31.223  29.523  1.00  0.00    -0.354 N 
ATOM     47  N   UNL A   1      41.957  32.300  30.266  1.00  0.00    -0.248 NA
ATOM     48  C   UNL A   1      40.659  33.949  31.293  1.00  0.00     0.031 C 
ATOM     49  C   UNL A   1      46.410  32.430  30.031  1.00  0.00     0.029 A 
ATOM     50  C   UNL A   1      45.026  32.404  30.117  1.00  0.00     0.049 A 
ATOM     51  H   UNL A   1      43.682  30.926  29.443  1.00  0.00     0.167 HD
ATOM     52  C   UNL A   1      42.793  33.301  30.749  1.00  0.00     0.074 A 
ATOM     53  C   UNL A   1      41.937  34.303  31.350  1.00  0.00     0.031 C 
ATOM     54  C   UNL A   1      44.146  33.387  30.701  1.00  0.00     0.037 A 
BRANCH  41  55
ATOM     55  C   UNL A   1      46.931  28.582  27.965  1.00  0.00     0.058 A 
ATOM     56  C   UNL A   1      47.681  27.778  28.838  1.00  0.00     0.135 A 
ATOM     57  C   UNL A   1      47.408  28.748  26.655  1.00  0.00     0.135 A 
ATOM     58  F   UNL A   1      47.284  27.605  30.108  1.00  0.00    -0.206 F 
ATOM     59  C   UNL A   1      48.873  27.182  28.434  1.00  0.00     0.059 A 
ATOM     60  C   UNL A   1      48.585  28.143  26.223  1.00  0.00     0.059 A 
ATOM     61  F   UNL A   1      46.734  29.514  25.782  1.00  0.00    -0.206 F 
ATOM     62  C   UNL A   1      49.318  27.373  27.124  1.00  0.00     0.060 A 
BRANCH  62  63
ATOM     63  S   UNL A   1      50.866  26.597  26.615  1.00  0.00     0.124 S 
ATOM     64  O   UNL A   1      50.627  26.377  25.193  1.00  0.00    -0.237 OA
ATOM     65  O   UNL A   1      51.852  27.623  26.939  1.00  0.00    -0.237 OA
ATOM     66  O   UNL A   1      50.928  25.392  27.436  1.00  0.00    -0.744 OA
ENDBRANCH  62  63
ENDBRANCH  41  55
BRANCH  42  67
ATOM     67  C   UNL A   1      38.136  32.551  30.718  1.00  0.00     0.058 A 
ATOM     68  C   UNL A   1      37.677  32.362  32.030  1.00  0.00     0.135 A 
ATOM     69  C   UNL A   1      37.334  33.304  29.847  1.00  0.00     0.135 A 
ATOM     70  F   UNL A   1      38.403  31.640  32.896  1.00  0.00    -0.206 F 
ATOM     71  C   UNL A   1      36.463  32.888  32.458  1.00  0.00     0.059 A 
ATOM     72  C   UNL A   1      36.128  33.861  30.260  1.00  0.00     0.059 A 
ATOM     73  F   UNL A   1      37.733  33.523  28.584  1.00  0.00    -0.206 F 
ATOM     74  C   UNL A   1      35.695  33.638  31.566  1.00  0.00     0.060 A 
BRANCH  74  75
ATOM     75  S   UNL A   1      34.142  34.357  32.145  1.00  0.00     0.124 S 
ATOM     76  O   UNL A   1      33.619  33.285  32.985  1.00  0.00    -0.237 OA
ATOM     77  O   UNL A   1      34.598  35.553  32.846  1.00  0.00    -0.237 OA
ATOM     78  O   UNL A   1      33.407  34.607  30.908  1.00  0.00    -0.744 OA
ENDBRANCH  74  75
ENDBRANCH  42  67
BRANCH  54  79
ATOM     79  C   UNL A   1      44.779  34.619  31.283  1.00  0.00     0.058 A 
ATOM     80  C   UNL A   1      44.963  35.781  30.519  1.00  0.00     0.135 A 
ATOM     81  C   UNL A   1      45.149  34.653  32.637  1.00  0.00     0.135 A 
ATOM     82  F   UNL A   1      44.628  35.796  29.219  1.00  0.00    -0.206 F 
ATOM     83  C   UNL A   1      45.512  36.932  31.074  1.00  0.00     0.059 A 
ATOM     84  C   UNL A   1      45.678  35.800  33.218  1.00  0.00     0.059 A 
ATOM     85  F   UNL A   1      44.982  33.570  33.412  1.00  0.00    -0.206 F 
ATOM     86  C   UNL A   1      45.865  36.932  32.425  1.00  0.00     0.060 A 
BRANCH  86  87
ATOM     87  S   UNL A   1      46.542  38.443  33.144  1.00  0.00     0.124 S 
ATOM     88  O   UNL A   1      45.336  39.098  33.641  1.00  0.00    -0.237 OA
ATOM     89  O   UNL A   1      47.450  37.927  34.164  1.00  0.00    -0.237 OA
ATOM     90  O   UNL A   1      47.190  39.097  32.010  1.00  0.00    -0.744 OA
ENDBRANCH  86  87
ENDBRANCH  54  79
ENDBRANCH  28  29
ENDBRANCH  21  23
ENDBRANCH  20  21
ENDBRANCH  19  20
ENDBRANCH   1  19
TORSDOF 19
ENDMDL
MODEL 3
REMARK VINA RESULT:      -9.3      6.296     13.820
REMARK SMILES CC[C@@H](NC(=O)[C@H](C)C[NH2+]C)C(=O)OCCOC(=O)c1ccc(-c2c3nc(c(-c4c(F)cc(S(=O)(=O)[O-])cc4F)c4ccc([nH]4)c(-c4c(F)cc(S(=O)(=O)[O-])cc4F)c4nc(c(-c5c(F)cc(S(=O)(=O)[O-])cc5F)c5ccc2[nH]5)C=C4)C=C3)cc1
REMARK SMILES IDX 15 1 14 2 12 3 13 4 3 5 2 6 1 7 4 8 5 9 6 11 7 12 8 13 9 14
REMARK SMILES IDX 10 15 11 16 16 19 17 20 18 21 19 22 20 23 21 24 85 25 22 26
REMARK SMILES IDX 84 27 23 28 24 29 25 30 78 31 26 32 83 33 77 34 79 35 27 36
REMARK SMILES IDX 82 37 76 38 75 39 28 41 62 42 41 43 61 44 42 45 45 46 60 47
REMARK SMILES IDX 80 48 43 49 44 50 59 52 81 53 46 54 29 55 30 56 39 57 31 58
REMARK SMILES IDX 32 59 38 60 40 61 33 62 34 63 35 64 36 65 37 66 63 67 64 68
REMARK SMILES IDX 73 69 65 70 66 71 72 72 74 73 67 74 68 75 69 76 70 77 71 78
REMARK SMILES IDX 47 79 48 80 57 81 49 82 50 83 56 84 58 85 51 86 52 87 53 88
REMARK SMILES IDX 54 89 55 90
REMARK H PARENT 4 10 10 17 10 18 79 40 45 51
REMARK Flexibility Score: inf
ROOT
ATOM      1  C   UNL A   1      44.878  24.284  24.776  1.00  0.00     0.274 C 
ENDROOT
BRANCH   1   2
ATOM      2  O   UNL A   1      43.914  23.247  25.059  1.00  0.00    -0.461 OA
BRANCH   2   3
ATOM      3  C   UNL A   1      44.211  22.441  26.116  1.00  0.00     0.328 C 
ATOM      4  O   UNL A   1      45.350  22.254  26.530  1.00  0.00    -0.250 OA
BRANCH   3   5
ATOM      5  C   UNL A   1      42.994  21.721  26.721  1.00  0.00     0.192 C 
BRANCH   5   6
ATOM      6  C   UNL A   1      42.100  22.741  27.462  1.00  0.00     0.033 C 
ATOM      7  C   UNL A   1      40.798  22.140  27.980  1.00  0.00     0.007 C 
ENDBRANCH   5   6
BRANCH   5   8
ATOM      8  N   UNL A   1      42.139  20.859  25.875  1.00  0.00    -0.342 N 
ATOM      9  C   UNL A   1      41.789  19.547  25.956  1.00  0.00     0.229 C 
ATOM     10  H   UNL A   1      41.746  21.327  25.102  1.00  0.00     0.164 HD
ATOM     11  O   UNL A   1      40.604  19.275  25.746  1.00  0.00    -0.275 OA
BRANCH   9  12
ATOM     12  C   UNL A   1      42.818  18.432  26.103  1.00  0.00     0.130 C 
ATOM     13  C   UNL A   1      43.026  17.989  27.545  1.00  0.00     0.024 C 
BRANCH  12  14
ATOM     14  C   UNL A   1      44.060  18.791  25.265  1.00  0.00     0.273 C 
BRANCH  14  15
ATOM     15  N   UNL A   1      45.344  18.351  25.823  1.00  0.00    -0.348 N 
ATOM     16  C   UNL A   1      46.422  19.203  25.334  1.00  0.00     0.330 C 
ATOM     17  H   UNL A   1      45.521  17.387  25.541  1.00  0.00     0.346 HD
ATOM     18  H   UNL A   1      45.304  18.412  26.840  1.00  0.00     0.346 HD
ENDBRANCH  14  15
ENDBRANCH  12  14
ENDBRANCH   9  12
ENDBRANCH   5   8
ENDBRANCH   3   5
ENDBRANCH   2   3
ENDBRANCH   1   2
BRANCH   1  19
ATOM     19  C   UNL A   1      44.473  25.668  25.293  1.00  0.00     0.275 C 
BRANCH  19  20
ATOM     20  O   UNL A   1      43.492  25.587  26.338  1.00  0.00    -0.458 OA
BRANCH  20  21
ATOM     21  C   UNL A   1      42.279  26.088  26.006  1.00  0.00     0.338 C 
ATOM     22  O   UNL A   1      41.636  25.828  25.002  1.00  0.00    -0.246 OA
BRANCH  21  23
ATOM     23  C   UNL A   1      41.736  26.888  27.115  1.00  0.00     0.060 A 
ATOM     24  C   UNL A   1      42.217  28.195  27.268  1.00  0.00     0.016 A 
ATOM     25  C   UNL A   1      40.832  26.347  28.032  1.00  0.00     0.016 A 
ATOM     26  C   UNL A   1      41.822  28.959  28.359  1.00  0.00     0.010 A 
ATOM     27  C   UNL A   1      40.449  27.110  29.136  1.00  0.00     0.010 A 
ATOM     28  C   UNL A   1      40.966  28.405  29.317  1.00  0.00    -0.014 A 
BRANCH  28  29
ATOM     29  C   UNL A   1      40.748  29.117  30.593  1.00  0.00     0.031 A 
ATOM     30  C   UNL A   1      39.659  30.150  30.656  1.00  0.00     0.074 A 
ATOM     31  C   UNL A   1      41.495  28.829  31.673  1.00  0.00     0.049 A 
ATOM     32  N   UNL A   1      39.347  30.967  31.625  1.00  0.00    -0.248 NA
ATOM     33  C   UNL A   1      38.809  30.280  29.459  1.00  0.00     0.031 C 
ATOM     34  C   UNL A   1      42.537  27.805  31.729  1.00  0.00     0.029 A 
ATOM     35  N   UNL A   1      41.497  29.384  32.925  1.00  0.00    -0.354 N 
ATOM     36  C   UNL A   1      38.276  31.718  31.154  1.00  0.00     0.074 A 
ATOM     37  C   UNL A   1      38.003  31.272  29.805  1.00  0.00     0.031 C 
ATOM     38  C   UNL A   1      43.096  27.820  32.952  1.00  0.00     0.029 A 
ATOM     39  C   UNL A   1      42.475  28.877  33.747  1.00  0.00     0.049 A 
ATOM     40  H   UNL A   1      40.861  30.080  33.209  1.00  0.00     0.167 HD
ATOM     41  C   UNL A   1      37.586  32.691  31.793  1.00  0.00     0.037 A 
ATOM     42  C   UNL A   1      42.844  29.252  34.987  1.00  0.00     0.037 A 
ATOM     43  C   UNL A   1      37.875  33.123  33.134  1.00  0.00     0.049 A 
ATOM     44  C   UNL A   1      42.099  30.377  35.656  1.00  0.00     0.074 A 
ATOM     45  C   UNL A   1      37.248  34.107  33.878  1.00  0.00     0.029 A 
ATOM     46  N   UNL A   1      38.879  32.595  33.932  1.00  0.00    -0.354 N 
ATOM     47  N   UNL A   1      41.097  31.091  35.198  1.00  0.00    -0.248 NA
ATOM     48  C   UNL A   1      42.535  30.752  37.009  1.00  0.00     0.031 C 
ATOM     49  C   UNL A   1      37.897  34.196  35.114  1.00  0.00     0.029 A 
ATOM     50  C   UNL A   1      38.900  33.239  35.157  1.00  0.00     0.049 A 
ATOM     51  H   UNL A   1      39.488  31.868  33.667  1.00  0.00     0.167 HD
ATOM     52  C   UNL A   1      40.769  31.983  36.213  1.00  0.00     0.074 A 
ATOM     53  C   UNL A   1      41.672  31.712  37.313  1.00  0.00     0.031 C 
ATOM     54  C   UNL A   1      39.808  32.941  36.236  1.00  0.00     0.037 A 
BRANCH  41  55
ATOM     55  C   UNL A   1      36.480  33.369  31.034  1.00  0.00     0.058 A 
ATOM     56  C   UNL A   1      36.744  34.270  29.990  1.00  0.00     0.135 A 
ATOM     57  C   UNL A   1      35.137  33.106  31.349  1.00  0.00     0.135 A 
ATOM     58  F   UNL A   1      38.010  34.575  29.664  1.00  0.00    -0.206 F 
ATOM     59  C   UNL A   1      35.715  34.906  29.302  1.00  0.00     0.059 A 
ATOM     60  C   UNL A   1      34.093  33.713  30.657  1.00  0.00     0.059 A 
ATOM     61  F   UNL A   1      34.830  32.259  32.343  1.00  0.00    -0.206 F 
ATOM     62  C   UNL A   1      34.391  34.623  29.645  1.00  0.00     0.060 A 
BRANCH  62  63
ATOM     63  S   UNL A   1      33.067  35.458  28.746  1.00  0.00     0.124 S 
ATOM     64  O   UNL A   1      33.819  36.426  27.954  1.00  0.00    -0.237 OA
ATOM     65  O   UNL A   1      32.460  34.363  27.995  1.00  0.00    -0.237 OA
ATOM     66  O   UNL A   1      32.240  36.022  29.807  1.00  0.00    -0.744 OA
ENDBRANCH  62  63
ENDBRANCH  41  55
BRANCH  42  67
ATOM     67  C   UNL A   1      43.985  28.577  35.660  1.00  0.00     0.058 A 
ATOM     68  C   UNL A   1      43.804  27.391  36.385  1.00  0.00     0.135 A 
ATOM     69  C   UNL A   1      45.284  29.104  35.583  1.00  0.00     0.135 A 
ATOM     70  F   UNL A   1      42.580  26.854  36.495  1.00  0.00    -0.206 F 
ATOM     71  C   UNL A   1      44.866  26.757  37.021  1.00  0.00     0.059 A 
ATOM     72  C   UNL A   1      46.366  28.475  36.190  1.00  0.00     0.059 A 
ATOM     73  F   UNL A   1      45.514  30.233  34.893  1.00  0.00    -0.206 F 
ATOM     74  C   UNL A   1      46.145  27.306  36.917  1.00  0.00     0.060 A 
BRANCH  74  75
ATOM     75  S   UNL A   1      47.527  26.451  37.707  1.00  0.00     0.124 S 
ATOM     76  O   UNL A   1      48.462  26.317  36.596  1.00  0.00    -0.237 OA
ATOM     77  O   UNL A   1      47.911  27.390  38.756  1.00  0.00    -0.237 OA
ATOM     78  O   UNL A   1      46.924  25.208  38.180  1.00  0.00    -0.744 OA
ENDBRANCH  74  75
ENDBRANCH  42  67
BRANCH  54  79
ATOM     79  C   UNL A   1      39.662  33.739  37.501  1.00  0.00     0.058 A 
ATOM     80  C   UNL A   1      40.316  34.968  37.673  1.00  0.00     0.135 A 
ATOM     81  C   UNL A   1      38.811  33.295  38.525  1.00  0.00     0.135 A 
ATOM     82  F   UNL A   1      41.144  35.433  36.724  1.00  0.00    -0.206 F 
ATOM     83  C   UNL A   1      40.146  35.722  38.829  1.00  0.00     0.059 A 
ATOM     84  C   UNL A   1      38.608  34.044  39.678  1.00  0.00     0.059 A 
ATOM     85  F   UNL A   1      38.154  32.131  38.402  1.00  0.00    -0.206 F 
ATOM     86  C   UNL A   1      39.289  35.253  39.826  1.00  0.00     0.060 A 
BRANCH  86  87
ATOM     87  S   UNL A   1      39.046  36.258  41.305  1.00  0.00     0.124 S 
ATOM     88  O   UNL A   1      37.811  35.696  41.842  1.00  0.00    -0.237 OA
ATOM     89  O   UNL A   1      40.256  35.981  42.075  1.00  0.00    -0.237 OA
ATOM     90  O   UNL A   1      38.942  37.615  40.779  1.00  0.00    -0.744 OA
ENDBRANCH  86  87
ENDBRANCH  54  79
ENDBRANCH  28  29
ENDBRANCH  21  23
ENDBRANCH  20  21
ENDBRANCH  19  20
ENDBRANCH   1  19
TORSDOF 19
ENDMDL
