MODEL 1
REMARK VINA RESULT:      -9.5      0.000      0.000
REMARK SMILES CC[C@@](C)(NC(=O)N(C)[C@@H](C)C(C)C)C(=O)OCCOC(=O)c1ccc(-c2c3nc(c(-c4c(F)cc(S(=O)(=O)[O-])cc4F)c4ccc([nH]4)c(-c4c(F)cc(S(=O)(=O)[O-])cc4F)c4nc(c(-c5c(F)cc(S(=O)(=O)[O-])cc5F)c5ccc2[nH]5)C=C4)C=C3)cc1
REMARK SMILES IDX 18 1 17 2 15 3 16 4 3 5 4 6 2 7 1 8 5 9 6 10 7 12 8 13 9 14
REMARK SMILES IDX 10 15 11 16 12 17 13 18 14 19 19 20 20 21 21 22 22 23 23 24
REMARK SMILES IDX 24 25 88 26 25 27 87 28 26 29 27 30 28 31 81 32 29 33 86 34
REMARK SMILES IDX 80 35 82 36 30 37 85 38 79 39 78 40 31 42 65 43 44 44 64 45
REMARK SMILES IDX 45 46 48 47 63 48 83 49 46 50 47 51 62 53 84 54 49 55 32 56
REMARK SMILES IDX 33 57 42 58 34 59 35 60 41 61 43 62 36 63 37 64 38 65 39 66
REMARK SMILES IDX 40 67 66 68 67 69 76 70 68 71 69 72 75 73 77 74 70 75 71 76
REMARK SMILES IDX 72 77 73 78 74 79 50 80 51 81 60 82 52 83 53 84 59 85 61 86
REMARK SMILES IDX 54 87 55 88 56 89 57 90 58 91
REMARK H PARENT 5 11 82 41 48 52
REMARK Flexibility Score: inf
ROOT
ATOM      1  C   UNL A   1      33.229  27.651  25.821  1.00  0.00     0.274 C 
ENDROOT
BRANCH   1   2
ATOM      2  O   UNL A   1      32.003  27.232  25.176  1.00  0.00    -0.460 OA
BRANCH   2   3
ATOM      3  C   UNL A   1      31.419  26.085  25.588  1.00  0.00     0.331 C 
ATOM      4  O   UNL A   1      31.133  25.893  26.767  1.00  0.00    -0.249 OA
BRANCH   3   5
ATOM      5  C   UNL A   1      31.336  24.968  24.485  1.00  0.00     0.136 C 
ATOM      6  C   UNL A   1      31.118  23.637  25.230  1.00  0.00     0.047 C 
BRANCH   5   7
ATOM      7  C   UNL A   1      30.038  25.213  23.604  1.00  0.00     0.037 C 
ATOM      8  C   UNL A   1      29.021  26.276  24.010  1.00  0.00     0.007 C 
ENDBRANCH   5   7
BRANCH   5   9
ATOM      9  N   UNL A   1      32.417  24.806  23.429  1.00  0.00    -0.322 N 
ATOM     10  C   UNL A   1      33.634  24.354  23.101  1.00  0.00     0.318 C 
ATOM     11  H   UNL A   1      32.057  25.223  22.613  1.00  0.00     0.166 HD
ATOM     12  O   UNL A   1      33.867  24.406  21.887  1.00  0.00    -0.249 OA
BRANCH  10  13
ATOM     13  N   UNL A   1      34.582  23.945  23.979  1.00  0.00    -0.325 N 
ATOM     14  C   UNL A   1      34.840  24.619  25.237  1.00  0.00     0.149 C 
BRANCH  13  15
ATOM     15  C   UNL A   1      35.209  22.590  23.860  1.00  0.00     0.086 C 
ATOM     16  C   UNL A   1      36.703  22.730  23.510  1.00  0.00     0.031 C 
BRANCH  15  17
ATOM     17  C   UNL A   1      35.063  21.550  25.038  1.00  0.00     0.005 C 
ATOM     18  C   UNL A   1      33.706  20.866  25.168  1.00  0.00     0.009 C 
ATOM     19  C   UNL A   1      36.104  20.418  24.903  1.00  0.00     0.009 C 
ENDBRANCH  15  17
ENDBRANCH  13  15
ENDBRANCH  10  13
ENDBRANCH   5   9
ENDBRANCH   3   5
ENDBRANCH   2   3
ENDBRANCH   1   2
BRANCH   1  20
ATOM     20  C   UNL A   1      32.965  28.861  26.725  1.00  0.00     0.275 C 
BRANCH  20  21
ATOM     21  O   UNL A   1      33.813  28.823  27.888  1.00  0.00    -0.458 OA
BRANCH  21  22
ATOM     22  C   UNL A   1      34.451  29.989  28.107  1.00  0.00     0.338 C 
ATOM     23  O   UNL A   1      33.930  31.067  28.341  1.00  0.00    -0.246 OA
BRANCH  22  24
ATOM     24  C   UNL A   1      35.884  29.802  28.264  1.00  0.00     0.060 A 
ATOM     25  C   UNL A   1      36.325  29.448  29.538  1.00  0.00     0.016 A 
ATOM     26  C   UNL A   1      36.781  30.076  27.237  1.00  0.00     0.016 A 
ATOM     27  C   UNL A   1      37.678  29.364  29.807  1.00  0.00     0.010 A 
ATOM     28  C   UNL A   1      38.146  29.931  27.490  1.00  0.00     0.010 A 
ATOM     29  C   UNL A   1      38.596  29.557  28.770  1.00  0.00    -0.014 A 
BRANCH  29  30
ATOM     30  C   UNL A   1      40.020  29.253  29.014  1.00  0.00     0.031 A 
ATOM     31  C   UNL A   1      40.941  30.297  29.558  1.00  0.00     0.074 A 
ATOM     32  C   UNL A   1      40.454  28.008  28.740  1.00  0.00     0.049 A 
ATOM     33  N   UNL A   1      42.239  30.257  29.684  1.00  0.00    -0.248 NA
ATOM     34  C   UNL A   1      40.323  31.548  30.023  1.00  0.00     0.031 C 
ATOM     35  C   UNL A   1      39.609  26.905  28.268  1.00  0.00     0.029 A 
ATOM     36  N   UNL A   1      41.703  27.454  28.821  1.00  0.00    -0.354 N 
ATOM     37  C   UNL A   1      42.606  31.488  30.211  1.00  0.00     0.074 A 
ATOM     38  C   UNL A   1      41.388  32.252  30.389  1.00  0.00     0.031 C 
ATOM     39  C   UNL A   1      40.360  25.805  28.120  1.00  0.00     0.029 A 
ATOM     40  C   UNL A   1      41.747  26.145  28.402  1.00  0.00     0.049 A 
ATOM     41  H   UNL A   1      42.492  27.944  29.147  1.00  0.00     0.167 HD
ATOM     42  C   UNL A   1      43.852  31.931  30.502  1.00  0.00     0.037 A 
ATOM     43  C   UNL A   1      42.799  25.327  28.214  1.00  0.00     0.037 A 
ATOM     44  C   UNL A   1      45.042  31.141  30.314  1.00  0.00     0.049 A 
ATOM     45  C   UNL A   1      44.173  25.865  28.485  1.00  0.00     0.074 A 
ATOM     46  C   UNL A   1      46.360  31.496  30.541  1.00  0.00     0.029 A 
ATOM     47  N   UNL A   1      45.054  29.829  29.856  1.00  0.00    -0.354 N 
ATOM     48  N   UNL A   1      44.517  27.054  28.921  1.00  0.00    -0.248 NA
ATOM     49  C   UNL A   1      45.301  24.966  28.219  1.00  0.00     0.031 C 
ATOM     50  C   UNL A   1      47.170  30.410  30.189  1.00  0.00     0.029 A 
ATOM     51  C   UNL A   1      46.356  29.364  29.781  1.00  0.00     0.049 A 
ATOM     52  H   UNL A   1      44.254  29.307  29.620  1.00  0.00     0.167 HD
ATOM     53  C   UNL A   1      45.903  27.047  28.985  1.00  0.00     0.074 A 
ATOM     54  C   UNL A   1      46.332  25.728  28.562  1.00  0.00     0.031 C 
ATOM     55  C   UNL A   1      46.747  28.042  29.354  1.00  0.00     0.037 A 
BRANCH  42  56
ATOM     56  C   UNL A   1      43.988  33.344  30.994  1.00  0.00     0.058 A 
ATOM     57  C   UNL A   1      44.059  34.435  30.113  1.00  0.00     0.135 A 
ATOM     58  C   UNL A   1      44.038  33.611  32.372  1.00  0.00     0.135 A 
ATOM     59  F   UNL A   1      44.034  34.235  28.787  1.00  0.00    -0.206 F 
ATOM     60  C   UNL A   1      44.201  35.739  30.581  1.00  0.00     0.059 A 
ATOM     61  C   UNL A   1      44.160  34.909  32.862  1.00  0.00     0.059 A 
ATOM     62  F   UNL A   1      43.979  32.605  33.257  1.00  0.00    -0.206 F 
ATOM     63  C   UNL A   1      44.256  35.965  31.958  1.00  0.00     0.060 A 
BRANCH  63  64
ATOM     64  S   UNL A   1      44.454  37.658  32.554  1.00  0.00     0.124 S 
ATOM     65  O   UNL A   1      45.726  37.570  33.265  1.00  0.00    -0.237 OA
ATOM     66  O   UNL A   1      44.473  38.429  31.315  1.00  0.00    -0.237 OA
ATOM     67  O   UNL A   1      43.278  37.862  33.395  1.00  0.00    -0.744 OA
ENDBRANCH  63  64
ENDBRANCH  42  56
BRANCH  43  68
ATOM     68  C   UNL A   1      42.581  23.951  27.697  1.00  0.00     0.058 A 
ATOM     69  C   UNL A   1      42.524  23.695  26.322  1.00  0.00     0.135 A 
ATOM     70  C   UNL A   1      42.472  22.858  28.572  1.00  0.00     0.135 A 
ATOM     71  F   UNL A   1      42.619  24.707  25.446  1.00  0.00    -0.206 F 
ATOM     72  C   UNL A   1      42.363  22.404  25.828  1.00  0.00     0.059 A 
ATOM     73  C   UNL A   1      42.337  21.556  28.104  1.00  0.00     0.059 A 
ATOM     74  F   UNL A   1      42.537  23.048  29.900  1.00  0.00    -0.206 F 
ATOM     75  C   UNL A   1      42.274  21.339  26.728  1.00  0.00     0.060 A 
BRANCH  75  76
ATOM     76  S   UNL A   1      42.129  19.660  26.081  1.00  0.00     0.124 S 
ATOM     77  O   UNL A   1      43.081  19.690  24.975  1.00  0.00    -0.237 OA
ATOM     78  O   UNL A   1      42.514  18.849  27.233  1.00  0.00    -0.237 OA
ATOM     79  O   UNL A   1      40.723  19.567  25.703  1.00  0.00    -0.744 OA
ENDBRANCH  75  76
ENDBRANCH  43  68
BRANCH  55  80
ATOM     80  C   UNL A   1      48.212  27.726  29.331  1.00  0.00     0.058 A 
ATOM     81  C   UNL A   1      48.830  27.044  30.390  1.00  0.00     0.135 A 
ATOM     82  C   UNL A   1      48.996  28.073  28.220  1.00  0.00     0.135 A 
ATOM     83  F   UNL A   1      48.122  26.704  31.479  1.00  0.00    -0.206 F 
ATOM     84  C   UNL A   1      50.182  26.728  30.354  1.00  0.00     0.059 A 
ATOM     85  C   UNL A   1      50.345  27.747  28.153  1.00  0.00     0.059 A 
ATOM     86  F   UNL A   1      48.447  28.722  27.181  1.00  0.00    -0.206 F 
ATOM     87  C   UNL A   1      50.932  27.082  29.230  1.00  0.00     0.060 A 
BRANCH  87  88
ATOM     88  S   UNL A   1      52.679  26.632  29.176  1.00  0.00     0.124 S 
ATOM     89  O   UNL A   1      53.312  27.936  29.013  1.00  0.00    -0.237 OA
ATOM     90  O   UNL A   1      52.878  25.987  30.471  1.00  0.00    -0.237 OA
ATOM     91  O   UNL A   1      52.762  25.743  28.021  1.00  0.00    -0.744 OA
ENDBRANCH  87  88
ENDBRANCH  55  80
ENDBRANCH  29  30
ENDBRANCH  22  24
ENDBRANCH  21  22
ENDBRANCH  20  21
ENDBRANCH   1  20
TORSDOF 19
ENDMDL
MODEL 2
REMARK VINA RESULT:      -9.2      3.795      9.049
REMARK SMILES CC[C@@](C)(NC(=O)N(C)[C@@H](C)C(C)C)C(=O)OCCOC(=O)c1ccc(-c2c3nc(c(-c4c(F)cc(S(=O)(=O)[O-])cc4F)c4ccc([nH]4)c(-c4c(F)cc(S(=O)(=O)[O-])cc4F)c4nc(c(-c5c(F)cc(S(=O)(=O)[O-])cc5F)c5ccc2[nH]5)C=C4)C=C3)cc1
REMARK SMILES IDX 18 1 17 2 15 3 16 4 3 5 4 6 2 7 1 8 5 9 6 10 7 12 8 13 9 14
REMARK SMILES IDX 10 15 11 16 12 17 13 18 14 19 19 20 20 21 21 22 22 23 23 24
REMARK SMILES IDX 24 25 88 26 25 27 87 28 26 29 27 30 28 31 81 32 29 33 86 34
REMARK SMILES IDX 80 35 82 36 30 37 85 38 79 39 78 40 31 42 65 43 44 44 64 45
REMARK SMILES IDX 45 46 48 47 63 48 83 49 46 50 47 51 62 53 84 54 49 55 32 56
REMARK SMILES IDX 33 57 42 58 34 59 35 60 41 61 43 62 36 63 37 64 38 65 39 66
REMARK SMILES IDX 40 67 66 68 67 69 76 70 68 71 69 72 75 73 77 74 70 75 71 76
REMARK SMILES IDX 72 77 73 78 74 79 50 80 51 81 60 82 52 83 53 84 59 85 61 86
REMARK SMILES IDX 54 87 55 88 56 89 57 90 58 91
REMARK H PARENT 5 11 82 41 48 52
REMARK Flexibility Score: inf
ROOT
ATOM      1  C   UNL A   1      31.818  30.412  25.945  1.00  0.00     0.274 C 
ENDROOT
BRANCH   1   2
ATOM      2  O   UNL A   1      31.600  29.027  25.590  1.00  0.00    -0.460 OA
BRANCH   2   3
ATOM      3  C   UNL A   1      31.163  28.744  24.342  1.00  0.00     0.331 C 
ATOM      4  O   UNL A   1      30.584  29.581  23.656  1.00  0.00    -0.249 OA
BRANCH   3   5
ATOM      5  C   UNL A   1      31.273  27.227  23.946  1.00  0.00     0.136 C 
ATOM      6  C   UNL A   1      31.272  26.432  25.265  1.00  0.00     0.047 C 
BRANCH   5   7
ATOM      7  C   UNL A   1      29.958  26.806  23.161  1.00  0.00     0.037 C 
ATOM      8  C   UNL A   1      28.603  26.826  23.861  1.00  0.00     0.007 C 
ENDBRANCH   5   7
BRANCH   5   9
ATOM      9  N   UNL A   1      32.373  26.718  23.029  1.00  0.00    -0.322 N 
ATOM     10  C   UNL A   1      33.130  25.696  22.613  1.00  0.00     0.318 C 
ATOM     11  H   UNL A   1      32.658  27.497  22.497  1.00  0.00     0.166 HD
ATOM     12  O   UNL A   1      33.793  25.954  21.601  1.00  0.00    -0.249 OA
BRANCH  10  13
ATOM     13  N   UNL A   1      33.256  24.503  23.246  1.00  0.00    -0.325 N 
ATOM     14  C   UNL A   1      32.342  23.397  23.038  1.00  0.00     0.149 C 
BRANCH  13  15
ATOM     15  C   UNL A   1      34.522  24.138  23.956  1.00  0.00     0.086 C 
ATOM     16  C   UNL A   1      34.298  24.168  25.481  1.00  0.00     0.031 C 
BRANCH  15  17
ATOM     17  C   UNL A   1      35.276  22.802  23.584  1.00  0.00     0.005 C 
ATOM     18  C   UNL A   1      36.769  22.928  23.300  1.00  0.00     0.009 C 
ATOM     19  C   UNL A   1      35.140  21.762  24.717  1.00  0.00     0.009 C 
ENDBRANCH  15  17
ENDBRANCH  13  15
ENDBRANCH  10  13
ENDBRANCH   5   9
ENDBRANCH   3   5
ENDBRANCH   2   3
ENDBRANCH   1   2
BRANCH   1  20
ATOM     20  C   UNL A   1      32.575  30.504  27.275  1.00  0.00     0.275 C 
BRANCH  20  21
ATOM     21  O   UNL A   1      33.997  30.420  27.060  1.00  0.00    -0.458 OA
BRANCH  21  22
ATOM     22  C   UNL A   1      34.677  31.410  27.670  1.00  0.00     0.338 C 
ATOM     23  O   UNL A   1      34.292  32.555  27.842  1.00  0.00    -0.246 OA
BRANCH  22  24
ATOM     24  C   UNL A   1      35.876  30.918  28.328  1.00  0.00     0.060 A 
ATOM     25  C   UNL A   1      37.011  31.719  28.220  1.00  0.00     0.016 A 
ATOM     26  C   UNL A   1      35.928  29.666  28.929  1.00  0.00     0.016 A 
ATOM     27  C   UNL A   1      38.224  31.277  28.713  1.00  0.00     0.010 A 
ATOM     28  C   UNL A   1      37.137  29.243  29.483  1.00  0.00     0.010 A 
ATOM     29  C   UNL A   1      38.283  30.055  29.392  1.00  0.00    -0.014 A 
BRANCH  29  30
ATOM     30  C   UNL A   1      39.527  29.694  30.101  1.00  0.00     0.031 A 
ATOM     31  C   UNL A   1      40.409  28.603  29.586  1.00  0.00     0.074 A 
ATOM     32  C   UNL A   1      39.841  30.384  31.214  1.00  0.00     0.049 A 
ATOM     33  N   UNL A   1      41.443  28.049  30.157  1.00  0.00    -0.248 NA
ATOM     34  C   UNL A   1      40.089  28.065  28.255  1.00  0.00     0.031 C 
ATOM     35  C   UNL A   1      39.070  31.510  31.754  1.00  0.00     0.029 A 
ATOM     36  N   UNL A   1      40.884  30.250  32.090  1.00  0.00    -0.354 N 
ATOM     37  C   UNL A   1      41.884  27.072  29.276  1.00  0.00     0.074 A 
ATOM     38  C   UNL A   1      41.006  27.114  28.124  1.00  0.00     0.031 C 
ATOM     39  C   UNL A   1      39.677  31.974  32.854  1.00  0.00     0.029 A 
ATOM     40  C   UNL A   1      40.826  31.128  33.146  1.00  0.00     0.049 A 
ATOM     41  H   UNL A   1      41.605  29.589  31.975  1.00  0.00     0.167 HD
ATOM     42  C   UNL A   1      42.920  26.215  29.433  1.00  0.00     0.037 A 
ATOM     43  C   UNL A   1      41.584  31.206  34.255  1.00  0.00     0.037 A 
ATOM     44  C   UNL A   1      43.776  26.204  30.592  1.00  0.00     0.049 A 
ATOM     45  C   UNL A   1      42.687  30.205  34.432  1.00  0.00     0.074 A 
ATOM     46  C   UNL A   1      44.834  25.360  30.878  1.00  0.00     0.029 A 
ATOM     47  N   UNL A   1      43.669  27.087  31.660  1.00  0.00    -0.354 N 
ATOM     48  N   UNL A   1      43.056  29.239  33.624  1.00  0.00    -0.248 NA
ATOM     49  C   UNL A   1      43.460  30.284  35.676  1.00  0.00     0.031 C 
ATOM     50  C   UNL A   1      45.346  25.713  32.133  1.00  0.00     0.029 A 
ATOM     51  C   UNL A   1      44.633  26.801  32.612  1.00  0.00     0.049 A 
ATOM     52  H   UNL A   1      43.004  27.810  31.730  1.00  0.00     0.167 HD
ATOM     53  C   UNL A   1      44.108  28.596  34.258  1.00  0.00     0.074 A 
ATOM     54  C   UNL A   1      44.329  29.294  35.510  1.00  0.00     0.031 C 
ATOM     55  C   UNL A   1      44.823  27.519  33.849  1.00  0.00     0.037 A 
BRANCH  42  56
ATOM     56  C   UNL A   1      43.143  25.191  28.356  1.00  0.00     0.058 A 
ATOM     57  C   UNL A   1      42.757  23.851  28.513  1.00  0.00     0.135 A 
ATOM     58  C   UNL A   1      43.746  25.561  27.143  1.00  0.00     0.135 A 
ATOM     59  F   UNL A   1      42.194  23.439  29.659  1.00  0.00    -0.206 F 
ATOM     60  C   UNL A   1      42.983  22.908  27.514  1.00  0.00     0.059 A 
ATOM     61  C   UNL A   1      43.963  24.639  26.122  1.00  0.00     0.059 A 
ATOM     62  F   UNL A   1      44.138  26.829  26.942  1.00  0.00    -0.206 F 
ATOM     63  C   UNL A   1      43.592  23.310  26.324  1.00  0.00     0.060 A 
BRANCH  63  64
ATOM     64  S   UNL A   1      43.893  22.077  25.040  1.00  0.00     0.124 S 
ATOM     65  O   UNL A   1      45.276  21.700  25.316  1.00  0.00    -0.237 OA
ATOM     66  O   UNL A   1      42.889  21.061  25.336  1.00  0.00    -0.237 OA
ATOM     67  O   UNL A   1      43.681  22.818  23.800  1.00  0.00    -0.744 OA
ENDBRANCH  63  64
ENDBRANCH  42  56
BRANCH  43  68
ATOM     68  C   UNL A   1      41.280  32.232  35.286  1.00  0.00     0.058 A 
ATOM     69  C   UNL A   1      40.290  32.015  36.253  1.00  0.00     0.135 A 
ATOM     70  C   UNL A   1      42.008  33.431  35.352  1.00  0.00     0.135 A 
ATOM     71  F   UNL A   1      39.564  30.887  36.228  1.00  0.00    -0.206 F 
ATOM     72  C   UNL A   1      40.027  32.952  37.248  1.00  0.00     0.059 A 
ATOM     73  C   UNL A   1      41.783  34.371  36.353  1.00  0.00     0.059 A 
ATOM     74  F   UNL A   1      42.980  33.680  34.460  1.00  0.00    -0.206 F 
ATOM     75  C   UNL A   1      40.783  34.125  37.292  1.00  0.00     0.060 A 
BRANCH  75  76
ATOM     76  S   UNL A   1      40.482  35.308  38.624  1.00  0.00     0.124 S 
ATOM     77  O   UNL A   1      39.026  35.402  38.606  1.00  0.00    -0.237 OA
ATOM     78  O   UNL A   1      41.064  34.630  39.778  1.00  0.00    -0.237 OA
ATOM     79  O   UNL A   1      41.198  36.500  38.180  1.00  0.00    -0.744 OA
ENDBRANCH  75  76
ENDBRANCH  43  68
BRANCH  55  80
ATOM     80  C   UNL A   1      45.920  27.053  34.759  1.00  0.00     0.058 A 
ATOM     81  C   UNL A   1      47.223  27.563  34.655  1.00  0.00     0.135 A 
ATOM     82  C   UNL A   1      45.653  26.119  35.771  1.00  0.00     0.135 A 
ATOM     83  F   UNL A   1      47.527  28.450  33.694  1.00  0.00    -0.206 F 
ATOM     84  C   UNL A   1      48.231  27.150  35.518  1.00  0.00     0.059 A 
ATOM     85  C   UNL A   1      46.641  25.708  36.658  1.00  0.00     0.059 A 
ATOM     86  F   UNL A   1      44.420  25.607  35.912  1.00  0.00    -0.206 F 
ATOM     87  C   UNL A   1      47.930  26.223  36.517  1.00  0.00     0.060 A 
BRANCH  87  88
ATOM     88  S   UNL A   1      49.236  25.723  37.658  1.00  0.00     0.124 S 
ATOM     89  O   UNL A   1      49.213  26.814  38.626  1.00  0.00    -0.237 OA
ATOM     90  O   UNL A   1      48.752  24.434  38.144  1.00  0.00    -0.237 OA
ATOM     91  O   UNL A   1      50.421  25.660  36.808  1.00  0.00    -0.744 OA
ENDBRANCH  87  88
ENDBRANCH  55  80
ENDBRANCH  29  30
ENDBRANCH  22  24
ENDBRANCH  21  22
ENDBRANCH  20  21
ENDBRANCH   1  20
TORSDOF 19
ENDMDL
MODEL 3
REMARK VINA RESULT:      -9.2      2.508      3.446
REMARK SMILES CC[C@@](C)(NC(=O)N(C)[C@@H](C)C(C)C)C(=O)OCCOC(=O)c1ccc(-c2c3nc(c(-c4c(F)cc(S(=O)(=O)[O-])cc4F)c4ccc([nH]4)c(-c4c(F)cc(S(=O)(=O)[O-])cc4F)c4nc(c(-c5c(F)cc(S(=O)(=O)[O-])cc5F)c5ccc2[nH]5)C=C4)C=C3)cc1
REMARK SMILES IDX 18 1 17 2 15 3 16 4 3 5 4 6 2 7 1 8 5 9 6 10 7 12 8 13 9 14
REMARK SMILES IDX 10 15 11 16 12 17 13 18 14 19 19 20 20 21 21 22 22 23 23 24
REMARK SMILES IDX 24 25 88 26 25 27 87 28 26 29 27 30 28 31 81 32 29 33 86 34
REMARK SMILES IDX 80 35 82 36 30 37 85 38 79 39 78 40 31 42 65 43 44 44 64 45
REMARK SMILES IDX 45 46 48 47 63 48 83 49 46 50 47 51 62 53 84 54 49 55 32 56
REMARK SMILES IDX 33 57 42 58 34 59 35 60 41 61 43 62 36 63 37 64 38 65 39 66
REMARK SMILES IDX 40 67 66 68 67 69 76 70 68 71 69 72 75 73 77 74 70 75 71 76
REMARK SMILES IDX 72 77 73 78 74 79 50 80 51 81 60 82 52 83 53 84 59 85 61 86
REMARK SMILES IDX 54 87 55 88 56 89 57 90 58 91
REMARK H PARENT 5 11 82 41 48 52
REMARK Flexibility Score: inf
ROOT
ATOM      1  C   UNL A   1      33.294  29.563  26.950  1.00  0.00     0.274 C 
ENDROOT
BRANCH   1   2
ATOM      2  O   UNL A   1      32.868  28.581  25.977  1.00  0.00    -0.460 OA
BRANCH   2   3
ATOM      3  C   UNL A   1      31.976  28.956  25.033  1.00  0.00     0.331 C 
ATOM      4  O   UNL A   1      30.943  29.554  25.322  1.00  0.00    -0.249 OA
BRANCH   3   5
ATOM      5  C   UNL A   1      32.272  28.386  23.599  1.00  0.00     0.136 C 
ATOM      6  C   UNL A   1      31.489  29.271  22.609  1.00  0.00     0.047 C 
BRANCH   5   7
ATOM      7  C   UNL A   1      33.812  28.594  23.273  1.00  0.00     0.037 C 
ATOM      8  C   UNL A   1      34.373  28.190  21.913  1.00  0.00     0.007 C 
ENDBRANCH   5   7
BRANCH   5   9
ATOM      9  N   UNL A   1      32.067  26.918  23.263  1.00  0.00    -0.322 N 
ATOM     10  C   UNL A   1      32.084  25.642  23.667  1.00  0.00     0.318 C 
ATOM     11  H   UNL A   1      31.797  26.896  22.317  1.00  0.00     0.166 HD
ATOM     12  O   UNL A   1      31.592  24.859  22.845  1.00  0.00    -0.249 OA
BRANCH  10  13
ATOM     13  N   UNL A   1      32.645  25.189  24.816  1.00  0.00    -0.325 N 
ATOM     14  C   UNL A   1      34.073  25.214  25.062  1.00  0.00     0.149 C 
BRANCH  13  15
ATOM     15  C   UNL A   1      31.809  24.930  26.031  1.00  0.00     0.086 C 
ATOM     16  C   UNL A   1      30.502  25.744  25.954  1.00  0.00     0.031 C 
BRANCH  15  17
ATOM     17  C   UNL A   1      31.455  23.447  26.440  1.00  0.00     0.005 C 
ATOM     18  C   UNL A   1      31.349  22.441  25.298  1.00  0.00     0.009 C 
ATOM     19  C   UNL A   1      32.508  22.881  27.416  1.00  0.00     0.009 C 
ENDBRANCH  15  17
ENDBRANCH  13  15
ENDBRANCH  10  13
ENDBRANCH   5   9
ENDBRANCH   3   5
ENDBRANCH   2   3
ENDBRANCH   1   2
BRANCH   1  20
ATOM     20  C   UNL A   1      34.602  29.116  27.613  1.00  0.00     0.275 C 
BRANCH  20  21
ATOM     21  O   UNL A   1      35.565  30.188  27.614  1.00  0.00    -0.458 OA
BRANCH  21  22
ATOM     22  C   UNL A   1      36.291  30.237  28.748  1.00  0.00     0.338 C 
ATOM     23  O   UNL A   1      35.858  30.379  29.880  1.00  0.00    -0.246 OA
BRANCH  22  24
ATOM     24  C   UNL A   1      37.679  29.874  28.519  1.00  0.00     0.060 A 
ATOM     25  C   UNL A   1      38.495  29.812  29.647  1.00  0.00     0.016 A 
ATOM     26  C   UNL A   1      38.200  29.715  27.240  1.00  0.00     0.016 A 
ATOM     27  C   UNL A   1      39.853  29.590  29.513  1.00  0.00     0.010 A 
ATOM     28  C   UNL A   1      39.559  29.428  27.105  1.00  0.00     0.010 A 
ATOM     29  C   UNL A   1      40.385  29.347  28.243  1.00  0.00    -0.014 A 
BRANCH  29  30
ATOM     30  C   UNL A   1      41.787  28.898  28.132  1.00  0.00     0.031 A 
ATOM     31  C   UNL A   1      42.912  29.875  28.241  1.00  0.00     0.074 A 
ATOM     32  C   UNL A   1      42.014  27.584  27.940  1.00  0.00     0.049 A 
ATOM     33  N   UNL A   1      44.183  29.688  28.012  1.00  0.00    -0.248 NA
ATOM     34  C   UNL A   1      42.565  31.240  28.665  1.00  0.00     0.031 C 
ATOM     35  C   UNL A   1      40.976  26.548  27.886  1.00  0.00     0.029 A 
ATOM     36  N   UNL A   1      43.180  26.891  27.758  1.00  0.00    -0.354 N 
ATOM     37  C   UNL A   1      44.791  30.917  28.229  1.00  0.00     0.074 A 
ATOM     38  C   UNL A   1      43.747  31.843  28.617  1.00  0.00     0.031 C 
ATOM     39  C   UNL A   1      41.554  25.353  27.705  1.00  0.00     0.029 A 
ATOM     40  C   UNL A   1      42.988  25.547  27.544  1.00  0.00     0.049 A 
ATOM     41  H   UNL A   1      44.069  27.314  27.779  1.00  0.00     0.167 HD
ATOM     42  C   UNL A   1      46.101  31.232  28.100  1.00  0.00     0.037 A 
ATOM     43  C   UNL A   1      43.866  24.587  27.200  1.00  0.00     0.037 A 
ATOM     44  C   UNL A   1      47.114  30.281  27.715  1.00  0.00     0.049 A 
ATOM     45  C   UNL A   1      45.301  24.976  27.003  1.00  0.00     0.074 A 
ATOM     46  C   UNL A   1      48.467  30.492  27.518  1.00  0.00     0.029 A 
ATOM     47  N   UNL A   1      46.881  28.933  27.473  1.00  0.00    -0.354 N 
ATOM     48  N   UNL A   1      45.858  26.156  27.145  1.00  0.00    -0.248 NA
ATOM     49  C   UNL A   1      46.222  23.917  26.577  1.00  0.00     0.031 C 
ATOM     50  C   UNL A   1      49.045  29.279  27.125  1.00  0.00     0.029 A 
ATOM     51  C   UNL A   1      48.060  28.303  27.116  1.00  0.00     0.049 A 
ATOM     52  H   UNL A   1      46.003  28.491  27.544  1.00  0.00     0.167 HD
ATOM     53  C   UNL A   1      47.197  25.983  26.829  1.00  0.00     0.074 A 
ATOM     54  C   UNL A   1      47.371  24.579  26.508  1.00  0.00     0.031 C 
ATOM     55  C   UNL A   1      48.195  26.901  26.801  1.00  0.00     0.037 A 
BRANCH  42  56
ATOM     56  C   UNL A   1      46.495  32.665  28.318  1.00  0.00     0.058 A 
ATOM     57  C   UNL A   1      46.374  33.632  27.309  1.00  0.00     0.135 A 
ATOM     58  C   UNL A   1      46.995  33.078  29.565  1.00  0.00     0.135 A 
ATOM     59  F   UNL A   1      45.920  33.288  26.094  1.00  0.00    -0.206 F 
ATOM     60  C   UNL A   1      46.757  34.954  27.520  1.00  0.00     0.059 A 
ATOM     61  C   UNL A   1      47.365  34.399  29.803  1.00  0.00     0.059 A 
ATOM     62  F   UNL A   1      47.136  32.192  30.563  1.00  0.00    -0.206 F 
ATOM     63  C   UNL A   1      47.257  35.326  28.769  1.00  0.00     0.060 A 
BRANCH  63  64
ATOM     64  S   UNL A   1      47.764  37.041  29.027  1.00  0.00     0.124 S 
ATOM     65  O   UNL A   1      48.370  36.968  30.353  1.00  0.00    -0.237 OA
ATOM     66  O   UNL A   1      48.688  37.267  27.920  1.00  0.00    -0.237 OA
ATOM     67  O   UNL A   1      46.509  37.782  28.951  1.00  0.00    -0.744 OA
ENDBRANCH  63  64
ENDBRANCH  42  56
BRANCH  43  68
ATOM     68  C   UNL A   1      43.390  23.198  26.975  1.00  0.00     0.058 A 
ATOM     69  C   UNL A   1      43.153  22.715  25.682  1.00  0.00     0.135 A 
ATOM     70  C   UNL A   1      43.208  22.311  28.049  1.00  0.00     0.135 A 
ATOM     71  F   UNL A   1      43.308  23.525  24.624  1.00  0.00    -0.206 F 
ATOM     72  C   UNL A   1      42.747  21.402  25.458  1.00  0.00     0.059 A 
ATOM     73  C   UNL A   1      42.829  20.988  27.850  1.00  0.00     0.059 A 
ATOM     74  F   UNL A   1      43.438  22.719  29.307  1.00  0.00    -0.206 F 
ATOM     75  C   UNL A   1      42.593  20.545  26.550  1.00  0.00     0.060 A 
BRANCH  75  76
ATOM     76  S   UNL A   1      42.129  18.825  26.249  1.00  0.00     0.124 S 
ATOM     77  O   UNL A   1      42.258  18.251  27.584  1.00  0.00    -0.237 OA
ATOM     78  O   UNL A   1      40.768  18.955  25.738  1.00  0.00    -0.237 OA
ATOM     79  O   UNL A   1      43.117  18.379  25.271  1.00  0.00    -0.744 OA
ENDBRANCH  75  76
ENDBRANCH  43  68
BRANCH  55  80
ATOM     80  C   UNL A   1      49.559  26.403  26.426  1.00  0.00     0.058 A 
ATOM     81  C   UNL A   1      50.036  26.497  25.111  1.00  0.00     0.135 A 
ATOM     82  C   UNL A   1      50.410  25.865  27.403  1.00  0.00     0.135 A 
ATOM     83  F   UNL A   1      49.252  26.993  24.141  1.00  0.00    -0.206 F 
ATOM     84  C   UNL A   1      51.311  26.060  24.772  1.00  0.00     0.059 A 
ATOM     85  C   UNL A   1      51.697  25.442  27.091  1.00  0.00     0.059 A 
ATOM     86  F   UNL A   1      49.998  25.760  28.677  1.00  0.00    -0.206 F 
ATOM     87  C   UNL A   1      52.135  25.535  25.770  1.00  0.00     0.060 A 
BRANCH  87  88
ATOM     88  S   UNL A   1      53.803  25.007  25.328  1.00  0.00     0.124 S 
ATOM     89  O   UNL A   1      53.606  23.581  25.092  1.00  0.00    -0.237 OA
ATOM     90  O   UNL A   1      54.085  25.813  24.143  1.00  0.00    -0.237 OA
ATOM     91  O   UNL A   1      54.589  25.347  26.510  1.00  0.00    -0.744 OA
ENDBRANCH  87  88
ENDBRANCH  55  80
ENDBRANCH  29  30
ENDBRANCH  22  24
ENDBRANCH  21  22
ENDBRANCH  20  21
ENDBRANCH   1  20
TORSDOF 19
ENDMDL
