MODEL 1
REMARK VINA RESULT:     -12.3      0.000      0.000
REMARK SMILES Cc1cc(S(F)(F)(F)(F)F)cc2c1O[C@H](C(F)(F)F)C(C(=O)OCCOC(=O)c1ccc(-c3c4nc(c(-c5c(F)cc(S(=O)(=O)[O-])cc5F)c5ccc([nH]5)c(-c5c(F)cc(S(=O)(=O)[O-])cc5F)c5nc(c(-c6c(F)cc(S(=O)(=O)[O-])cc6F)c6ccc3[nH]6)C=C5)C=C4)cc1)=C2
REMARK SMILES IDX 25 1 24 2 23 3 21 4 22 5 20 6 1 7 2 8 3 9 13 10 4 11 12 12
REMARK SMILES IDX 14 13 11 14 95 15 15 16 5 17 6 18 7 19 8 20 9 21 10 22 16 23
REMARK SMILES IDX 17 24 18 25 19 26 26 27 27 28 28 29 29 30 30 31 94 32 31 33
REMARK SMILES IDX 93 34 32 35 33 36 34 37 87 38 35 39 92 40 86 41 88 42 36 43
REMARK SMILES IDX 91 44 85 45 84 46 37 48 71 49 50 50 70 51 51 52 54 53 69 54
REMARK SMILES IDX 89 55 52 56 53 57 68 59 90 60 55 61 38 62 39 63 48 64 40 65
REMARK SMILES IDX 41 66 47 67 49 68 42 69 43 70 44 71 45 72 46 73 72 74 73 75
REMARK SMILES IDX 82 76 74 77 75 78 81 79 83 80 76 81 77 82 78 83 79 84 80 85
REMARK SMILES IDX 56 86 57 87 66 88 58 89 59 90 65 91 67 92 60 93 61 94 62 95
REMARK SMILES IDX 63 96 64 97
REMARK H PARENT 88 47 54 58
REMARK Flexibility Score: inf
ROOT
ATOM      1  C   UNL A   1      32.208  29.614  27.082  1.00  0.00     0.275 C 
ENDROOT
BRANCH   1   2
ATOM      2  C   UNL A   1      31.999  29.961  25.617  1.00  0.00     0.275 C 
BRANCH   2   3
ATOM      3  O   UNL A   1      31.228  28.944  24.996  1.00  0.00    -0.459 OA
BRANCH   3   4
ATOM      4  C   UNL A   1      31.873  27.911  24.264  1.00  0.00     0.338 C 
ATOM      5  O   UNL A   1      32.054  28.037  23.012  1.00  0.00    -0.246 OA
BRANCH   4   6
ATOM      6  C   UNL A   1      32.346  26.654  24.978  1.00  0.00     0.087 C 
ATOM      7  C   UNL A   1      32.733  22.524  28.007  1.00  0.00     0.048 C 
ATOM      8  C   UNL A   1      33.611  23.196  26.965  1.00  0.00    -0.007 A 
ATOM      9  C   UNL A   1      34.848  22.674  26.657  1.00  0.00     0.031 A 
ATOM     10  C   UNL A   1      33.172  24.348  26.313  1.00  0.00     0.130 A 
ATOM     11  C   UNL A   1      35.659  23.285  25.709  1.00  0.00     0.108 A 
ATOM     12  C   UNL A   1      33.999  24.962  25.346  1.00  0.00     0.019 A 
ATOM     13  O   UNL A   1      31.866  24.954  26.598  1.00  0.00    -0.475 OA
ATOM     14  C   UNL A   1      35.247  24.410  25.052  1.00  0.00     0.036 A 
ATOM     15  C   UNL A   1      33.514  26.170  24.677  1.00  0.00     0.027 C 
ATOM     16  C   UNL A   1      31.508  26.070  25.927  1.00  0.00     0.316 C 
BRANCH  11  17
ATOM     17  S   UNL A   1      37.285  22.579  25.338  1.00  0.00     0.310 S 
ATOM     18  F   UNL A   1      37.600  23.429  24.037  1.00  0.00    -0.094 F 
ATOM     19  F   UNL A   1      36.614  21.510  24.394  1.00  0.00    -0.094 F 
ATOM     20  F   UNL A   1      38.675  21.905  25.160  1.00  0.00    -0.094 F 
ATOM     21  F   UNL A   1      37.963  23.738  26.170  1.00  0.00    -0.094 F 
ATOM     22  F   UNL A   1      35.902  23.338  25.435  1.00  0.00    -0.094 F 
ENDBRANCH  11  17
BRANCH  16  23
ATOM     23  C   UNL A   1      30.349  25.577  25.076  1.00  0.00     0.430 C 
ATOM     24  F   UNL A   1      30.821  25.023  23.963  1.00  0.00    -0.167 F 
ATOM     25  F   UNL A   1      29.650  24.674  25.759  1.00  0.00    -0.167 F 
ATOM     26  F   UNL A   1      29.563  26.602  24.762  1.00  0.00    -0.167 F 
ENDBRANCH  16  23
ENDBRANCH   4   6
ENDBRANCH   3   4
ENDBRANCH   2   3
ENDBRANCH   1   2
BRANCH   1  27
ATOM     27  O   UNL A   1      33.576  29.312  27.308  1.00  0.00    -0.458 OA
BRANCH  27  28
ATOM     28  C   UNL A   1      34.422  30.269  27.928  1.00  0.00     0.338 C 
ATOM     29  O   UNL A   1      33.995  31.445  28.150  1.00  0.00    -0.246 OA
BRANCH  28  30
ATOM     30  C   UNL A   1      35.839  29.887  28.326  1.00  0.00     0.060 A 
ATOM     31  C   UNL A   1      36.268  29.700  29.635  1.00  0.00     0.016 A 
ATOM     32  C   UNL A   1      36.736  29.856  27.364  1.00  0.00     0.016 A 
ATOM     33  C   UNL A   1      37.487  29.006  29.807  1.00  0.00     0.010 A 
ATOM     34  C   UNL A   1      38.089  29.650  27.653  1.00  0.00     0.010 A 
ATOM     35  C   UNL A   1      38.467  29.232  28.842  1.00  0.00    -0.014 A 
BRANCH  35  36
ATOM     36  C   UNL A   1      39.936  29.003  29.157  1.00  0.00     0.031 A 
ATOM     37  C   UNL A   1      40.747  30.037  29.627  1.00  0.00     0.074 A 
ATOM     38  C   UNL A   1      40.410  27.755  28.791  1.00  0.00     0.049 A 
ATOM     39  N   UNL A   1      42.064  30.009  29.837  1.00  0.00    -0.248 NA
ATOM     40  C   UNL A   1      40.252  31.375  29.984  1.00  0.00     0.031 C 
ATOM     41  C   UNL A   1      39.598  26.703  28.323  1.00  0.00     0.029 A 
ATOM     42  N   UNL A   1      41.712  27.306  28.808  1.00  0.00    -0.354 N 
ATOM     43  C   UNL A   1      42.481  31.185  30.310  1.00  0.00     0.074 A 
ATOM     44  C   UNL A   1      41.322  32.082  30.405  1.00  0.00     0.031 C 
ATOM     45  C   UNL A   1      40.400  25.640  28.052  1.00  0.00     0.029 A 
ATOM     46  C   UNL A   1      41.727  26.008  28.345  1.00  0.00     0.049 A 
ATOM     47  H   UNL A   1      42.497  27.823  29.100  1.00  0.00     0.167 HD
ATOM     48  C   UNL A   1      43.782  31.543  30.667  1.00  0.00     0.037 A 
ATOM     49  C   UNL A   1      42.824  25.179  28.179  1.00  0.00     0.037 A 
ATOM     50  C   UNL A   1      44.874  30.698  30.542  1.00  0.00     0.049 A 
ATOM     51  C   UNL A   1      44.135  25.557  28.481  1.00  0.00     0.074 A 
ATOM     52  C   UNL A   1      46.190  31.041  30.904  1.00  0.00     0.029 A 
ATOM     53  N   UNL A   1      44.892  29.410  30.056  1.00  0.00    -0.354 N 
ATOM     54  N   UNL A   1      44.546  26.719  28.992  1.00  0.00    -0.248 NA
ATOM     55  C   UNL A   1      45.309  24.698  28.280  1.00  0.00     0.031 C 
ATOM     56  C   UNL A   1      46.993  29.978  30.632  1.00  0.00     0.029 A 
ATOM     57  C   UNL A   1      46.190  28.953  30.094  1.00  0.00     0.049 A 
ATOM     58  H   UNL A   1      44.111  28.903  29.736  1.00  0.00     0.167 HD
ATOM     59  C   UNL A   1      45.870  26.704  29.162  1.00  0.00     0.074 A 
ATOM     60  C   UNL A   1      46.380  25.406  28.699  1.00  0.00     0.031 C 
ATOM     61  C   UNL A   1      46.671  27.719  29.687  1.00  0.00     0.037 A 
BRANCH  48  62
ATOM     62  C   UNL A   1      44.015  32.938  31.224  1.00  0.00     0.058 A 
ATOM     63  C   UNL A   1      44.234  34.014  30.387  1.00  0.00     0.135 A 
ATOM     64  C   UNL A   1      43.962  33.146  32.594  1.00  0.00     0.135 A 
ATOM     65  F   UNL A   1      44.286  33.824  29.071  1.00  0.00    -0.206 F 
ATOM     66  C   UNL A   1      44.391  35.233  30.879  1.00  0.00     0.059 A 
ATOM     67  C   UNL A   1      44.125  34.438  33.075  1.00  0.00     0.059 A 
ATOM     68  F   UNL A   1      43.759  32.130  33.429  1.00  0.00    -0.206 F 
ATOM     69  C   UNL A   1      44.341  35.467  32.179  1.00  0.00     0.060 A 
BRANCH  69  70
ATOM     70  S   UNL A   1      44.554  37.156  32.793  1.00  0.00     0.124 S 
ATOM     71  O   UNL A   1      45.834  37.236  33.630  1.00  0.00    -0.237 OA
ATOM     72  O   UNL A   1      44.657  38.121  31.610  1.00  0.00    -0.237 OA
ATOM     73  O   UNL A   1      43.212  37.585  33.763  1.00  0.00    -0.744 OA
ENDBRANCH  69  70
ENDBRANCH  48  62
BRANCH  49  74
ATOM     74  C   UNL A   1      42.589  23.779  27.639  1.00  0.00     0.058 A 
ATOM     75  C   UNL A   1      42.492  22.692  28.485  1.00  0.00     0.135 A 
ATOM     76  C   UNL A   1      42.514  23.577  26.268  1.00  0.00     0.135 A 
ATOM     77  F   UNL A   1      42.563  22.875  29.801  1.00  0.00    -0.206 F 
ATOM     78  C   UNL A   1      42.330  21.470  28.003  1.00  0.00     0.059 A 
ATOM     79  C   UNL A   1      42.337  22.283  25.796  1.00  0.00     0.059 A 
ATOM     80  F   UNL A   1      42.608  24.600  25.424  1.00  0.00    -0.206 F 
ATOM     81  C   UNL A   1      42.249  21.244  26.702  1.00  0.00     0.060 A 
BRANCH  81  82
ATOM     82  S   UNL A   1      42.018  19.552  26.101  1.00  0.00     0.124 S 
ATOM     83  O   UNL A   1      40.535  19.318  25.798  1.00  0.00    -0.237 OA
ATOM     84  O   UNL A   1      42.838  19.345  24.827  1.00  0.00    -0.237 OA
ATOM     85  O   UNL A   1      42.535  18.446  27.298  1.00  0.00    -0.744 OA
ENDBRANCH  81  82
ENDBRANCH  49  74
BRANCH  61  86
ATOM     86  C   UNL A   1      48.162  27.453  29.821  1.00  0.00     0.058 A 
ATOM     87  C   UNL A   1      48.754  26.992  30.980  1.00  0.00     0.135 A 
ATOM     88  C   UNL A   1      48.965  27.861  28.766  1.00  0.00     0.135 A 
ATOM     89  F   UNL A   1      47.992  26.598  31.996  1.00  0.00    -0.206 F 
ATOM     90  C   UNL A   1      50.072  26.937  31.090  1.00  0.00     0.059 A 
ATOM     91  C   UNL A   1      50.342  27.784  28.914  1.00  0.00     0.059 A 
ATOM     92  F   UNL A   1      48.427  28.315  27.638  1.00  0.00    -0.206 F 
ATOM     93  C   UNL A   1      50.867  27.314  30.102  1.00  0.00     0.060 A 
BRANCH  93  94
ATOM     94  S   UNL A   1      52.662  27.209  30.309  1.00  0.00     0.124 S 
ATOM     95  O   UNL A   1      53.328  27.109  28.935  1.00  0.00    -0.237 OA
ATOM     96  O   UNL A   1      53.166  28.461  31.031  1.00  0.00    -0.237 OA
ATOM     97  O   UNL A   1      53.049  25.823  31.234  1.00  0.00    -0.744 OA
ENDBRANCH  93  94
ENDBRANCH  61  86
ENDBRANCH  35  36
ENDBRANCH  28  30
ENDBRANCH  27  28
ENDBRANCH   1  27
TORSDOF 16
ENDMDL
MODEL 2
REMARK VINA RESULT:     -12.1      0.863      8.173
REMARK SMILES Cc1cc(S(F)(F)(F)(F)F)cc2c1O[C@H](C(F)(F)F)C(C(=O)OCCOC(=O)c1ccc(-c3c4nc(c(-c5c(F)cc(S(=O)(=O)[O-])cc5F)c5ccc([nH]5)c(-c5c(F)cc(S(=O)(=O)[O-])cc5F)c5nc(c(-c6c(F)cc(S(=O)(=O)[O-])cc6F)c6ccc3[nH]6)C=C5)C=C4)cc1)=C2
REMARK SMILES IDX 25 1 24 2 23 3 21 4 22 5 20 6 1 7 2 8 3 9 13 10 4 11 12 12
REMARK SMILES IDX 14 13 11 14 95 15 15 16 5 17 6 18 7 19 8 20 9 21 10 22 16 23
REMARK SMILES IDX 17 24 18 25 19 26 26 27 27 28 28 29 29 30 30 31 94 32 31 33
REMARK SMILES IDX 93 34 32 35 33 36 34 37 87 38 35 39 92 40 86 41 88 42 36 43
REMARK SMILES IDX 91 44 85 45 84 46 37 48 71 49 50 50 70 51 51 52 54 53 69 54
REMARK SMILES IDX 89 55 52 56 53 57 68 59 90 60 55 61 38 62 39 63 48 64 40 65
REMARK SMILES IDX 41 66 47 67 49 68 42 69 43 70 44 71 45 72 46 73 72 74 73 75
REMARK SMILES IDX 82 76 74 77 75 78 81 79 83 80 76 81 77 82 78 83 79 84 80 85
REMARK SMILES IDX 56 86 57 87 66 88 58 89 59 90 65 91 67 92 60 93 61 94 62 95
REMARK SMILES IDX 63 96 64 97
REMARK H PARENT 88 47 54 58
REMARK Flexibility Score: inf
ROOT
ATOM      1  C   UNL A   1      32.175  29.971  27.125  1.00  0.00     0.275 C 
ENDROOT
BRANCH   1   2
ATOM      2  C   UNL A   1      31.785  30.493  25.752  1.00  0.00     0.275 C 
BRANCH   2   3
ATOM      3  O   UNL A   1      31.216  29.440  24.989  1.00  0.00    -0.459 OA
BRANCH   3   4
ATOM      4  C   UNL A   1      32.059  28.528  24.299  1.00  0.00     0.338 C 
ATOM      5  O   UNL A   1      32.534  28.837  23.162  1.00  0.00    -0.246 OA
BRANCH   4   6
ATOM      6  C   UNL A   1      32.392  27.181  24.921  1.00  0.00     0.087 C 
ATOM      7  C   UNL A   1      32.210  22.691  27.410  1.00  0.00     0.048 C 
ATOM      8  C   UNL A   1      33.269  23.472  26.649  1.00  0.00    -0.007 A 
ATOM      9  C   UNL A   1      34.543  22.967  26.516  1.00  0.00     0.031 A 
ATOM     10  C   UNL A   1      32.958  24.706  26.080  1.00  0.00     0.130 A 
ATOM     11  C   UNL A   1      35.519  23.677  25.827  1.00  0.00     0.108 A 
ATOM     12  C   UNL A   1      33.951  25.422  25.375  1.00  0.00     0.019 A 
ATOM     13  O   UNL A   1      31.618  25.298  26.187  1.00  0.00    -0.475 OA
ATOM     14  C   UNL A   1      35.235  24.885  25.255  1.00  0.00     0.036 A 
ATOM     15  C   UNL A   1      33.598  26.715  24.788  1.00  0.00     0.027 C 
ATOM     16  C   UNL A   1      31.391  26.497  25.611  1.00  0.00     0.316 C 
BRANCH  11  17
ATOM     17  S   UNL A   1      37.188  22.991  25.684  1.00  0.00     0.310 S 
ATOM     18  F   UNL A   1      37.835  24.166  24.837  1.00  0.00    -0.094 F 
ATOM     19  F   UNL A   1      36.800  22.312  24.316  1.00  0.00    -0.094 F 
ATOM     20  F   UNL A   1      38.578  22.295  25.667  1.00  0.00    -0.094 F 
ATOM     21  F   UNL A   1      37.612  23.789  26.979  1.00  0.00    -0.094 F 
ATOM     22  F   UNL A   1      35.825  23.792  25.655  1.00  0.00    -0.094 F 
ENDBRANCH  11  17
BRANCH  16  23
ATOM     23  C   UNL A   1      30.417  26.141  24.499  1.00  0.00     0.430 C 
ATOM     24  F   UNL A   1      29.809  24.996  24.792  1.00  0.00    -0.167 F 
ATOM     25  F   UNL A   1      29.510  27.107  24.378  1.00  0.00    -0.167 F 
ATOM     26  F   UNL A   1      31.081  26.011  23.354  1.00  0.00    -0.167 F 
ENDBRANCH  16  23
ENDBRANCH   4   6
ENDBRANCH   3   4
ENDBRANCH   2   3
ENDBRANCH   1   2
BRANCH   1  27
ATOM     27  O   UNL A   1      33.566  29.688  27.147  1.00  0.00    -0.458 OA
BRANCH  27  28
ATOM     28  C   UNL A   1      34.437  30.473  27.948  1.00  0.00     0.338 C 
ATOM     29  O   UNL A   1      34.042  31.587  28.412  1.00  0.00    -0.246 OA
BRANCH  28  30
ATOM     30  C   UNL A   1      35.844  29.981  28.249  1.00  0.00     0.060 A 
ATOM     31  C   UNL A   1      36.336  29.730  29.524  1.00  0.00     0.016 A 
ATOM     32  C   UNL A   1      36.676  29.909  27.232  1.00  0.00     0.016 A 
ATOM     33  C   UNL A   1      37.509  28.946  29.606  1.00  0.00     0.010 A 
ATOM     34  C   UNL A   1      38.025  29.598  27.432  1.00  0.00     0.010 A 
ATOM     35  C   UNL A   1      38.443  29.124  28.587  1.00  0.00    -0.014 A 
BRANCH  35  36
ATOM     36  C   UNL A   1      39.908  28.782  28.805  1.00  0.00     0.031 A 
ATOM     37  C   UNL A   1      40.409  27.516  28.502  1.00  0.00     0.074 A 
ATOM     38  C   UNL A   1      40.631  29.764  29.460  1.00  0.00     0.049 A 
ATOM     39  N   UNL A   1      41.634  27.046  28.743  1.00  0.00    -0.248 NA
ATOM     40  C   UNL A   1      39.632  26.459  27.837  1.00  0.00     0.031 C 
ATOM     41  C   UNL A   1      40.135  31.047  29.764  1.00  0.00     0.029 A 
ATOM     42  N   UNL A   1      41.924  29.691  29.930  1.00  0.00    -0.354 N 
ATOM     43  C   UNL A   1      41.746  25.795  28.290  1.00  0.00     0.074 A 
ATOM     44  C   UNL A   1      40.458  25.398  27.707  1.00  0.00     0.031 C 
ATOM     45  C   UNL A   1      41.111  31.733  30.415  1.00  0.00     0.029 A 
ATOM     46  C   UNL A   1      42.233  30.891  30.531  1.00  0.00     0.049 A 
ATOM     47  H   UNL A   1      42.524  28.914  29.850  1.00  0.00     0.167 HD
ATOM     48  C   UNL A   1      42.872  24.972  28.340  1.00  0.00     0.037 A 
ATOM     49  C   UNL A   1      43.418  31.249  31.153  1.00  0.00     0.037 A 
ATOM     50  C   UNL A   1      44.073  25.346  28.923  1.00  0.00     0.049 A 
ATOM     51  C   UNL A   1      44.526  30.404  31.254  1.00  0.00     0.074 A 
ATOM     52  C   UNL A   1      45.219  24.530  28.974  1.00  0.00     0.029 A 
ATOM     53  N   UNL A   1      44.373  26.536  29.545  1.00  0.00    -0.354 N 
ATOM     54  N   UNL A   1      44.651  29.168  30.766  1.00  0.00    -0.248 NA
ATOM     55  C   UNL A   1      45.776  30.760  31.938  1.00  0.00     0.031 C 
ATOM     56  C   UNL A   1      46.195  25.216  29.627  1.00  0.00     0.029 A 
ATOM     57  C   UNL A   1      45.673  26.472  29.995  1.00  0.00     0.049 A 
ATOM     58  H   UNL A   1      43.763  27.302  29.651  1.00  0.00     0.167 HD
ATOM     59  C   UNL A   1      45.863  28.684  31.045  1.00  0.00     0.074 A 
ATOM     60  C   UNL A   1      46.601  29.698  31.809  1.00  0.00     0.031 C 
ATOM     61  C   UNL A   1      46.383  27.438  30.690  1.00  0.00     0.037 A 
BRANCH  48  62
ATOM     62  C   UNL A   1      42.776  23.587  27.720  1.00  0.00     0.058 A 
ATOM     63  C   UNL A   1      42.456  22.483  28.484  1.00  0.00     0.135 A 
ATOM     64  C   UNL A   1      42.968  23.433  26.355  1.00  0.00     0.135 A 
ATOM     65  F   UNL A   1      42.269  22.621  29.794  1.00  0.00    -0.206 F 
ATOM     66  C   UNL A   1      42.330  21.288  27.928  1.00  0.00     0.059 A 
ATOM     67  C   UNL A   1      42.823  22.168  25.804  1.00  0.00     0.059 A 
ATOM     68  F   UNL A   1      43.284  24.475  25.591  1.00  0.00    -0.206 F 
ATOM     69  C   UNL A   1      42.501  21.108  26.629  1.00  0.00     0.060 A 
BRANCH  69  70
ATOM     70  S   UNL A   1      42.308  19.452  25.924  1.00  0.00     0.124 S 
ATOM     71  O   UNL A   1      40.826  19.185  25.649  1.00  0.00    -0.237 OA
ATOM     72  O   UNL A   1      43.095  19.360  24.615  1.00  0.00    -0.237 OA
ATOM     73  O   UNL A   1      42.901  18.288  27.028  1.00  0.00    -0.744 OA
ENDBRANCH  69  70
ENDBRANCH  48  62
BRANCH  49  74
ATOM     74  C   UNL A   1      43.520  32.639  31.757  1.00  0.00     0.058 A 
ATOM     75  C   UNL A   1      43.092  32.892  33.045  1.00  0.00     0.135 A 
ATOM     76  C   UNL A   1      44.010  33.686  30.990  1.00  0.00     0.135 A 
ATOM     77  F   UNL A   1      42.620  31.894  33.789  1.00  0.00    -0.206 F 
ATOM     78  C   UNL A   1      43.144  34.115  33.549  1.00  0.00     0.059 A 
ATOM     79  C   UNL A   1      44.058  34.954  31.551  1.00  0.00     0.059 A 
ATOM     80  F   UNL A   1      44.427  33.479  29.744  1.00  0.00    -0.206 F 
ATOM     81  C   UNL A   1      43.611  35.134  32.846  1.00  0.00     0.060 A 
BRANCH  81  82
ATOM     82  S   UNL A   1      43.668  36.782  33.591  1.00  0.00     0.124 S 
ATOM     83  O   UNL A   1      43.758  37.838  32.486  1.00  0.00    -0.237 OA
ATOM     84  O   UNL A   1      42.401  37.015  34.416  1.00  0.00    -0.237 OA
ATOM     85  O   UNL A   1      45.039  36.902  34.606  1.00  0.00    -0.744 OA
ENDBRANCH  81  82
ENDBRANCH  49  74
BRANCH  61  86
ATOM     86  C   UNL A   1      47.815  27.124  31.089  1.00  0.00     0.058 A 
ATOM     87  C   UNL A   1      48.908  27.390  30.288  1.00  0.00     0.135 A 
ATOM     88  C   UNL A   1      47.991  26.380  32.247  1.00  0.00     0.135 A 
ATOM     89  F   UNL A   1      48.749  28.103  29.176  1.00  0.00    -0.206 F 
ATOM     90  C   UNL A   1      50.111  26.945  30.615  1.00  0.00     0.059 A 
ATOM     91  C   UNL A   1      49.266  25.935  32.562  1.00  0.00     0.059 A 
ATOM     92  F   UNL A   1      46.959  26.101  33.039  1.00  0.00    -0.206 F 
ATOM     93  C   UNL A   1      50.314  26.238  31.713  1.00  0.00     0.060 A 
BRANCH  93  94
ATOM     94  S   UNL A   1      51.983  25.662  32.111  1.00  0.00     0.124 S 
ATOM     95  O   UNL A   1      52.487  26.387  33.362  1.00  0.00    -0.237 OA
ATOM     96  O   UNL A   1      51.954  24.154  32.372  1.00  0.00    -0.237 OA
ATOM     97  O   UNL A   1      53.028  25.995  30.799  1.00  0.00    -0.744 OA
ENDBRANCH  93  94
ENDBRANCH  61  86
ENDBRANCH  35  36
ENDBRANCH  28  30
ENDBRANCH  27  28
ENDBRANCH   1  27
TORSDOF 16
ENDMDL
MODEL 3
REMARK VINA RESULT:     -11.8      3.320      9.057
REMARK SMILES Cc1cc(S(F)(F)(F)(F)F)cc2c1O[C@H](C(F)(F)F)C(C(=O)OCCOC(=O)c1ccc(-c3c4nc(c(-c5c(F)cc(S(=O)(=O)[O-])cc5F)c5ccc([nH]5)c(-c5c(F)cc(S(=O)(=O)[O-])cc5F)c5nc(c(-c6c(F)cc(S(=O)(=O)[O-])cc6F)c6ccc3[nH]6)C=C5)C=C4)cc1)=C2
REMARK SMILES IDX 25 1 24 2 23 3 21 4 22 5 20 6 1 7 2 8 3 9 13 10 4 11 12 12
REMARK SMILES IDX 14 13 11 14 95 15 15 16 5 17 6 18 7 19 8 20 9 21 10 22 16 23
REMARK SMILES IDX 17 24 18 25 19 26 26 27 27 28 28 29 29 30 30 31 94 32 31 33
REMARK SMILES IDX 93 34 32 35 33 36 34 37 87 38 35 39 92 40 86 41 88 42 36 43
REMARK SMILES IDX 91 44 85 45 84 46 37 48 71 49 50 50 70 51 51 52 54 53 69 54
REMARK SMILES IDX 89 55 52 56 53 57 68 59 90 60 55 61 38 62 39 63 48 64 40 65
REMARK SMILES IDX 41 66 47 67 49 68 42 69 43 70 44 71 45 72 46 73 72 74 73 75
REMARK SMILES IDX 82 76 74 77 75 78 81 79 83 80 76 81 77 82 78 83 79 84 80 85
REMARK SMILES IDX 56 86 57 87 66 88 58 89 59 90 65 91 67 92 60 93 61 94 62 95
REMARK SMILES IDX 63 96 64 97
REMARK H PARENT 88 47 54 58
REMARK Flexibility Score: inf
ROOT
ATOM      1  C   UNL A   1      36.581  21.794  25.389  1.00  0.00     0.275 C 
ENDROOT
BRANCH   1   2
ATOM      2  C   UNL A   1      35.646  21.949  24.200  1.00  0.00     0.275 C 
BRANCH   2   3
ATOM      3  O   UNL A   1      34.317  21.653  24.602  1.00  0.00    -0.459 OA
BRANCH   3   4
ATOM      4  C   UNL A   1      33.631  22.527  25.487  1.00  0.00     0.338 C 
ATOM      5  O   UNL A   1      33.224  22.101  26.612  1.00  0.00    -0.246 OA
BRANCH   4   6
ATOM      6  C   UNL A   1      33.385  23.973  25.087  1.00  0.00     0.087 C 
ATOM      7  C   UNL A   1      31.987  28.270  22.642  1.00  0.00     0.048 C 
ATOM      8  C   UNL A   1      32.688  27.939  23.950  1.00  0.00    -0.007 A 
ATOM      9  C   UNL A   1      33.109  28.949  24.786  1.00  0.00     0.031 A 
ATOM     10  C   UNL A   1      32.912  26.612  24.311  1.00  0.00     0.130 A 
ATOM     11  C   UNL A   1      33.756  28.657  25.981  1.00  0.00     0.108 A 
ATOM     12  C   UNL A   1      33.564  26.319  25.530  1.00  0.00     0.019 A 
ATOM     13  O   UNL A   1      32.488  25.491  23.463  1.00  0.00    -0.475 OA
ATOM     14  C   UNL A   1      33.979  27.363  26.359  1.00  0.00     0.036 A 
ATOM     15  C   UNL A   1      33.786  24.917  25.885  1.00  0.00     0.027 C 
ATOM     16  C   UNL A   1      32.738  24.232  23.878  1.00  0.00     0.316 C 
BRANCH  11  17
ATOM     17  S   UNL A   1      34.309  30.008  27.050  1.00  0.00     0.310 S 
ATOM     18  F   UNL A   1      34.655  29.144  28.334  1.00  0.00    -0.094 F 
ATOM     19  F   UNL A   1      32.851  30.158  27.628  1.00  0.00    -0.094 F 
ATOM     20  F   UNL A   1      34.781  31.261  27.842  1.00  0.00    -0.094 F 
ATOM     21  F   UNL A   1      35.794  29.760  26.573  1.00  0.00    -0.094 F 
ATOM     22  F   UNL A   1      33.870  28.671  26.332  1.00  0.00    -0.094 F 
ENDBRANCH  11  17
BRANCH  16  23
ATOM     23  C   UNL A   1      31.340  23.694  24.139  1.00  0.00     0.430 C 
ATOM     24  F   UNL A   1      30.490  24.227  23.265  1.00  0.00    -0.167 F 
ATOM     25  F   UNL A   1      31.342  22.370  24.004  1.00  0.00    -0.167 F 
ATOM     26  F   UNL A   1      30.965  24.013  25.373  1.00  0.00    -0.167 F 
ENDBRANCH  16  23
ENDBRANCH   4   6
ENDBRANCH   3   4
ENDBRANCH   2   3
ENDBRANCH   1   2
BRANCH   1  27
ATOM     27  O   UNL A   1      37.245  23.024  25.633  1.00  0.00    -0.458 OA
BRANCH  27  28
ATOM     28  C   UNL A   1      38.574  23.026  26.133  1.00  0.00     0.338 C 
ATOM     29  O   UNL A   1      39.285  21.977  26.050  1.00  0.00    -0.246 OA
BRANCH  28  30
ATOM     30  C   UNL A   1      39.146  24.283  26.768  1.00  0.00     0.060 A 
ATOM     31  C   UNL A   1      40.162  25.054  26.217  1.00  0.00     0.016 A 
ATOM     32  C   UNL A   1      38.724  24.580  27.979  1.00  0.00     0.016 A 
ATOM     33  C   UNL A   1      40.320  26.359  26.736  1.00  0.00     0.010 A 
ATOM     34  C   UNL A   1      39.292  25.638  28.697  1.00  0.00     0.010 A 
ATOM     35  C   UNL A   1      40.071  26.514  28.099  1.00  0.00    -0.014 A 
BRANCH  35  36
ATOM     36  C   UNL A   1      40.686  27.667  28.876  1.00  0.00     0.031 A 
ATOM     37  C   UNL A   1      41.941  27.548  29.476  1.00  0.00     0.074 A 
ATOM     38  C   UNL A   1      39.841  28.747  29.058  1.00  0.00     0.049 A 
ATOM     39  N   UNL A   1      42.548  28.429  30.273  1.00  0.00    -0.248 NA
ATOM     40  C   UNL A   1      42.827  26.386  29.313  1.00  0.00     0.031 C 
ATOM     41  C   UNL A   1      38.576  28.878  28.450  1.00  0.00     0.029 A 
ATOM     42  N   UNL A   1      40.051  29.864  29.835  1.00  0.00    -0.354 N 
ATOM     43  C   UNL A   1      43.748  27.971  30.636  1.00  0.00     0.074 A 
ATOM     44  C   UNL A   1      43.942  26.648  30.029  1.00  0.00     0.031 C 
ATOM     45  C   UNL A   1      38.030  30.051  28.863  1.00  0.00     0.029 A 
ATOM     46  C   UNL A   1      38.941  30.674  29.736  1.00  0.00     0.049 A 
ATOM     47  H   UNL A   1      40.856  30.052  30.370  1.00  0.00     0.167 HD
ATOM     48  C   UNL A   1      44.689  28.607  31.448  1.00  0.00     0.037 A 
ATOM     49  C   UNL A   1      38.716  31.888  30.366  1.00  0.00     0.037 A 
ATOM     50  C   UNL A   1      44.483  29.842  32.042  1.00  0.00     0.049 A 
ATOM     51  C   UNL A   1      39.634  32.497  31.226  1.00  0.00     0.074 A 
ATOM     52  C   UNL A   1      45.424  30.499  32.858  1.00  0.00     0.029 A 
ATOM     53  N   UNL A   1      43.363  30.639  31.963  1.00  0.00    -0.354 N 
ATOM     54  N   UNL A   1      40.850  32.058  31.556  1.00  0.00    -0.248 NA
ATOM     55  C   UNL A   1      39.395  33.767  31.923  1.00  0.00     0.031 C 
ATOM     56  C   UNL A   1      44.876  31.673  33.272  1.00  0.00     0.029 A 
ATOM     57  C   UNL A   1      43.582  31.766  32.723  1.00  0.00     0.049 A 
ATOM     58  H   UNL A   1      42.546  30.437  31.452  1.00  0.00     0.167 HD
ATOM     59  C   UNL A   1      41.440  32.920  32.387  1.00  0.00     0.074 A 
ATOM     60  C   UNL A   1      40.510  34.028  32.641  1.00  0.00     0.031 C 
ATOM     61  C   UNL A   1      42.718  32.828  32.940  1.00  0.00     0.037 A 
BRANCH  48  62
ATOM     62  C   UNL A   1      46.015  27.905  31.694  1.00  0.00     0.058 A 
ATOM     63  C   UNL A   1      47.118  28.164  30.906  1.00  0.00     0.135 A 
ATOM     64  C   UNL A   1      46.136  27.023  32.758  1.00  0.00     0.135 A 
ATOM     65  F   UNL A   1      47.012  29.009  29.883  1.00  0.00    -0.206 F 
ATOM     66  C   UNL A   1      48.281  27.582  31.155  1.00  0.00     0.059 A 
ATOM     67  C   UNL A   1      47.370  26.435  32.994  1.00  0.00     0.059 A 
ATOM     68  F   UNL A   1      45.091  26.747  33.534  1.00  0.00    -0.206 F 
ATOM     69  C   UNL A   1      48.431  26.741  32.164  1.00  0.00     0.060 A 
BRANCH  69  70
ATOM     70  S   UNL A   1      50.047  25.982  32.462  1.00  0.00     0.124 S 
ATOM     71  O   UNL A   1      51.149  27.018  32.222  1.00  0.00    -0.237 OA
ATOM     72  O   UNL A   1      50.120  25.486  33.908  1.00  0.00    -0.237 OA
ATOM     73  O   UNL A   1      50.264  24.663  31.395  1.00  0.00    -0.744 OA
ENDBRANCH  69  70
ENDBRANCH  48  62
BRANCH  49  74
ATOM     74  C   UNL A   1      37.398  32.597  30.107  1.00  0.00     0.058 A 
ATOM     75  C   UNL A   1      37.296  33.589  29.152  1.00  0.00     0.135 A 
ATOM     76  C   UNL A   1      36.286  32.277  30.871  1.00  0.00     0.135 A 
ATOM     77  F   UNL A   1      38.357  33.903  28.414  1.00  0.00    -0.206 F 
ATOM     78  C   UNL A   1      36.154  34.232  28.962  1.00  0.00     0.059 A 
ATOM     79  C   UNL A   1      35.103  32.966  30.642  1.00  0.00     0.059 A 
ATOM     80  F   UNL A   1      36.350  31.330  31.803  1.00  0.00    -0.206 F 
ATOM     81  C   UNL A   1      35.074  33.947  29.670  1.00  0.00     0.060 A 
BRANCH  81  82
ATOM     82  S   UNL A   1      33.537  34.852  29.359  1.00  0.00     0.124 S 
ATOM     83  O   UNL A   1      33.868  36.245  28.816  1.00  0.00    -0.237 OA
ATOM     84  O   UNL A   1      32.695  34.092  28.333  1.00  0.00    -0.237 OA
ATOM     85  O   UNL A   1      32.659  35.004  30.818  1.00  0.00    -0.744 OA
ENDBRANCH  81  82
ENDBRANCH  49  74
BRANCH  61  86
ATOM     86  C   UNL A   1      43.191  33.963  33.835  1.00  0.00     0.058 A 
ATOM     87  C   UNL A   1      42.929  34.029  35.188  1.00  0.00     0.135 A 
ATOM     88  C   UNL A   1      43.768  35.055  33.203  1.00  0.00     0.135 A 
ATOM     89  F   UNL A   1      42.376  32.986  35.802  1.00  0.00    -0.206 F 
ATOM     90  C   UNL A   1      43.221  35.117  35.882  1.00  0.00     0.059 A 
ATOM     91  C   UNL A   1      44.067  36.177  33.962  1.00  0.00     0.059 A 
ATOM     92  F   UNL A   1      44.030  35.027  31.900  1.00  0.00    -0.206 F 
ATOM     93  C   UNL A   1      43.775  36.174  35.312  1.00  0.00     0.060 A 
BRANCH  93  94
ATOM     94  S   UNL A   1      44.160  37.632  36.314  1.00  0.00     0.124 S 
ATOM     95  O   UNL A   1      45.626  37.580  36.748  1.00  0.00    -0.237 OA
ATOM     96  O   UNL A   1      43.916  38.897  35.487  1.00  0.00    -0.237 OA
ATOM     97  O   UNL A   1      43.155  37.653  37.698  1.00  0.00    -0.744 OA
ENDBRANCH  93  94
ENDBRANCH  61  86
ENDBRANCH  35  36
ENDBRANCH  28  30
ENDBRANCH  27  28
ENDBRANCH   1  27
TORSDOF 16
ENDMDL
