MODEL 1
REMARK VINA RESULT:     -12.9      0.000      0.000
REMARK SMILES Cc1c(Cl)cccc1NC(=O)NCc1cn([C@@H]2C[NH2+][C@H](C(=O)OCCOC(=O)c3ccc(-c4c5nc(c(-c6c(F)cc(S(=O)(=O)[O-])cc6F)c6ccc([nH]6)c(-c6c(F)cc(S(=O)(=O)[O-])cc6F)c6nc(c(-c7c(F)cc(S(=O)(=O)[O-])cc7F)c7ccc4[nH]7)C=C6)C=C5)cc3)C2)nn1
REMARK SMILES IDX 24 1 23 2 21 3 22 4 20 5 17 6 18 7 95 8 19 9 16 12 14 13
REMARK SMILES IDX 15 14 97 15 96 16 13 17 12 18 9 19 10 20 11 22 8 24 1 25
REMARK SMILES IDX 2 26 3 27 4 28 5 29 7 30 6 31 25 32 26 33 27 34 28 35 29 36
REMARK SMILES IDX 30 37 94 38 31 39 93 40 32 41 33 42 34 43 87 44 35 45 92 46
REMARK SMILES IDX 86 47 88 48 36 49 91 50 85 51 84 52 37 54 71 55 50 56 70 57
REMARK SMILES IDX 51 58 54 59 69 60 89 61 52 62 53 63 68 65 90 66 55 67 38 68
REMARK SMILES IDX 39 69 48 70 40 71 41 72 47 73 49 74 42 75 43 76 44 77 45 78
REMARK SMILES IDX 46 79 72 80 73 81 82 82 74 83 75 84 81 85 83 86 76 87 77 88
REMARK SMILES IDX 78 89 79 90 80 91 56 92 57 93 66 94 58 95 59 96 65 97 67 98
REMARK SMILES IDX 60 99 61 100 62 101 63 102 64 103
REMARK H PARENT 19 10 19 11 9 21 12 23 88 53 54 64
REMARK Flexibility Score: inf
ROOT
ATOM      1  C   UNL A   1      31.468  29.938  26.947  1.00  0.00     0.274 C 
ENDROOT
BRANCH   1   2
ATOM      2  O   UNL A   1      31.768  28.972  25.927  1.00  0.00    -0.458 OA
BRANCH   2   3
ATOM      3  C   UNL A   1      31.533  29.354  24.641  1.00  0.00     0.365 C 
ATOM      4  O   UNL A   1      30.463  29.809  24.244  1.00  0.00    -0.245 OA
BRANCH   3   5
ATOM      5  C   UNL A   1      32.784  29.250  23.745  1.00  0.00     0.295 C 
ATOM      6  C   UNL A   1      33.668  27.126  22.933  1.00  0.00     0.170 C 
ATOM      7  C   UNL A   1      34.176  27.448  24.335  1.00  0.00     0.289 C 
ATOM      8  C   UNL A   1      32.612  28.196  22.652  1.00  0.00     0.110 C 
ATOM      9  N   UNL A   1      34.013  28.889  24.492  1.00  0.00    -0.333 N 
ATOM     10  H   UNL A   1      34.819  29.380  24.105  1.00  0.00     0.347 HD
ATOM     11  H   UNL A   1      33.941  29.150  25.476  1.00  0.00     0.347 HD
BRANCH   6  12
ATOM     12  N   UNL A   1      33.146  25.781  22.856  1.00  0.00    -0.243 N 
ATOM     13  C   UNL A   1      31.962  24.006  23.181  1.00  0.00     0.102 A 
ATOM     14  C   UNL A   1      31.917  25.379  23.268  1.00  0.00     0.137 A 
ATOM     15  N   UNL A   1      33.165  23.631  22.651  1.00  0.00    -0.134 NA
ATOM     16  N   UNL A   1      33.889  24.735  22.455  1.00  0.00    -0.067 NA
BRANCH  13  17
ATOM     17  C   UNL A   1      30.880  23.124  23.649  1.00  0.00     0.178 C 
BRANCH  17  18
ATOM     18  N   UNL A   1      30.494  23.262  25.020  1.00  0.00    -0.332 N 
ATOM     19  N   UNL A   1      32.174  22.312  26.466  1.00  0.00    -0.308 N 
ATOM     20  C   UNL A   1      31.122  23.105  26.186  1.00  0.00     0.319 C 
ATOM     21  H   UNL A   1      32.460  22.422  27.402  1.00  0.00     0.171 HD
ATOM     22  O   UNL A   1      30.618  23.688  27.157  1.00  0.00    -0.248 OA
ATOM     23  H   UNL A   1      29.553  23.535  25.127  1.00  0.00     0.165 HD
BRANCH  19  24
ATOM     24  C   UNL A   1      32.980  21.370  25.797  1.00  0.00     0.047 A 
ATOM     25  C   UNL A   1      34.981  22.980  25.874  1.00  0.00     0.048 C 
ATOM     26  C   UNL A   1      34.358  21.633  25.600  1.00  0.00    -0.009 A 
ATOM     27  C   UNL A   1      35.171  20.606  25.063  1.00  0.00     0.046 A 
ATOM     28  Cl  UNL A   1      36.870  20.823  24.801  1.00  0.00    -0.084 Cl
ATOM     29  C   UNL A   1      34.635  19.371  24.700  1.00  0.00     0.021 A 
ATOM     30  C   UNL A   1      32.449  20.216  25.222  1.00  0.00     0.026 A 
ATOM     31  C   UNL A   1      33.262  19.190  24.743  1.00  0.00     0.004 A 
ENDBRANCH  19  24
ENDBRANCH  17  18
ENDBRANCH  13  17
ENDBRANCH   6  12
ENDBRANCH   3   5
ENDBRANCH   2   3
ENDBRANCH   1   2
BRANCH   1  32
ATOM     32  C   UNL A   1      32.398  31.139  26.825  1.00  0.00     0.275 C 
BRANCH  32  33
ATOM     33  O   UNL A   1      33.764  30.773  27.026  1.00  0.00    -0.458 OA
BRANCH  33  34
ATOM     34  C   UNL A   1      34.424  31.531  27.933  1.00  0.00     0.338 C 
ATOM     35  O   UNL A   1      33.982  32.463  28.575  1.00  0.00    -0.246 OA
BRANCH  34  36
ATOM     36  C   UNL A   1      35.848  31.180  27.924  1.00  0.00     0.060 A 
ATOM     37  C   UNL A   1      36.196  29.859  27.627  1.00  0.00     0.016 A 
ATOM     38  C   UNL A   1      36.782  32.095  28.425  1.00  0.00     0.016 A 
ATOM     39  C   UNL A   1      37.469  29.420  27.938  1.00  0.00     0.010 A 
ATOM     40  C   UNL A   1      38.047  31.654  28.742  1.00  0.00     0.010 A 
ATOM     41  C   UNL A   1      38.361  30.310  28.545  1.00  0.00    -0.014 A 
BRANCH  41  42
ATOM     42  C   UNL A   1      39.686  29.829  28.893  1.00  0.00     0.031 A 
ATOM     43  C   UNL A   1      39.974  29.843  30.346  1.00  0.00     0.074 A 
ATOM     44  C   UNL A   1      40.501  29.258  27.987  1.00  0.00     0.049 A 
ATOM     45  N   UNL A   1      40.904  30.483  30.974  1.00  0.00    -0.248 NA
ATOM     46  C   UNL A   1      39.024  29.143  31.228  1.00  0.00     0.031 C 
ATOM     47  C   UNL A   1      40.189  28.928  26.593  1.00  0.00     0.029 A 
ATOM     48  N   UNL A   1      41.749  28.742  28.158  1.00  0.00    -0.354 N 
ATOM     49  C   UNL A   1      40.793  30.086  32.302  1.00  0.00     0.074 A 
ATOM     50  C   UNL A   1      39.529  29.410  32.431  1.00  0.00     0.031 C 
ATOM     51  C   UNL A   1      41.129  28.083  26.116  1.00  0.00     0.029 A 
ATOM     52  C   UNL A   1      42.167  27.922  27.120  1.00  0.00     0.049 A 
ATOM     53  H   UNL A   1      42.305  28.932  28.948  1.00  0.00     0.167 HD
ATOM     54  C   UNL A   1      41.862  30.107  33.143  1.00  0.00     0.037 A 
ATOM     55  C   UNL A   1      43.257  27.115  27.111  1.00  0.00     0.037 A 
ATOM     56  C   UNL A   1      42.912  30.954  32.648  1.00  0.00     0.049 A 
ATOM     57  C   UNL A   1      44.194  27.624  28.143  1.00  0.00     0.074 A 
ATOM     58  C   UNL A   1      43.038  32.303  32.383  1.00  0.00     0.029 A 
ATOM     59  N   UNL A   1      43.951  30.332  32.003  1.00  0.00    -0.354 N 
ATOM     60  N   UNL A   1      44.795  28.780  28.076  1.00  0.00    -0.248 NA
ATOM     61  C   UNL A   1      44.200  27.001  29.459  1.00  0.00     0.031 C 
ATOM     62  C   UNL A   1      43.927  32.392  31.272  1.00  0.00     0.029 A 
ATOM     63  C   UNL A   1      44.327  31.099  30.929  1.00  0.00     0.049 A 
ATOM     64  H   UNL A   1      44.360  29.476  32.268  1.00  0.00     0.167 HD
ATOM     65  C   UNL A   1      44.874  29.216  29.388  1.00  0.00     0.074 A 
ATOM     66  C   UNL A   1      44.642  28.024  30.194  1.00  0.00     0.031 C 
ATOM     67  C   UNL A   1      44.835  30.548  29.688  1.00  0.00     0.037 A 
BRANCH  54  68
ATOM     68  C   UNL A   1      42.095  29.053  34.197  1.00  0.00     0.058 A 
ATOM     69  C   UNL A   1      42.278  27.709  33.817  1.00  0.00     0.135 A 
ATOM     70  C   UNL A   1      41.870  29.274  35.575  1.00  0.00     0.135 A 
ATOM     71  F   UNL A   1      42.463  27.384  32.528  1.00  0.00    -0.206 F 
ATOM     72  C   UNL A   1      42.203  26.660  34.736  1.00  0.00     0.059 A 
ATOM     73  C   UNL A   1      41.850  28.251  36.514  1.00  0.00     0.059 A 
ATOM     74  F   UNL A   1      41.559  30.483  36.061  1.00  0.00    -0.206 F 
ATOM     75  C   UNL A   1      41.979  26.943  36.081  1.00  0.00     0.060 A 
BRANCH  75  76
ATOM     76  S   UNL A   1      41.783  25.593  37.257  1.00  0.00     0.124 S 
ATOM     77  O   UNL A   1      42.816  25.910  38.236  1.00  0.00    -0.237 OA
ATOM     78  O   UNL A   1      40.404  25.771  37.698  1.00  0.00    -0.237 OA
ATOM     79  O   UNL A   1      42.025  24.404  36.444  1.00  0.00    -0.744 OA
ENDBRANCH  75  76
ENDBRANCH  54  68
BRANCH  55  80
ATOM     80  C   UNL A   1      43.394  25.782  26.473  1.00  0.00     0.058 A 
ATOM     81  C   UNL A   1      44.340  25.547  25.462  1.00  0.00     0.135 A 
ATOM     82  C   UNL A   1      42.779  24.641  27.028  1.00  0.00     0.135 A 
ATOM     83  F   UNL A   1      44.994  26.574  24.897  1.00  0.00    -0.206 F 
ATOM     84  C   UNL A   1      44.686  24.254  25.052  1.00  0.00     0.059 A 
ATOM     85  C   UNL A   1      43.098  23.345  26.627  1.00  0.00     0.059 A 
ATOM     86  F   UNL A   1      41.913  24.745  28.047  1.00  0.00    -0.206 F 
ATOM     87  C   UNL A   1      44.071  23.158  25.654  1.00  0.00     0.060 A 
BRANCH  87  88
ATOM     88  S   UNL A   1      44.630  21.488  25.250  1.00  0.00     0.124 S 
ATOM     89  O   UNL A   1      44.540  21.485  23.793  1.00  0.00    -0.237 OA
ATOM     90  O   UNL A   1      45.978  21.470  25.806  1.00  0.00    -0.237 OA
ATOM     91  O   UNL A   1      43.665  20.631  25.935  1.00  0.00    -0.744 OA
ENDBRANCH  87  88
ENDBRANCH  55  80
BRANCH  67  92
ATOM     92  C   UNL A   1      45.130  31.519  28.572  1.00  0.00     0.058 A 
ATOM     93  C   UNL A   1      44.187  31.953  27.624  1.00  0.00     0.135 A 
ATOM     94  C   UNL A   1      46.397  32.121  28.534  1.00  0.00     0.135 A 
ATOM     95  F   UNL A   1      42.926  31.506  27.652  1.00  0.00    -0.206 F 
ATOM     96  C   UNL A   1      44.504  32.903  26.652  1.00  0.00     0.059 A 
ATOM     97  C   UNL A   1      46.725  33.097  27.595  1.00  0.00     0.059 A 
ATOM     98  F   UNL A   1      47.324  31.796  29.451  1.00  0.00    -0.206 F 
ATOM     99  C   UNL A   1      45.778  33.472  26.646  1.00  0.00     0.060 A 
BRANCH  99 100
ATOM    100  S   UNL A   1      46.159  34.761  25.440  1.00  0.00     0.124 S 
ATOM    101  O   UNL A   1      45.283  34.409  24.328  1.00  0.00    -0.237 OA
ATOM    102  O   UNL A   1      45.811  35.984  26.158  1.00  0.00    -0.237 OA
ATOM    103  O   UNL A   1      47.587  34.582  25.190  1.00  0.00    -0.744 OA
ENDBRANCH  99 100
ENDBRANCH  67  92
ENDBRANCH  41  42
ENDBRANCH  34  36
ENDBRANCH  33  34
ENDBRANCH  32  33
ENDBRANCH   1  32
TORSDOF 18
ENDMDL
MODEL 2
REMARK VINA RESULT:     -12.7      2.808      9.468
REMARK SMILES Cc1c(Cl)cccc1NC(=O)NCc1cn([C@@H]2C[NH2+][C@H](C(=O)OCCOC(=O)c3ccc(-c4c5nc(c(-c6c(F)cc(S(=O)(=O)[O-])cc6F)c6ccc([nH]6)c(-c6c(F)cc(S(=O)(=O)[O-])cc6F)c6nc(c(-c7c(F)cc(S(=O)(=O)[O-])cc7F)c7ccc4[nH]7)C=C6)C=C5)cc3)C2)nn1
REMARK SMILES IDX 24 1 23 2 21 3 22 4 20 5 17 6 18 7 95 8 19 9 16 12 14 13
REMARK SMILES IDX 15 14 97 15 96 16 13 17 12 18 9 19 10 20 11 22 8 24 1 25
REMARK SMILES IDX 2 26 3 27 4 28 5 29 7 30 6 31 25 32 26 33 27 34 28 35 29 36
REMARK SMILES IDX 30 37 94 38 31 39 93 40 32 41 33 42 34 43 87 44 35 45 92 46
REMARK SMILES IDX 86 47 88 48 36 49 91 50 85 51 84 52 37 54 71 55 50 56 70 57
REMARK SMILES IDX 51 58 54 59 69 60 89 61 52 62 53 63 68 65 90 66 55 67 38 68
REMARK SMILES IDX 39 69 48 70 40 71 41 72 47 73 49 74 42 75 43 76 44 77 45 78
REMARK SMILES IDX 46 79 72 80 73 81 82 82 74 83 75 84 81 85 83 86 76 87 77 88
REMARK SMILES IDX 78 89 79 90 80 91 56 92 57 93 66 94 58 95 59 96 65 97 67 98
REMARK SMILES IDX 60 99 61 100 62 101 63 102 64 103
REMARK H PARENT 19 10 19 11 9 21 12 23 88 53 54 64
REMARK Flexibility Score: inf
ROOT
ATOM      1  C   UNL A   1      36.436  21.134  25.374  1.00  0.00     0.274 C 
ENDROOT
BRANCH   1   2
ATOM      2  O   UNL A   1      35.840  22.027  26.328  1.00  0.00    -0.458 OA
BRANCH   2   3
ATOM      3  C   UNL A   1      34.525  21.817  26.617  1.00  0.00     0.365 C 
ATOM      4  O   UNL A   1      34.073  21.757  27.758  1.00  0.00    -0.245 OA
BRANCH   3   5
ATOM      5  C   UNL A   1      33.636  21.756  25.358  1.00  0.00     0.295 C 
ATOM      6  C   UNL A   1      31.871  23.376  24.895  1.00  0.00     0.170 C 
ATOM      7  C   UNL A   1      31.384  22.259  25.812  1.00  0.00     0.289 C 
ATOM      8  C   UNL A   1      33.379  23.147  24.778  1.00  0.00     0.110 C 
ATOM      9  N   UNL A   1      32.306  21.149  25.607  1.00  0.00    -0.333 N 
ATOM     10  H   UNL A   1      32.016  20.592  24.803  1.00  0.00     0.347 HD
ATOM     11  H   UNL A   1      32.327  20.527  26.416  1.00  0.00     0.347 HD
BRANCH   6  12
ATOM     12  N   UNL A   1      31.536  24.678  25.421  1.00  0.00    -0.243 N 
ATOM     13  C   UNL A   1      31.568  26.518  26.550  1.00  0.00     0.102 A 
ATOM     14  C   UNL A   1      32.382  25.517  26.072  1.00  0.00     0.137 A 
ATOM     15  N   UNL A   1      30.290  26.302  26.112  1.00  0.00    -0.134 NA
ATOM     16  N   UNL A   1      30.282  25.163  25.417  1.00  0.00    -0.067 NA
BRANCH  13  17
ATOM     17  C   UNL A   1      32.037  27.598  27.433  1.00  0.00     0.178 C 
BRANCH  17  18
ATOM     18  N   UNL A   1      33.340  28.125  27.159  1.00  0.00    -0.332 N 
ATOM     19  N   UNL A   1      33.351  29.280  25.042  1.00  0.00    -0.308 N 
ATOM     20  C   UNL A   1      33.828  28.987  26.267  1.00  0.00     0.319 C 
ATOM     21  H   UNL A   1      33.887  29.984  24.612  1.00  0.00     0.171 HD
ATOM     22  O   UNL A   1      34.909  29.518  26.560  1.00  0.00    -0.248 OA
ATOM     23  H   UNL A   1      34.031  27.770  27.765  1.00  0.00     0.165 HD
BRANCH  19  24
ATOM     24  C   UNL A   1      32.299  28.860  24.203  1.00  0.00     0.047 A 
ATOM     25  C   UNL A   1      33.898  27.313  22.919  1.00  0.00     0.048 C 
ATOM     26  C   UNL A   1      32.522  27.838  23.248  1.00  0.00    -0.009 A 
ATOM     27  C   UNL A   1      31.412  27.333  22.529  1.00  0.00     0.046 A 
ATOM     28  Cl  UNL A   1      31.578  26.071  21.353  1.00  0.00    -0.084 Cl
ATOM     29  C   UNL A   1      30.129  27.844  22.720  1.00  0.00     0.021 A 
ATOM     30  C   UNL A   1      31.055  29.490  24.204  1.00  0.00     0.026 A 
ATOM     31  C   UNL A   1      29.957  28.954  23.531  1.00  0.00     0.004 A 
ENDBRANCH  19  24
ENDBRANCH  17  18
ENDBRANCH  13  17
ENDBRANCH   6  12
ENDBRANCH   3   5
ENDBRANCH   2   3
ENDBRANCH   1   2
BRANCH   1  32
ATOM     32  C   UNL A   1      37.937  21.383  25.286  1.00  0.00     0.275 C 
BRANCH  32  33
ATOM     33  O   UNL A   1      38.319  22.563  25.996  1.00  0.00    -0.458 OA
BRANCH  33  34
ATOM     34  C   UNL A   1      39.473  22.453  26.694  1.00  0.00     0.338 C 
ATOM     35  O   UNL A   1      39.992  21.433  27.103  1.00  0.00    -0.246 OA
BRANCH  34  36
ATOM     36  C   UNL A   1      39.957  23.788  27.058  1.00  0.00     0.060 A 
ATOM     37  C   UNL A   1      41.164  23.878  27.759  1.00  0.00     0.016 A 
ATOM     38  C   UNL A   1      39.109  24.891  26.903  1.00  0.00     0.016 A 
ATOM     39  C   UNL A   1      41.472  25.062  28.403  1.00  0.00     0.010 A 
ATOM     40  C   UNL A   1      39.413  26.066  27.552  1.00  0.00     0.010 A 
ATOM     41  C   UNL A   1      40.563  26.123  28.339  1.00  0.00    -0.014 A 
BRANCH  41  42
ATOM     42  C   UNL A   1      40.884  27.351  29.043  1.00  0.00     0.031 A 
ATOM     43  C   UNL A   1      42.062  28.070  28.502  1.00  0.00     0.074 A 
ATOM     44  C   UNL A   1      40.074  27.871  29.983  1.00  0.00     0.049 A 
ATOM     45  N   UNL A   1      43.166  28.366  29.103  1.00  0.00    -0.248 NA
ATOM     46  C   UNL A   1      42.053  28.394  27.065  1.00  0.00     0.031 C 
ATOM     47  C   UNL A   1      38.743  27.394  30.372  1.00  0.00     0.029 A 
ATOM     48  N   UNL A   1      40.221  29.013  30.709  1.00  0.00    -0.354 N 
ATOM     49  C   UNL A   1      43.897  29.113  28.185  1.00  0.00     0.074 A 
ATOM     50  C   UNL A   1      43.252  28.951  26.909  1.00  0.00     0.031 C 
ATOM     51  C   UNL A   1      38.123  28.351  31.096  1.00  0.00     0.029 A 
ATOM     52  C   UNL A   1      39.055  29.442  31.328  1.00  0.00     0.049 A 
ATOM     53  H   UNL A   1      41.077  29.494  30.787  1.00  0.00     0.167 HD
ATOM     54  C   UNL A   1      44.824  30.024  28.585  1.00  0.00     0.037 A 
ATOM     55  C   UNL A   1      38.850  30.637  31.932  1.00  0.00     0.037 A 
ATOM     56  C   UNL A   1      45.241  29.798  29.943  1.00  0.00     0.049 A 
ATOM     57  C   UNL A   1      40.180  31.192  32.283  1.00  0.00     0.074 A 
ATOM     58  C   UNL A   1      45.888  28.779  30.610  1.00  0.00     0.029 A 
ATOM     59  N   UNL A   1      44.655  30.583  30.904  1.00  0.00    -0.354 N 
ATOM     60  N   UNL A   1      40.986  30.657  33.158  1.00  0.00    -0.248 NA
ATOM     61  C   UNL A   1      40.796  32.165  31.391  1.00  0.00     0.031 C 
ATOM     62  C   UNL A   1      45.341  28.777  31.927  1.00  0.00     0.029 A 
ATOM     63  C   UNL A   1      44.408  29.812  32.012  1.00  0.00     0.049 A 
ATOM     64  H   UNL A   1      44.446  31.541  30.812  1.00  0.00     0.167 HD
ATOM     65  C   UNL A   1      42.258  30.894  32.662  1.00  0.00     0.074 A 
ATOM     66  C   UNL A   1      42.083  31.950  31.674  1.00  0.00     0.031 C 
ATOM     67  C   UNL A   1      43.277  30.016  32.895  1.00  0.00     0.037 A 
BRANCH  54  68
ATOM     68  C   UNL A   1      45.042  31.336  27.875  1.00  0.00     0.058 A 
ATOM     69  C   UNL A   1      46.280  31.604  27.258  1.00  0.00     0.135 A 
ATOM     70  C   UNL A   1      44.177  32.446  28.017  1.00  0.00     0.135 A 
ATOM     71  F   UNL A   1      47.191  30.629  27.106  1.00  0.00    -0.206 F 
ATOM     72  C   UNL A   1      46.645  32.889  26.850  1.00  0.00     0.059 A 
ATOM     73  C   UNL A   1      44.496  33.719  27.565  1.00  0.00     0.059 A 
ATOM     74  F   UNL A   1      43.022  32.367  28.692  1.00  0.00    -0.206 F 
ATOM     75  C   UNL A   1      45.747  33.941  27.017  1.00  0.00     0.060 A 
BRANCH  75  76
ATOM     76  S   UNL A   1      46.245  35.616  26.584  1.00  0.00     0.124 S 
ATOM     77  O   UNL A   1      47.092  35.969  27.718  1.00  0.00    -0.237 OA
ATOM     78  O   UNL A   1      46.929  35.411  25.312  1.00  0.00    -0.237 OA
ATOM     79  O   UNL A   1      44.975  36.331  26.496  1.00  0.00    -0.744 OA
ENDBRANCH  75  76
ENDBRANCH  54  68
BRANCH  55  80
ATOM     80  C   UNL A   1      37.602  31.440  31.956  1.00  0.00     0.058 A 
ATOM     81  C   UNL A   1      36.980  31.795  33.165  1.00  0.00     0.135 A 
ATOM     82  C   UNL A   1      37.137  32.101  30.800  1.00  0.00     0.135 A 
ATOM     83  F   UNL A   1      37.377  31.236  34.318  1.00  0.00    -0.206 F 
ATOM     84  C   UNL A   1      35.983  32.776  33.229  1.00  0.00     0.059 A 
ATOM     85  C   UNL A   1      36.139  33.071  30.838  1.00  0.00     0.059 A 
ATOM     86  F   UNL A   1      37.707  31.890  29.603  1.00  0.00    -0.206 F 
ATOM     87  C   UNL A   1      35.582  33.422  32.061  1.00  0.00     0.060 A 
BRANCH  87  88
ATOM     88  S   UNL A   1      34.419  34.802  32.160  1.00  0.00     0.124 S 
ATOM     89  O   UNL A   1      33.286  34.192  32.847  1.00  0.00    -0.237 OA
ATOM     90  O   UNL A   1      35.174  35.788  32.924  1.00  0.00    -0.237 OA
ATOM     91  O   UNL A   1      34.185  35.149  30.759  1.00  0.00    -0.744 OA
ENDBRANCH  87  88
ENDBRANCH  55  80
BRANCH  67  92
ATOM     92  C   UNL A   1      43.102  29.035  34.028  1.00  0.00     0.058 A 
ATOM     93  C   UNL A   1      43.320  29.336  35.384  1.00  0.00     0.135 A 
ATOM     94  C   UNL A   1      42.580  27.766  33.733  1.00  0.00     0.135 A 
ATOM     95  F   UNL A   1      43.720  30.556  35.763  1.00  0.00    -0.206 F 
ATOM     96  C   UNL A   1      43.080  28.403  36.394  1.00  0.00     0.059 A 
ATOM     97  C   UNL A   1      42.300  26.831  34.727  1.00  0.00     0.059 A 
ATOM     98  F   UNL A   1      42.291  27.437  32.463  1.00  0.00    -0.206 F 
ATOM     99  C   UNL A   1      42.567  27.151  36.055  1.00  0.00     0.060 A 
BRANCH  99 100
ATOM    100  S   UNL A   1      42.179  25.976  37.370  1.00  0.00     0.124 S 
ATOM    101  O   UNL A   1      40.758  26.220  37.591  1.00  0.00    -0.237 OA
ATOM    102  O   UNL A   1      42.514  24.692  36.761  1.00  0.00    -0.237 OA
ATOM    103  O   UNL A   1      43.059  26.384  38.463  1.00  0.00    -0.744 OA
ENDBRANCH  99 100
ENDBRANCH  67  92
ENDBRANCH  41  42
ENDBRANCH  34  36
ENDBRANCH  33  34
ENDBRANCH  32  33
ENDBRANCH   1  32
TORSDOF 18
ENDMDL
MODEL 3
REMARK VINA RESULT:     -12.7      1.287      1.957
REMARK SMILES Cc1c(Cl)cccc1NC(=O)NCc1cn([C@@H]2C[NH2+][C@H](C(=O)OCCOC(=O)c3ccc(-c4c5nc(c(-c6c(F)cc(S(=O)(=O)[O-])cc6F)c6ccc([nH]6)c(-c6c(F)cc(S(=O)(=O)[O-])cc6F)c6nc(c(-c7c(F)cc(S(=O)(=O)[O-])cc7F)c7ccc4[nH]7)C=C6)C=C5)cc3)C2)nn1
REMARK SMILES IDX 24 1 23 2 21 3 22 4 20 5 17 6 18 7 95 8 19 9 16 12 14 13
REMARK SMILES IDX 15 14 97 15 96 16 13 17 12 18 9 19 10 20 11 22 8 24 1 25
REMARK SMILES IDX 2 26 3 27 4 28 5 29 7 30 6 31 25 32 26 33 27 34 28 35 29 36
REMARK SMILES IDX 30 37 94 38 31 39 93 40 32 41 33 42 34 43 87 44 35 45 92 46
REMARK SMILES IDX 86 47 88 48 36 49 91 50 85 51 84 52 37 54 71 55 50 56 70 57
REMARK SMILES IDX 51 58 54 59 69 60 89 61 52 62 53 63 68 65 90 66 55 67 38 68
REMARK SMILES IDX 39 69 48 70 40 71 41 72 47 73 49 74 42 75 43 76 44 77 45 78
REMARK SMILES IDX 46 79 72 80 73 81 82 82 74 83 75 84 81 85 83 86 76 87 77 88
REMARK SMILES IDX 78 89 79 90 80 91 56 92 57 93 66 94 58 95 59 96 65 97 67 98
REMARK SMILES IDX 60 99 61 100 62 101 63 102 64 103
REMARK H PARENT 19 10 19 11 9 21 12 23 88 53 54 64
REMARK Flexibility Score: inf
ROOT
ATOM      1  C   UNL A   1      31.910  29.810  27.219  1.00  0.00     0.274 C 
ENDROOT
BRANCH   1   2
ATOM      2  O   UNL A   1      32.739  28.640  27.314  1.00  0.00    -0.458 OA
BRANCH   2   3
ATOM      3  C   UNL A   1      32.779  27.834  26.216  1.00  0.00     0.365 C 
ATOM      4  O   UNL A   1      32.994  26.625  26.259  1.00  0.00    -0.245 OA
BRANCH   3   5
ATOM      5  C   UNL A   1      32.431  28.579  24.911  1.00  0.00     0.295 C 
ATOM      6  C   UNL A   1      32.666  27.575  22.701  1.00  0.00     0.170 C 
ATOM      7  C   UNL A   1      33.982  28.171  23.191  1.00  0.00     0.289 C 
ATOM      8  C   UNL A   1      31.730  27.665  23.907  1.00  0.00     0.110 C 
ATOM      9  N   UNL A   1      33.618  29.138  24.220  1.00  0.00    -0.333 N 
ATOM     10  H   UNL A   1      33.388  30.037  23.795  1.00  0.00     0.347 HD
ATOM     11  H   UNL A   1      34.387  29.298  24.871  1.00  0.00     0.347 HD
BRANCH   6  12
ATOM     12  N   UNL A   1      32.844  26.224  22.222  1.00  0.00    -0.243 N 
ATOM     13  C   UNL A   1      33.348  24.129  22.097  1.00  0.00     0.102 A 
ATOM     14  C   UNL A   1      33.030  25.123  22.993  1.00  0.00     0.137 A 
ATOM     15  N   UNL A   1      33.267  24.630  20.827  1.00  0.00    -0.134 NA
ATOM     16  N   UNL A   1      32.956  25.925  20.916  1.00  0.00    -0.067 NA
BRANCH  13  17
ATOM     17  C   UNL A   1      33.758  22.772  22.495  1.00  0.00     0.178 C 
BRANCH  17  18
ATOM     18  N   UNL A   1      32.857  22.060  23.350  1.00  0.00    -0.332 N 
ATOM     19  N   UNL A   1      33.917  21.556  25.457  1.00  0.00    -0.308 N 
ATOM     20  C   UNL A   1      32.859  21.735  24.643  1.00  0.00     0.319 C 
ATOM     21  H   UNL A   1      33.627  21.359  26.376  1.00  0.00     0.171 HD
ATOM     22  O   UNL A   1      31.754  21.472  25.138  1.00  0.00    -0.248 OA
ATOM     23  H   UNL A   1      32.056  21.738  22.876  1.00  0.00     0.165 HD
BRANCH  19  24
ATOM     24  C   UNL A   1      35.323  21.572  25.361  1.00  0.00     0.047 A 
ATOM     25  C   UNL A   1      35.358  24.097  25.832  1.00  0.00     0.048 C 
ATOM     26  C   UNL A   1      36.036  22.762  25.644  1.00  0.00    -0.009 A 
ATOM     27  C   UNL A   1      37.450  22.708  25.689  1.00  0.00     0.046 A 
ATOM     28  Cl  UNL A   1      38.412  24.104  26.044  1.00  0.00    -0.084 Cl
ATOM     29  C   UNL A   1      38.139  21.523  25.430  1.00  0.00     0.021 A 
ATOM     30  C   UNL A   1      36.046  20.475  24.894  1.00  0.00     0.026 A 
ATOM     31  C   UNL A   1      37.436  20.413  24.991  1.00  0.00     0.004 A 
ENDBRANCH  19  24
ENDBRANCH  17  18
ENDBRANCH  13  17
ENDBRANCH   6  12
ENDBRANCH   3   5
ENDBRANCH   2   3
ENDBRANCH   1   2
BRANCH   1  32
ATOM     32  C   UNL A   1      32.769  31.067  27.239  1.00  0.00     0.275 C 
BRANCH  32  33
ATOM     33  O   UNL A   1      34.161  30.755  27.333  1.00  0.00    -0.458 OA
BRANCH  33  34
ATOM     34  C   UNL A   1      34.918  31.719  27.907  1.00  0.00     0.338 C 
ATOM     35  O   UNL A   1      34.750  32.921  27.848  1.00  0.00    -0.246 OA
BRANCH  34  36
ATOM     36  C   UNL A   1      36.117  31.116  28.497  1.00  0.00     0.060 A 
ATOM     37  C   UNL A   1      37.089  31.972  29.025  1.00  0.00     0.016 A 
ATOM     38  C   UNL A   1      36.358  29.748  28.315  1.00  0.00     0.016 A 
ATOM     39  C   UNL A   1      38.353  31.471  29.272  1.00  0.00     0.010 A 
ATOM     40  C   UNL A   1      37.620  29.253  28.553  1.00  0.00     0.010 A 
ATOM     41  C   UNL A   1      38.619  30.129  28.978  1.00  0.00    -0.014 A 
BRANCH  41  42
ATOM     42  C   UNL A   1      39.957  29.622  29.215  1.00  0.00     0.031 A 
ATOM     43  C   UNL A   1      40.335  29.554  30.647  1.00  0.00     0.074 A 
ATOM     44  C   UNL A   1      40.710  29.097  28.231  1.00  0.00     0.049 A 
ATOM     45  N   UNL A   1      41.308  30.153  31.249  1.00  0.00    -0.248 NA
ATOM     46  C   UNL A   1      39.435  28.812  31.547  1.00  0.00     0.031 C 
ATOM     47  C   UNL A   1      40.308  28.846  26.843  1.00  0.00     0.029 A 
ATOM     48  N   UNL A   1      41.961  28.564  28.295  1.00  0.00    -0.354 N 
ATOM     49  C   UNL A   1      41.276  29.684  32.558  1.00  0.00     0.074 A 
ATOM     50  C   UNL A   1      40.016  29.009  32.729  1.00  0.00     0.031 C 
ATOM     51  C   UNL A   1      41.209  28.023  26.262  1.00  0.00     0.029 A 
ATOM     52  C   UNL A   1      42.306  27.800  27.190  1.00  0.00     0.049 A 
ATOM     53  H   UNL A   1      42.566  28.707  29.059  1.00  0.00     0.167 HD
ATOM     54  C   UNL A   1      42.395  29.652  33.331  1.00  0.00     0.037 A 
ATOM     55  C   UNL A   1      43.385  26.989  27.069  1.00  0.00     0.037 A 
ATOM     56  C   UNL A   1      43.421  30.519  32.818  1.00  0.00     0.049 A 
ATOM     57  C   UNL A   1      44.389  27.434  28.066  1.00  0.00     0.074 A 
ATOM     58  C   UNL A   1      43.543  31.879  32.620  1.00  0.00     0.029 A 
ATOM     59  N   UNL A   1      44.412  29.927  32.077  1.00  0.00    -0.354 N 
ATOM     60  N   UNL A   1      44.996  28.589  28.025  1.00  0.00    -0.248 NA
ATOM     61  C   UNL A   1      44.471  26.739  29.343  1.00  0.00     0.031 C 
ATOM     62  C   UNL A   1      44.363  32.024  31.462  1.00  0.00     0.029 A 
ATOM     63  C   UNL A   1      44.728  30.749  31.025  1.00  0.00     0.049 A 
ATOM     64  H   UNL A   1      44.828  29.055  32.269  1.00  0.00     0.167 HD
ATOM     65  C   UNL A   1      45.160  28.951  29.352  1.00  0.00     0.074 A 
ATOM     66  C   UNL A   1      44.967  27.718  30.104  1.00  0.00     0.031 C 
ATOM     67  C   UNL A   1      45.153  30.264  29.726  1.00  0.00     0.037 A 
BRANCH  54  68
ATOM     68  C   UNL A   1      42.683  28.540  34.308  1.00  0.00     0.058 A 
ATOM     69  C   UNL A   1      42.834  28.830  35.678  1.00  0.00     0.135 A 
ATOM     70  C   UNL A   1      43.089  27.245  33.909  1.00  0.00     0.135 A 
ATOM     71  F   UNL A   1      42.512  30.043  36.157  1.00  0.00    -0.206 F 
ATOM     72  C   UNL A   1      43.385  27.914  36.577  1.00  0.00     0.059 A 
ATOM     73  C   UNL A   1      43.584  26.299  34.796  1.00  0.00     0.059 A 
ATOM     74  F   UNL A   1      43.118  26.872  32.623  1.00  0.00    -0.206 F 
ATOM     75  C   UNL A   1      43.765  26.653  36.122  1.00  0.00     0.060 A 
BRANCH  75  76
ATOM     76  S   UNL A   1      44.565  25.501  37.251  1.00  0.00     0.124 S 
ATOM     77  O   UNL A   1      45.973  25.723  36.941  1.00  0.00    -0.237 OA
ATOM     78  O   UNL A   1      44.111  25.983  38.550  1.00  0.00    -0.237 OA
ATOM     79  O   UNL A   1      44.024  24.206  36.846  1.00  0.00    -0.744 OA
ENDBRANCH  75  76
ENDBRANCH  54  68
BRANCH  55  80
ATOM     80  C   UNL A   1      43.470  25.693  26.352  1.00  0.00     0.058 A 
ATOM     81  C   UNL A   1      44.424  25.473  25.344  1.00  0.00     0.135 A 
ATOM     82  C   UNL A   1      42.789  24.551  26.824  1.00  0.00     0.135 A 
ATOM     83  F   UNL A   1      45.138  26.498  24.855  1.00  0.00    -0.206 F 
ATOM     84  C   UNL A   1      44.714  24.191  24.860  1.00  0.00     0.059 A 
ATOM     85  C   UNL A   1      43.052  23.268  26.349  1.00  0.00     0.059 A 
ATOM     86  F   UNL A   1      41.909  24.636  27.833  1.00  0.00    -0.206 F 
ATOM     87  C   UNL A   1      44.034  23.093  25.383  1.00  0.00     0.060 A 
BRANCH  87  88
ATOM     88  S   UNL A   1      44.519  21.425  24.884  1.00  0.00     0.124 S 
ATOM     89  O   UNL A   1      43.429  20.620  25.425  1.00  0.00    -0.237 OA
ATOM     90  O   UNL A   1      44.570  21.539  23.432  1.00  0.00    -0.237 OA
ATOM     91  O   UNL A   1      45.814  21.238  25.538  1.00  0.00    -0.744 OA
ENDBRANCH  87  88
ENDBRANCH  55  80
BRANCH  67  92
ATOM     92  C   UNL A   1      45.388  31.294  28.649  1.00  0.00     0.058 A 
ATOM     93  C   UNL A   1      44.382  31.826  27.823  1.00  0.00     0.135 A 
ATOM     94  C   UNL A   1      46.672  31.847  28.527  1.00  0.00     0.135 A 
ATOM     95  F   UNL A   1      43.109  31.428  27.943  1.00  0.00    -0.206 F 
ATOM     96  C   UNL A   1      44.650  32.824  26.885  1.00  0.00     0.059 A 
ATOM     97  C   UNL A   1      46.955  32.868  27.623  1.00  0.00     0.059 A 
ATOM     98  F   UNL A   1      47.663  31.426  29.330  1.00  0.00    -0.206 F 
ATOM     99  C   UNL A   1      45.943  33.341  26.793  1.00  0.00     0.060 A 
BRANCH  99 100
ATOM    100  S   UNL A   1      46.269  34.690  25.637  1.00  0.00     0.124 S 
ATOM    101  O   UNL A   1      45.983  35.867  26.450  1.00  0.00    -0.237 OA
ATOM    102  O   UNL A   1      47.673  34.483  25.293  1.00  0.00    -0.237 OA
ATOM    103  O   UNL A   1      45.327  34.440  24.548  1.00  0.00    -0.744 OA
ENDBRANCH  99 100
ENDBRANCH  67  92
ENDBRANCH  41  42
ENDBRANCH  34  36
ENDBRANCH  33  34
ENDBRANCH  32  33
ENDBRANCH   1  32
TORSDOF 18
ENDMDL
