MODEL 1
REMARK VINA RESULT:     -12.1      0.000      0.000
REMARK SMILES Cc1cccc(O[C@@H](C)C(=O)N2CC[C@@H](C(=O)OCCOC(=O)c3ccc(-c4c5nc(c(-c6c(F)cc(S(=O)(=O)[O-])cc6F)c6ccc([nH]6)c(-c6c(F)cc(S(=O)(=O)[O-])cc6F)c6nc(c(-c7c(F)cc(S(=O)(=O)[O-])cc7F)c7ccc4[nH]7)C=C6)C=C5)cc3)[C@@H]2C)c1
REMARK SMILES IDX 19 1 18 2 16 3 17 4 15 5 12 6 13 7 90 8 14 9 91 10 10 11
REMARK SMILES IDX 11 12 8 13 9 14 7 15 6 16 1 17 2 18 3 19 92 20 4 21 5 22
REMARK SMILES IDX 20 23 21 24 22 25 23 26 24 27 25 28 89 29 26 30 88 31 27 32
REMARK SMILES IDX 28 33 29 34 82 35 30 36 87 37 81 38 83 39 31 40 86 41 80 42
REMARK SMILES IDX 79 43 32 45 66 46 45 47 65 48 46 49 49 50 64 51 84 52 47 53
REMARK SMILES IDX 48 54 63 56 85 57 50 58 33 59 34 60 43 61 35 62 36 63 42 64
REMARK SMILES IDX 44 65 37 66 38 67 39 68 40 69 41 70 67 71 68 72 77 73 69 74
REMARK SMILES IDX 70 75 76 76 78 77 71 78 72 79 73 80 74 81 75 82 51 83 52 84
REMARK SMILES IDX 61 85 53 86 54 87 60 88 62 89 55 90 56 91 57 92 58 93 59 94
REMARK H PARENT 83 44 49 55
REMARK Flexibility Score: inf
ROOT
ATOM      1  C   UNL A   1      32.393  29.989  26.260  1.00  0.00     0.274 C 
ENDROOT
BRANCH   1   2
ATOM      2  O   UNL A   1      31.671  29.940  25.036  1.00  0.00    -0.462 OA
BRANCH   2   3
ATOM      3  C   UNL A   1      31.092  28.810  24.389  1.00  0.00     0.311 C 
ATOM      4  O   UNL A   1      30.059  29.320  23.858  1.00  0.00    -0.252 OA
BRANCH   3   5
ATOM      5  C   UNL A   1      31.835  26.767  24.562  1.00  0.00     0.123 C 
ATOM      6  N   UNL A   1      33.072  24.485  23.875  1.00  0.00    -0.336 N 
ATOM      7  C   UNL A   1      33.206  24.637  25.291  1.00  0.00     0.121 C 
ATOM      8  C   UNL A   1      32.024  25.416  23.362  1.00  0.00     0.096 C 
ATOM      9  C   UNL A   1      33.209  26.129  25.444  1.00  0.00     0.039 C 
ATOM     10  C   UNL A   1      30.755  24.552  23.201  1.00  0.00     0.032 C 
BRANCH   6  11
ATOM     11  C   UNL A   1      33.699  23.398  23.298  1.00  0.00     0.263 C 
ATOM     12  O   UNL A   1      34.224  23.520  22.179  1.00  0.00    -0.271 OA
BRANCH  11  13
ATOM     13  C   UNL A   1      33.591  21.956  23.865  1.00  0.00     0.259 C 
ATOM     14  C   UNL A   1      32.194  21.397  23.526  1.00  0.00     0.064 C 
BRANCH  13  15
ATOM     15  O   UNL A   1      34.203  21.565  25.083  1.00  0.00    -0.481 OA
BRANCH  15  16
ATOM     16  C   UNL A   1      35.540  21.614  25.294  1.00  0.00     0.120 A 
ATOM     17  C   UNL A   1      38.273  24.051  26.171  1.00  0.00     0.044 C 
ATOM     18  C   UNL A   1      37.634  22.729  25.837  1.00  0.00    -0.047 A 
ATOM     19  C   UNL A   1      38.337  21.581  25.468  1.00  0.00     0.003 A 
ATOM     20  C   UNL A   1      36.243  22.721  25.749  1.00  0.00     0.049 A 
ATOM     21  C   UNL A   1      37.644  20.452  25.018  1.00  0.00     0.004 A 
ATOM     22  C   UNL A   1      36.249  20.462  24.957  1.00  0.00     0.046 A 
ENDBRANCH  15  16
ENDBRANCH  13  15
ENDBRANCH  11  13
ENDBRANCH   6  11
ENDBRANCH   3   5
ENDBRANCH   2   3
ENDBRANCH   1   2
BRANCH   1  23
ATOM     23  C   UNL A   1      32.531  31.233  27.148  1.00  0.00     0.275 C 
BRANCH  23  24
ATOM     24  O   UNL A   1      33.681  32.118  27.317  1.00  0.00    -0.458 OA
BRANCH  24  25
ATOM     25  C   UNL A   1      34.879  32.142  27.950  1.00  0.00     0.338 C 
ATOM     26  O   UNL A   1      35.419  33.182  28.301  1.00  0.00    -0.246 OA
BRANCH  25  27
ATOM     27  C   UNL A   1      35.445  30.855  28.371  1.00  0.00     0.060 A 
ATOM     28  C   UNL A   1      35.429  30.327  30.093  1.00  0.00     0.016 A 
ATOM     29  C   UNL A   1      36.717  30.278  27.270  1.00  0.00     0.016 A 
ATOM     30  C   UNL A   1      36.855  29.380  30.740  1.00  0.00     0.010 A 
ATOM     31  C   UNL A   1      38.082  29.321  27.873  1.00  0.00     0.010 A 
ATOM     32  C   UNL A   1      38.214  28.976  29.635  1.00  0.00    -0.014 A 
BRANCH  32  33
ATOM     33  C   UNL A   1      39.639  28.809  29.942  1.00  0.00     0.031 A 
ATOM     34  C   UNL A   1      40.339  27.628  29.378  1.00  0.00     0.074 A 
ATOM     35  C   UNL A   1      40.301  29.925  30.326  1.00  0.00     0.049 A 
ATOM     36  N   UNL A   1      41.156  26.852  30.012  1.00  0.00    -0.248 NA
ATOM     37  C   UNL A   1      40.052  27.122  28.029  1.00  0.00     0.031 C 
ATOM     38  C   UNL A   1      41.724  30.224  30.222  1.00  0.00     0.029 A 
ATOM     39  N   UNL A   1      39.817  31.083  30.913  1.00  0.00    -0.354 N 
ATOM     40  C   UNL A   1      41.718  26.045  29.027  1.00  0.00     0.074 A 
ATOM     41  C   UNL A   1      40.735  25.985  27.995  1.00  0.00     0.031 C 
ATOM     42  C   UNL A   1      42.007  31.279  31.015  1.00  0.00     0.029 A 
ATOM     43  C   UNL A   1      40.790  31.639  31.727  1.00  0.00     0.049 A 
ATOM     44  H   UNL A   1      38.917  31.455  30.772  1.00  0.00     0.167 HD
ATOM     45  C   UNL A   1      43.076  25.935  28.885  1.00  0.00     0.037 A 
ATOM     46  C   UNL A   1      40.618  31.630  33.083  1.00  0.00     0.037 A 
ATOM     47  C   UNL A   1      43.726  26.839  29.836  1.00  0.00     0.049 A 
ATOM     48  C   UNL A   1      41.512  30.570  33.710  1.00  0.00     0.074 A 
ATOM     49  C   UNL A   1      44.419  28.032  29.708  1.00  0.00     0.029 A 
ATOM     50  N   UNL A   1      43.410  26.722  31.179  1.00  0.00    -0.354 N 
ATOM     51  N   UNL A   1      42.083  29.607  33.029  1.00  0.00    -0.248 NA
ATOM     52  C   UNL A   1      41.922  30.554  35.109  1.00  0.00     0.031 C 
ATOM     53  C   UNL A   1      44.496  28.632  31.000  1.00  0.00     0.029 A 
ATOM     54  C   UNL A   1      43.851  27.804  31.904  1.00  0.00     0.049 A 
ATOM     55  H   UNL A   1      42.930  25.956  31.567  1.00  0.00     0.167 HD
ATOM     56  C   UNL A   1      42.923  28.879  33.829  1.00  0.00     0.074 A 
ATOM     57  C   UNL A   1      42.794  29.528  35.121  1.00  0.00     0.031 C 
ATOM     58  C   UNL A   1      43.645  27.817  33.350  1.00  0.00     0.037 A 
BRANCH  45  59
ATOM     59  C   UNL A   1      43.819  25.275  27.718  1.00  0.00     0.058 A 
ATOM     60  C   UNL A   1      44.385  23.989  27.874  1.00  0.00     0.135 A 
ATOM     61  C   UNL A   1      43.963  25.797  26.409  1.00  0.00     0.135 A 
ATOM     62  F   UNL A   1      44.267  23.310  29.023  1.00  0.00    -0.206 F 
ATOM     63  C   UNL A   1      45.067  23.314  26.854  1.00  0.00     0.059 A 
ATOM     64  C   UNL A   1      44.680  25.164  25.388  1.00  0.00     0.059 A 
ATOM     65  F   UNL A   1      43.355  26.917  26.009  1.00  0.00    -0.206 F 
ATOM     66  C   UNL A   1      45.220  23.912  25.613  1.00  0.00     0.060 A 
BRANCH  66  67
ATOM     67  S   UNL A   1      46.055  23.015  24.294  1.00  0.00     0.124 S 
ATOM     68  O   UNL A   1      44.973  22.802  23.338  1.00  0.00    -0.237 OA
ATOM     69  O   UNL A   1      47.089  23.961  23.887  1.00  0.00    -0.237 OA
ATOM     70  O   UNL A   1      46.543  21.807  24.956  1.00  0.00    -0.744 OA
ENDBRANCH  66  67
ENDBRANCH  45  59
BRANCH  46  71
ATOM     71  C   UNL A   1      39.240  32.078  33.483  1.00  0.00     0.058 A 
ATOM     72  C   UNL A   1      38.964  33.457  33.325  1.00  0.00     0.135 A 
ATOM     73  C   UNL A   1      38.126  31.225  33.548  1.00  0.00     0.135 A 
ATOM     74  F   UNL A   1      39.979  34.337  33.285  1.00  0.00    -0.206 F 
ATOM     75  C   UNL A   1      37.685  33.942  33.057  1.00  0.00     0.059 A 
ATOM     76  C   UNL A   1      36.821  31.699  33.312  1.00  0.00     0.059 A 
ATOM     77  F   UNL A   1      38.298  29.903  33.694  1.00  0.00    -0.206 F 
ATOM     78  C   UNL A   1      36.623  33.046  32.995  1.00  0.00     0.060 A 
BRANCH  78  79
ATOM     79  S   UNL A   1      35.046  33.655  32.326  1.00  0.00     0.124 S 
ATOM     80  O   UNL A   1      34.529  34.451  33.434  1.00  0.00    -0.237 OA
ATOM     81  O   UNL A   1      35.468  34.421  31.157  1.00  0.00    -0.237 OA
ATOM     82  O   UNL A   1      34.302  32.430  32.041  1.00  0.00    -0.744 OA
ENDBRANCH  78  79
ENDBRANCH  46  71
BRANCH  58  83
ATOM     83  C   UNL A   1      44.276  26.689  34.167  1.00  0.00     0.058 A 
ATOM     84  C   UNL A   1      45.651  26.558  34.412  1.00  0.00     0.135 A 
ATOM     85  C   UNL A   1      43.468  25.743  34.866  1.00  0.00     0.135 A 
ATOM     86  F   UNL A   1      46.542  27.450  33.968  1.00  0.00    -0.206 F 
ATOM     87  C   UNL A   1      46.186  25.521  35.177  1.00  0.00     0.059 A 
ATOM     88  C   UNL A   1      43.975  24.766  35.715  1.00  0.00     0.059 A 
ATOM     89  F   UNL A   1      42.131  25.723  34.772  1.00  0.00    -0.206 F 
ATOM     90  C   UNL A   1      45.341  24.628  35.823  1.00  0.00     0.060 A 
BRANCH  90  91
ATOM     91  S   UNL A   1      46.048  23.299  36.799  1.00  0.00     0.124 S 
ATOM     92  O   UNL A   1      47.476  23.550  36.631  1.00  0.00    -0.237 OA
ATOM     93  O   UNL A   1      45.509  23.570  38.128  1.00  0.00    -0.237 OA
ATOM     94  O   UNL A   1      45.540  22.092  36.155  1.00  0.00    -0.744 OA
ENDBRANCH  90  91
ENDBRANCH  58  83
ENDBRANCH  32  33
ENDBRANCH  25  27
ENDBRANCH  24  25
ENDBRANCH  23  24
ENDBRANCH   1  23
TORSDOF 18
ENDMDL
MODEL 2
REMARK VINA RESULT:     -12.0      2.397      4.176
REMARK SMILES Cc1cccc(O[C@@H](C)C(=O)N2CC[C@@H](C(=O)OCCOC(=O)c3ccc(-c4c5nc(c(-c6c(F)cc(S(=O)(=O)[O-])cc6F)c6ccc([nH]6)c(-c6c(F)cc(S(=O)(=O)[O-])cc6F)c6nc(c(-c7c(F)cc(S(=O)(=O)[O-])cc7F)c7ccc4[nH]7)C=C6)C=C5)cc3)[C@@H]2C)c1
REMARK SMILES IDX 19 1 18 2 16 3 17 4 15 5 12 6 13 7 90 8 14 9 91 10 10 11
REMARK SMILES IDX 11 12 8 13 9 14 7 15 6 16 1 17 2 18 3 19 92 20 4 21 5 22
REMARK SMILES IDX 20 23 21 24 22 25 23 26 24 27 25 28 89 29 26 30 88 31 27 32
REMARK SMILES IDX 28 33 29 34 82 35 30 36 87 37 81 38 83 39 31 40 86 41 80 42
REMARK SMILES IDX 79 43 32 45 66 46 45 47 65 48 46 49 49 50 64 51 84 52 47 53
REMARK SMILES IDX 48 54 63 56 85 57 50 58 33 59 34 60 43 61 35 62 36 63 42 64
REMARK SMILES IDX 44 65 37 66 38 67 39 68 40 69 41 70 67 71 68 72 77 73 69 74
REMARK SMILES IDX 70 75 76 76 78 77 71 78 72 79 73 80 74 81 75 82 51 83 52 84
REMARK SMILES IDX 61 85 53 86 54 87 60 88 62 89 55 90 56 91 57 92 58 93 59 94
REMARK H PARENT 83 44 49 55
REMARK Flexibility Score: inf
ROOT
ATOM      1  C   UNL A   1      34.263  32.840  28.090  1.00  0.00     0.274 C 
ENDROOT
BRANCH   1   2
ATOM      2  O   UNL A   1      34.264  31.459  28.432  1.00  0.00    -0.462 OA
BRANCH   2   3
ATOM      3  C   UNL A   1      34.656  30.346  27.634  1.00  0.00     0.311 C 
ATOM      4  O   UNL A   1      35.889  30.582  27.451  1.00  0.00    -0.252 OA
BRANCH   3   5
ATOM      5  C   UNL A   1      33.288  28.835  26.857  1.00  0.00     0.123 C 
ATOM      6  N   UNL A   1      32.332  26.405  26.232  1.00  0.00    -0.336 N 
ATOM      7  C   UNL A   1      31.212  27.243  26.531  1.00  0.00     0.121 C 
ATOM      8  C   UNL A   1      33.551  27.242  26.025  1.00  0.00     0.096 C 
ATOM      9  C   UNL A   1      31.798  28.201  27.526  1.00  0.00     0.039 C 
ATOM     10  C   UNL A   1      33.706  27.363  24.494  1.00  0.00     0.032 C 
BRANCH   6  11
ATOM     11  C   UNL A   1      32.067  25.081  25.945  1.00  0.00     0.263 C 
ATOM     12  O   UNL A   1      32.613  24.190  26.616  1.00  0.00    -0.271 OA
BRANCH  11  13
ATOM     13  C   UNL A   1      31.295  24.626  24.676  1.00  0.00     0.259 C 
ATOM     14  C   UNL A   1      31.453  23.099  24.525  1.00  0.00     0.064 C 
BRANCH  13  15
ATOM     15  O   UNL A   1      31.213  25.419  23.504  1.00  0.00    -0.481 OA
BRANCH  15  16
ATOM     16  C   UNL A   1      30.268  26.372  23.316  1.00  0.00     0.120 A 
ATOM     17  C   UNL A   1      29.895  29.923  22.122  1.00  0.00     0.044 C 
ATOM     18  C   UNL A   1      29.478  28.575  22.647  1.00  0.00    -0.047 A 
ATOM     19  C   UNL A   1      28.231  28.293  23.207  1.00  0.00     0.003 A 
ATOM     20  C   UNL A   1      30.475  27.601  22.707  1.00  0.00     0.049 A 
ATOM     21  C   UNL A   1      28.001  27.055  23.813  1.00  0.00     0.004 A 
ATOM     22  C   UNL A   1      29.009  26.088  23.844  1.00  0.00     0.046 A 
ENDBRANCH  15  16
ENDBRANCH  13  15
ENDBRANCH  11  13
ENDBRANCH   6  11
ENDBRANCH   3   5
ENDBRANCH   2   3
ENDBRANCH   1   2
BRANCH   1  23
ATOM     23  C   UNL A   1      34.884  33.956  28.942  1.00  0.00     0.275 C 
BRANCH  23  24
ATOM     24  O   UNL A   1      35.383  33.894  30.314  1.00  0.00    -0.458 OA
BRANCH  24  25
ATOM     25  C   UNL A   1      36.379  33.310  31.023  1.00  0.00     0.338 C 
ATOM     26  O   UNL A   1      36.787  33.764  32.083  1.00  0.00    -0.246 OA
BRANCH  25  27
ATOM     27  C   UNL A   1      36.847  31.995  30.569  1.00  0.00     0.060 A 
ATOM     28  C   UNL A   1      36.568  30.502  31.535  1.00  0.00     0.016 A 
ATOM     29  C   UNL A   1      38.254  32.112  29.486  1.00  0.00     0.016 A 
ATOM     30  C   UNL A   1      37.863  29.208  31.555  1.00  0.00     0.010 A 
ATOM     31  C   UNL A   1      39.493  30.845  29.460  1.00  0.00     0.010 A 
ATOM     32  C   UNL A   1      39.360  29.449  30.589  1.00  0.00    -0.014 A 
BRANCH  32  33
ATOM     33  C   UNL A   1      40.720  28.968  30.853  1.00  0.00     0.031 A 
ATOM     34  C   UNL A   1      41.200  27.786  30.094  1.00  0.00     0.074 A 
ATOM     35  C   UNL A   1      41.570  29.860  31.413  1.00  0.00     0.049 A 
ATOM     36  N   UNL A   1      41.842  26.776  30.583  1.00  0.00    -0.248 NA
ATOM     37  C   UNL A   1      40.856  27.575  28.681  1.00  0.00     0.031 C 
ATOM     38  C   UNL A   1      43.025  29.899  31.350  1.00  0.00     0.029 A 
ATOM     39  N   UNL A   1      41.296  30.974  32.190  1.00  0.00    -0.354 N 
ATOM     40  C   UNL A   1      42.267  26.053  29.472  1.00  0.00     0.074 A 
ATOM     41  C   UNL A   1      41.316  26.351  28.452  1.00  0.00     0.031 C 
ATOM     42  C   UNL A   1      43.482  30.735  32.307  1.00  0.00     0.029 A 
ATOM     43  C   UNL A   1      42.335  31.194  33.079  1.00  0.00     0.049 A 
ATOM     44  H   UNL A   1      40.485  31.528  32.121  1.00  0.00     0.167 HD
ATOM     45  C   UNL A   1      43.583  25.714  29.304  1.00  0.00     0.037 A 
ATOM     46  C   UNL A   1      42.132  30.993  34.415  1.00  0.00     0.037 A 
ATOM     47  C   UNL A   1      44.368  26.309  30.388  1.00  0.00     0.049 A 
ATOM     48  C   UNL A   1      42.797  29.694  34.849  1.00  0.00     0.074 A 
ATOM     49  C   UNL A   1      45.275  27.354  30.456  1.00  0.00     0.029 A 
ATOM     50  N   UNL A   1      44.004  26.032  31.694  1.00  0.00    -0.354 N 
ATOM     51  N   UNL A   1      43.194  28.768  34.012  1.00  0.00    -0.248 NA
ATOM     52  C   UNL A   1      43.162  29.369  36.222  1.00  0.00     0.031 C 
ATOM     53  C   UNL A   1      45.431  27.706  31.830  1.00  0.00     0.029 A 
ATOM     54  C   UNL A   1      44.620  26.876  32.587  1.00  0.00     0.049 A 
ATOM     55  H   UNL A   1      43.379  25.316  31.952  1.00  0.00     0.167 HD
ATOM     56  C   UNL A   1      43.863  27.772  34.672  1.00  0.00     0.074 A 
ATOM     57  C   UNL A   1      43.827  28.209  36.056  1.00  0.00     0.031 C 
ATOM     58  C   UNL A   1      44.386  26.687  34.017  1.00  0.00     0.037 A 
BRANCH  45  59
ATOM     59  C   UNL A   1      44.219  25.129  28.037  1.00  0.00     0.058 A 
ATOM     60  C   UNL A   1      44.599  23.768  27.998  1.00  0.00     0.135 A 
ATOM     61  C   UNL A   1      44.425  25.805  26.810  1.00  0.00     0.135 A 
ATOM     62  F   UNL A   1      44.396  22.957  29.045  1.00  0.00    -0.206 F 
ATOM     63  C   UNL A   1      45.173  23.156  26.877  1.00  0.00     0.059 A 
ATOM     64  C   UNL A   1      45.039  25.229  25.692  1.00  0.00     0.059 A 
ATOM     65  F   UNL A   1      43.978  27.043  26.585  1.00  0.00    -0.206 F 
ATOM     66  C   UNL A   1      45.399  23.896  25.727  1.00  0.00     0.060 A 
BRANCH  66  67
ATOM     67  S   UNL A   1      46.091  23.087  24.274  1.00  0.00     0.124 S 
ATOM     68  O   UNL A   1      44.920  22.955  23.413  1.00  0.00    -0.237 OA
ATOM     69  O   UNL A   1      47.098  24.049  23.839  1.00  0.00    -0.237 OA
ATOM     70  O   UNL A   1      46.618  21.830  24.801  1.00  0.00    -0.744 OA
ENDBRANCH  66  67
ENDBRANCH  45  59
BRANCH  46  71
ATOM     71  C   UNL A   1      40.853  31.619  34.895  1.00  0.00     0.058 A 
ATOM     72  C   UNL A   1      39.733  30.757  34.980  1.00  0.00     0.135 A 
ATOM     73  C   UNL A   1      40.793  32.792  35.664  1.00  0.00     0.135 A 
ATOM     74  F   UNL A   1      39.705  29.630  34.247  1.00  0.00    -0.206 F 
ATOM     75  C   UNL A   1      38.708  30.944  35.906  1.00  0.00     0.059 A 
ATOM     76  C   UNL A   1      39.750  33.018  36.583  1.00  0.00     0.059 A 
ATOM     77  F   UNL A   1      41.813  33.663  35.644  1.00  0.00    -0.206 F 
ATOM     78  C   UNL A   1      38.754  32.051  36.747  1.00  0.00     0.060 A 
BRANCH  78  79
ATOM     79  S   UNL A   1      37.596  32.091  38.149  1.00  0.00     0.124 S 
ATOM     80  O   UNL A   1      38.469  32.462  39.257  1.00  0.00    -0.237 OA
ATOM     81  O   UNL A   1      36.638  33.115  37.745  1.00  0.00    -0.237 OA
ATOM     82  O   UNL A   1      37.076  30.727  38.199  1.00  0.00    -0.744 OA
ENDBRANCH  78  79
ENDBRANCH  46  71
BRANCH  58  83
ATOM     83  C   UNL A   1      44.774  25.341  34.628  1.00  0.00     0.058 A 
ATOM     84  C   UNL A   1      43.880  24.282  34.851  1.00  0.00     0.135 A 
ATOM     85  C   UNL A   1      46.138  25.017  34.896  1.00  0.00     0.135 A 
ATOM     86  F   UNL A   1      42.591  24.354  34.507  1.00  0.00    -0.206 F 
ATOM     87  C   UNL A   1      44.278  23.061  35.398  1.00  0.00     0.059 A 
ATOM     88  C   UNL A   1      46.568  23.773  35.343  1.00  0.00     0.059 A 
ATOM     89  F   UNL A   1      47.137  25.894  34.724  1.00  0.00    -0.206 F 
ATOM     90  C   UNL A   1      45.623  22.816  35.643  1.00  0.00     0.060 A 
BRANCH  90  91
ATOM     91  S   UNL A   1      46.114  21.242  36.350  1.00  0.00     0.124 S 
ATOM     92  O   UNL A   1      45.717  21.418  37.743  1.00  0.00    -0.237 OA
ATOM     93  O   UNL A   1      45.317  20.293  35.578  1.00  0.00    -0.237 OA
ATOM     94  O   UNL A   1      47.553  21.190  36.106  1.00  0.00    -0.744 OA
ENDBRANCH  90  91
ENDBRANCH  58  83
ENDBRANCH  32  33
ENDBRANCH  25  27
ENDBRANCH  24  25
ENDBRANCH  23  24
ENDBRANCH   1  23
TORSDOF 18
ENDMDL
MODEL 3
REMARK VINA RESULT:     -11.8      3.372     10.333
REMARK SMILES Cc1cccc(O[C@@H](C)C(=O)N2CC[C@@H](C(=O)OCCOC(=O)c3ccc(-c4c5nc(c(-c6c(F)cc(S(=O)(=O)[O-])cc6F)c6ccc([nH]6)c(-c6c(F)cc(S(=O)(=O)[O-])cc6F)c6nc(c(-c7c(F)cc(S(=O)(=O)[O-])cc7F)c7ccc4[nH]7)C=C6)C=C5)cc3)[C@@H]2C)c1
REMARK SMILES IDX 19 1 18 2 16 3 17 4 15 5 12 6 13 7 90 8 14 9 91 10 10 11
REMARK SMILES IDX 11 12 8 13 9 14 7 15 6 16 1 17 2 18 3 19 92 20 4 21 5 22
REMARK SMILES IDX 20 23 21 24 22 25 23 26 24 27 25 28 89 29 26 30 88 31 27 32
REMARK SMILES IDX 28 33 29 34 82 35 30 36 87 37 81 38 83 39 31 40 86 41 80 42
REMARK SMILES IDX 79 43 32 45 66 46 45 47 65 48 46 49 49 50 64 51 84 52 47 53
REMARK SMILES IDX 48 54 63 56 85 57 50 58 33 59 34 60 43 61 35 62 36 63 42 64
REMARK SMILES IDX 44 65 37 66 38 67 39 68 40 69 41 70 67 71 68 72 77 73 69 74
REMARK SMILES IDX 70 75 76 76 78 77 71 78 72 79 73 80 74 81 75 82 51 83 52 84
REMARK SMILES IDX 61 85 53 86 54 87 60 88 62 89 55 90 56 91 57 92 58 93 59 94
REMARK H PARENT 83 44 49 55
REMARK Flexibility Score: inf
ROOT
ATOM      1  C   UNL A   1      37.298  21.379  25.268  1.00  0.00     0.274 C 
ENDROOT
BRANCH   1   2
ATOM      2  O   UNL A   1      36.915  21.641  23.924  1.00  0.00    -0.462 OA
BRANCH   2   3
ATOM      3  C   UNL A   1      36.094  22.692  23.422  1.00  0.00     0.311 C 
ATOM      4  O   UNL A   1      36.867  23.242  22.581  1.00  0.00    -0.252 OA
BRANCH   3   5
ATOM      5  C   UNL A   1      34.113  23.189  24.186  1.00  0.00     0.123 C 
ATOM      6  N   UNL A   1      31.945  24.669  24.754  1.00  0.00    -0.336 N 
ATOM      7  C   UNL A   1      31.501  23.330  24.516  1.00  0.00     0.121 C 
ATOM      8  C   UNL A   1      33.424  24.683  24.955  1.00  0.00     0.096 C 
ATOM      9  C   UNL A   1      32.523  22.833  23.537  1.00  0.00     0.039 C 
ATOM     10  C   UNL A   1      33.627  24.740  26.485  1.00  0.00     0.032 C 
BRANCH   6  11
ATOM     11  C   UNL A   1      30.974  25.618  25.003  1.00  0.00     0.263 C 
ATOM     12  O   UNL A   1      29.948  25.292  25.624  1.00  0.00    -0.271 OA
BRANCH  11  13
ATOM     13  C   UNL A   1      30.979  27.029  24.354  1.00  0.00     0.259 C 
ATOM     14  C   UNL A   1      30.064  27.003  23.113  1.00  0.00     0.064 C 
BRANCH  13  15
ATOM     15  O   UNL A   1      32.129  27.858  24.333  1.00  0.00    -0.481 OA
BRANCH  15  16
ATOM     16  C   UNL A   1      32.440  28.725  25.328  1.00  0.00     0.120 A 
ATOM     17  C   UNL A   1      31.426  32.078  26.707  1.00  0.00     0.044 C 
ATOM     18  C   UNL A   1      32.184  30.781  26.604  1.00  0.00    -0.047 A 
ATOM     19  C   UNL A   1      33.365  30.496  27.292  1.00  0.00     0.003 A 
ATOM     20  C   UNL A   1      31.738  29.881  25.636  1.00  0.00     0.049 A 
ATOM     21  C   UNL A   1      34.078  29.329  27.003  1.00  0.00     0.004 A 
ATOM     22  C   UNL A   1      33.602  28.434  26.042  1.00  0.00     0.046 A 
ENDBRANCH  15  16
ENDBRANCH  13  15
ENDBRANCH  11  13
ENDBRANCH   6  11
ENDBRANCH   3   5
ENDBRANCH   2   3
ENDBRANCH   1   2
BRANCH   1  23
ATOM     23  C   UNL A   1      38.590  20.664  25.689  1.00  0.00     0.275 C 
BRANCH  23  24
ATOM     24  O   UNL A   1      39.847  21.241  26.161  1.00  0.00    -0.458 OA
BRANCH  24  25
ATOM     25  C   UNL A   1      40.288  22.160  27.054  1.00  0.00     0.338 C 
ATOM     26  O   UNL A   1      40.955  21.859  28.035  1.00  0.00    -0.246 OA
BRANCH  25  27
ATOM     27  C   UNL A   1      40.094  23.575  26.716  1.00  0.00     0.060 A 
ATOM     28  C   UNL A   1      41.336  24.515  25.813  1.00  0.00     0.016 A 
ATOM     29  C   UNL A   1      38.992  24.398  27.844  1.00  0.00     0.016 A 
ATOM     30  C   UNL A   1      41.592  26.277  26.239  1.00  0.00     0.010 A 
ATOM     31  C   UNL A   1      39.198  26.115  28.232  1.00  0.00     0.010 A 
ATOM     32  C   UNL A   1      40.579  27.026  27.522  1.00  0.00    -0.014 A 
BRANCH  32  33
ATOM     33  C   UNL A   1      40.915  28.107  28.454  1.00  0.00     0.031 A 
ATOM     34  C   UNL A   1      39.915  29.185  28.659  1.00  0.00     0.074 A 
ATOM     35  C   UNL A   1      41.878  27.832  29.364  1.00  0.00     0.049 A 
ATOM     36  N   UNL A   1      40.160  30.454  28.696  1.00  0.00    -0.248 NA
ATOM     37  C   UNL A   1      38.473  28.912  28.705  1.00  0.00     0.031 C 
ATOM     38  C   UNL A   1      42.095  28.434  30.673  1.00  0.00     0.029 A 
ATOM     39  N   UNL A   1      42.910  26.909  29.309  1.00  0.00    -0.354 N 
ATOM     40  C   UNL A   1      38.972  31.033  29.131  1.00  0.00     0.074 A 
ATOM     41  C   UNL A   1      37.948  30.131  28.716  1.00  0.00     0.031 C 
ATOM     42  C   UNL A   1      43.337  28.117  31.099  1.00  0.00     0.029 A 
ATOM     43  C   UNL A   1      43.994  27.373  30.035  1.00  0.00     0.049 A 
ATOM     44  H   UNL A   1      42.877  26.052  28.827  1.00  0.00     0.167 HD
ATOM     45  C   UNL A   1      38.944  31.878  30.209  1.00  0.00     0.037 A 
ATOM     46  C   UNL A   1      45.134  27.744  29.378  1.00  0.00     0.037 A 
ATOM     47  C   UNL A   1      40.285  31.945  30.792  1.00  0.00     0.049 A 
ATOM     48  C   UNL A   1      45.238  29.263  29.342  1.00  0.00     0.074 A 
ATOM     49  C   UNL A   1      40.850  31.456  31.959  1.00  0.00     0.029 A 
ATOM     50  N   UNL A   1      41.343  32.304  29.976  1.00  0.00    -0.354 N 
ATOM     51  N   UNL A   1      44.233  30.065  29.595  1.00  0.00    -0.248 NA
ATOM     52  C   UNL A   1      46.475  30.004  29.127  1.00  0.00     0.031 C 
ATOM     53  C   UNL A   1      42.269  31.516  31.814  1.00  0.00     0.029 A 
ATOM     54  C   UNL A   1      42.557  32.038  30.564  1.00  0.00     0.049 A 
ATOM     55  H   UNL A   1      41.239  32.703  29.082  1.00  0.00     0.167 HD
ATOM     56  C   UNL A   1      44.646  31.370  29.608  1.00  0.00     0.074 A 
ATOM     57  C   UNL A   1      46.066  31.271  29.324  1.00  0.00     0.031 C 
ATOM     58  C   UNL A   1      43.781  32.405  29.857  1.00  0.00     0.037 A 
BRANCH  45  59
ATOM     59  C   UNL A   1      37.693  32.398  30.927  1.00  0.00     0.058 A 
ATOM     60  C   UNL A   1      37.203  33.695  30.651  1.00  0.00     0.135 A 
ATOM     61  C   UNL A   1      36.885  31.675  31.839  1.00  0.00     0.135 A 
ATOM     62  F   UNL A   1      37.798  34.487  29.748  1.00  0.00    -0.206 F 
ATOM     63  C   UNL A   1      36.063  34.238  31.254  1.00  0.00     0.059 A 
ATOM     64  C   UNL A   1      35.768  32.210  32.490  1.00  0.00     0.059 A 
ATOM     65  F   UNL A   1      37.077  30.380  32.100  1.00  0.00    -0.206 F 
ATOM     66  C   UNL A   1      35.353  33.491  32.183  1.00  0.00     0.060 A 
BRANCH  66  67
ATOM     67  S   UNL A   1      33.858  34.179  32.916  1.00  0.00     0.124 S 
ATOM     68  O   UNL A   1      33.245  34.857  31.778  1.00  0.00    -0.237 OA
ATOM     69  O   UNL A   1      33.172  32.982  33.390  1.00  0.00    -0.237 OA
ATOM     70  O   UNL A   1      34.366  35.062  33.964  1.00  0.00    -0.744 OA
ENDBRANCH  66  67
ENDBRANCH  45  59
BRANCH  46  71
ATOM     71  C   UNL A   1      45.550  26.733  28.347  1.00  0.00     0.058 A 
ATOM     72  C   UNL A   1      45.975  25.477  28.845  1.00  0.00     0.135 A 
ATOM     73  C   UNL A   1      45.132  26.760  27.008  1.00  0.00     0.135 A 
ATOM     74  F   UNL A   1      46.418  25.380  30.110  1.00  0.00    -0.206 F 
ATOM     75  C   UNL A   1      45.818  24.292  28.128  1.00  0.00     0.059 A 
ATOM     76  C   UNL A   1      44.996  25.579  26.254  1.00  0.00     0.059 A 
ATOM     77  F   UNL A   1      44.711  27.908  26.457  1.00  0.00    -0.206 F 
ATOM     78  C   UNL A   1      45.272  24.344  26.850  1.00  0.00     0.060 A 
BRANCH  78  79
ATOM     79  S   UNL A   1      44.778  22.772  26.081  1.00  0.00     0.124 S 
ATOM     80  O   UNL A   1      46.043  22.046  26.029  1.00  0.00    -0.237 OA
ATOM     81  O   UNL A   1      43.799  22.245  27.027  1.00  0.00    -0.237 OA
ATOM     82  O   UNL A   1      44.245  23.181  24.784  1.00  0.00    -0.744 OA
ENDBRANCH  78  79
ENDBRANCH  46  71
BRANCH  58  83
ATOM     83  C   UNL A   1      43.985  33.879  29.507  1.00  0.00     0.058 A 
ATOM     84  C   UNL A   1      44.094  34.378  28.200  1.00  0.00     0.135 A 
ATOM     85  C   UNL A   1      43.942  34.889  30.514  1.00  0.00     0.135 A 
ATOM     86  F   UNL A   1      43.992  33.590  27.125  1.00  0.00    -0.206 F 
ATOM     87  C   UNL A   1      44.264  35.735  27.922  1.00  0.00     0.059 A 
ATOM     88  C   UNL A   1      44.006  36.253  30.249  1.00  0.00     0.059 A 
ATOM     89  F   UNL A   1      43.822  34.607  31.818  1.00  0.00    -0.206 F 
ATOM     90  C   UNL A   1      44.220  36.665  28.952  1.00  0.00     0.060 A 
BRANCH  90  91
ATOM     91  S   UNL A   1      44.445  38.404  28.575  1.00  0.00     0.124 S 
ATOM     92  O   UNL A   1      44.245  38.412  27.130  1.00  0.00    -0.237 OA
ATOM     93  O   UNL A   1      43.389  39.032  29.364  1.00  0.00    -0.237 OA
ATOM     94  O   UNL A   1      45.806  38.681  29.025  1.00  0.00    -0.744 OA
ENDBRANCH  90  91
ENDBRANCH  58  83
ENDBRANCH  32  33
ENDBRANCH  25  27
ENDBRANCH  24  25
ENDBRANCH  23  24
ENDBRANCH   1  23
TORSDOF 18
ENDMDL
