MODEL 1
REMARK VINA RESULT:     -11.6      0.000      0.000
REMARK SMILES O=C(OCCOC(=O)[C@@H]1CS[C@H](Cc2cccc(F)c2)C(=O)N1)c1ccc(-c2c3nc(c(-c4c(F)cc(S(=O)(=O)[O-])cc4F)c4ccc([nH]4)c(-c4c(F)cc(S(=O)(=O)[O-])cc4F)c4nc(c(-c5c(F)cc(S(=O)(=O)[O-])cc5F)c5ccc2[nH]5)C=C4)C=C3)cc1
REMARK SMILES IDX 4 1 3 2 2 3 1 4 24 5 25 6 89 7 26 8 88 9 27 10 28 11 29 12
REMARK SMILES IDX 82 13 30 14 87 15 81 16 83 17 31 18 86 19 80 20 79 21 32 23
REMARK SMILES IDX 66 24 45 25 65 26 46 27 49 28 64 29 84 30 47 31 48 32 63 34
REMARK SMILES IDX 85 35 50 36 33 37 34 38 43 39 35 40 36 41 42 42 44 43 37 44
REMARK SMILES IDX 38 45 39 46 40 47 41 48 67 49 68 50 77 51 69 52 70 53 76 54
REMARK SMILES IDX 78 55 71 56 72 57 73 58 74 59 75 60 51 61 52 62 61 63 53 64
REMARK SMILES IDX 54 65 60 66 62 67 55 68 56 69 57 70 58 71 59 72 5 73 6 74
REMARK SMILES IDX 7 75 8 76 9 77 10 78 23 79 11 80 21 81 12 83 22 84 13 85
REMARK SMILES IDX 14 86 15 87 20 88 16 89 18 90 17 91 19 92
REMARK H PARENT 83 22 49 33 23 82
REMARK Flexibility Score: inf
ROOT
ATOM      1  C   UNL A   1      38.244  23.381  26.158  1.00  0.00     0.275 C 
ENDROOT
BRANCH   1   2
ATOM      2  O   UNL A   1      38.874  24.678  26.061  1.00  0.00    -0.458 OA
BRANCH   2   3
ATOM      3  C   UNL A   1      40.073  25.161  26.464  1.00  0.00     0.338 C 
ATOM      4  O   UNL A   1      41.066  24.816  25.821  1.00  0.00    -0.246 OA
BRANCH   3   5
ATOM      5  C   UNL A   1      40.327  25.995  27.691  1.00  0.00     0.060 A 
ATOM      6  C   UNL A   1      41.363  26.907  27.878  1.00  0.00     0.016 A 
ATOM      7  C   UNL A   1      39.390  25.870  28.747  1.00  0.00     0.016 A 
ATOM      8  C   UNL A   1      41.375  27.759  29.002  1.00  0.00     0.010 A 
ATOM      9  C   UNL A   1      39.407  26.715  29.877  1.00  0.00     0.010 A 
ATOM     10  C   UNL A   1      40.365  27.722  29.983  1.00  0.00    -0.014 A 
BRANCH  10  11
ATOM     11  C   UNL A   1      40.395  28.711  31.106  1.00  0.00     0.031 A 
ATOM     12  C   UNL A   1      39.289  29.723  31.160  1.00  0.00     0.074 A 
ATOM     13  C   UNL A   1      41.328  28.693  32.088  1.00  0.00     0.049 A 
ATOM     14  N   UNL A   1      39.038  30.623  32.072  1.00  0.00    -0.248 NA
ATOM     15  C   UNL A   1      38.367  29.751  30.010  1.00  0.00     0.031 C 
ATOM     16  C   UNL A   1      42.507  27.834  32.120  1.00  0.00     0.029 A 
ATOM     17  N   UNL A   1      41.427  29.392  33.278  1.00  0.00    -0.354 N 
ATOM     18  C   UNL A   1      37.971  31.359  31.579  1.00  0.00     0.074 A 
ATOM     19  C   UNL A   1      37.576  30.765  30.323  1.00  0.00     0.031 C 
ATOM     20  C   UNL A   1      43.128  27.952  33.306  1.00  0.00     0.029 A 
ATOM     21  C   UNL A   1      42.454  28.967  34.108  1.00  0.00     0.049 A 
ATOM     22  H   UNL A   1      40.821  30.129  33.515  1.00  0.00     0.167 HD
ATOM     23  C   UNL A   1      37.416  32.476  32.095  1.00  0.00     0.037 A 
ATOM     24  C   UNL A   1      42.810  29.360  35.356  1.00  0.00     0.037 A 
ATOM     25  C   UNL A   1      37.842  33.098  33.316  1.00  0.00     0.049 A 
ATOM     26  C   UNL A   1      42.084  30.546  35.955  1.00  0.00     0.074 A 
ATOM     27  C   UNL A   1      37.378  34.270  33.883  1.00  0.00     0.029 A 
ATOM     28  N   UNL A   1      38.838  32.610  34.145  1.00  0.00    -0.354 N 
ATOM     29  N   UNL A   1      41.041  31.193  35.492  1.00  0.00    -0.248 NA
ATOM     30  C   UNL A   1      42.620  31.100  37.211  1.00  0.00     0.031 C 
ATOM     31  C   UNL A   1      38.130  34.520  35.032  1.00  0.00     0.029 A 
ATOM     32  C   UNL A   1      39.019  33.473  35.210  1.00  0.00     0.049 A 
ATOM     33  H   UNL A   1      39.340  31.776  33.998  1.00  0.00     0.167 HD
ATOM     34  C   UNL A   1      40.830  32.247  36.374  1.00  0.00     0.074 A 
ATOM     35  C   UNL A   1      41.784  32.100  37.449  1.00  0.00     0.031 C 
ATOM     36  C   UNL A   1      39.968  33.284  36.274  1.00  0.00     0.037 A 
BRANCH  23  37
ATOM     37  C   UNL A   1      36.364  33.158  31.278  1.00  0.00     0.058 A 
ATOM     38  C   UNL A   1      36.735  33.897  30.144  1.00  0.00     0.135 A 
ATOM     39  C   UNL A   1      35.007  33.101  31.620  1.00  0.00     0.135 A 
ATOM     40  F   UNL A   1      38.021  33.953  29.762  1.00  0.00    -0.206 F 
ATOM     41  C   UNL A   1      35.796  34.586  29.392  1.00  0.00     0.059 A 
ATOM     42  C   UNL A   1      34.045  33.764  30.866  1.00  0.00     0.059 A 
ATOM     43  F   UNL A   1      34.604  32.366  32.668  1.00  0.00    -0.206 F 
ATOM     44  C   UNL A   1      34.452  34.519  29.766  1.00  0.00     0.060 A 
BRANCH  44  45
ATOM     45  S   UNL A   1      33.246  35.418  28.773  1.00  0.00     0.124 S 
ATOM     46  O   UNL A   1      34.105  36.263  27.951  1.00  0.00    -0.237 OA
ATOM     47  O   UNL A   1      32.557  34.337  28.076  1.00  0.00    -0.237 OA
ATOM     48  O   UNL A   1      32.443  36.119  29.772  1.00  0.00    -0.744 OA
ENDBRANCH  44  45
ENDBRANCH  23  37
BRANCH  24  49
ATOM     49  C   UNL A   1      43.906  28.706  36.154  1.00  0.00     0.058 A 
ATOM     50  C   UNL A   1      45.216  29.209  36.212  1.00  0.00     0.135 A 
ATOM     51  C   UNL A   1      43.631  27.575  36.951  1.00  0.00     0.135 A 
ATOM     52  F   UNL A   1      45.554  30.300  35.510  1.00  0.00    -0.206 F 
ATOM     53  C   UNL A   1      46.211  28.594  36.974  1.00  0.00     0.059 A 
ATOM     54  C   UNL A   1      44.588  26.986  37.778  1.00  0.00     0.059 A 
ATOM     55  F   UNL A   1      42.403  27.033  36.940  1.00  0.00    -0.206 F 
ATOM     56  C   UNL A   1      45.889  27.481  37.751  1.00  0.00     0.060 A 
BRANCH  56  57
ATOM     57  S   UNL A   1      47.220  26.617  38.620  1.00  0.00     0.124 S 
ATOM     58  O   UNL A   1      46.457  25.717  39.481  1.00  0.00    -0.237 OA
ATOM     59  O   UNL A   1      47.948  25.987  37.526  1.00  0.00    -0.237 OA
ATOM     60  O   UNL A   1      47.923  27.692  39.312  1.00  0.00    -0.744 OA
ENDBRANCH  56  57
ENDBRANCH  24  49
BRANCH  36  61
ATOM     61  C   UNL A   1      40.041  34.363  37.315  1.00  0.00     0.058 A 
ATOM     62  C   UNL A   1      39.285  34.272  38.492  1.00  0.00     0.135 A 
ATOM     63  C   UNL A   1      40.740  35.555  37.065  1.00  0.00     0.135 A 
ATOM     64  F   UNL A   1      38.599  33.153  38.773  1.00  0.00    -0.206 F 
ATOM     65  C   UNL A   1      39.179  35.348  39.364  1.00  0.00     0.059 A 
ATOM     66  C   UNL A   1      40.670  36.634  37.938  1.00  0.00     0.059 A 
ATOM     67  F   UNL A   1      41.488  35.680  35.956  1.00  0.00    -0.206 F 
ATOM     68  C   UNL A   1      39.862  36.530  39.070  1.00  0.00     0.060 A 
BRANCH  68  69
ATOM     69  S   UNL A   1      39.657  37.938  40.178  1.00  0.00     0.124 S 
ATOM     70  O   UNL A   1      40.960  38.587  40.080  1.00  0.00    -0.237 OA
ATOM     71  O   UNL A   1      38.544  38.652  39.562  1.00  0.00    -0.237 OA
ATOM     72  O   UNL A   1      39.361  37.318  41.465  1.00  0.00    -0.744 OA
ENDBRANCH  68  69
ENDBRANCH  36  61
ENDBRANCH  10  11
ENDBRANCH   3   5
ENDBRANCH   2   3
ENDBRANCH   1   2
BRANCH   1  73
ATOM     73  C   UNL A   1      37.282  23.090  25.011  1.00  0.00     0.274 C 
BRANCH  73  74
ATOM     74  O   UNL A   1      36.118  23.904  25.126  1.00  0.00    -0.461 OA
BRANCH  74  75
ATOM     75  C   UNL A   1      35.094  23.696  24.243  1.00  0.00     0.329 C 
ATOM     76  O   UNL A   1      35.203  23.689  23.028  1.00  0.00    -0.250 OA
BRANCH  75  77
ATOM     77  C   UNL A   1      33.777  23.445  25.005  1.00  0.00     0.202 C 
ATOM     78  C   UNL A   1      33.955  22.429  26.119  1.00  0.00     0.107 C 
ATOM     79  N   UNL A   1      32.721  23.089  24.061  1.00  0.00    -0.341 N 
ATOM     80  S   UNL A   1      34.239  20.771  25.414  1.00  0.00    -0.145 SA
ATOM     81  C   UNL A   1      32.561  21.844  23.511  1.00  0.00     0.234 C 
ATOM     82  H   UNL A   1      32.082  23.790  23.802  1.00  0.00     0.164 HD
ATOM     83  C   UNL A   1      32.674  20.669  24.449  1.00  0.00     0.140 C 
ATOM     84  O   UNL A   1      32.250  21.739  22.327  1.00  0.00    -0.274 OA
BRANCH  83  85
ATOM     85  C   UNL A   1      32.500  19.370  23.647  1.00  0.00     0.060 C 
BRANCH  85  86
ATOM     86  C   UNL A   1      33.129  18.229  24.393  1.00  0.00    -0.043 A 
ATOM     87  C   UNL A   1      34.436  17.846  24.076  1.00  0.00     0.004 A 
ATOM     88  C   UNL A   1      32.356  17.430  25.239  1.00  0.00     0.043 A 
ATOM     89  C   UNL A   1      34.917  16.620  24.517  1.00  0.00     0.003 A 
ATOM     90  C   UNL A   1      32.868  16.222  25.693  1.00  0.00     0.123 A 
ATOM     91  C   UNL A   1      34.136  15.802  25.323  1.00  0.00     0.039 A 
ATOM     92  F   UNL A   1      32.100  15.429  26.451  1.00  0.00    -0.207 F 
ENDBRANCH  85  86
ENDBRANCH  83  85
ENDBRANCH  75  77
ENDBRANCH  74  75
ENDBRANCH  73  74
ENDBRANCH   1  73
TORSDOF 16
ENDMDL
MODEL 2
REMARK VINA RESULT:     -11.5      5.167      9.341
REMARK SMILES O=C(OCCOC(=O)[C@@H]1CS[C@H](Cc2cccc(F)c2)C(=O)N1)c1ccc(-c2c3nc(c(-c4c(F)cc(S(=O)(=O)[O-])cc4F)c4ccc([nH]4)c(-c4c(F)cc(S(=O)(=O)[O-])cc4F)c4nc(c(-c5c(F)cc(S(=O)(=O)[O-])cc5F)c5ccc2[nH]5)C=C4)C=C3)cc1
REMARK SMILES IDX 4 1 3 2 2 3 1 4 24 5 25 6 89 7 26 8 88 9 27 10 28 11 29 12
REMARK SMILES IDX 82 13 30 14 87 15 81 16 83 17 31 18 86 19 80 20 79 21 32 23
REMARK SMILES IDX 66 24 45 25 65 26 46 27 49 28 64 29 84 30 47 31 48 32 63 34
REMARK SMILES IDX 85 35 50 36 33 37 34 38 43 39 35 40 36 41 42 42 44 43 37 44
REMARK SMILES IDX 38 45 39 46 40 47 41 48 67 49 68 50 77 51 69 52 70 53 76 54
REMARK SMILES IDX 78 55 71 56 72 57 73 58 74 59 75 60 51 61 52 62 61 63 53 64
REMARK SMILES IDX 54 65 60 66 62 67 55 68 56 69 57 70 58 71 59 72 5 73 6 74
REMARK SMILES IDX 7 75 8 76 9 77 10 78 23 79 11 80 21 81 12 83 22 84 13 85
REMARK SMILES IDX 14 86 15 87 20 88 16 89 18 90 17 91 19 92
REMARK H PARENT 83 22 49 33 23 82
REMARK Flexibility Score: inf
ROOT
ATOM      1  C   UNL A   1      37.393  21.865  24.281  1.00  0.00     0.275 C 
ENDROOT
BRANCH   1   2
ATOM      2  O   UNL A   1      37.899  21.816  25.633  1.00  0.00    -0.458 OA
BRANCH   2   3
ATOM      3  C   UNL A   1      39.133  21.966  26.170  1.00  0.00     0.338 C 
ATOM      4  O   UNL A   1      39.893  20.997  26.117  1.00  0.00    -0.246 OA
BRANCH   3   5
ATOM      5  C   UNL A   1      39.633  23.168  26.926  1.00  0.00     0.060 A 
ATOM      6  C   UNL A   1      40.661  23.191  27.866  1.00  0.00     0.016 A 
ATOM      7  C   UNL A   1      39.022  24.409  26.619  1.00  0.00     0.016 A 
ATOM      8  C   UNL A   1      41.153  24.418  28.359  1.00  0.00     0.010 A 
ATOM      9  C   UNL A   1      39.508  25.635  27.120  1.00  0.00     0.010 A 
ATOM     10  C   UNL A   1      40.630  25.658  27.946  1.00  0.00    -0.014 A 
BRANCH  10  11
ATOM     11  C   UNL A   1      41.255  26.922  28.446  1.00  0.00     0.031 A 
ATOM     12  C   UNL A   1      42.669  27.201  28.030  1.00  0.00     0.074 A 
ATOM     13  C   UNL A   1      40.590  27.835  29.196  1.00  0.00     0.049 A 
ATOM     14  N   UNL A   1      43.401  28.259  28.253  1.00  0.00    -0.248 NA
ATOM     15  C   UNL A   1      43.364  26.126  27.301  1.00  0.00     0.031 C 
ATOM     16  C   UNL A   1      39.252  27.660  29.751  1.00  0.00     0.029 A 
ATOM     17  N   UNL A   1      40.925  29.114  29.602  1.00  0.00    -0.354 N 
ATOM     18  C   UNL A   1      44.654  27.954  27.746  1.00  0.00     0.074 A 
ATOM     19  C   UNL A   1      44.572  26.642  27.145  1.00  0.00     0.031 C 
ATOM     20  C   UNL A   1      38.829  28.814  30.299  1.00  0.00     0.029 A 
ATOM     21  C   UNL A   1      39.897  29.805  30.224  1.00  0.00     0.049 A 
ATOM     22  H   UNL A   1      41.819  29.501  29.461  1.00  0.00     0.167 HD
ATOM     23  C   UNL A   1      45.792  28.674  27.837  1.00  0.00     0.037 A 
ATOM     24  C   UNL A   1      39.832  31.079  30.687  1.00  0.00     0.037 A 
ATOM     25  C   UNL A   1      45.888  29.953  28.479  1.00  0.00     0.049 A 
ATOM     26  C   UNL A   1      41.103  31.901  30.666  1.00  0.00     0.074 A 
ATOM     27  C   UNL A   1      47.016  30.727  28.675  1.00  0.00     0.029 A 
ATOM     28  N   UNL A   1      44.822  30.635  29.043  1.00  0.00    -0.354 N 
ATOM     29  N   UNL A   1      42.264  31.608  30.132  1.00  0.00    -0.248 NA
ATOM     30  C   UNL A   1      41.078  33.197  31.365  1.00  0.00     0.031 C 
ATOM     31  C   UNL A   1      46.642  31.857  29.404  1.00  0.00     0.029 A 
ATOM     32  C   UNL A   1      45.273  31.813  29.609  1.00  0.00     0.049 A 
ATOM     33  H   UNL A   1      43.888  30.327  29.041  1.00  0.00     0.167 HD
ATOM     34  C   UNL A   1      43.109  32.659  30.470  1.00  0.00     0.074 A 
ATOM     35  C   UNL A   1      42.311  33.641  31.167  1.00  0.00     0.031 C 
ATOM     36  C   UNL A   1      44.443  32.777  30.280  1.00  0.00     0.037 A 
BRANCH  23  37
ATOM     37  C   UNL A   1      47.047  28.038  27.326  1.00  0.00     0.058 A 
ATOM     38  C   UNL A   1      47.830  27.254  28.188  1.00  0.00     0.135 A 
ATOM     39  C   UNL A   1      47.485  28.216  26.008  1.00  0.00     0.135 A 
ATOM     40  F   UNL A   1      47.433  27.033  29.451  1.00  0.00    -0.206 F 
ATOM     41  C   UNL A   1      49.026  26.693  27.767  1.00  0.00     0.059 A 
ATOM     42  C   UNL A   1      48.668  27.641  25.557  1.00  0.00     0.059 A 
ATOM     43  F   UNL A   1      46.742  28.917  25.137  1.00  0.00    -0.206 F 
ATOM     44  C   UNL A   1      49.440  26.898  26.450  1.00  0.00     0.060 A 
BRANCH  44  45
ATOM     45  S   UNL A   1      50.996  26.157  25.920  1.00  0.00     0.124 S 
ATOM     46  O   UNL A   1      50.810  26.072  24.476  1.00  0.00    -0.237 OA
ATOM     47  O   UNL A   1      51.974  27.137  26.382  1.00  0.00    -0.237 OA
ATOM     48  O   UNL A   1      51.019  24.880  26.629  1.00  0.00    -0.744 OA
ENDBRANCH  44  45
ENDBRANCH  23  37
BRANCH  24  49
ATOM     49  C   UNL A   1      38.581  31.697  31.251  1.00  0.00     0.058 A 
ATOM     50  C   UNL A   1      37.666  32.423  30.473  1.00  0.00     0.135 A 
ATOM     51  C   UNL A   1      38.238  31.502  32.606  1.00  0.00     0.135 A 
ATOM     52  F   UNL A   1      37.900  32.627  29.168  1.00  0.00    -0.206 F 
ATOM     53  C   UNL A   1      36.504  32.972  31.016  1.00  0.00     0.059 A 
ATOM     54  C   UNL A   1      37.047  31.977  33.156  1.00  0.00     0.059 A 
ATOM     55  F   UNL A   1      39.068  30.826  33.415  1.00  0.00    -0.206 F 
ATOM     56  C   UNL A   1      36.204  32.748  32.360  1.00  0.00     0.060 A 
BRANCH  56  57
ATOM     57  S   UNL A   1      34.768  33.581  33.079  1.00  0.00     0.124 S 
ATOM     58  O   UNL A   1      35.051  33.451  34.505  1.00  0.00    -0.237 OA
ATOM     59  O   UNL A   1      34.882  34.926  32.527  1.00  0.00    -0.237 OA
ATOM     60  O   UNL A   1      33.642  32.791  32.593  1.00  0.00    -0.744 OA
ENDBRANCH  56  57
ENDBRANCH  24  49
BRANCH  36  61
ATOM     61  C   UNL A   1      45.135  33.973  30.867  1.00  0.00     0.058 A 
ATOM     62  C   UNL A   1      45.375  35.114  30.088  1.00  0.00     0.135 A 
ATOM     63  C   UNL A   1      45.695  33.917  32.154  1.00  0.00     0.135 A 
ATOM     64  F   UNL A   1      44.862  35.210  28.852  1.00  0.00    -0.206 F 
ATOM     65  C   UNL A   1      46.191  36.140  30.547  1.00  0.00     0.059 A 
ATOM     66  C   UNL A   1      46.491  34.945  32.643  1.00  0.00     0.059 A 
ATOM     67  F   UNL A   1      45.479  32.850  32.940  1.00  0.00    -0.206 F 
ATOM     68  C   UNL A   1      46.758  36.039  31.819  1.00  0.00     0.060 A 
BRANCH  68  69
ATOM     69  S   UNL A   1      47.869  37.349  32.369  1.00  0.00     0.124 S 
ATOM     70  O   UNL A   1      47.439  37.543  33.751  1.00  0.00    -0.237 OA
ATOM     71  O   UNL A   1      49.179  36.732  32.193  1.00  0.00    -0.237 OA
ATOM     72  O   UNL A   1      47.573  38.451  31.459  1.00  0.00    -0.744 OA
ENDBRANCH  68  69
ENDBRANCH  36  61
ENDBRANCH  10  11
ENDBRANCH   3   5
ENDBRANCH   2   3
ENDBRANCH   1   2
BRANCH   1  73
ATOM     73  C   UNL A   1      36.901  23.248  23.869  1.00  0.00     0.274 C 
BRANCH  73  74
ATOM     74  O   UNL A   1      35.625  23.509  24.449  1.00  0.00    -0.461 OA
BRANCH  74  75
ATOM     75  C   UNL A   1      34.531  23.513  23.628  1.00  0.00     0.329 C 
ATOM     76  O   UNL A   1      34.549  23.747  22.431  1.00  0.00    -0.250 OA
BRANCH  75  77
ATOM     77  C   UNL A   1      33.264  23.153  24.430  1.00  0.00     0.202 C 
ATOM     78  C   UNL A   1      33.577  22.231  25.595  1.00  0.00     0.107 C 
ATOM     79  N   UNL A   1      32.246  22.620  23.530  1.00  0.00    -0.341 N 
ATOM     80  S   UNL A   1      34.048  20.581  24.978  1.00  0.00    -0.145 SA
ATOM     81  C   UNL A   1      32.228  21.335  23.054  1.00  0.00     0.234 C 
ATOM     82  H   UNL A   1      31.524  23.224  23.246  1.00  0.00     0.164 HD
ATOM     83  C   UNL A   1      32.493  20.238  24.052  1.00  0.00     0.140 C 
ATOM     84  O   UNL A   1      31.915  21.125  21.884  1.00  0.00    -0.274 OA
BRANCH  83  85
ATOM     85  C   UNL A   1      32.465  18.884  23.328  1.00  0.00     0.060 C 
BRANCH  85  86
ATOM     86  C   UNL A   1      33.091  17.833  24.198  1.00  0.00    -0.043 A 
ATOM     87  C   UNL A   1      34.395  17.411  23.924  1.00  0.00     0.004 A 
ATOM     88  C   UNL A   1      32.318  17.139  25.132  1.00  0.00     0.043 A 
ATOM     89  C   UNL A   1      34.873  16.241  24.501  1.00  0.00     0.003 A 
ATOM     90  C   UNL A   1      32.827  15.989  25.721  1.00  0.00     0.123 A 
ATOM     91  C   UNL A   1      34.092  15.524  25.398  1.00  0.00     0.039 A 
ATOM     92  F   UNL A   1      32.059  15.291  26.567  1.00  0.00    -0.207 F 
ENDBRANCH  85  86
ENDBRANCH  83  85
ENDBRANCH  75  77
ENDBRANCH  74  75
ENDBRANCH  73  74
ENDBRANCH   1  73
TORSDOF 16
ENDMDL
MODEL 3
REMARK VINA RESULT:     -11.5      3.744      8.952
REMARK SMILES O=C(OCCOC(=O)[C@@H]1CS[C@H](Cc2cccc(F)c2)C(=O)N1)c1ccc(-c2c3nc(c(-c4c(F)cc(S(=O)(=O)[O-])cc4F)c4ccc([nH]4)c(-c4c(F)cc(S(=O)(=O)[O-])cc4F)c4nc(c(-c5c(F)cc(S(=O)(=O)[O-])cc5F)c5ccc2[nH]5)C=C4)C=C3)cc1
REMARK SMILES IDX 4 1 3 2 2 3 1 4 24 5 25 6 89 7 26 8 88 9 27 10 28 11 29 12
REMARK SMILES IDX 82 13 30 14 87 15 81 16 83 17 31 18 86 19 80 20 79 21 32 23
REMARK SMILES IDX 66 24 45 25 65 26 46 27 49 28 64 29 84 30 47 31 48 32 63 34
REMARK SMILES IDX 85 35 50 36 33 37 34 38 43 39 35 40 36 41 42 42 44 43 37 44
REMARK SMILES IDX 38 45 39 46 40 47 41 48 67 49 68 50 77 51 69 52 70 53 76 54
REMARK SMILES IDX 78 55 71 56 72 57 73 58 74 59 75 60 51 61 52 62 61 63 53 64
REMARK SMILES IDX 54 65 60 66 62 67 55 68 56 69 57 70 58 71 59 72 5 73 6 74
REMARK SMILES IDX 7 75 8 76 9 77 10 78 23 79 11 80 21 81 12 83 22 84 13 85
REMARK SMILES IDX 14 86 15 87 20 88 16 89 18 90 17 91 19 92
REMARK H PARENT 83 22 49 33 23 82
REMARK Flexibility Score: inf
ROOT
ATOM      1  C   UNL A   1      31.960  30.251  26.324  1.00  0.00     0.275 C 
ENDROOT
BRANCH   1   2
ATOM      2  O   UNL A   1      33.354  30.619  26.421  1.00  0.00    -0.458 OA
BRANCH   2   3
ATOM      3  C   UNL A   1      34.095  31.206  27.390  1.00  0.00     0.338 C 
ATOM      4  O   UNL A   1      33.621  32.203  27.938  1.00  0.00    -0.246 OA
BRANCH   3   5
ATOM      5  C   UNL A   1      35.495  30.823  27.791  1.00  0.00     0.060 A 
ATOM      6  C   UNL A   1      36.561  31.691  28.018  1.00  0.00     0.016 A 
ATOM      7  C   UNL A   1      35.740  29.444  28.000  1.00  0.00     0.016 A 
ATOM      8  C   UNL A   1      37.768  31.213  28.572  1.00  0.00     0.010 A 
ATOM      9  C   UNL A   1      36.951  28.965  28.544  1.00  0.00     0.010 A 
ATOM     10  C   UNL A   1      37.958  29.858  28.904  1.00  0.00    -0.014 A 
BRANCH  10  11
ATOM     11  C   UNL A   1      39.232  29.435  29.564  1.00  0.00     0.031 A 
ATOM     12  C   UNL A   1      39.512  29.983  30.932  1.00  0.00     0.074 A 
ATOM     13  C   UNL A   1      40.098  28.549  29.014  1.00  0.00     0.049 A 
ATOM     14  N   UNL A   1      40.492  29.705  31.748  1.00  0.00    -0.248 NA
ATOM     15  C   UNL A   1      38.583  31.014  31.429  1.00  0.00     0.031 C 
ATOM     16  C   UNL A   1      40.008  28.007  27.662  1.00  0.00     0.029 A 
ATOM     17  N   UNL A   1      41.214  27.912  29.525  1.00  0.00    -0.354 N 
ATOM     18  C   UNL A   1      40.332  30.565  32.823  1.00  0.00     0.074 A 
ATOM     19  C   UNL A   1      39.128  31.330  32.593  1.00  0.00     0.031 C 
ATOM     20  C   UNL A   1      40.923  27.036  27.496  1.00  0.00     0.029 A 
ATOM     21  C   UNL A   1      41.744  26.934  28.697  1.00  0.00     0.049 A 
ATOM     22  H   UNL A   1      41.600  28.135  30.402  1.00  0.00     0.167 HD
ATOM     23  C   UNL A   1      41.157  30.753  33.875  1.00  0.00     0.037 A 
ATOM     24  C   UNL A   1      42.774  26.071  28.884  1.00  0.00     0.037 A 
ATOM     25  C   UNL A   1      42.381  30.032  34.078  1.00  0.00     0.049 A 
ATOM     26  C   UNL A   1      43.610  26.234  30.137  1.00  0.00     0.074 A 
ATOM     27  C   UNL A   1      43.313  30.200  35.085  1.00  0.00     0.029 A 
ATOM     28  N   UNL A   1      42.849  29.022  33.254  1.00  0.00    -0.354 N 
ATOM     29  N   UNL A   1      43.407  27.021  31.166  1.00  0.00    -0.248 NA
ATOM     30  C   UNL A   1      44.849  25.442  30.228  1.00  0.00     0.031 C 
ATOM     31  C   UNL A   1      44.373  29.326  34.842  1.00  0.00     0.029 A 
ATOM     32  C   UNL A   1      44.071  28.574  33.718  1.00  0.00     0.049 A 
ATOM     33  H   UNL A   1      42.382  28.677  32.460  1.00  0.00     0.167 HD
ATOM     34  C   UNL A   1      44.509  26.848  31.995  1.00  0.00     0.074 A 
ATOM     35  C   UNL A   1      45.329  25.815  31.405  1.00  0.00     0.031 C 
ATOM     36  C   UNL A   1      44.852  27.528  33.113  1.00  0.00     0.037 A 
BRANCH  23  37
ATOM     37  C   UNL A   1      40.816  31.858  34.824  1.00  0.00     0.058 A 
ATOM     38  C   UNL A   1      41.345  33.142  34.616  1.00  0.00     0.135 A 
ATOM     39  C   UNL A   1      39.994  31.651  35.939  1.00  0.00     0.135 A 
ATOM     40  F   UNL A   1      42.113  33.392  33.544  1.00  0.00    -0.206 F 
ATOM     41  C   UNL A   1      41.095  34.178  35.502  1.00  0.00     0.059 A 
ATOM     42  C   UNL A   1      39.710  32.682  36.827  1.00  0.00     0.059 A 
ATOM     43  F   UNL A   1      39.428  30.451  36.150  1.00  0.00    -0.206 F 
ATOM     44  C   UNL A   1      40.280  33.936  36.610  1.00  0.00     0.060 A 
BRANCH  44  45
ATOM     45  S   UNL A   1      39.964  35.298  37.749  1.00  0.00     0.124 S 
ATOM     46  O   UNL A   1      38.738  34.859  38.406  1.00  0.00    -0.237 OA
ATOM     47  O   UNL A   1      41.169  35.293  38.573  1.00  0.00    -0.237 OA
ATOM     48  O   UNL A   1      39.827  36.452  36.864  1.00  0.00    -0.744 OA
ENDBRANCH  44  45
ENDBRANCH  23  37
BRANCH  24  49
ATOM     49  C   UNL A   1      43.149  24.995  27.901  1.00  0.00     0.058 A 
ATOM     50  C   UNL A   1      42.687  23.674  27.998  1.00  0.00     0.135 A 
ATOM     51  C   UNL A   1      43.942  25.303  26.776  1.00  0.00     0.135 A 
ATOM     52  F   UNL A   1      41.902  23.304  29.021  1.00  0.00    -0.206 F 
ATOM     53  C   UNL A   1      43.035  22.697  27.063  1.00  0.00     0.059 A 
ATOM     54  C   UNL A   1      44.243  24.365  25.788  1.00  0.00     0.059 A 
ATOM     55  F   UNL A   1      44.427  26.545  26.620  1.00  0.00    -0.206 F 
ATOM     56  C   UNL A   1      43.817  23.051  25.963  1.00  0.00     0.060 A 
BRANCH  56  57
ATOM     57  S   UNL A   1      44.372  21.747  24.839  1.00  0.00     0.124 S 
ATOM     58  O   UNL A   1      44.225  22.407  23.545  1.00  0.00    -0.237 OA
ATOM     59  O   UNL A   1      45.740  21.515  25.284  1.00  0.00    -0.237 OA
ATOM     60  O   UNL A   1      43.431  20.661  25.094  1.00  0.00    -0.744 OA
ENDBRANCH  56  57
ENDBRANCH  24  49
BRANCH  36  61
ATOM     61  C   UNL A   1      46.177  27.220  33.746  1.00  0.00     0.058 A 
ATOM     62  C   UNL A   1      47.348  27.845  33.293  1.00  0.00     0.135 A 
ATOM     63  C   UNL A   1      46.298  26.190  34.693  1.00  0.00     0.135 A 
ATOM     64  F   UNL A   1      47.282  28.833  32.387  1.00  0.00    -0.206 F 
ATOM     65  C   UNL A   1      48.600  27.423  33.721  1.00  0.00     0.059 A 
ATOM     66  C   UNL A   1      47.539  25.771  35.155  1.00  0.00     0.059 A 
ATOM     67  F   UNL A   1      45.201  25.575  35.165  1.00  0.00    -0.206 F 
ATOM     68  C   UNL A   1      48.686  26.374  34.640  1.00  0.00     0.060 A 
BRANCH  68  69
ATOM     69  S   UNL A   1      50.322  25.796  35.130  1.00  0.00     0.124 S 
ATOM     70  O   UNL A   1      51.114  27.017  35.024  1.00  0.00    -0.237 OA
ATOM     71  O   UNL A   1      50.082  25.310  36.485  1.00  0.00    -0.237 OA
ATOM     72  O   UNL A   1      50.628  24.763  34.145  1.00  0.00    -0.744 OA
ENDBRANCH  68  69
ENDBRANCH  36  61
ENDBRANCH  10  11
ENDBRANCH   3   5
ENDBRANCH   2   3
ENDBRANCH   1   2
BRANCH   1  73
ATOM     73  C   UNL A   1      31.743  28.849  25.767  1.00  0.00     0.274 C 
BRANCH  73  74
ATOM     74  O   UNL A   1      30.992  28.911  24.556  1.00  0.00    -0.461 OA
BRANCH  74  75
ATOM     75  C   UNL A   1      31.567  28.422  23.415  1.00  0.00     0.329 C 
ATOM     76  O   UNL A   1      32.620  28.807  22.936  1.00  0.00    -0.250 OA
BRANCH  75  77
ATOM     77  C   UNL A   1      30.699  27.289  22.828  1.00  0.00     0.202 C 
ATOM     78  C   UNL A   1      30.374  26.232  23.867  1.00  0.00     0.107 C 
ATOM     79  N   UNL A   1      31.341  26.747  21.633  1.00  0.00    -0.341 N 
ATOM     80  S   UNL A   1      31.878  25.295  24.299  1.00  0.00    -0.145 SA
ATOM     81  C   UNL A   1      32.378  25.853  21.648  1.00  0.00     0.234 C 
ATOM     82  H   UNL A   1      31.004  27.044  20.758  1.00  0.00     0.164 HD
ATOM     83  C   UNL A   1      32.259  24.691  22.601  1.00  0.00     0.140 C 
ATOM     84  O   UNL A   1      33.299  25.977  20.844  1.00  0.00    -0.274 OA
BRANCH  83  85
ATOM     85  C   UNL A   1      33.524  23.826  22.498  1.00  0.00     0.060 C 
BRANCH  85  86
ATOM     86  C   UNL A   1      33.373  22.607  23.361  1.00  0.00    -0.043 A 
ATOM     87  C   UNL A   1      34.258  22.412  24.425  1.00  0.00     0.004 A 
ATOM     88  C   UNL A   1      32.501  21.582  22.985  1.00  0.00     0.043 A 
ATOM     89  C   UNL A   1      34.340  21.164  25.029  1.00  0.00     0.003 A 
ATOM     90  C   UNL A   1      32.578  20.351  23.623  1.00  0.00     0.123 A 
ATOM     91  C   UNL A   1      33.505  20.128  24.630  1.00  0.00     0.039 A 
ATOM     92  F   UNL A   1      31.786  19.352  23.217  1.00  0.00    -0.207 F 
ENDBRANCH  85  86
ENDBRANCH  83  85
ENDBRANCH  75  77
ENDBRANCH  74  75
ENDBRANCH  73  74
ENDBRANCH   1  73
TORSDOF 16
ENDMDL
