MODEL 1
REMARK VINA RESULT:     -11.5      0.000      0.000
REMARK SMILES O=C(COc1nc(NCc2cccc(Cl)c2)nc2c1CCC2)OCCOC(=O)c1ccc(-c2c3nc(c(-c4c(F)cc(S(=O)(=O)[O-])cc4F)c4ccc([nH]4)c(-c4c(F)cc(S(=O)(=O)[O-])cc4F)c4nc(c(-c5c(F)cc(S(=O)(=O)[O-])cc5F)c5ccc2[nH]5)C=C4)C=C3)cc1
REMARK SMILES IDX 24 1 23 2 2 3 1 4 3 5 4 6 5 7 6 8 19 9 7 10 18 11 20 12
REMARK SMILES IDX 17 13 22 14 21 15 8 16 9 18 10 19 11 20 16 21 12 22 14 23
REMARK SMILES IDX 13 24 15 25 25 26 26 27 27 28 28 29 29 30 30 31 94 32 31 33
REMARK SMILES IDX 93 34 32 35 33 36 34 37 87 38 35 39 92 40 86 41 88 42 36 43
REMARK SMILES IDX 91 44 85 45 84 46 37 48 71 49 50 50 70 51 51 52 54 53 69 54
REMARK SMILES IDX 89 55 52 56 53 57 68 59 90 60 55 61 38 62 39 63 48 64 40 65
REMARK SMILES IDX 41 66 47 67 49 68 42 69 43 70 44 71 45 72 46 73 72 74 73 75
REMARK SMILES IDX 82 76 74 77 75 78 81 79 83 80 76 81 77 82 78 83 79 84 80 85
REMARK SMILES IDX 56 86 57 87 66 88 58 89 59 90 65 91 67 92 60 93 61 94 62 95
REMARK SMILES IDX 63 96 64 97
REMARK H PARENT 8 17 88 47 54 58
REMARK Flexibility Score: inf
ROOT
ATOM      1  C   UNL A   1      39.121  21.633  26.133  1.00  0.00     0.274 C 
ENDROOT
BRANCH   1   2
ATOM      2  O   UNL A   1      38.411  22.678  25.436  1.00  0.00    -0.460 OA
BRANCH   2   3
ATOM      3  C   UNL A   1      37.059  22.779  25.398  1.00  0.00     0.344 C 
ATOM      4  O   UNL A   1      36.487  23.626  26.082  1.00  0.00    -0.248 OA
BRANCH   3   5
ATOM      5  C   UNL A   1      36.282  21.795  24.520  1.00  0.00     0.353 C 
BRANCH   5   6
ATOM      6  O   UNL A   1      36.114  20.474  25.011  1.00  0.00    -0.465 OA
BRANCH   6   7
ATOM      7  C   UNL A   1      34.773  20.193  25.014  1.00  0.00     0.222 A 
ATOM      8  N   UNL A   1      33.951  21.157  25.446  1.00  0.00    -0.177 NA
ATOM      9  C   UNL A   1      34.346  18.958  24.651  1.00  0.00     0.036 A 
ATOM     10  C   UNL A   1      32.651  20.846  25.570  1.00  0.00     0.226 A 
ATOM     11  C   UNL A   1      32.999  18.742  24.787  1.00  0.00     0.053 A 
ATOM     12  C   UNL A   1      35.087  17.732  24.266  1.00  0.00     0.043 C 
ATOM     13  N   UNL A   1      32.125  19.656  25.237  1.00  0.00    -0.218 NA
ATOM     14  C   UNL A   1      32.670  17.302  24.503  1.00  0.00     0.057 C 
ATOM     15  C   UNL A   1      33.936  16.853  23.754  1.00  0.00     0.011 C 
BRANCH  10  16
ATOM     16  N   UNL A   1      31.892  21.839  26.113  1.00  0.00    -0.350 N 
ATOM     17  H   UNL A   1      32.088  22.116  27.036  1.00  0.00     0.164 HD
BRANCH  16  18
ATOM     18  C   UNL A   1      30.826  22.507  25.427  1.00  0.00     0.152 C 
BRANCH  18  19
ATOM     19  C   UNL A   1      31.295  23.796  24.788  1.00  0.00    -0.027 A 
ATOM     20  C   UNL A   1      30.748  24.263  23.580  1.00  0.00     0.005 A 
ATOM     21  C   UNL A   1      32.254  24.589  25.439  1.00  0.00     0.026 A 
ATOM     22  C   UNL A   1      31.155  25.484  23.034  1.00  0.00     0.002 A 
ATOM     23  C   UNL A   1      32.646  25.813  24.896  1.00  0.00     0.041 A 
ATOM     24  C   UNL A   1      32.101  26.263  23.696  1.00  0.00     0.020 A 
ATOM     25  Cl  UNL A   1      33.795  26.789  25.728  1.00  0.00    -0.084 Cl
ENDBRANCH  18  19
ENDBRANCH  16  18
ENDBRANCH  10  16
ENDBRANCH   6   7
ENDBRANCH   5   6
ENDBRANCH   3   5
ENDBRANCH   2   3
ENDBRANCH   1   2
BRANCH   1  26
ATOM     26  C   UNL A   1      40.509  22.108  26.573  1.00  0.00     0.275 C 
BRANCH  26  27
ATOM     27  O   UNL A   1      40.603  23.542  26.474  1.00  0.00    -0.458 OA
BRANCH  27  28
ATOM     28  C   UNL A   1      41.782  24.094  26.864  1.00  0.00     0.338 C 
ATOM     29  O   UNL A   1      42.890  23.809  26.448  1.00  0.00    -0.246 OA
BRANCH  28  30
ATOM     30  C   UNL A   1      41.494  25.253  27.741  1.00  0.00     0.060 A 
ATOM     31  C   UNL A   1      42.472  26.247  27.878  1.00  0.00     0.016 A 
ATOM     32  C   UNL A   1      40.265  25.383  28.397  1.00  0.00     0.016 A 
ATOM     33  C   UNL A   1      42.235  27.356  28.696  1.00  0.00     0.010 A 
ATOM     34  C   UNL A   1      40.034  26.487  29.222  1.00  0.00     0.010 A 
ATOM     35  C   UNL A   1      41.027  27.465  29.398  1.00  0.00    -0.014 A 
BRANCH  35  36
ATOM     36  C   UNL A   1      40.847  28.503  30.441  1.00  0.00     0.031 A 
ATOM     37  C   UNL A   1      41.743  28.473  31.648  1.00  0.00     0.074 A 
ATOM     38  C   UNL A   1      39.902  29.453  30.333  1.00  0.00     0.049 A 
ATOM     39  N   UNL A   1      41.723  29.226  32.718  1.00  0.00    -0.248 NA
ATOM     40  C   UNL A   1      42.804  27.455  31.644  1.00  0.00     0.031 C 
ATOM     41  C   UNL A   1      39.006  29.630  29.192  1.00  0.00     0.029 A 
ATOM     42  N   UNL A   1      39.539  30.448  31.206  1.00  0.00    -0.354 N 
ATOM     43  C   UNL A   1      42.778  28.784  33.508  1.00  0.00     0.074 A 
ATOM     44  C   UNL A   1      43.387  27.668  32.814  1.00  0.00     0.031 C 
ATOM     45  C   UNL A   1      38.195  30.674  29.436  1.00  0.00     0.029 A 
ATOM     46  C   UNL A   1      38.492  31.217  30.763  1.00  0.00     0.049 A 
ATOM     47  H   UNL A   1      39.988  30.597  32.070  1.00  0.00     0.167 HD
ATOM     48  C   UNL A   1      43.211  29.268  34.697  1.00  0.00     0.037 A 
ATOM     49  C   UNL A   1      37.841  32.235  31.361  1.00  0.00     0.037 A 
ATOM     50  C   UNL A   1      42.583  30.349  35.409  1.00  0.00     0.049 A 
ATOM     51  C   UNL A   1      38.263  32.688  32.734  1.00  0.00     0.074 A 
ATOM     52  C   UNL A   1      42.916  30.878  36.643  1.00  0.00     0.029 A 
ATOM     53  N   UNL A   1      41.487  31.066  34.952  1.00  0.00    -0.354 N 
ATOM     54  N   UNL A   1      39.238  32.239  33.488  1.00  0.00    -0.248 NA
ATOM     55  C   UNL A   1      37.494  33.786  33.337  1.00  0.00     0.031 C 
ATOM     56  C   UNL A   1      41.999  31.891  36.949  1.00  0.00     0.029 A 
ATOM     57  C   UNL A   1      41.123  32.024  35.884  1.00  0.00     0.049 A 
ATOM     58  H   UNL A   1      41.033  30.915  34.092  1.00  0.00     0.167 HD
ATOM     59  C   UNL A   1      39.221  33.019  34.640  1.00  0.00     0.074 A 
ATOM     60  C   UNL A   1      38.136  33.967  34.484  1.00  0.00     0.031 C 
ATOM     61  C   UNL A   1      40.037  32.961  35.724  1.00  0.00     0.037 A 
BRANCH  48  62
ATOM     62  C   UNL A   1      44.409  28.594  35.303  1.00  0.00     0.058 A 
ATOM     63  C   UNL A   1      44.271  27.497  36.170  1.00  0.00     0.135 A 
ATOM     64  C   UNL A   1      45.705  29.065  35.044  1.00  0.00     0.135 A 
ATOM     65  F   UNL A   1      43.052  27.021  36.468  1.00  0.00    -0.206 F 
ATOM     66  C   UNL A   1      45.372  26.921  36.795  1.00  0.00     0.059 A 
ATOM     67  C   UNL A   1      46.824  28.487  35.637  1.00  0.00     0.059 A 
ATOM     68  F   UNL A   1      45.893  30.113  34.226  1.00  0.00    -0.206 F 
ATOM     69  C   UNL A   1      46.644  27.431  36.530  1.00  0.00     0.060 A 
BRANCH  69  70
ATOM     70  S   UNL A   1      48.059  26.706  37.383  1.00  0.00     0.124 S 
ATOM     71  O   UNL A   1      48.310  27.699  38.423  1.00  0.00    -0.237 OA
ATOM     72  O   UNL A   1      47.528  25.428  37.843  1.00  0.00    -0.237 OA
ATOM     73  O   UNL A   1      49.077  26.620  36.341  1.00  0.00    -0.744 OA
ENDBRANCH  69  70
ENDBRANCH  48  62
BRANCH  49  74
ATOM     74  C   UNL A   1      36.731  32.914  30.644  1.00  0.00     0.058 A 
ATOM     75  C   UNL A   1      35.395  32.596  30.928  1.00  0.00     0.135 A 
ATOM     76  C   UNL A   1      36.979  33.926  29.704  1.00  0.00     0.135 A 
ATOM     77  F   UNL A   1      35.110  31.621  31.805  1.00  0.00    -0.206 F 
ATOM     78  C   UNL A   1      34.342  33.269  30.319  1.00  0.00     0.059 A 
ATOM     79  C   UNL A   1      35.943  34.625  29.095  1.00  0.00     0.059 A 
ATOM     80  F   UNL A   1      38.241  34.269  29.403  1.00  0.00    -0.206 F 
ATOM     81  C   UNL A   1      34.626  34.293  29.413  1.00  0.00     0.060 A 
BRANCH  81  82
ATOM     82  S   UNL A   1      33.253  35.236  28.716  1.00  0.00     0.124 S 
ATOM     83  O   UNL A   1      33.955  36.245  27.930  1.00  0.00    -0.237 OA
ATOM     84  O   UNL A   1      32.539  34.216  27.957  1.00  0.00    -0.237 OA
ATOM     85  O   UNL A   1      32.552  35.730  29.898  1.00  0.00    -0.744 OA
ENDBRANCH  81  82
ENDBRANCH  49  74
BRANCH  61  86
ATOM     86  C   UNL A   1      39.814  33.971  36.816  1.00  0.00     0.058 A 
ATOM     87  C   UNL A   1      39.001  33.695  37.928  1.00  0.00     0.135 A 
ATOM     88  C   UNL A   1      40.455  35.220  36.770  1.00  0.00     0.135 A 
ATOM     89  F   UNL A   1      38.361  32.518  38.021  1.00  0.00    -0.206 F 
ATOM     90  C   UNL A   1      38.809  34.632  38.939  1.00  0.00     0.059 A 
ATOM     91  C   UNL A   1      40.298  36.162  37.782  1.00  0.00     0.059 A 
ATOM     92  F   UNL A   1      41.255  35.531  35.737  1.00  0.00    -0.206 F 
ATOM     93  C   UNL A   1      39.460  35.864  38.856  1.00  0.00     0.060 A 
BRANCH  93  94
ATOM     94  S   UNL A   1      39.215  37.066  40.181  1.00  0.00     0.124 S 
ATOM     95  O   UNL A   1      38.471  36.277  41.159  1.00  0.00    -0.237 OA
ATOM     96  O   UNL A   1      40.584  37.407  40.552  1.00  0.00    -0.237 OA
ATOM     97  O   UNL A   1      38.461  38.137  39.535  1.00  0.00    -0.744 OA
ENDBRANCH  93  94
ENDBRANCH  61  86
ENDBRANCH  35  36
ENDBRANCH  28  30
ENDBRANCH  27  28
ENDBRANCH  26  27
ENDBRANCH   1  26
TORSDOF 19
ENDMDL
MODEL 2
REMARK VINA RESULT:     -11.4      0.895      8.163
REMARK SMILES O=C(COc1nc(NCc2cccc(Cl)c2)nc2c1CCC2)OCCOC(=O)c1ccc(-c2c3nc(c(-c4c(F)cc(S(=O)(=O)[O-])cc4F)c4ccc([nH]4)c(-c4c(F)cc(S(=O)(=O)[O-])cc4F)c4nc(c(-c5c(F)cc(S(=O)(=O)[O-])cc5F)c5ccc2[nH]5)C=C4)C=C3)cc1
REMARK SMILES IDX 24 1 23 2 2 3 1 4 3 5 4 6 5 7 6 8 19 9 7 10 18 11 20 12
REMARK SMILES IDX 17 13 22 14 21 15 8 16 9 18 10 19 11 20 16 21 12 22 14 23
REMARK SMILES IDX 13 24 15 25 25 26 26 27 27 28 28 29 29 30 30 31 94 32 31 33
REMARK SMILES IDX 93 34 32 35 33 36 34 37 87 38 35 39 92 40 86 41 88 42 36 43
REMARK SMILES IDX 91 44 85 45 84 46 37 48 71 49 50 50 70 51 51 52 54 53 69 54
REMARK SMILES IDX 89 55 52 56 53 57 68 59 90 60 55 61 38 62 39 63 48 64 40 65
REMARK SMILES IDX 41 66 47 67 49 68 42 69 43 70 44 71 45 72 46 73 72 74 73 75
REMARK SMILES IDX 82 76 74 77 75 78 81 79 83 80 76 81 77 82 78 83 79 84 80 85
REMARK SMILES IDX 56 86 57 87 66 88 58 89 59 90 65 91 67 92 60 93 61 94 62 95
REMARK SMILES IDX 63 96 64 97
REMARK H PARENT 8 17 88 47 54 58
REMARK Flexibility Score: inf
ROOT
ATOM      1  C   UNL A   1      39.329  21.940  26.310  1.00  0.00     0.274 C 
ENDROOT
BRANCH   1   2
ATOM      2  O   UNL A   1      38.330  22.916  25.946  1.00  0.00    -0.460 OA
BRANCH   2   3
ATOM      3  C   UNL A   1      37.218  22.626  25.225  1.00  0.00     0.344 C 
ATOM      4  O   UNL A   1      36.987  23.236  24.182  1.00  0.00    -0.248 OA
BRANCH   3   5
ATOM      5  C   UNL A   1      36.260  21.562  25.764  1.00  0.00     0.353 C 
BRANCH   5   6
ATOM      6  O   UNL A   1      36.048  20.409  24.963  1.00  0.00    -0.465 OA
BRANCH   6   7
ATOM      7  C   UNL A   1      34.702  20.160  24.930  1.00  0.00     0.222 A 
ATOM      8  N   UNL A   1      33.890  21.155  25.312  1.00  0.00    -0.177 NA
ATOM      9  C   UNL A   1      34.255  18.927  24.584  1.00  0.00     0.036 A 
ATOM     10  C   UNL A   1      32.580  20.878  25.403  1.00  0.00     0.226 A 
ATOM     11  C   UNL A   1      32.900  18.747  24.683  1.00  0.00     0.053 A 
ATOM     12  C   UNL A   1      34.977  17.675  24.252  1.00  0.00     0.043 C 
ATOM     13  N   UNL A   1      32.035  19.693  25.082  1.00  0.00    -0.218 NA
ATOM     14  C   UNL A   1      32.545  17.309  24.423  1.00  0.00     0.057 C 
ATOM     15  C   UNL A   1      33.822  16.811  23.725  1.00  0.00     0.011 C 
BRANCH  10  16
ATOM     16  N   UNL A   1      31.829  21.902  25.897  1.00  0.00    -0.350 N 
ATOM     17  H   UNL A   1      30.899  21.982  25.587  1.00  0.00     0.164 HD
BRANCH  16  18
ATOM     18  C   UNL A   1      32.306  22.871  26.839  1.00  0.00     0.152 C 
BRANCH  18  19
ATOM     19  C   UNL A   1      32.454  24.238  26.207  1.00  0.00    -0.027 A 
ATOM     20  C   UNL A   1      33.715  24.829  26.014  1.00  0.00     0.005 A 
ATOM     21  C   UNL A   1      31.317  24.918  25.740  1.00  0.00     0.026 A 
ATOM     22  C   UNL A   1      33.835  26.068  25.379  1.00  0.00     0.002 A 
ATOM     23  C   UNL A   1      31.444  26.148  25.095  1.00  0.00     0.041 A 
ATOM     24  C   UNL A   1      32.699  26.726  24.913  1.00  0.00     0.020 A 
ATOM     25  Cl  UNL A   1      30.043  26.949  24.495  1.00  0.00    -0.084 Cl
ENDBRANCH  18  19
ENDBRANCH  16  18
ENDBRANCH  10  16
ENDBRANCH   6   7
ENDBRANCH   5   6
ENDBRANCH   3   5
ENDBRANCH   2   3
ENDBRANCH   1   2
BRANCH   1  26
ATOM     26  C   UNL A   1      40.680  22.609  26.579  1.00  0.00     0.275 C 
BRANCH  26  27
ATOM     27  O   UNL A   1      40.559  24.041  26.482  1.00  0.00    -0.458 OA
BRANCH  27  28
ATOM     28  C   UNL A   1      41.697  24.754  26.689  1.00  0.00     0.338 C 
ATOM     29  O   UNL A   1      42.718  24.702  26.027  1.00  0.00    -0.246 OA
BRANCH  28  30
ATOM     30  C   UNL A   1      41.435  25.770  27.736  1.00  0.00     0.060 A 
ATOM     31  C   UNL A   1      42.391  26.772  27.949  1.00  0.00     0.016 A 
ATOM     32  C   UNL A   1      40.251  25.761  28.479  1.00  0.00     0.016 A 
ATOM     33  C   UNL A   1      42.177  27.748  28.927  1.00  0.00     0.010 A 
ATOM     34  C   UNL A   1      40.043  26.730  29.464  1.00  0.00     0.010 A 
ATOM     35  C   UNL A   1      41.016  27.712  29.713  1.00  0.00    -0.014 A 
BRANCH  35  36
ATOM     36  C   UNL A   1      40.877  28.589  30.900  1.00  0.00     0.031 A 
ATOM     37  C   UNL A   1      39.864  29.699  30.861  1.00  0.00     0.074 A 
ATOM     38  C   UNL A   1      41.640  28.417  31.994  1.00  0.00     0.049 A 
ATOM     39  N   UNL A   1      39.619  30.633  31.744  1.00  0.00    -0.248 NA
ATOM     40  C   UNL A   1      39.015  29.760  29.662  1.00  0.00     0.031 C 
ATOM     41  C   UNL A   1      42.618  27.349  32.185  1.00  0.00     0.029 A 
ATOM     42  N   UNL A   1      41.708  29.150  33.153  1.00  0.00    -0.354 N 
ATOM     43  C   UNL A   1      38.575  31.384  31.216  1.00  0.00     0.074 A 
ATOM     44  C   UNL A   1      38.267  30.824  29.916  1.00  0.00     0.031 C 
ATOM     45  C   UNL A   1      43.191  27.496  33.393  1.00  0.00     0.029 A 
ATOM     46  C   UNL A   1      42.644  28.687  34.045  1.00  0.00     0.049 A 
ATOM     47  H   UNL A   1      41.140  29.935  33.328  1.00  0.00     0.167 HD
ATOM     48  C   UNL A   1      37.922  32.436  31.764  1.00  0.00     0.037 A 
ATOM     49  C   UNL A   1      43.021  29.172  35.245  1.00  0.00     0.037 A 
ATOM     50  C   UNL A   1      38.253  33.021  33.037  1.00  0.00     0.049 A 
ATOM     51  C   UNL A   1      42.363  30.411  35.791  1.00  0.00     0.074 A 
ATOM     52  C   UNL A   1      37.684  34.120  33.655  1.00  0.00     0.029 A 
ATOM     53  N   UNL A   1      39.247  32.558  33.886  1.00  0.00    -0.354 N 
ATOM     54  N   UNL A   1      41.403  31.136  35.266  1.00  0.00    -0.248 NA
ATOM     55  C   UNL A   1      42.841  30.899  37.092  1.00  0.00     0.031 C 
ATOM     56  C   UNL A   1      38.358  34.343  34.862  1.00  0.00     0.029 A 
ATOM     57  C   UNL A   1      39.316  33.355  35.017  1.00  0.00     0.049 A 
ATOM     58  H   UNL A   1      39.820  31.777  33.710  1.00  0.00     0.167 HD
ATOM     59  C   UNL A   1      41.140  32.146  36.187  1.00  0.00     0.074 A 
ATOM     60  C   UNL A   1      42.045  31.940  37.300  1.00  0.00     0.031 C 
ATOM     61  C   UNL A   1      40.225  33.146  36.119  1.00  0.00     0.037 A 
BRANCH  48  62
ATOM     62  C   UNL A   1      36.804  33.031  30.957  1.00  0.00     0.058 A 
ATOM     63  C   UNL A   1      37.052  33.970  29.943  1.00  0.00     0.135 A 
ATOM     64  C   UNL A   1      35.468  32.686  31.219  1.00  0.00     0.135 A 
ATOM     65  F   UNL A   1      38.310  34.350  29.667  1.00  0.00    -0.206 F 
ATOM     66  C   UNL A   1      36.014  34.582  29.248  1.00  0.00     0.059 A 
ATOM     67  C   UNL A   1      34.415  33.265  30.517  1.00  0.00     0.059 A 
ATOM     68  F   UNL A   1      35.175  31.796  32.180  1.00  0.00    -0.206 F 
ATOM     69  C   UNL A   1      34.698  34.230  29.550  1.00  0.00     0.060 A 
BRANCH  69  70
ATOM     70  S   UNL A   1      33.358  35.064  28.674  1.00  0.00     0.124 S 
ATOM     71  O   UNL A   1      32.754  33.953  27.945  1.00  0.00    -0.237 OA
ATOM     72  O   UNL A   1      32.562  35.612  29.767  1.00  0.00    -0.237 OA
ATOM     73  O   UNL A   1      34.052  36.050  27.852  1.00  0.00    -0.744 OA
ENDBRANCH  69  70
ENDBRANCH  48  62
BRANCH  49  74
ATOM     74  C   UNL A   1      44.067  28.460  36.024  1.00  0.00     0.058 A 
ATOM     75  C   UNL A   1      43.724  27.424  36.903  1.00  0.00     0.135 A 
ATOM     76  C   UNL A   1      45.428  28.764  35.866  1.00  0.00     0.135 A 
ATOM     77  F   UNL A   1      42.434  27.112  37.100  1.00  0.00    -0.206 F 
ATOM     78  C   UNL A   1      44.693  26.700  37.588  1.00  0.00     0.059 A 
ATOM     79  C   UNL A   1      46.417  28.042  36.526  1.00  0.00     0.059 A 
ATOM     80  F   UNL A   1      45.807  29.745  35.032  1.00  0.00    -0.206 F 
ATOM     81  C   UNL A   1      46.040  27.007  37.381  1.00  0.00     0.060 A 
BRANCH  81  82
ATOM     82  S   UNL A   1      47.293  25.985  38.186  1.00  0.00     0.124 S 
ATOM     83  O   UNL A   1      48.251  26.989  38.634  1.00  0.00    -0.237 OA
ATOM     84  O   UNL A   1      46.520  25.326  39.233  1.00  0.00    -0.237 OA
ATOM     85  O   UNL A   1      47.751  25.109  37.112  1.00  0.00    -0.744 OA
ENDBRANCH  81  82
ENDBRANCH  49  74
BRANCH  61  86
ATOM     86  C   UNL A   1      40.128  34.080  37.295  1.00  0.00     0.058 A 
ATOM     87  C   UNL A   1      39.285  33.814  38.386  1.00  0.00     0.135 A 
ATOM     88  C   UNL A   1      40.920  35.238  37.349  1.00  0.00     0.135 A 
ATOM     89  F   UNL A   1      38.504  32.722  38.385  1.00  0.00    -0.206 F 
ATOM     90  C   UNL A   1      39.210  34.678  39.475  1.00  0.00     0.059 A 
ATOM     91  C   UNL A   1      40.880  36.103  38.438  1.00  0.00     0.059 A 
ATOM     92  F   UNL A   1      41.754  35.534  36.339  1.00  0.00    -0.206 F 
ATOM     93  C   UNL A   1      40.010  35.822  39.491  1.00  0.00     0.060 A 
BRANCH  93  94
ATOM     94  S   UNL A   1      39.913  36.928  40.915  1.00  0.00     0.124 S 
ATOM     95  O   UNL A   1      38.699  37.683  40.619  1.00  0.00    -0.237 OA
ATOM     96  O   UNL A   1      39.821  35.993  42.032  1.00  0.00    -0.237 OA
ATOM     97  O   UNL A   1      41.158  37.687  40.842  1.00  0.00    -0.744 OA
ENDBRANCH  93  94
ENDBRANCH  61  86
ENDBRANCH  35  36
ENDBRANCH  28  30
ENDBRANCH  27  28
ENDBRANCH  26  27
ENDBRANCH   1  26
TORSDOF 19
ENDMDL
MODEL 3
REMARK VINA RESULT:     -11.2      1.534      8.460
REMARK SMILES O=C(COc1nc(NCc2cccc(Cl)c2)nc2c1CCC2)OCCOC(=O)c1ccc(-c2c3nc(c(-c4c(F)cc(S(=O)(=O)[O-])cc4F)c4ccc([nH]4)c(-c4c(F)cc(S(=O)(=O)[O-])cc4F)c4nc(c(-c5c(F)cc(S(=O)(=O)[O-])cc5F)c5ccc2[nH]5)C=C4)C=C3)cc1
REMARK SMILES IDX 24 1 23 2 2 3 1 4 3 5 4 6 5 7 6 8 19 9 7 10 18 11 20 12
REMARK SMILES IDX 17 13 22 14 21 15 8 16 9 18 10 19 11 20 16 21 12 22 14 23
REMARK SMILES IDX 13 24 15 25 25 26 26 27 27 28 28 29 29 30 30 31 94 32 31 33
REMARK SMILES IDX 93 34 32 35 33 36 34 37 87 38 35 39 92 40 86 41 88 42 36 43
REMARK SMILES IDX 91 44 85 45 84 46 37 48 71 49 50 50 70 51 51 52 54 53 69 54
REMARK SMILES IDX 89 55 52 56 53 57 68 59 90 60 55 61 38 62 39 63 48 64 40 65
REMARK SMILES IDX 41 66 47 67 49 68 42 69 43 70 44 71 45 72 46 73 72 74 73 75
REMARK SMILES IDX 82 76 74 77 75 78 81 79 83 80 76 81 77 82 78 83 79 84 80 85
REMARK SMILES IDX 56 86 57 87 66 88 58 89 59 90 65 91 67 92 60 93 61 94 62 95
REMARK SMILES IDX 63 96 64 97
REMARK H PARENT 8 17 88 47 54 58
REMARK Flexibility Score: inf
ROOT
ATOM      1  C   UNL A   1      40.291  21.955  26.285  1.00  0.00     0.274 C 
ENDROOT
BRANCH   1   2
ATOM      2  O   UNL A   1      38.877  22.236  26.229  1.00  0.00    -0.460 OA
BRANCH   2   3
ATOM      3  C   UNL A   1      38.022  21.647  25.356  1.00  0.00     0.344 C 
ATOM      4  O   UNL A   1      38.119  20.445  25.118  1.00  0.00    -0.248 OA
BRANCH   3   5
ATOM      5  C   UNL A   1      36.976  22.523  24.662  1.00  0.00     0.353 C 
BRANCH   5   6
ATOM      6  O   UNL A   1      35.828  22.888  25.413  1.00  0.00    -0.465 OA
BRANCH   6   7
ATOM      7  C   UNL A   1      34.832  23.212  24.530  1.00  0.00     0.222 A 
ATOM      8  N   UNL A   1      34.772  24.486  24.123  1.00  0.00    -0.177 NA
ATOM      9  C   UNL A   1      33.929  22.270  24.162  1.00  0.00     0.036 A 
ATOM     10  C   UNL A   1      33.726  24.838  23.360  1.00  0.00     0.226 A 
ATOM     11  C   UNL A   1      32.911  22.717  23.360  1.00  0.00     0.053 A 
ATOM     12  C   UNL A   1      33.748  20.860  24.585  1.00  0.00     0.043 C 
ATOM     13  N   UNL A   1      32.779  23.984  22.938  1.00  0.00    -0.218 NA
ATOM     14  C   UNL A   1      31.897  21.627  23.147  1.00  0.00     0.057 C 
ATOM     15  C   UNL A   1      32.708  20.386  23.559  1.00  0.00     0.011 C 
BRANCH  10  16
ATOM     16  N   UNL A   1      33.672  26.169  23.071  1.00  0.00    -0.350 N 
ATOM     17  H   UNL A   1      34.457  26.579  22.642  1.00  0.00     0.164 HD
BRANCH  16  18
ATOM     18  C   UNL A   1      32.546  27.010  23.349  1.00  0.00     0.152 C 
BRANCH  18  19
ATOM     19  C   UNL A   1      32.559  27.505  24.779  1.00  0.00    -0.027 A 
ATOM     20  C   UNL A   1      31.468  27.299  25.641  1.00  0.00     0.005 A 
ATOM     21  C   UNL A   1      33.707  28.132  25.290  1.00  0.00     0.026 A 
ATOM     22  C   UNL A   1      31.522  27.714  26.975  1.00  0.00     0.002 A 
ATOM     23  C   UNL A   1      33.759  28.533  26.625  1.00  0.00     0.041 A 
ATOM     24  C   UNL A   1      32.670  28.327  27.469  1.00  0.00     0.020 A 
ATOM     25  Cl  UNL A   1      35.189  29.266  27.244  1.00  0.00    -0.084 Cl
ENDBRANCH  18  19
ENDBRANCH  16  18
ENDBRANCH  10  16
ENDBRANCH   6   7
ENDBRANCH   5   6
ENDBRANCH   3   5
ENDBRANCH   2   3
ENDBRANCH   1   2
BRANCH   1  26
ATOM     26  C   UNL A   1      41.097  23.228  26.559  1.00  0.00     0.275 C 
BRANCH  26  27
ATOM     27  O   UNL A   1      40.253  24.390  26.442  1.00  0.00    -0.458 OA
BRANCH  27  28
ATOM     28  C   UNL A   1      40.887  25.572  26.229  1.00  0.00     0.338 C 
ATOM     29  O   UNL A   1      41.225  26.032  25.153  1.00  0.00    -0.246 OA
BRANCH  28  30
ATOM     30  C   UNL A   1      40.927  26.325  27.506  1.00  0.00     0.060 A 
ATOM     31  C   UNL A   1      39.911  26.102  28.445  1.00  0.00     0.016 A 
ATOM     32  C   UNL A   1      41.966  27.216  27.794  1.00  0.00     0.016 A 
ATOM     33  C   UNL A   1      39.916  26.793  29.660  1.00  0.00     0.010 A 
ATOM     34  C   UNL A   1      41.965  27.913  29.004  1.00  0.00     0.010 A 
ATOM     35  C   UNL A   1      40.926  27.727  29.932  1.00  0.00    -0.014 A 
BRANCH  35  36
ATOM     36  C   UNL A   1      40.826  28.632  31.102  1.00  0.00     0.031 A 
ATOM     37  C   UNL A   1      39.812  29.742  31.069  1.00  0.00     0.074 A 
ATOM     38  C   UNL A   1      41.623  28.486  32.175  1.00  0.00     0.049 A 
ATOM     39  N   UNL A   1      39.595  30.697  31.936  1.00  0.00    -0.248 NA
ATOM     40  C   UNL A   1      38.925  29.775  29.896  1.00  0.00     0.031 C 
ATOM     41  C   UNL A   1      42.607  27.422  32.360  1.00  0.00     0.029 A 
ATOM     42  N   UNL A   1      41.729  29.247  33.313  1.00  0.00    -0.354 N 
ATOM     43  C   UNL A   1      38.535  31.436  31.424  1.00  0.00     0.074 A 
ATOM     44  C   UNL A   1      38.186  30.845  30.148  1.00  0.00     0.031 C 
ATOM     45  C   UNL A   1      43.218  27.597  33.545  1.00  0.00     0.029 A 
ATOM     46  C   UNL A   1      42.692  28.804  34.185  1.00  0.00     0.049 A 
ATOM     47  H   UNL A   1      41.166  30.036  33.487  1.00  0.00     0.167 HD
ATOM     48  C   UNL A   1      37.901  32.502  31.967  1.00  0.00     0.037 A 
ATOM     49  C   UNL A   1      43.108  29.318  35.360  1.00  0.00     0.037 A 
ATOM     50  C   UNL A   1      38.273  33.117  33.214  1.00  0.00     0.049 A 
ATOM     51  C   UNL A   1      42.468  30.571  35.897  1.00  0.00     0.074 A 
ATOM     52  C   UNL A   1      37.723  34.231  33.824  1.00  0.00     0.029 A 
ATOM     53  N   UNL A   1      39.293  32.673  34.042  1.00  0.00    -0.354 N 
ATOM     54  N   UNL A   1      41.492  31.283  35.386  1.00  0.00    -0.248 NA
ATOM     55  C   UNL A   1      42.988  31.090  37.170  1.00  0.00     0.031 C 
ATOM     56  C   UNL A   1      38.436  34.483  35.003  1.00  0.00     0.029 A 
ATOM     57  C   UNL A   1      39.399  33.497  35.151  1.00  0.00     0.049 A 
ATOM     58  H   UNL A   1      39.860  31.888  33.867  1.00  0.00     0.167 HD
ATOM     59  C   UNL A   1      41.259  32.316  36.290  1.00  0.00     0.074 A 
ATOM     60  C   UNL A   1      42.199  32.136  37.378  1.00  0.00     0.031 C 
ATOM     61  C   UNL A   1      40.342  33.315  36.228  1.00  0.00     0.037 A 
BRANCH  48  62
ATOM     62  C   UNL A   1      36.757  33.078  31.182  1.00  0.00     0.058 A 
ATOM     63  C   UNL A   1      36.976  33.907  30.070  1.00  0.00     0.135 A 
ATOM     64  C   UNL A   1      35.429  32.829  31.562  1.00  0.00     0.135 A 
ATOM     65  F   UNL A   1      38.228  34.194  29.678  1.00  0.00    -0.206 F 
ATOM     66  C   UNL A   1      35.921  34.505  29.389  1.00  0.00     0.059 A 
ATOM     67  C   UNL A   1      34.357  33.395  30.879  1.00  0.00     0.059 A 
ATOM     68  F   UNL A   1      35.163  32.047  32.621  1.00  0.00    -0.206 F 
ATOM     69  C   UNL A   1      34.615  34.252  29.809  1.00  0.00     0.060 A 
BRANCH  69  70
ATOM     70  S   UNL A   1      33.257  35.071  28.948  1.00  0.00     0.124 S 
ATOM     71  O   UNL A   1      32.832  34.028  28.019  1.00  0.00    -0.237 OA
ATOM     72  O   UNL A   1      32.330  35.368  30.034  1.00  0.00    -0.237 OA
ATOM     73  O   UNL A   1      33.894  36.233  28.336  1.00  0.00    -0.744 OA
ENDBRANCH  69  70
ENDBRANCH  48  62
BRANCH  49  74
ATOM     74  C   UNL A   1      44.179  28.624  36.122  1.00  0.00     0.058 A 
ATOM     75  C   UNL A   1      45.512  29.046  36.030  1.00  0.00     0.135 A 
ATOM     76  C   UNL A   1      43.884  27.565  36.994  1.00  0.00     0.135 A 
ATOM     77  F   UNL A   1      45.843  30.042  35.194  1.00  0.00    -0.206 F 
ATOM     78  C   UNL A   1      46.517  28.455  36.788  1.00  0.00     0.059 A 
ATOM     79  C   UNL A   1      44.868  26.969  37.776  1.00  0.00     0.059 A 
ATOM     80  F   UNL A   1      42.621  27.128  37.120  1.00  0.00    -0.206 F 
ATOM     81  C   UNL A   1      46.182  27.425  37.670  1.00  0.00     0.060 A 
BRANCH  81  82
ATOM     82  S   UNL A   1      47.473  26.744  38.732  1.00  0.00     0.124 S 
ATOM     83  O   UNL A   1      48.396  26.181  37.753  1.00  0.00    -0.237 OA
ATOM     84  O   UNL A   1      47.939  27.930  39.443  1.00  0.00    -0.237 OA
ATOM     85  O   UNL A   1      46.754  25.775  39.554  1.00  0.00    -0.744 OA
ENDBRANCH  81  82
ENDBRANCH  49  74
BRANCH  61  86
ATOM     86  C   UNL A   1      40.283  34.277  37.383  1.00  0.00     0.058 A 
ATOM     87  C   UNL A   1      41.102  35.416  37.443  1.00  0.00     0.135 A 
ATOM     88  C   UNL A   1      39.366  34.076  38.428  1.00  0.00     0.135 A 
ATOM     89  F   UNL A   1      41.999  35.655  36.473  1.00  0.00    -0.206 F 
ATOM     90  C   UNL A   1      41.032  36.306  38.511  1.00  0.00     0.059 A 
ATOM     91  C   UNL A   1      39.262  34.966  39.492  1.00  0.00     0.059 A 
ATOM     92  F   UNL A   1      38.549  33.010  38.414  1.00  0.00    -0.206 F 
ATOM     93  C   UNL A   1      40.110  36.071  39.532  1.00  0.00     0.060 A 
BRANCH  93  94
ATOM     94  S   UNL A   1      40.020  37.241  40.906  1.00  0.00     0.124 S 
ATOM     95  O   UNL A   1      38.764  37.928  40.624  1.00  0.00    -0.237 OA
ATOM     96  O   UNL A   1      40.012  36.358  42.068  1.00  0.00    -0.237 OA
ATOM     97  O   UNL A   1      41.227  38.047  40.747  1.00  0.00    -0.744 OA
ENDBRANCH  93  94
ENDBRANCH  61  86
ENDBRANCH  35  36
ENDBRANCH  28  30
ENDBRANCH  27  28
ENDBRANCH  26  27
ENDBRANCH   1  26
TORSDOF 19
ENDMDL
