MODEL 1
REMARK VINA RESULT:     -10.5      0.000      0.000
REMARK SMILES CC(C)[C@@H](NC(=O)[C@H]1CCCO1)C(=O)OCCOC(=O)c1ccc(-c2c3nc(c(-c4c(F)cc(S(=O)(=O)[O-])cc4F)c4ccc([nH]4)c(-c4c(F)cc(S(=O)(=O)[O-])cc4F)c4nc(c(-c5c(F)cc(S(=O)(=O)[O-])cc5F)c5ccc2[nH]5)C=C4)C=C3)cc1
REMARK SMILES IDX 17 1 16 2 15 3 13 4 14 5 4 6 2 7 1 8 3 9 5 10 6 11 7 13 8 14
REMARK SMILES IDX 9 15 12 16 10 17 11 18 18 19 19 20 20 21 21 22 22 23 86 24
REMARK SMILES IDX 23 25 85 26 24 27 25 28 26 29 79 30 27 31 84 32 78 33 80 34
REMARK SMILES IDX 28 35 83 36 77 37 76 38 29 40 63 41 42 42 62 43 43 44 46 45
REMARK SMILES IDX 61 46 81 47 44 48 45 49 60 51 82 52 47 53 30 54 31 55 40 56
REMARK SMILES IDX 32 57 33 58 39 59 41 60 34 61 35 62 36 63 37 64 38 65 64 66
REMARK SMILES IDX 65 67 74 68 66 69 67 70 73 71 75 72 68 73 69 74 70 75 71 76
REMARK SMILES IDX 72 77 48 78 49 79 58 80 50 81 51 82 57 83 59 84 52 85 53 86
REMARK SMILES IDX 54 87 55 88 56 89
REMARK H PARENT 5 12 80 39 46 50
REMARK Flexibility Score: inf
ROOT
ATOM      1  C   UNL A   1      33.863  33.050  27.967  1.00  0.00     0.275 C 
ENDROOT
BRANCH   1   2
ATOM      2  C   UNL A   1      34.047  34.497  28.457  1.00  0.00     0.274 C 
BRANCH   2   3
ATOM      3  O   UNL A   1      32.885  35.076  29.093  1.00  0.00    -0.461 OA
BRANCH   3   4
ATOM      4  C   UNL A   1      33.158  36.160  29.857  1.00  0.00     0.329 C 
ATOM      5  O   UNL A   1      33.247  37.298  29.408  1.00  0.00    -0.250 OA
BRANCH   4   6
ATOM      6  C   UNL A   1      33.534  35.869  31.310  1.00  0.00     0.194 C 
BRANCH   6   7
ATOM      7  C   UNL A   1      32.836  36.791  32.351  1.00  0.00     0.017 C 
ATOM      8  C   UNL A   1      31.535  36.150  32.866  1.00  0.00     0.010 C 
ATOM      9  C   UNL A   1      33.704  37.104  33.576  1.00  0.00     0.010 C 
ENDBRANCH   6   7
BRANCH   6  10
ATOM     10  N   UNL A   1      33.391  34.442  31.678  1.00  0.00    -0.340 N 
ATOM     11  C   UNL A   1      34.108  33.691  32.578  1.00  0.00     0.249 C 
ATOM     12  H   UNL A   1      32.676  33.958  31.206  1.00  0.00     0.164 HD
ATOM     13  O   UNL A   1      33.470  32.864  33.236  1.00  0.00    -0.272 OA
BRANCH  11  14
ATOM     14  C   UNL A   1      35.650  33.774  32.624  1.00  0.00     0.207 C 
ATOM     15  C   UNL A   1      36.309  32.730  33.515  1.00  0.00     0.044 C 
ATOM     16  O   UNL A   1      36.228  33.621  31.312  1.00  0.00    -0.368 OA
ATOM     17  C   UNL A   1      36.986  31.784  32.559  1.00  0.00     0.032 C 
ATOM     18  C   UNL A   1      37.312  32.694  31.402  1.00  0.00     0.161 C 
ENDBRANCH  11  14
ENDBRANCH   6  10
ENDBRANCH   4   6
ENDBRANCH   3   4
ENDBRANCH   2   3
ENDBRANCH   1   2
BRANCH   1  19
ATOM     19  O   UNL A   1      34.633  32.094  28.727  1.00  0.00    -0.458 OA
BRANCH  19  20
ATOM     20  C   UNL A   1      34.560  30.814  28.294  1.00  0.00     0.338 C 
ATOM     21  O   UNL A   1      33.586  30.273  27.785  1.00  0.00    -0.246 OA
BRANCH  20  22
ATOM     22  C   UNL A   1      35.868  30.140  28.378  1.00  0.00     0.060 A 
ATOM     23  C   UNL A   1      36.296  29.680  29.629  1.00  0.00     0.016 A 
ATOM     24  C   UNL A   1      36.731  30.097  27.283  1.00  0.00     0.016 A 
ATOM     25  C   UNL A   1      37.587  29.190  29.803  1.00  0.00     0.010 A 
ATOM     26  C   UNL A   1      38.036  29.618  27.460  1.00  0.00     0.010 A 
ATOM     27  C   UNL A   1      38.478  29.188  28.725  1.00  0.00    -0.014 A 
BRANCH  27  28
ATOM     28  C   UNL A   1      39.905  28.858  28.956  1.00  0.00     0.031 A 
ATOM     29  C   UNL A   1      40.820  29.921  29.497  1.00  0.00     0.074 A 
ATOM     30  C   UNL A   1      40.372  27.620  28.716  1.00  0.00     0.049 A 
ATOM     31  N   UNL A   1      42.117  29.896  29.654  1.00  0.00    -0.248 NA
ATOM     32  C   UNL A   1      40.184  31.179  29.922  1.00  0.00     0.031 C 
ATOM     33  C   UNL A   1      39.566  26.484  28.270  1.00  0.00     0.029 A 
ATOM     34  N   UNL A   1      41.644  27.116  28.807  1.00  0.00    -0.354 N 
ATOM     35  C   UNL A   1      42.459  31.140  30.169  1.00  0.00     0.074 A 
ATOM     36  C   UNL A   1      41.232  31.898  30.299  1.00  0.00     0.031 C 
ATOM     37  C   UNL A   1      40.370  25.420  28.103  1.00  0.00     0.029 A 
ATOM     38  C   UNL A   1      41.749  25.812  28.386  1.00  0.00     0.049 A 
ATOM     39  H   UNL A   1      42.410  27.638  29.142  1.00  0.00     0.167 HD
ATOM     40  C   UNL A   1      43.686  31.609  30.496  1.00  0.00     0.037 A 
ATOM     41  C   UNL A   1      42.838  25.039  28.209  1.00  0.00     0.037 A 
ATOM     42  C   UNL A   1      44.901  30.847  30.372  1.00  0.00     0.049 A 
ATOM     43  C   UNL A   1      44.202  25.603  28.512  1.00  0.00     0.074 A 
ATOM     44  C   UNL A   1      46.196  31.234  30.667  1.00  0.00     0.029 A 
ATOM     45  N   UNL A   1      44.970  29.539  29.915  1.00  0.00    -0.354 N 
ATOM     46  N   UNL A   1      44.519  26.793  28.963  1.00  0.00    -0.248 NA
ATOM     47  C   UNL A   1      45.355  24.724  28.272  1.00  0.00     0.031 C 
ATOM     48  C   UNL A   1      47.052  30.172  30.357  1.00  0.00     0.029 A 
ATOM     49  C   UNL A   1      46.285  29.109  29.906  1.00  0.00     0.049 A 
ATOM     50  H   UNL A   1      44.196  28.996  29.639  1.00  0.00     0.167 HD
ATOM     51  C   UNL A   1      45.905  26.801  29.077  1.00  0.00     0.074 A 
ATOM     52  C   UNL A   1      46.365  25.493  28.658  1.00  0.00     0.031 C 
ATOM     53  C   UNL A   1      46.723  27.800  29.491  1.00  0.00     0.037 A 
BRANCH  40  54
ATOM     54  C   UNL A   1      43.778  33.029  30.979  1.00  0.00     0.058 A 
ATOM     55  C   UNL A   1      44.017  34.096  30.100  1.00  0.00     0.135 A 
ATOM     56  C   UNL A   1      43.607  33.324  32.341  1.00  0.00     0.135 A 
ATOM     57  F   UNL A   1      44.209  33.864  28.791  1.00  0.00    -0.206 F 
ATOM     58  C   UNL A   1      44.106  35.406  30.558  1.00  0.00     0.059 A 
ATOM     59  C   UNL A   1      43.670  34.629  32.818  1.00  0.00     0.059 A 
ATOM     60  F   UNL A   1      43.381  32.338  33.223  1.00  0.00    -0.206 F 
ATOM     61  C   UNL A   1      43.935  35.663  31.921  1.00  0.00     0.060 A 
BRANCH  61  62
ATOM     62  S   UNL A   1      44.058  37.367  32.505  1.00  0.00     0.124 S 
ATOM     63  O   UNL A   1      43.040  37.390  33.550  1.00  0.00    -0.237 OA
ATOM     64  O   UNL A   1      45.441  37.444  32.965  1.00  0.00    -0.237 OA
ATOM     65  O   UNL A   1      43.752  38.155  31.315  1.00  0.00    -0.744 OA
ENDBRANCH  61  62
ENDBRANCH  40  54
BRANCH  41  66
ATOM     66  C   UNL A   1      42.688  23.659  27.674  1.00  0.00     0.058 A 
ATOM     67  C   UNL A   1      42.565  22.557  28.530  1.00  0.00     0.135 A 
ATOM     68  C   UNL A   1      42.664  23.420  26.291  1.00  0.00     0.135 A 
ATOM     69  F   UNL A   1      42.599  22.735  29.861  1.00  0.00    -0.206 F 
ATOM     70  C   UNL A   1      42.430  21.263  28.037  1.00  0.00     0.059 A 
ATOM     71  C   UNL A   1      42.506  22.140  25.773  1.00  0.00     0.059 A 
ATOM     72  F   UNL A   1      42.771  24.444  25.429  1.00  0.00    -0.206 F 
ATOM     73  C   UNL A   1      42.400  21.065  26.655  1.00  0.00     0.060 A 
BRANCH  73  74
ATOM     74  S   UNL A   1      42.168  19.390  26.019  1.00  0.00     0.124 S 
ATOM     75  O   UNL A   1      40.731  19.364  25.777  1.00  0.00    -0.237 OA
ATOM     76  O   UNL A   1      43.016  19.391  24.830  1.00  0.00    -0.237 OA
ATOM     77  O   UNL A   1      42.641  18.549  27.115  1.00  0.00    -0.744 OA
ENDBRANCH  73  74
ENDBRANCH  41  66
BRANCH  53  78
ATOM     78  C   UNL A   1      48.196  27.510  29.540  1.00  0.00     0.058 A 
ATOM     79  C   UNL A   1      49.042  27.814  28.463  1.00  0.00     0.135 A 
ATOM     80  C   UNL A   1      48.776  26.971  30.700  1.00  0.00     0.135 A 
ATOM     81  F   UNL A   1      48.535  28.326  27.329  1.00  0.00    -0.206 F 
ATOM     82  C   UNL A   1      50.411  27.580  28.527  1.00  0.00     0.059 A 
ATOM     83  C   UNL A   1      50.145  26.748  30.794  1.00  0.00     0.059 A 
ATOM     84  F   UNL A   1      48.010  26.672  31.761  1.00  0.00    -0.206 F 
ATOM     85  C   UNL A   1      50.954  27.045  29.697  1.00  0.00     0.060 A 
BRANCH  85  86
ATOM     86  S   UNL A   1      52.738  26.779  29.786  1.00  0.00     0.124 S 
ATOM     87  O   UNL A   1      53.229  28.138  29.978  1.00  0.00    -0.237 OA
ATOM     88  O   UNL A   1      52.868  25.889  30.937  1.00  0.00    -0.237 OA
ATOM     89  O   UNL A   1      53.054  26.172  28.496  1.00  0.00    -0.744 OA
ENDBRANCH  85  86
ENDBRANCH  53  78
ENDBRANCH  27  28
ENDBRANCH  20  22
ENDBRANCH  19  20
ENDBRANCH   1  19
TORSDOF 17
ENDMDL
MODEL 2
REMARK VINA RESULT:      -9.9      3.006      5.293
REMARK SMILES CC(C)[C@@H](NC(=O)[C@H]1CCCO1)C(=O)OCCOC(=O)c1ccc(-c2c3nc(c(-c4c(F)cc(S(=O)(=O)[O-])cc4F)c4ccc([nH]4)c(-c4c(F)cc(S(=O)(=O)[O-])cc4F)c4nc(c(-c5c(F)cc(S(=O)(=O)[O-])cc5F)c5ccc2[nH]5)C=C4)C=C3)cc1
REMARK SMILES IDX 17 1 16 2 15 3 13 4 14 5 4 6 2 7 1 8 3 9 5 10 6 11 7 13 8 14
REMARK SMILES IDX 9 15 12 16 10 17 11 18 18 19 19 20 20 21 21 22 22 23 86 24
REMARK SMILES IDX 23 25 85 26 24 27 25 28 26 29 79 30 27 31 84 32 78 33 80 34
REMARK SMILES IDX 28 35 83 36 77 37 76 38 29 40 63 41 42 42 62 43 43 44 46 45
REMARK SMILES IDX 61 46 81 47 44 48 45 49 60 51 82 52 47 53 30 54 31 55 40 56
REMARK SMILES IDX 32 57 33 58 39 59 41 60 34 61 35 62 36 63 37 64 38 65 64 66
REMARK SMILES IDX 65 67 74 68 66 69 67 70 73 71 75 72 68 73 69 74 70 75 71 76
REMARK SMILES IDX 72 77 48 78 49 79 58 80 50 81 51 82 57 83 59 84 52 85 53 86
REMARK SMILES IDX 54 87 55 88 56 89
REMARK H PARENT 5 12 80 39 46 50
REMARK Flexibility Score: inf
ROOT
ATOM      1  C   UNL A   1      32.601  29.925  27.261  1.00  0.00     0.275 C 
ENDROOT
BRANCH   1   2
ATOM      2  C   UNL A   1      31.929  29.238  26.060  1.00  0.00     0.274 C 
BRANCH   2   3
ATOM      3  O   UNL A   1      32.380  27.890  25.800  1.00  0.00    -0.461 OA
BRANCH   3   4
ATOM      4  C   UNL A   1      31.377  26.999  25.615  1.00  0.00     0.329 C 
ATOM      5  O   UNL A   1      30.682  26.566  26.527  1.00  0.00    -0.250 OA
BRANCH   4   6
ATOM      6  C   UNL A   1      31.263  26.412  24.208  1.00  0.00     0.194 C 
BRANCH   6   7
ATOM      7  C   UNL A   1      30.041  26.925  23.394  1.00  0.00     0.017 C 
ATOM      8  C   UNL A   1      28.727  26.363  23.967  1.00  0.00     0.010 C 
ATOM      9  C   UNL A   1      29.911  28.452  23.373  1.00  0.00     0.010 C 
ENDBRANCH   6   7
BRANCH   6  10
ATOM     10  N   UNL A   1      32.514  26.524  23.423  1.00  0.00    -0.340 N 
ATOM     11  C   UNL A   1      33.339  25.537  22.940  1.00  0.00     0.249 C 
ATOM     12  H   UNL A   1      32.798  27.443  23.216  1.00  0.00     0.164 HD
ATOM     13  O   UNL A   1      33.832  25.729  21.824  1.00  0.00    -0.272 OA
BRANCH  11  14
ATOM     14  C   UNL A   1      33.749  24.345  23.832  1.00  0.00     0.207 C 
ATOM     15  C   UNL A   1      34.562  23.275  23.116  1.00  0.00     0.044 C 
ATOM     16  O   UNL A   1      34.535  24.774  24.962  1.00  0.00    -0.368 OA
ATOM     17  C   UNL A   1      35.950  23.405  23.685  1.00  0.00     0.032 C 
ATOM     18  C   UNL A   1      35.668  23.909  25.078  1.00  0.00     0.161 C 
ENDBRANCH  11  14
ENDBRANCH   6  10
ENDBRANCH   4   6
ENDBRANCH   3   4
ENDBRANCH   2   3
ENDBRANCH   1   2
BRANCH   1  19
ATOM     19  O   UNL A   1      33.930  30.405  26.967  1.00  0.00    -0.458 OA
BRANCH  19  20
ATOM     20  C   UNL A   1      34.627  30.874  28.028  1.00  0.00     0.338 C 
ATOM     21  O   UNL A   1      34.233  31.691  28.852  1.00  0.00    -0.246 OA
BRANCH  20  22
ATOM     22  C   UNL A   1      35.916  30.177  28.180  1.00  0.00     0.060 A 
ATOM     23  C   UNL A   1      36.273  29.715  29.453  1.00  0.00     0.016 A 
ATOM     24  C   UNL A   1      36.832  30.113  27.130  1.00  0.00     0.016 A 
ATOM     25  C   UNL A   1      37.545  29.203  29.693  1.00  0.00     0.010 A 
ATOM     26  C   UNL A   1      38.117  29.611  27.373  1.00  0.00     0.010 A 
ATOM     27  C   UNL A   1      38.488  29.180  28.661  1.00  0.00    -0.014 A 
BRANCH  27  28
ATOM     28  C   UNL A   1      39.895  28.826  28.965  1.00  0.00     0.031 A 
ATOM     29  C   UNL A   1      40.792  29.864  29.578  1.00  0.00     0.074 A 
ATOM     30  C   UNL A   1      40.359  27.586  28.726  1.00  0.00     0.049 A 
ATOM     31  N   UNL A   1      42.078  29.818  29.806  1.00  0.00    -0.248 NA
ATOM     32  C   UNL A   1      40.150  31.122  29.993  1.00  0.00     0.031 C 
ATOM     33  C   UNL A   1      39.565  26.471  28.212  1.00  0.00     0.029 A 
ATOM     34  N   UNL A   1      41.618  27.062  28.877  1.00  0.00    -0.354 N 
ATOM     35  C   UNL A   1      42.407  31.047  30.366  1.00  0.00     0.074 A 
ATOM     36  C   UNL A   1      41.184  31.819  30.443  1.00  0.00     0.031 C 
ATOM     37  C   UNL A   1      40.363  25.399  28.067  1.00  0.00     0.029 A 
ATOM     38  C   UNL A   1      41.729  25.766  28.435  1.00  0.00     0.049 A 
ATOM     39  H   UNL A   1      42.370  27.567  29.264  1.00  0.00     0.167 HD
ATOM     40  C   UNL A   1      43.620  31.491  30.771  1.00  0.00     0.037 A 
ATOM     41  C   UNL A   1      42.817  24.981  28.303  1.00  0.00     0.037 A 
ATOM     42  C   UNL A   1      44.829  30.716  30.699  1.00  0.00     0.049 A 
ATOM     43  C   UNL A   1      44.168  25.520  28.693  1.00  0.00     0.074 A 
ATOM     44  C   UNL A   1      46.111  31.079  31.074  1.00  0.00     0.029 A 
ATOM     45  N   UNL A   1      44.907  29.416  30.220  1.00  0.00    -0.354 N 
ATOM     46  N   UNL A   1      44.475  26.697  29.187  1.00  0.00    -0.248 NA
ATOM     47  C   UNL A   1      45.321  24.631  28.501  1.00  0.00     0.031 C 
ATOM     48  C   UNL A   1      46.968  30.011  30.790  1.00  0.00     0.029 A 
ATOM     49  C   UNL A   1      46.215  28.968  30.275  1.00  0.00     0.049 A 
ATOM     50  H   UNL A   1      44.143  28.890  29.889  1.00  0.00     0.167 HD
ATOM     51  C   UNL A   1      45.852  26.683  29.378  1.00  0.00     0.074 A 
ATOM     52  C   UNL A   1      46.318  25.377  28.958  1.00  0.00     0.031 C 
ATOM     53  C   UNL A   1      46.658  27.662  29.857  1.00  0.00     0.037 A 
BRANCH  40  54
ATOM     54  C   UNL A   1      43.703  32.900  31.287  1.00  0.00     0.058 A 
ATOM     55  C   UNL A   1      43.626  33.193  32.658  1.00  0.00     0.135 A 
ATOM     56  C   UNL A   1      43.880  33.970  30.395  1.00  0.00     0.135 A 
ATOM     57  F   UNL A   1      43.435  32.207  33.549  1.00  0.00    -0.206 F 
ATOM     58  C   UNL A   1      43.698  34.501  33.125  1.00  0.00     0.059 A 
ATOM     59  C   UNL A   1      43.976  35.284  30.842  1.00  0.00     0.059 A 
ATOM     60  F   UNL A   1      43.955  33.744  29.074  1.00  0.00    -0.206 F 
ATOM     61  C   UNL A   1      43.870  35.541  32.208  1.00  0.00     0.060 A 
BRANCH  61  62
ATOM     62  S   UNL A   1      43.956  37.235  32.826  1.00  0.00     0.124 S 
ATOM     63  O   UNL A   1      42.855  37.252  33.783  1.00  0.00    -0.237 OA
ATOM     64  O   UNL A   1      45.296  37.293  33.402  1.00  0.00    -0.237 OA
ATOM     65  O   UNL A   1      43.758  38.044  31.627  1.00  0.00    -0.744 OA
ENDBRANCH  61  62
ENDBRANCH  40  54
BRANCH  41  66
ATOM     66  C   UNL A   1      42.680  23.615  27.732  1.00  0.00     0.058 A 
ATOM     67  C   UNL A   1      42.501  22.497  28.558  1.00  0.00     0.135 A 
ATOM     68  C   UNL A   1      42.723  23.405  26.345  1.00  0.00     0.135 A 
ATOM     69  F   UNL A   1      42.468  22.647  29.891  1.00  0.00    -0.206 F 
ATOM     70  C   UNL A   1      42.377  21.216  28.030  1.00  0.00     0.059 A 
ATOM     71  C   UNL A   1      42.578  22.137  25.793  1.00  0.00     0.059 A 
ATOM     72  F   UNL A   1      42.885  24.445  25.512  1.00  0.00    -0.206 F 
ATOM     73  C   UNL A   1      42.415  21.046  26.645  1.00  0.00     0.060 A 
BRANCH  73  74
ATOM     74  S   UNL A   1      42.198  19.387  25.963  1.00  0.00     0.124 S 
ATOM     75  O   UNL A   1      43.042  19.446  24.776  1.00  0.00    -0.237 OA
ATOM     76  O   UNL A   1      42.682  18.540  27.049  1.00  0.00    -0.237 OA
ATOM     77  O   UNL A   1      40.761  19.315  25.715  1.00  0.00    -0.744 OA
ENDBRANCH  73  74
ENDBRANCH  41  66
BRANCH  53  78
ATOM     78  C   UNL A   1      48.122  27.350  29.983  1.00  0.00     0.058 A 
ATOM     79  C   UNL A   1      49.027  27.641  28.951  1.00  0.00     0.135 A 
ATOM     80  C   UNL A   1      48.633  26.803  31.171  1.00  0.00     0.135 A 
ATOM     81  F   UNL A   1      48.587  28.160  27.793  1.00  0.00    -0.206 F 
ATOM     82  C   UNL A   1      50.388  27.387  29.086  1.00  0.00     0.059 A 
ATOM     83  C   UNL A   1      49.993  26.561  31.336  1.00  0.00     0.059 A 
ATOM     84  F   UNL A   1      47.809  26.516  32.192  1.00  0.00    -0.206 F 
ATOM     85  C   UNL A   1      50.862  26.845  30.283  1.00  0.00     0.060 A 
BRANCH  85  86
ATOM     86  S   UNL A   1      52.634  26.552  30.464  1.00  0.00     0.124 S 
ATOM     87  O   UNL A   1      53.030  26.285  29.086  1.00  0.00    -0.237 OA
ATOM     88  O   UNL A   1      53.107  27.814  31.025  1.00  0.00    -0.237 OA
ATOM     89  O   UNL A   1      52.697  25.409  31.370  1.00  0.00    -0.744 OA
ENDBRANCH  85  86
ENDBRANCH  53  78
ENDBRANCH  27  28
ENDBRANCH  20  22
ENDBRANCH  19  20
ENDBRANCH   1  19
TORSDOF 17
ENDMDL
MODEL 3
REMARK VINA RESULT:      -9.9      1.041      2.565
REMARK SMILES CC(C)[C@@H](NC(=O)[C@H]1CCCO1)C(=O)OCCOC(=O)c1ccc(-c2c3nc(c(-c4c(F)cc(S(=O)(=O)[O-])cc4F)c4ccc([nH]4)c(-c4c(F)cc(S(=O)(=O)[O-])cc4F)c4nc(c(-c5c(F)cc(S(=O)(=O)[O-])cc5F)c5ccc2[nH]5)C=C4)C=C3)cc1
REMARK SMILES IDX 17 1 16 2 15 3 13 4 14 5 4 6 2 7 1 8 3 9 5 10 6 11 7 13 8 14
REMARK SMILES IDX 9 15 12 16 10 17 11 18 18 19 19 20 20 21 21 22 22 23 86 24
REMARK SMILES IDX 23 25 85 26 24 27 25 28 26 29 79 30 27 31 84 32 78 33 80 34
REMARK SMILES IDX 28 35 83 36 77 37 76 38 29 40 63 41 42 42 62 43 43 44 46 45
REMARK SMILES IDX 61 46 81 47 44 48 45 49 60 51 82 52 47 53 30 54 31 55 40 56
REMARK SMILES IDX 32 57 33 58 39 59 41 60 34 61 35 62 36 63 37 64 38 65 64 66
REMARK SMILES IDX 65 67 74 68 66 69 67 70 73 71 75 72 68 73 69 74 70 75 71 76
REMARK SMILES IDX 72 77 48 78 49 79 58 80 50 81 51 82 57 83 59 84 52 85 53 86
REMARK SMILES IDX 54 87 55 88 56 89
REMARK H PARENT 5 12 80 39 46 50
REMARK Flexibility Score: inf
ROOT
ATOM      1  C   UNL A   1      34.811  33.072  28.825  1.00  0.00     0.275 C 
ENDROOT
BRANCH   1   2
ATOM      2  C   UNL A   1      36.211  33.574  29.219  1.00  0.00     0.274 C 
BRANCH   2   3
ATOM      3  O   UNL A   1      36.843  32.833  30.287  1.00  0.00    -0.461 OA
BRANCH   3   4
ATOM      4  C   UNL A   1      37.398  33.614  31.245  1.00  0.00     0.329 C 
ATOM      5  O   UNL A   1      38.089  34.597  30.998  1.00  0.00    -0.250 OA
BRANCH   4   6
ATOM      6  C   UNL A   1      37.265  33.100  32.678  1.00  0.00     0.194 C 
BRANCH   6   7
ATOM      7  C   UNL A   1      38.126  33.870  33.720  1.00  0.00     0.017 C 
ATOM      8  C   UNL A   1      37.502  33.774  35.124  1.00  0.00     0.010 C 
ATOM      9  C   UNL A   1      39.567  33.358  33.827  1.00  0.00     0.010 C 
ENDBRANCH   6   7
BRANCH   6  10
ATOM     10  N   UNL A   1      35.860  32.978  33.130  1.00  0.00    -0.340 N 
ATOM     11  C   UNL A   1      34.725  33.583  32.646  1.00  0.00     0.249 C 
ATOM     12  H   UNL A   1      35.717  32.372  33.892  1.00  0.00     0.164 HD
ATOM     13  O   UNL A   1      33.701  32.895  32.623  1.00  0.00    -0.272 OA
BRANCH  11  14
ATOM     14  C   UNL A   1      34.717  35.093  32.316  1.00  0.00     0.207 C 
ATOM     15  C   UNL A   1      33.458  35.572  31.605  1.00  0.00     0.044 C 
ATOM     16  O   UNL A   1      34.850  35.896  33.505  1.00  0.00    -0.368 OA
ATOM     17  C   UNL A   1      32.733  36.403  32.630  1.00  0.00     0.032 C 
ATOM     18  C   UNL A   1      33.874  36.939  33.458  1.00  0.00     0.161 C 
ENDBRANCH  11  14
ENDBRANCH   6  10
ENDBRANCH   4   6
ENDBRANCH   3   4
ENDBRANCH   2   3
ENDBRANCH   1   2
BRANCH   1  19
ATOM     19  O   UNL A   1      34.823  32.217  27.661  1.00  0.00    -0.458 OA
BRANCH  19  20
ATOM     20  C   UNL A   1      34.635  30.900  27.905  1.00  0.00     0.338 C 
ATOM     21  O   UNL A   1      33.566  30.302  27.879  1.00  0.00    -0.246 OA
BRANCH  20  22
ATOM     22  C   UNL A   1      35.917  30.195  28.085  1.00  0.00     0.060 A 
ATOM     23  C   UNL A   1      36.206  29.658  29.345  1.00  0.00     0.016 A 
ATOM     24  C   UNL A   1      36.888  30.194  27.084  1.00  0.00     0.016 A 
ATOM     25  C   UNL A   1      37.465  29.132  29.622  1.00  0.00     0.010 A 
ATOM     26  C   UNL A   1      38.160  29.679  27.366  1.00  0.00     0.010 A 
ATOM     27  C   UNL A   1      38.462  29.170  28.644  1.00  0.00    -0.014 A 
BRANCH  27  28
ATOM     28  C   UNL A   1      39.852  28.799  29.001  1.00  0.00     0.031 A 
ATOM     29  C   UNL A   1      40.727  29.816  29.678  1.00  0.00     0.074 A 
ATOM     30  C   UNL A   1      40.318  27.561  28.754  1.00  0.00     0.049 A 
ATOM     31  N   UNL A   1      42.001  29.755  29.962  1.00  0.00    -0.248 NA
ATOM     32  C   UNL A   1      40.075  31.069  30.093  1.00  0.00     0.031 C 
ATOM     33  C   UNL A   1      39.540  26.465  28.179  1.00  0.00     0.029 A 
ATOM     34  N   UNL A   1      41.565  27.025  28.948  1.00  0.00    -0.354 N 
ATOM     35  C   UNL A   1      42.313  30.968  30.565  1.00  0.00     0.074 A 
ATOM     36  C   UNL A   1      41.093  31.747  30.605  1.00  0.00     0.031 C 
ATOM     37  C   UNL A   1      40.336  25.390  28.045  1.00  0.00     0.029 A 
ATOM     38  C   UNL A   1      41.687  25.738  28.482  1.00  0.00     0.049 A 
ATOM     39  H   UNL A   1      42.303  27.515  29.381  1.00  0.00     0.167 HD
ATOM     40  C   UNL A   1      43.509  31.393  31.033  1.00  0.00     0.037 A 
ATOM     41  C   UNL A   1      42.774  24.949  28.380  1.00  0.00     0.037 A 
ATOM     42  C   UNL A   1      44.716  30.610  30.997  1.00  0.00     0.049 A 
ATOM     43  C   UNL A   1      44.111  25.468  28.843  1.00  0.00     0.074 A 
ATOM     44  C   UNL A   1      45.982  30.955  31.437  1.00  0.00     0.029 A 
ATOM     45  N   UNL A   1      44.806  29.322  30.491  1.00  0.00    -0.354 N 
ATOM     46  N   UNL A   1      44.403  26.630  29.377  1.00  0.00    -0.248 NA
ATOM     47  C   UNL A   1      45.265  24.574  28.681  1.00  0.00     0.031 C 
ATOM     48  C   UNL A   1      46.844  29.887  31.166  1.00  0.00     0.029 A 
ATOM     49  C   UNL A   1      46.107  28.862  30.594  1.00  0.00     0.049 A 
ATOM     50  H   UNL A   1      44.054  28.809  30.114  1.00  0.00     0.167 HD
ATOM     51  C   UNL A   1      45.770  26.602  29.629  1.00  0.00     0.074 A 
ATOM     52  C   UNL A   1      46.245  25.302  29.200  1.00  0.00     0.031 C 
ATOM     53  C   UNL A   1      46.560  27.563  30.166  1.00  0.00     0.037 A 
BRANCH  40  54
ATOM     54  C   UNL A   1      43.578  32.789  31.586  1.00  0.00     0.058 A 
ATOM     55  C   UNL A   1      43.271  33.072  32.925  1.00  0.00     0.135 A 
ATOM     56  C   UNL A   1      43.976  33.855  30.763  1.00  0.00     0.135 A 
ATOM     57  F   UNL A   1      42.866  32.090  33.747  1.00  0.00    -0.206 F 
ATOM     58  C   UNL A   1      43.333  34.368  33.425  1.00  0.00     0.059 A 
ATOM     59  C   UNL A   1      44.066  35.156  31.248  1.00  0.00     0.059 A 
ATOM     60  F   UNL A   1      44.277  33.638  29.473  1.00  0.00    -0.206 F 
ATOM     61  C   UNL A   1      43.728  35.405  32.577  1.00  0.00     0.060 A 
BRANCH  61  62
ATOM     62  S   UNL A   1      43.799  37.085  33.236  1.00  0.00     0.124 S 
ATOM     63  O   UNL A   1      43.764  37.878  32.011  1.00  0.00    -0.237 OA
ATOM     64  O   UNL A   1      42.600  37.149  34.066  1.00  0.00    -0.237 OA
ATOM     65  O   UNL A   1      45.064  37.110  33.964  1.00  0.00    -0.744 OA
ENDBRANCH  61  62
ENDBRANCH  40  54
BRANCH  41  66
ATOM     66  C   UNL A   1      42.654  23.597  27.771  1.00  0.00     0.058 A 
ATOM     67  C   UNL A   1      42.796  23.406  26.390  1.00  0.00     0.135 A 
ATOM     68  C   UNL A   1      42.395  22.468  28.565  1.00  0.00     0.135 A 
ATOM     69  F   UNL A   1      43.030  24.458  25.589  1.00  0.00    -0.206 F 
ATOM     70  C   UNL A   1      42.680  22.146  25.814  1.00  0.00     0.059 A 
ATOM     71  C   UNL A   1      42.297  21.195  28.015  1.00  0.00     0.059 A 
ATOM     72  F   UNL A   1      42.257  22.598  29.894  1.00  0.00    -0.206 F 
ATOM     73  C   UNL A   1      42.432  21.045  26.636  1.00  0.00     0.060 A 
BRANCH  73  74
ATOM     74  S   UNL A   1      42.336  19.402  25.890  1.00  0.00     0.124 S 
ATOM     75  O   UNL A   1      40.912  19.295  25.600  1.00  0.00    -0.237 OA
ATOM     76  O   UNL A   1      43.216  19.537  24.732  1.00  0.00    -0.237 OA
ATOM     77  O   UNL A   1      42.836  18.527  26.946  1.00  0.00    -0.744 OA
ENDBRANCH  73  74
ENDBRANCH  41  66
BRANCH  53  78
ATOM     78  C   UNL A   1      48.015  27.237  30.350  1.00  0.00     0.058 A 
ATOM     79  C   UNL A   1      48.975  27.591  29.389  1.00  0.00     0.135 A 
ATOM     80  C   UNL A   1      48.461  26.612  31.525  1.00  0.00     0.135 A 
ATOM     81  F   UNL A   1      48.598  28.186  28.245  1.00  0.00    -0.206 F 
ATOM     82  C   UNL A   1      50.325  27.323  29.579  1.00  0.00     0.059 A 
ATOM     83  C   UNL A   1      49.810  26.353  31.746  1.00  0.00     0.059 A 
ATOM     84  F   UNL A   1      47.583  26.262  32.479  1.00  0.00    -0.206 F 
ATOM     85  C   UNL A   1      50.734  26.702  30.762  1.00  0.00     0.060 A 
BRANCH  85  86
ATOM     86  S   UNL A   1      52.494  26.390  31.018  1.00  0.00     0.124 S 
ATOM     87  O   UNL A   1      52.973  26.265  29.647  1.00  0.00    -0.237 OA
ATOM     88  O   UNL A   1      52.926  27.586  31.734  1.00  0.00    -0.237 OA
ATOM     89  O   UNL A   1      52.509  25.159  31.804  1.00  0.00    -0.744 OA
ENDBRANCH  85  86
ENDBRANCH  53  78
ENDBRANCH  27  28
ENDBRANCH  20  22
ENDBRANCH  19  20
ENDBRANCH   1  19
TORSDOF 17
ENDMDL
