MODEL 1
REMARK VINA RESULT:     -12.6      0.000      0.000
REMARK SMILES Cc1cc2cc(-c3ccc([C@@H](C)C(=O)OCCOC(=O)c4ccc(-c5c6nc(c(-c7c(F)cc(S(=O)(=O)[O-])cc7F)c7ccc([nH]7)c(-c7c(F)cc(S(=O)(=O)[O-])cc7F)c7nc(c(-c8c(F)cc(S(=O)(=O)[O-])cc8F)c8ccc5[nH]8)C=C7)C=C6)cc4)cc3)ccc2[nH]1
REMARK SMILES IDX 17 1 16 2 15 3 13 4 14 5 11 6 12 7 10 8 7 9 8 10 88 11 9 12
REMARK SMILES IDX 87 13 6 14 1 15 2 16 3 17 92 18 4 19 91 20 5 22 90 23 89 24
REMARK SMILES IDX 18 25 19 26 20 27 21 28 22 29 86 30 23 31 85 32 24 33 25 34
REMARK SMILES IDX 26 35 79 36 27 37 84 38 78 39 80 40 28 41 83 42 77 43 76 44
REMARK SMILES IDX 29 46 63 47 42 48 62 49 43 50 46 51 61 52 81 53 44 54 45 55
REMARK SMILES IDX 60 57 82 58 47 59 30 60 31 61 40 62 32 63 33 64 39 65 41 66
REMARK SMILES IDX 34 67 35 68 36 69 37 70 38 71 64 72 65 73 74 74 66 75 67 76
REMARK SMILES IDX 73 77 75 78 68 79 69 80 70 81 71 82 72 83 48 84 49 85 58 86
REMARK SMILES IDX 50 87 51 88 57 89 59 90 52 91 53 92 54 93 55 94 56 95
REMARK H PARENT 92 21 80 45 46 56
REMARK Flexibility Score: inf
ROOT
ATOM      1  C   UNL A   1      34.782  31.482  28.072  1.00  0.00     0.275 C 
ENDROOT
BRANCH   1   2
ATOM      2  C   UNL A   1      33.574  30.984  27.275  1.00  0.00     0.274 C 
BRANCH   2   3
ATOM      3  O   UNL A   1      33.695  29.582  26.972  1.00  0.00    -0.462 OA
BRANCH   3   4
ATOM      4  C   UNL A   1      32.956  29.114  25.930  1.00  0.00     0.313 C 
ATOM      5  O   UNL A   1      32.967  29.604  24.804  1.00  0.00    -0.252 OA
BRANCH   4   6
ATOM      6  C   UNL A   1      32.044  27.949  26.298  1.00  0.00     0.126 C 
ATOM      7  C   UNL A   1      31.467  28.169  27.696  1.00  0.00     0.025 C 
BRANCH   6   8
ATOM      8  C   UNL A   1      32.640  26.560  26.136  1.00  0.00    -0.034 A 
ATOM      9  C   UNL A   1      33.753  23.977  25.736  1.00  0.00    -0.018 A 
ATOM     10  C   UNL A   1      32.482  24.142  26.307  1.00  0.00     0.009 A 
ATOM     11  C   UNL A   1      34.474  25.127  25.397  1.00  0.00     0.009 A 
ATOM     12  C   UNL A   1      31.931  25.409  26.498  1.00  0.00     0.005 A 
ATOM     13  C   UNL A   1      33.925  26.401  25.589  1.00  0.00     0.005 A 
BRANCH   9  14
ATOM     14  C   UNL A   1      34.272  22.629  25.460  1.00  0.00    -0.018 A 
ATOM     15  C   UNL A   1      34.075  16.701  23.937  1.00  0.00     0.064 C 
ATOM     16  C   UNL A   1      34.182  18.133  24.298  1.00  0.00     0.013 A 
ATOM     17  C   UNL A   1      33.225  19.125  24.328  1.00  0.00     0.031 A 
ATOM     18  N   UNL A   1      35.373  18.703  24.683  1.00  0.00    -0.359 N 
ATOM     19  C   UNL A   1      33.850  20.323  24.764  1.00  0.00     0.000 A 
ATOM     20  C   UNL A   1      35.194  20.036  24.980  1.00  0.00     0.046 A 
ATOM     21  H   UNL A   1      36.232  18.227  24.738  1.00  0.00     0.166 HD
ATOM     22  C   UNL A   1      33.391  21.630  24.999  1.00  0.00     0.019 A 
ATOM     23  C   UNL A   1      36.107  21.002  25.417  1.00  0.00     0.027 A 
ATOM     24  C   UNL A   1      35.621  22.298  25.654  1.00  0.00     0.011 A 
ENDBRANCH   9  14
ENDBRANCH   6   8
ENDBRANCH   4   6
ENDBRANCH   3   4
ENDBRANCH   2   3
ENDBRANCH   1   2
BRANCH   1  25
ATOM     25  O   UNL A   1      35.462  30.389  28.715  1.00  0.00    -0.458 OA
BRANCH  25  26
ATOM     26  C   UNL A   1      36.405  30.752  29.615  1.00  0.00     0.338 C 
ATOM     27  O   UNL A   1      36.252  31.427  30.616  1.00  0.00    -0.246 OA
BRANCH  26  28
ATOM     28  C   UNL A   1      37.683  30.114  29.270  1.00  0.00     0.060 A 
ATOM     29  C   UNL A   1      38.588  29.857  30.301  1.00  0.00     0.016 A 
ATOM     30  C   UNL A   1      38.028  29.867  27.942  1.00  0.00     0.016 A 
ATOM     31  C   UNL A   1      39.860  29.375  30.009  1.00  0.00     0.010 A 
ATOM     32  C   UNL A   1      39.303  29.372  27.649  1.00  0.00     0.010 A 
ATOM     33  C   UNL A   1      40.233  29.144  28.678  1.00  0.00    -0.014 A 
BRANCH  33  34
ATOM     34  C   UNL A   1      41.623  28.732  28.371  1.00  0.00     0.031 A 
ATOM     35  C   UNL A   1      42.727  29.750  28.411  1.00  0.00     0.074 A 
ATOM     36  C   UNL A   1      41.896  27.444  28.091  1.00  0.00     0.049 A 
ATOM     37  N   UNL A   1      43.996  29.606  28.125  1.00  0.00    -0.248 NA
ATOM     38  C   UNL A   1      42.354  31.112  28.826  1.00  0.00     0.031 C 
ATOM     39  C   UNL A   1      40.911  26.361  28.059  1.00  0.00     0.029 A 
ATOM     40  N   UNL A   1      43.082  26.828  27.781  1.00  0.00    -0.354 N 
ATOM     41  C   UNL A   1      44.569  30.860  28.305  1.00  0.00     0.074 A 
ATOM     42  C   UNL A   1      43.507  31.755  28.710  1.00  0.00     0.031 C 
ATOM     43  C   UNL A   1      41.536  25.212  27.748  1.00  0.00     0.029 A 
ATOM     44  C   UNL A   1      42.954  25.485  27.525  1.00  0.00     0.049 A 
ATOM     45  H   UNL A   1      43.942  27.305  27.746  1.00  0.00     0.167 HD
ATOM     46  C   UNL A   1      45.863  31.227  28.148  1.00  0.00     0.037 A 
ATOM     47  C   UNL A   1      43.872  24.580  27.136  1.00  0.00     0.037 A 
ATOM     48  C   UNL A   1      46.919  30.326  27.760  1.00  0.00     0.049 A 
ATOM     49  C   UNL A   1      45.300  25.017  26.946  1.00  0.00     0.074 A 
ATOM     50  C   UNL A   1      48.262  30.601  27.575  1.00  0.00     0.029 A 
ATOM     51  N   UNL A   1      46.749  28.973  27.502  1.00  0.00    -0.354 N 
ATOM     52  N   UNL A   1      45.824  26.209  27.107  1.00  0.00    -0.248 NA
ATOM     53  C   UNL A   1      46.259  23.988  26.525  1.00  0.00     0.031 C 
ATOM     54  C   UNL A   1      48.901  29.419  27.180  1.00  0.00     0.029 A 
ATOM     55  C   UNL A   1      47.960  28.401  27.152  1.00  0.00     0.049 A 
ATOM     56  H   UNL A   1      45.893  28.491  27.560  1.00  0.00     0.167 HD
ATOM     57  C   UNL A   1      47.178  26.069  26.823  1.00  0.00     0.074 A 
ATOM     58  C   UNL A   1      47.393  24.675  26.492  1.00  0.00     0.031 C 
ATOM     59  C   UNL A   1      48.154  27.009  26.833  1.00  0.00     0.037 A 
BRANCH  46  60
ATOM     60  C   UNL A   1      46.203  32.673  28.371  1.00  0.00     0.058 A 
ATOM     61  C   UNL A   1      46.631  33.147  29.621  1.00  0.00     0.135 A 
ATOM     62  C   UNL A   1      46.112  33.594  27.314  1.00  0.00     0.135 A 
ATOM     63  F   UNL A   1      46.715  32.312  30.667  1.00  0.00    -0.206 F 
ATOM     64  C   UNL A   1      46.934  34.491  29.822  1.00  0.00     0.059 A 
ATOM     65  C   UNL A   1      46.431  34.938  27.489  1.00  0.00     0.059 A 
ATOM     66  F   UNL A   1      45.706  33.193  26.100  1.00  0.00    -0.206 F 
ATOM     67  C   UNL A   1      46.825  35.379  28.751  1.00  0.00     0.060 A 
BRANCH  67  68
ATOM     68  S   UNL A   1      47.212  37.121  29.026  1.00  0.00     0.124 S 
ATOM     69  O   UNL A   1      48.501  37.242  28.351  1.00  0.00    -0.237 OA
ATOM     70  O   UNL A   1      46.094  37.800  28.381  1.00  0.00    -0.237 OA
ATOM     71  O   UNL A   1      47.254  37.234  30.482  1.00  0.00    -0.744 OA
ENDBRANCH  67  68
ENDBRANCH  46  60
BRANCH  47  72
ATOM     72  C   UNL A   1      43.465  23.173  26.890  1.00  0.00     0.058 A 
ATOM     73  C   UNL A   1      43.390  22.658  25.588  1.00  0.00     0.135 A 
ATOM     74  C   UNL A   1      43.157  22.313  27.954  1.00  0.00     0.135 A 
ATOM     75  F   UNL A   1      43.667  23.446  24.538  1.00  0.00    -0.206 F 
ATOM     76  C   UNL A   1      43.015  21.340  25.347  1.00  0.00     0.059 A 
ATOM     77  C   UNL A   1      42.801  20.985  27.740  1.00  0.00     0.059 A 
ATOM     78  F   UNL A   1      43.225  22.756  29.219  1.00  0.00    -0.206 F 
ATOM     79  C   UNL A   1      42.724  20.510  26.432  1.00  0.00     0.060 A 
BRANCH  79  80
ATOM     80  S   UNL A   1      42.294  18.784  26.118  1.00  0.00     0.124 S 
ATOM     81  O   UNL A   1      40.897  18.901  25.715  1.00  0.00    -0.237 OA
ATOM     82  O   UNL A   1      43.234  18.417  25.064  1.00  0.00    -0.237 OA
ATOM     83  O   UNL A   1      42.529  18.142  27.408  1.00  0.00    -0.744 OA
ENDBRANCH  79  80
ENDBRANCH  47  72
BRANCH  59  84
ATOM     84  C   UNL A   1      49.548  26.553  26.507  1.00  0.00     0.058 A 
ATOM     85  C   UNL A   1      50.385  25.995  27.485  1.00  0.00     0.135 A 
ATOM     86  C   UNL A   1      50.039  26.648  25.195  1.00  0.00     0.135 A 
ATOM     87  F   UNL A   1      49.963  25.888  28.754  1.00  0.00    -0.206 F 
ATOM     88  C   UNL A   1      51.673  25.568  27.178  1.00  0.00     0.059 A 
ATOM     89  C   UNL A   1      51.316  26.209  24.863  1.00  0.00     0.059 A 
ATOM     90  F   UNL A   1      49.273  27.167  24.223  1.00  0.00    -0.206 F 
ATOM     91  C   UNL A   1      52.132  25.682  25.864  1.00  0.00     0.060 A 
BRANCH  91  92
ATOM     92  S   UNL A   1      53.797  25.109  25.469  1.00  0.00     0.124 S 
ATOM     93  O   UNL A   1      54.554  25.591  26.620  1.00  0.00    -0.237 OA
ATOM     94  O   UNL A   1      53.623  23.662  25.385  1.00  0.00    -0.237 OA
ATOM     95  O   UNL A   1      54.092  25.772  24.202  1.00  0.00    -0.744 OA
ENDBRANCH  91  92
ENDBRANCH  59  84
ENDBRANCH  33  34
ENDBRANCH  26  28
ENDBRANCH  25  26
ENDBRANCH   1  25
TORSDOF 16
ENDMDL
MODEL 2
REMARK VINA RESULT:     -12.4      6.785     12.414
REMARK SMILES Cc1cc2cc(-c3ccc([C@@H](C)C(=O)OCCOC(=O)c4ccc(-c5c6nc(c(-c7c(F)cc(S(=O)(=O)[O-])cc7F)c7ccc([nH]7)c(-c7c(F)cc(S(=O)(=O)[O-])cc7F)c7nc(c(-c8c(F)cc(S(=O)(=O)[O-])cc8F)c8ccc5[nH]8)C=C7)C=C6)cc4)cc3)ccc2[nH]1
REMARK SMILES IDX 17 1 16 2 15 3 13 4 14 5 11 6 12 7 10 8 7 9 8 10 88 11 9 12
REMARK SMILES IDX 87 13 6 14 1 15 2 16 3 17 92 18 4 19 91 20 5 22 90 23 89 24
REMARK SMILES IDX 18 25 19 26 20 27 21 28 22 29 86 30 23 31 85 32 24 33 25 34
REMARK SMILES IDX 26 35 79 36 27 37 84 38 78 39 80 40 28 41 83 42 77 43 76 44
REMARK SMILES IDX 29 46 63 47 42 48 62 49 43 50 46 51 61 52 81 53 44 54 45 55
REMARK SMILES IDX 60 57 82 58 47 59 30 60 31 61 40 62 32 63 33 64 39 65 41 66
REMARK SMILES IDX 34 67 35 68 36 69 37 70 38 71 64 72 65 73 74 74 66 75 67 76
REMARK SMILES IDX 73 77 75 78 68 79 69 80 70 81 71 82 72 83 48 84 49 85 58 86
REMARK SMILES IDX 50 87 51 88 57 89 59 90 52 91 53 92 54 93 55 94 56 95
REMARK H PARENT 92 21 80 45 46 56
REMARK Flexibility Score: inf
ROOT
ATOM      1  C   UNL A   1      40.172  22.458  27.014  1.00  0.00     0.275 C 
ENDROOT
BRANCH   1   2
ATOM      2  C   UNL A   1      39.386  21.546  26.070  1.00  0.00     0.274 C 
BRANCH   2   3
ATOM      3  O   UNL A   1      38.104  22.115  25.745  1.00  0.00    -0.462 OA
BRANCH   3   4
ATOM      4  C   UNL A   1      37.209  21.299  25.127  1.00  0.00     0.313 C 
ATOM      5  O   UNL A   1      37.516  20.433  24.313  1.00  0.00    -0.252 OA
BRANCH   4   6
ATOM      6  C   UNL A   1      35.757  21.595  25.485  1.00  0.00     0.126 C 
ATOM      7  C   UNL A   1      34.881  20.401  25.110  1.00  0.00     0.025 C 
BRANCH   6   8
ATOM      8  C   UNL A   1      35.196  22.907  24.960  1.00  0.00    -0.034 A 
ATOM      9  C   UNL A   1      34.070  25.347  24.039  1.00  0.00    -0.018 A 
ATOM     10  C   UNL A   1      34.247  24.255  23.176  1.00  0.00     0.009 A 
ATOM     11  C   UNL A   1      34.497  25.211  25.365  1.00  0.00     0.009 A 
ATOM     12  C   UNL A   1      34.794  23.053  23.628  1.00  0.00     0.005 A 
ATOM     13  C   UNL A   1      35.047  24.007  25.821  1.00  0.00     0.005 A 
BRANCH   9  14
ATOM     14  C   UNL A   1      33.408  26.570  23.560  1.00  0.00    -0.018 A 
ATOM     15  C   UNL A   1      28.788  30.133  21.700  1.00  0.00     0.064 C 
ATOM     16  C   UNL A   1      29.939  29.320  22.156  1.00  0.00     0.013 A 
ATOM     17  C   UNL A   1      29.990  28.034  22.650  1.00  0.00     0.031 A 
ATOM     18  N   UNL A   1      31.227  29.803  22.142  1.00  0.00    -0.359 N 
ATOM     19  C   UNL A   1      31.348  27.723  22.922  1.00  0.00     0.000 A 
ATOM     20  C   UNL A   1      32.105  28.844  22.597  1.00  0.00     0.046 A 
ATOM     21  H   UNL A   1      31.485  30.706  21.850  1.00  0.00     0.166 HD
ATOM     22  C   UNL A   1      32.006  26.583  23.413  1.00  0.00     0.019 A 
ATOM     23  C   UNL A   1      33.495  28.882  22.748  1.00  0.00     0.027 A 
ATOM     24  C   UNL A   1      34.129  27.726  23.232  1.00  0.00     0.011 A 
ENDBRANCH   9  14
ENDBRANCH   6   8
ENDBRANCH   4   6
ENDBRANCH   3   4
ENDBRANCH   2   3
ENDBRANCH   1   2
BRANCH   1  25
ATOM     25  O   UNL A   1      40.019  23.840  26.642  1.00  0.00    -0.458 OA
BRANCH  25  26
ATOM     26  C   UNL A   1      41.130  24.597  26.785  1.00  0.00     0.338 C 
ATOM     27  O   UNL A   1      42.189  24.477  26.195  1.00  0.00    -0.246 OA
BRANCH  26  28
ATOM     28  C   UNL A   1      40.856  25.701  27.714  1.00  0.00     0.060 A 
ATOM     29  C   UNL A   1      41.799  26.726  27.816  1.00  0.00     0.016 A 
ATOM     30  C   UNL A   1      39.738  25.679  28.548  1.00  0.00     0.016 A 
ATOM     31  C   UNL A   1      41.646  27.723  28.774  1.00  0.00     0.010 A 
ATOM     32  C   UNL A   1      39.578  26.687  29.503  1.00  0.00     0.010 A 
ATOM     33  C   UNL A   1      40.543  27.702  29.637  1.00  0.00    -0.014 A 
BRANCH  33  34
ATOM     34  C   UNL A   1      40.445  28.708  30.721  1.00  0.00     0.031 A 
ATOM     35  C   UNL A   1      41.369  28.621  31.902  1.00  0.00     0.074 A 
ATOM     36  C   UNL A   1      39.554  29.712  30.627  1.00  0.00     0.049 A 
ATOM     37  N   UNL A   1      41.411  29.367  32.976  1.00  0.00    -0.248 NA
ATOM     38  C   UNL A   1      42.379  27.552  31.872  1.00  0.00     0.031 C 
ATOM     39  C   UNL A   1      38.630  29.919  29.510  1.00  0.00     0.029 A 
ATOM     40  N   UNL A   1      39.280  30.747  31.485  1.00  0.00    -0.354 N 
ATOM     41  C   UNL A   1      42.435  28.847  33.758  1.00  0.00     0.074 A 
ATOM     42  C   UNL A   1      42.979  27.713  33.043  1.00  0.00     0.031 C 
ATOM     43  C   UNL A   1      37.892  31.017  29.751  1.00  0.00     0.029 A 
ATOM     44  C   UNL A   1      38.266  31.566  31.052  1.00  0.00     0.049 A 
ATOM     45  H   UNL A   1      39.765  30.888  32.330  1.00  0.00     0.167 HD
ATOM     46  C   UNL A   1      42.881  29.279  34.962  1.00  0.00     0.037 A 
ATOM     47  C   UNL A   1      37.689  32.629  31.647  1.00  0.00     0.037 A 
ATOM     48  C   UNL A   1      42.346  30.419  35.662  1.00  0.00     0.049 A 
ATOM     49  C   UNL A   1      38.187  33.076  32.995  1.00  0.00     0.074 A 
ATOM     50  C   UNL A   1      42.729  30.938  36.886  1.00  0.00     0.029 A 
ATOM     51  N   UNL A   1      41.313  31.220  35.195  1.00  0.00    -0.354 N 
ATOM     52  N   UNL A   1      39.147  32.566  33.728  1.00  0.00    -0.248 NA
ATOM     53  C   UNL A   1      37.525  34.242  33.593  1.00  0.00     0.031 C 
ATOM     54  C   UNL A   1      41.911  32.037  37.172  1.00  0.00     0.029 A 
ATOM     55  C   UNL A   1      41.041  32.223  36.109  1.00  0.00     0.049 A 
ATOM     56  H   UNL A   1      40.843  31.093  34.339  1.00  0.00     0.167 HD
ATOM     57  C   UNL A   1      39.217  33.359  34.868  1.00  0.00     0.074 A 
ATOM     58  C   UNL A   1      38.209  34.390  34.721  1.00  0.00     0.031 C 
ATOM     59  C   UNL A   1      40.037  33.244  35.941  1.00  0.00     0.037 A 
BRANCH  46  60
ATOM     60  C   UNL A   1      43.987  28.496  35.611  1.00  0.00     0.058 A 
ATOM     61  C   UNL A   1      45.338  28.775  35.354  1.00  0.00     0.135 A 
ATOM     62  C   UNL A   1      43.690  27.462  36.513  1.00  0.00     0.135 A 
ATOM     63  F   UNL A   1      45.675  29.741  34.484  1.00  0.00    -0.206 F 
ATOM     64  C   UNL A   1      46.358  28.039  35.950  1.00  0.00     0.059 A 
ATOM     65  C   UNL A   1      44.694  26.727  37.137  1.00  0.00     0.059 A 
ATOM     66  F   UNL A   1      42.414  27.153  36.792  1.00  0.00    -0.206 F 
ATOM     67  C   UNL A   1      46.025  27.013  36.836  1.00  0.00     0.060 A 
BRANCH  67  68
ATOM     68  S   UNL A   1      47.355  26.059  37.597  1.00  0.00     0.124 S 
ATOM     69  O   UNL A   1      48.535  26.777  37.126  1.00  0.00    -0.237 OA
ATOM     70  O   UNL A   1      47.063  26.188  39.021  1.00  0.00    -0.237 OA
ATOM     71  O   UNL A   1      47.173  24.720  37.043  1.00  0.00    -0.744 OA
ENDBRANCH  67  68
ENDBRANCH  46  60
BRANCH  47  72
ATOM     72  C   UNL A   1      36.570  33.335  30.973  1.00  0.00     0.058 A 
ATOM     73  C   UNL A   1      36.799  34.165  29.867  1.00  0.00     0.135 A 
ATOM     74  C   UNL A   1      35.247  33.182  31.415  1.00  0.00     0.135 A 
ATOM     75  F   UNL A   1      38.049  34.350  29.413  1.00  0.00    -0.206 F 
ATOM     76  C   UNL A   1      35.757  34.827  29.225  1.00  0.00     0.059 A 
ATOM     77  C   UNL A   1      34.186  33.815  30.776  1.00  0.00     0.059 A 
ATOM     78  F   UNL A   1      34.976  32.389  32.463  1.00  0.00    -0.206 F 
ATOM     79  C   UNL A   1      34.452  34.644  29.688  1.00  0.00     0.060 A 
BRANCH  79  80
ATOM     80  S   UNL A   1      33.096  35.459  28.817  1.00  0.00     0.124 S 
ATOM     81  O   UNL A   1      32.319  35.999  29.927  1.00  0.00    -0.237 OA
ATOM     82  O   UNL A   1      33.800  36.439  27.995  1.00  0.00    -0.237 OA
ATOM     83  O   UNL A   1      32.469  34.367  28.077  1.00  0.00    -0.744 OA
ENDBRANCH  79  80
ENDBRANCH  47  72
BRANCH  59  84
ATOM     84  C   UNL A   1      39.901  34.278  37.022  1.00  0.00     0.058 A 
ATOM     85  C   UNL A   1      40.575  35.507  36.953  1.00  0.00     0.135 A 
ATOM     86  C   UNL A   1      39.062  34.048  38.124  1.00  0.00     0.135 A 
ATOM     87  F   UNL A   1      41.393  35.772  35.922  1.00  0.00    -0.206 F 
ATOM     88  C   UNL A   1      40.441  36.464  37.953  1.00  0.00     0.059 A 
ATOM     89  C   UNL A   1      38.898  34.999  39.125  1.00  0.00     0.059 A 
ATOM     90  F   UNL A   1      38.389  32.892  38.231  1.00  0.00    -0.206 F 
ATOM     91  C   UNL A   1      39.603  36.200  39.038  1.00  0.00     0.060 A 
BRANCH  91  92
ATOM     92  S   UNL A   1      39.420  37.454  40.323  1.00  0.00     0.124 S 
ATOM     93  O   UNL A   1      38.542  38.419  39.669  1.00  0.00    -0.237 OA
ATOM     94  O   UNL A   1      38.824  36.698  41.421  1.00  0.00    -0.237 OA
ATOM     95  O   UNL A   1      40.788  37.906  40.553  1.00  0.00    -0.744 OA
ENDBRANCH  91  92
ENDBRANCH  59  84
ENDBRANCH  33  34
ENDBRANCH  26  28
ENDBRANCH  25  26
ENDBRANCH   1  25
TORSDOF 16
ENDMDL
MODEL 3
REMARK VINA RESULT:     -12.2      4.253      6.822
REMARK SMILES Cc1cc2cc(-c3ccc([C@@H](C)C(=O)OCCOC(=O)c4ccc(-c5c6nc(c(-c7c(F)cc(S(=O)(=O)[O-])cc7F)c7ccc([nH]7)c(-c7c(F)cc(S(=O)(=O)[O-])cc7F)c7nc(c(-c8c(F)cc(S(=O)(=O)[O-])cc8F)c8ccc5[nH]8)C=C7)C=C6)cc4)cc3)ccc2[nH]1
REMARK SMILES IDX 17 1 16 2 15 3 13 4 14 5 11 6 12 7 10 8 7 9 8 10 88 11 9 12
REMARK SMILES IDX 87 13 6 14 1 15 2 16 3 17 92 18 4 19 91 20 5 22 90 23 89 24
REMARK SMILES IDX 18 25 19 26 20 27 21 28 22 29 86 30 23 31 85 32 24 33 25 34
REMARK SMILES IDX 26 35 79 36 27 37 84 38 78 39 80 40 28 41 83 42 77 43 76 44
REMARK SMILES IDX 29 46 63 47 42 48 62 49 43 50 46 51 61 52 81 53 44 54 45 55
REMARK SMILES IDX 60 57 82 58 47 59 30 60 31 61 40 62 32 63 33 64 39 65 41 66
REMARK SMILES IDX 34 67 35 68 36 69 37 70 38 71 64 72 65 73 74 74 66 75 67 76
REMARK SMILES IDX 73 77 75 78 68 79 69 80 70 81 71 82 72 83 48 84 49 85 58 86
REMARK SMILES IDX 50 87 51 88 57 89 59 90 52 91 53 92 54 93 55 94 56 95
REMARK H PARENT 92 21 80 45 46 56
REMARK Flexibility Score: inf
ROOT
ATOM      1  C   UNL A   1      33.409  32.745  28.132  1.00  0.00     0.275 C 
ENDROOT
BRANCH   1   2
ATOM      2  C   UNL A   1      33.625  34.233  28.418  1.00  0.00     0.274 C 
BRANCH   2   3
ATOM      3  O   UNL A   1      32.621  34.740  29.317  1.00  0.00    -0.462 OA
BRANCH   3   4
ATOM      4  C   UNL A   1      32.982  35.780  30.116  1.00  0.00     0.313 C 
ATOM      5  O   UNL A   1      33.294  36.891  29.699  1.00  0.00    -0.252 OA
BRANCH   4   6
ATOM      6  C   UNL A   1      33.034  35.426  31.598  1.00  0.00     0.126 C 
ATOM      7  C   UNL A   1      32.813  36.686  32.434  1.00  0.00     0.025 C 
BRANCH   6   8
ATOM      8  C   UNL A   1      34.253  34.641  32.054  1.00  0.00    -0.034 A 
ATOM      9  C   UNL A   1      36.584  33.221  32.839  1.00  0.00    -0.018 A 
ATOM     10  C   UNL A   1      35.484  32.559  32.276  1.00  0.00     0.009 A 
ATOM     11  C   UNL A   1      36.488  34.604  33.036  1.00  0.00     0.009 A 
ATOM     12  C   UNL A   1      34.340  33.255  31.883  1.00  0.00     0.005 A 
ATOM     13  C   UNL A   1      35.341  35.305  32.644  1.00  0.00     0.005 A 
BRANCH   9  14
ATOM     14  C   UNL A   1      37.813  32.478  33.160  1.00  0.00    -0.018 A 
ATOM     15  C   UNL A   1      41.525  27.629  33.615  1.00  0.00     0.064 C 
ATOM     16  C   UNL A   1      40.675  28.838  33.515  1.00  0.00     0.013 A 
ATOM     17  C   UNL A   1      39.421  29.010  32.967  1.00  0.00     0.031 A 
ATOM     18  N   UNL A   1      41.077  30.059  34.004  1.00  0.00    -0.359 N 
ATOM     19  C   UNL A   1      39.046  30.367  33.150  1.00  0.00     0.000 A 
ATOM     20  C   UNL A   1      40.097  31.005  33.800  1.00  0.00     0.046 A 
ATOM     21  H   UNL A   1      41.943  30.232  34.438  1.00  0.00     0.166 HD
ATOM     22  C   UNL A   1      37.901  31.113  32.822  1.00  0.00     0.019 A 
ATOM     23  C   UNL A   1      40.060  32.363  34.135  1.00  0.00     0.027 A 
ATOM     24  C   UNL A   1      38.901  33.083  33.804  1.00  0.00     0.011 A 
ENDBRANCH   9  14
ENDBRANCH   6   8
ENDBRANCH   4   6
ENDBRANCH   3   4
ENDBRANCH   2   3
ENDBRANCH   1   2
BRANCH   1  25
ATOM     25  O   UNL A   1      34.664  32.073  27.924  1.00  0.00    -0.458 OA
BRANCH  25  26
ATOM     26  C   UNL A   1      34.593  30.722  27.907  1.00  0.00     0.338 C 
ATOM     27  O   UNL A   1      33.614  30.034  27.680  1.00  0.00    -0.246 OA
BRANCH  26  28
ATOM     28  C   UNL A   1      35.935  30.157  28.106  1.00  0.00     0.060 A 
ATOM     29  C   UNL A   1      36.282  29.721  29.387  1.00  0.00     0.016 A 
ATOM     30  C   UNL A   1      36.873  30.151  27.075  1.00  0.00     0.016 A 
ATOM     31  C   UNL A   1      37.580  29.301  29.653  1.00  0.00     0.010 A 
ATOM     32  C   UNL A   1      38.176  29.717  27.340  1.00  0.00     0.010 A 
ATOM     33  C   UNL A   1      38.543  29.311  28.635  1.00  0.00    -0.014 A 
BRANCH  33  34
ATOM     34  C   UNL A   1      39.947  28.962  28.955  1.00  0.00     0.031 A 
ATOM     35  C   UNL A   1      40.828  29.970  29.638  1.00  0.00     0.074 A 
ATOM     36  C   UNL A   1      40.417  27.735  28.664  1.00  0.00     0.049 A 
ATOM     37  N   UNL A   1      42.093  29.881  29.955  1.00  0.00    -0.248 NA
ATOM     38  C   UNL A   1      40.201  31.248  30.010  1.00  0.00     0.031 C 
ATOM     39  C   UNL A   1      39.644  26.662  28.035  1.00  0.00     0.029 A 
ATOM     40  N   UNL A   1      41.658  27.183  28.860  1.00  0.00    -0.354 N 
ATOM     41  C   UNL A   1      42.421  31.096  30.546  1.00  0.00     0.074 A 
ATOM     42  C   UNL A   1      41.225  31.910  30.529  1.00  0.00     0.031 C 
ATOM     43  C   UNL A   1      40.429  25.579  27.900  1.00  0.00     0.029 A 
ATOM     44  C   UNL A   1      41.766  25.894  28.398  1.00  0.00     0.049 A 
ATOM     45  H   UNL A   1      42.399  27.666  29.292  1.00  0.00     0.167 HD
ATOM     46  C   UNL A   1      43.612  31.492  31.057  1.00  0.00     0.037 A 
ATOM     47  C   UNL A   1      42.828  25.067  28.361  1.00  0.00     0.037 A 
ATOM     48  C   UNL A   1      44.794  30.671  31.087  1.00  0.00     0.049 A 
ATOM     49  C   UNL A   1      44.146  25.539  28.915  1.00  0.00     0.074 A 
ATOM     50  C   UNL A   1      46.048  30.980  31.584  1.00  0.00     0.029 A 
ATOM     51  N   UNL A   1      44.867  29.372  30.601  1.00  0.00    -0.354 N 
ATOM     52  N   UNL A   1      44.444  26.695  29.457  1.00  0.00    -0.248 NA
ATOM     53  C   UNL A   1      45.269  24.594  28.853  1.00  0.00     0.031 C 
ATOM     54  C   UNL A   1      46.886  29.878  31.375  1.00  0.00     0.029 A 
ATOM     55  C   UNL A   1      46.145  28.870  30.779  1.00  0.00     0.049 A 
ATOM     56  H   UNL A   1      44.120  28.881  30.190  1.00  0.00     0.167 HD
ATOM     57  C   UNL A   1      45.784  26.611  29.817  1.00  0.00     0.074 A 
ATOM     58  C   UNL A   1      46.235  25.286  29.442  1.00  0.00     0.031 C 
ATOM     59  C   UNL A   1      46.572  27.546  30.404  1.00  0.00     0.037 A 
BRANCH  46  60
ATOM     60  C   UNL A   1      43.698  32.890  31.603  1.00  0.00     0.058 A 
ATOM     61  C   UNL A   1      43.921  33.996  30.768  1.00  0.00     0.135 A 
ATOM     62  C   UNL A   1      43.539  33.125  32.978  1.00  0.00     0.135 A 
ATOM     63  F   UNL A   1      44.098  33.823  29.450  1.00  0.00    -0.206 F 
ATOM     64  C   UNL A   1      44.009  35.287  31.283  1.00  0.00     0.059 A 
ATOM     65  C   UNL A   1      43.603  34.409  33.511  1.00  0.00     0.059 A 
ATOM     66  F   UNL A   1      43.326  32.102  33.819  1.00  0.00    -0.206 F 
ATOM     67  C   UNL A   1      43.855  35.482  32.656  1.00  0.00     0.060 A 
BRANCH  67  68
ATOM     68  S   UNL A   1      43.980  37.159  33.313  1.00  0.00     0.124 S 
ATOM     69  O   UNL A   1      42.888  37.173  34.283  1.00  0.00    -0.237 OA
ATOM     70  O   UNL A   1      45.326  37.179  33.876  1.00  0.00    -0.237 OA
ATOM     71  O   UNL A   1      43.783  38.001  32.136  1.00  0.00    -0.744 OA
ENDBRANCH  67  68
ENDBRANCH  46  60
BRANCH  47  72
ATOM     72  C   UNL A   1      42.690  23.712  27.769  1.00  0.00     0.058 A 
ATOM     73  C   UNL A   1      42.791  23.513  26.386  1.00  0.00     0.135 A 
ATOM     74  C   UNL A   1      42.468  22.588  28.579  1.00  0.00     0.135 A 
ATOM     75  F   UNL A   1      42.995  24.558  25.570  1.00  0.00    -0.206 F 
ATOM     76  C   UNL A   1      42.669  22.246  25.822  1.00  0.00     0.059 A 
ATOM     77  C   UNL A   1      42.364  21.309  28.042  1.00  0.00     0.059 A 
ATOM     78  F   UNL A   1      42.374  22.726  29.911  1.00  0.00    -0.206 F 
ATOM     79  C   UNL A   1      42.456  21.150  26.660  1.00  0.00     0.060 A 
BRANCH  79  80
ATOM     80  S   UNL A   1      42.355  19.501  25.929  1.00  0.00     0.124 S 
ATOM     81  O   UNL A   1      40.927  19.392  25.652  1.00  0.00    -0.237 OA
ATOM     82  O   UNL A   1      43.224  19.624  24.763  1.00  0.00    -0.237 OA
ATOM     83  O   UNL A   1      42.862  18.634  26.989  1.00  0.00    -0.744 OA
ENDBRANCH  79  80
ENDBRANCH  47  72
BRANCH  59  84
ATOM     84  C   UNL A   1      47.991  27.156  30.704  1.00  0.00     0.058 A 
ATOM     85  C   UNL A   1      48.360  26.624  31.949  1.00  0.00     0.135 A 
ATOM     86  C   UNL A   1      48.987  27.288  29.723  1.00  0.00     0.135 A 
ATOM     87  F   UNL A   1      47.445  26.484  32.921  1.00  0.00    -0.206 F 
ATOM     88  C   UNL A   1      49.674  26.258  32.220  1.00  0.00     0.059 A 
ATOM     89  C   UNL A   1      50.303  26.909  29.966  1.00  0.00     0.059 A 
ATOM     90  F   UNL A   1      48.683  27.783  28.513  1.00  0.00    -0.206 F 
ATOM     91  C   UNL A   1      50.641  26.408  31.224  1.00  0.00     0.060 A 
BRANCH  91  92
ATOM     92  S   UNL A   1      52.340  25.914  31.576  1.00  0.00     0.124 S 
ATOM     93  O   UNL A   1      52.966  26.061  30.266  1.00  0.00    -0.237 OA
ATOM     94  O   UNL A   1      52.750  26.885  32.587  1.00  0.00    -0.237 OA
ATOM     95  O   UNL A   1      52.201  24.543  32.056  1.00  0.00    -0.744 OA
ENDBRANCH  91  92
ENDBRANCH  59  84
ENDBRANCH  33  34
ENDBRANCH  26  28
ENDBRANCH  25  26
ENDBRANCH   1  25
TORSDOF 16
ENDMDL
