MODEL 1
REMARK VINA RESULT:     -11.0      0.000      0.000
REMARK SMILES O=C(CCCN1C(=O)/C(=C/c2cc(Br)ccc2O)SC1=S)OCCOC(=O)c1ccc(-c2c3nc(c(-c4c(F)cc(S(=O)(=O)[O-])cc4F)c4ccc([nH]4)c(-c4c(F)cc(S(=O)(=O)[O-])cc4F)c4nc(c(-c5c(F)cc(S(=O)(=O)[O-])cc5F)c5ccc2[nH]5)C=C4)C=C3)cc1
REMARK SMILES IDX 23 1 22 2 2 3 1 4 3 5 4 6 5 7 6 8 7 9 20 10 8 11 9 12 19 13
REMARK SMILES IDX 21 14 10 15 11 16 12 17 17 18 13 19 16 20 14 21 15 22 18 23
REMARK SMILES IDX 24 25 25 26 26 27 27 28 28 29 29 30 93 31 30 32 92 33 31 34
REMARK SMILES IDX 32 35 33 36 86 37 34 38 91 39 85 40 87 41 35 42 90 43 84 44
REMARK SMILES IDX 83 45 36 47 70 48 49 49 69 50 50 51 53 52 68 53 88 54 51 55
REMARK SMILES IDX 52 56 67 58 89 59 54 60 37 61 38 62 47 63 39 64 40 65 46 66
REMARK SMILES IDX 48 67 41 68 42 69 43 70 44 71 45 72 71 73 72 74 81 75 73 76
REMARK SMILES IDX 74 77 80 78 82 79 75 80 76 81 77 82 78 83 79 84 55 85 56 86
REMARK SMILES IDX 65 87 57 88 58 89 64 90 66 91 59 92 60 93 61 94 62 95 63 96
REMARK H PARENT 18 24 87 46 53 57
REMARK Flexibility Score: inf
ROOT
ATOM      1  C   UNL A   1      35.100  32.415  28.571  1.00  0.00     0.274 C 
ENDROOT
BRANCH   1   2
ATOM      2  O   UNL A   1      33.861  32.053  27.962  1.00  0.00    -0.462 OA
BRANCH   2   3
ATOM      3  C   UNL A   1      33.794  30.772  27.517  1.00  0.00     0.305 C 
ATOM      4  O   UNL A   1      34.748  30.005  27.463  1.00  0.00    -0.252 OA
BRANCH   3   5
ATOM      5  C   UNL A   1      32.462  30.497  26.867  1.00  0.00     0.124 C 
BRANCH   5   6
ATOM      6  C   UNL A   1      31.768  29.150  27.066  1.00  0.00     0.034 C 
BRANCH   6   7
ATOM      7  C   UNL A   1      31.441  28.190  25.911  1.00  0.00     0.128 C 
BRANCH   7   8
ATOM      8  N   UNL A   1      32.308  27.071  25.499  1.00  0.00    -0.293 N 
ATOM      9  C   UNL A   1      32.325  25.827  26.096  1.00  0.00     0.266 C 
ATOM     10  C   UNL A   1      33.203  27.216  24.447  1.00  0.00     0.148 C 
ATOM     11  O   UNL A   1      31.481  25.364  26.847  1.00  0.00    -0.268 OA
ATOM     12  C   UNL A   1      33.494  25.024  25.618  1.00  0.00     0.081 C 
ATOM     13  S   UNL A   1      34.073  25.716  24.162  1.00  0.00    -0.054 SA
ATOM     14  S   UNL A   1      33.511  28.574  23.522  1.00  0.00    -0.052 S 
ATOM     15  C   UNL A   1      33.972  23.948  26.268  1.00  0.00     0.033 C 
BRANCH  15  16
ATOM     16  C   UNL A   1      35.055  23.045  25.821  1.00  0.00     0.019 A 
ATOM     17  C   UNL A   1      36.365  23.393  26.187  1.00  0.00     0.027 A 
ATOM     18  C   UNL A   1      34.869  21.872  25.070  1.00  0.00     0.122 A 
ATOM     19  C   UNL A   1      37.437  22.550  25.882  1.00  0.00     0.018 A 
ATOM     20  C   UNL A   1      35.941  21.018  24.784  1.00  0.00     0.048 A 
ATOM     21  Br  UNL A   1      39.188  23.029  26.409  1.00  0.00    -0.051 Br
ATOM     22  C   UNL A   1      37.227  21.353  25.204  1.00  0.00     0.019 A 
BRANCH  18  23
ATOM     23  O   UNL A   1      33.626  21.561  24.588  1.00  0.00    -0.507 OA
ATOM     24  H   UNL A   1      33.188  20.788  24.885  1.00  0.00     0.293 HD
ENDBRANCH  18  23
ENDBRANCH  15  16
ENDBRANCH   7   8
ENDBRANCH   6   7
ENDBRANCH   5   6
ENDBRANCH   3   5
ENDBRANCH   2   3
ENDBRANCH   1   2
BRANCH   1  25
ATOM     25  C   UNL A   1      35.022  32.326  30.107  1.00  0.00     0.275 C 
BRANCH  25  26
ATOM     26  O   UNL A   1      36.273  31.918  30.700  1.00  0.00    -0.458 OA
BRANCH  26  27
ATOM     27  C   UNL A   1      36.572  30.598  30.719  1.00  0.00     0.338 C 
ATOM     28  O   UNL A   1      35.821  29.693  31.019  1.00  0.00    -0.246 OA
BRANCH  27  29
ATOM     29  C   UNL A   1      37.966  30.392  30.237  1.00  0.00     0.060 A 
ATOM     30  C   UNL A   1      38.198  30.290  28.862  1.00  0.00     0.016 A 
ATOM     31  C   UNL A   1      39.037  30.262  31.127  1.00  0.00     0.016 A 
ATOM     32  C   UNL A   1      39.490  30.017  28.381  1.00  0.00     0.010 A 
ATOM     33  C   UNL A   1      40.333  30.009  30.642  1.00  0.00     0.010 A 
ATOM     34  C   UNL A   1      40.566  29.843  29.267  1.00  0.00    -0.014 A 
BRANCH  34  35
ATOM     35  C   UNL A   1      41.886  29.346  28.764  1.00  0.00     0.031 A 
ATOM     36  C   UNL A   1      43.048  30.307  28.671  1.00  0.00     0.074 A 
ATOM     37  C   UNL A   1      42.080  28.057  28.418  1.00  0.00     0.049 A 
ATOM     38  N   UNL A   1      44.290  30.081  28.321  1.00  0.00    -0.248 NA
ATOM     39  C   UNL A   1      42.771  31.711  29.013  1.00  0.00     0.031 C 
ATOM     40  C   UNL A   1      41.061  27.011  28.441  1.00  0.00     0.029 A 
ATOM     41  N   UNL A   1      43.212  27.408  27.975  1.00  0.00    -0.354 N 
ATOM     42  C   UNL A   1      44.942  31.308  28.409  1.00  0.00     0.074 A 
ATOM     43  C   UNL A   1      43.945  32.284  28.793  1.00  0.00     0.031 C 
ATOM     44  C   UNL A   1      41.612  25.852  28.038  1.00  0.00     0.029 A 
ATOM     45  C   UNL A   1      43.023  26.070  27.709  1.00  0.00     0.049 A 
ATOM     46  H   UNL A   1      44.079  27.859  27.859  1.00  0.00     0.167 HD
ATOM     47  C   UNL A   1      46.252  31.598  28.215  1.00  0.00     0.037 A 
ATOM     48  C   UNL A   1      43.878  25.130  27.255  1.00  0.00     0.037 A 
ATOM     49  C   UNL A   1      47.255  30.638  27.832  1.00  0.00     0.049 A 
ATOM     50  C   UNL A   1      45.324  25.484  26.997  1.00  0.00     0.074 A 
ATOM     51  C   UNL A   1      48.613  30.842  27.653  1.00  0.00     0.029 A 
ATOM     52  N   UNL A   1      47.014  29.301  27.555  1.00  0.00    -0.354 N 
ATOM     53  N   UNL A   1      45.936  26.633  27.158  1.00  0.00    -0.248 NA
ATOM     54  C   UNL A   1      46.200  24.409  26.503  1.00  0.00     0.031 C 
ATOM     55  C   UNL A   1      49.183  29.643  27.211  1.00  0.00     0.029 A 
ATOM     56  C   UNL A   1      48.192  28.676  27.175  1.00  0.00     0.049 A 
ATOM     57  H   UNL A   1      46.135  28.861  27.618  1.00  0.00     0.167 HD
ATOM     58  C   UNL A   1      47.269  26.409  26.819  1.00  0.00     0.074 A 
ATOM     59  C   UNL A   1      47.379  25.014  26.453  1.00  0.00     0.031 C 
ATOM     60  C   UNL A   1      48.307  27.283  26.819  1.00  0.00     0.037 A 
BRANCH  47  61
ATOM     61  C   UNL A   1      46.682  33.029  28.405  1.00  0.00     0.058 A 
ATOM     62  C   UNL A   1      47.101  33.511  29.656  1.00  0.00     0.135 A 
ATOM     63  C   UNL A   1      46.716  33.915  27.317  1.00  0.00     0.135 A 
ATOM     64  F   UNL A   1      47.076  32.711  30.733  1.00  0.00    -0.206 F 
ATOM     65  C   UNL A   1      47.507  34.832  29.827  1.00  0.00     0.059 A 
ATOM     66  C   UNL A   1      47.148  35.230  27.459  1.00  0.00     0.059 A 
ATOM     67  F   UNL A   1      46.331  33.506  26.098  1.00  0.00    -0.206 F 
ATOM     68  C   UNL A   1      47.526  35.684  28.721  1.00  0.00     0.060 A 
BRANCH  68  69
ATOM     69  S   UNL A   1      48.059  37.392  28.961  1.00  0.00     0.124 S 
ATOM     70  O   UNL A   1      49.468  37.313  28.588  1.00  0.00    -0.237 OA
ATOM     71  O   UNL A   1      47.198  38.120  28.035  1.00  0.00    -0.237 OA
ATOM     72  O   UNL A   1      47.798  37.633  30.377  1.00  0.00    -0.744 OA
ENDBRANCH  68  69
ENDBRANCH  47  61
BRANCH  48  73
ATOM     73  C   UNL A   1      43.400  23.737  27.016  1.00  0.00     0.058 A 
ATOM     74  C   UNL A   1      43.143  23.264  25.720  1.00  0.00     0.135 A 
ATOM     75  C   UNL A   1      43.167  22.858  28.086  1.00  0.00     0.135 A 
ATOM     76  F   UNL A   1      43.329  24.071  24.664  1.00  0.00    -0.206 F 
ATOM     77  C   UNL A   1      42.663  21.978  25.491  1.00  0.00     0.059 A 
ATOM     78  C   UNL A   1      42.714  21.557  27.881  1.00  0.00     0.059 A 
ATOM     79  F   UNL A   1      43.397  23.256  29.346  1.00  0.00    -0.206 F 
ATOM     80  C   UNL A   1      42.457  21.129  26.580  1.00  0.00     0.060 A 
BRANCH  80  81
ATOM     81  S   UNL A   1      41.886  19.443  26.269  1.00  0.00     0.124 S 
ATOM     82  O   UNL A   1      40.449  19.639  26.121  1.00  0.00    -0.237 OA
ATOM     83  O   UNL A   1      42.612  19.095  25.052  1.00  0.00    -0.237 OA
ATOM     84  O   UNL A   1      42.306  18.721  27.467  1.00  0.00    -0.744 OA
ENDBRANCH  80  81
ENDBRANCH  48  73
BRANCH  60  85
ATOM     85  C   UNL A   1      49.673  26.764  26.447  1.00  0.00     0.058 A 
ATOM     86  C   UNL A   1      50.494  26.101  27.373  1.00  0.00     0.135 A 
ATOM     87  C   UNL A   1      50.140  26.875  25.126  1.00  0.00     0.135 A 
ATOM     88  F   UNL A   1      50.103  25.969  28.650  1.00  0.00    -0.206 F 
ATOM     89  C   UNL A   1      51.737  25.587  27.009  1.00  0.00     0.059 A 
ATOM     90  C   UNL A   1      51.366  26.342  24.734  1.00  0.00     0.059 A 
ATOM     91  F   UNL A   1      49.393  27.487  24.195  1.00  0.00    -0.206 F 
ATOM     92  C   UNL A   1      52.163  25.710  25.686  1.00  0.00     0.060 A 
BRANCH  92  93
ATOM     93  S   UNL A   1      53.760  25.007  25.219  1.00  0.00     0.124 S 
ATOM     94  O   UNL A   1      53.481  23.576  25.278  1.00  0.00    -0.237 OA
ATOM     95  O   UNL A   1      53.967  25.558  23.884  1.00  0.00    -0.237 OA
ATOM     96  O   UNL A   1      54.668  25.511  26.245  1.00  0.00    -0.744 OA
ENDBRANCH  92  93
ENDBRANCH  60  85
ENDBRANCH  34  35
ENDBRANCH  27  29
ENDBRANCH  26  27
ENDBRANCH  25  26
ENDBRANCH   1  25
TORSDOF 19
ENDMDL
MODEL 2
REMARK VINA RESULT:     -10.8      6.449     12.211
REMARK SMILES O=C(CCCN1C(=O)/C(=C/c2cc(Br)ccc2O)SC1=S)OCCOC(=O)c1ccc(-c2c3nc(c(-c4c(F)cc(S(=O)(=O)[O-])cc4F)c4ccc([nH]4)c(-c4c(F)cc(S(=O)(=O)[O-])cc4F)c4nc(c(-c5c(F)cc(S(=O)(=O)[O-])cc5F)c5ccc2[nH]5)C=C4)C=C3)cc1
REMARK SMILES IDX 23 1 22 2 2 3 1 4 3 5 4 6 5 7 6 8 7 9 20 10 8 11 9 12 19 13
REMARK SMILES IDX 21 14 10 15 11 16 12 17 17 18 13 19 16 20 14 21 15 22 18 23
REMARK SMILES IDX 24 25 25 26 26 27 27 28 28 29 29 30 93 31 30 32 92 33 31 34
REMARK SMILES IDX 32 35 33 36 86 37 34 38 91 39 85 40 87 41 35 42 90 43 84 44
REMARK SMILES IDX 83 45 36 47 70 48 49 49 69 50 50 51 53 52 68 53 88 54 51 55
REMARK SMILES IDX 52 56 67 58 89 59 54 60 37 61 38 62 47 63 39 64 40 65 46 66
REMARK SMILES IDX 48 67 41 68 42 69 43 70 44 71 45 72 71 73 72 74 81 75 73 76
REMARK SMILES IDX 74 77 80 78 82 79 75 80 76 81 77 82 78 83 79 84 55 85 56 86
REMARK SMILES IDX 65 87 57 88 58 89 64 90 66 91 59 92 60 93 61 94 62 95 63 96
REMARK H PARENT 18 24 87 46 53 57
REMARK Flexibility Score: inf
ROOT
ATOM      1  C   UNL A   1      40.338  22.137  26.011  1.00  0.00     0.274 C 
ENDROOT
BRANCH   1   2
ATOM      2  O   UNL A   1      39.000  21.844  26.413  1.00  0.00    -0.462 OA
BRANCH   2   3
ATOM      3  C   UNL A   1      38.054  22.673  25.902  1.00  0.00     0.305 C 
ATOM      4  O   UNL A   1      38.179  23.888  25.798  1.00  0.00    -0.252 OA
BRANCH   3   5
ATOM      5  C   UNL A   1      36.746  21.948  25.715  1.00  0.00     0.124 C 
BRANCH   5   6
ATOM      6  C   UNL A   1      36.085  21.890  24.337  1.00  0.00     0.034 C 
BRANCH   6   7
ATOM      7  C   UNL A   1      34.611  22.254  24.094  1.00  0.00     0.128 C 
BRANCH   7   8
ATOM      8  N   UNL A   1      33.986  23.510  24.551  1.00  0.00    -0.293 N 
ATOM      9  C   UNL A   1      33.974  24.689  23.834  1.00  0.00     0.266 C 
ATOM     10  C   UNL A   1      33.356  23.580  25.786  1.00  0.00     0.148 C 
ATOM     11  O   UNL A   1      34.219  24.826  22.647  1.00  0.00    -0.268 OA
ATOM     12  C   UNL A   1      33.502  25.824  24.689  1.00  0.00     0.081 C 
ATOM     13  S   UNL A   1      32.678  25.180  26.046  1.00  0.00    -0.054 SA
ATOM     14  S   UNL A   1      33.212  22.390  26.951  1.00  0.00    -0.052 S 
ATOM     15  C   UNL A   1      33.722  27.117  24.393  1.00  0.00     0.033 C 
BRANCH  15  16
ATOM     16  C   UNL A   1      33.213  28.298  25.125  1.00  0.00     0.019 A 
ATOM     17  C   UNL A   1      34.075  28.885  26.064  1.00  0.00     0.027 A 
ATOM     18  C   UNL A   1      31.944  28.873  24.945  1.00  0.00     0.122 A 
ATOM     19  C   UNL A   1      33.708  30.054  26.735  1.00  0.00     0.018 A 
ATOM     20  C   UNL A   1      31.585  30.057  25.600  1.00  0.00     0.048 A 
ATOM     21  Br  UNL A   1      34.899  30.839  27.975  1.00  0.00    -0.051 Br
ATOM     22  C   UNL A   1      32.477  30.656  26.489  1.00  0.00     0.019 A 
BRANCH  18  23
ATOM     23  O   UNL A   1      31.027  28.262  24.131  1.00  0.00    -0.507 OA
ATOM     24  H   UNL A   1      31.258  27.479  23.670  1.00  0.00     0.293 HD
ENDBRANCH  18  23
ENDBRANCH  15  16
ENDBRANCH   7   8
ENDBRANCH   6   7
ENDBRANCH   5   6
ENDBRANCH   3   5
ENDBRANCH   2   3
ENDBRANCH   1   2
BRANCH   1  25
ATOM     25  C   UNL A   1      41.058  23.020  27.049  1.00  0.00     0.275 C 
BRANCH  25  26
ATOM     26  O   UNL A   1      41.940  23.983  26.435  1.00  0.00    -0.458 OA
BRANCH  26  27
ATOM     27  C   UNL A   1      41.453  25.217  26.166  1.00  0.00     0.338 C 
ATOM     28  O   UNL A   1      41.083  25.627  25.085  1.00  0.00    -0.246 OA
BRANCH  27  29
ATOM     29  C   UNL A   1      41.361  26.006  27.425  1.00  0.00     0.060 A 
ATOM     30  C   UNL A   1      40.209  25.894  28.211  1.00  0.00     0.016 A 
ATOM     31  C   UNL A   1      42.378  26.881  27.818  1.00  0.00     0.016 A 
ATOM     32  C   UNL A   1      40.059  26.684  29.362  1.00  0.00     0.010 A 
ATOM     33  C   UNL A   1      42.235  27.656  28.983  1.00  0.00     0.010 A 
ATOM     34  C   UNL A   1      41.055  27.597  29.745  1.00  0.00    -0.014 A 
BRANCH  34  35
ATOM     35  C   UNL A   1      40.799  28.580  30.844  1.00  0.00     0.031 A 
ATOM     36  C   UNL A   1      41.631  28.511  32.104  1.00  0.00     0.074 A 
ATOM     37  C   UNL A   1      39.865  29.547  30.735  1.00  0.00     0.049 A 
ATOM     38  N   UNL A   1      41.620  29.295  33.153  1.00  0.00    -0.248 NA
ATOM     39  C   UNL A   1      42.601  27.409  32.194  1.00  0.00     0.031 C 
ATOM     40  C   UNL A   1      38.976  29.740  29.592  1.00  0.00     0.029 A 
ATOM     41  N   UNL A   1      39.510  30.553  31.607  1.00  0.00    -0.354 N 
ATOM     42  C   UNL A   1      42.583  28.787  34.021  1.00  0.00     0.074 A 
ATOM     43  C   UNL A   1      43.120  27.597  33.398  1.00  0.00     0.031 C 
ATOM     44  C   UNL A   1      38.182  30.801  29.829  1.00  0.00     0.029 A 
ATOM     45  C   UNL A   1      38.491  31.358  31.147  1.00  0.00     0.049 A 
ATOM     46  H   UNL A   1      39.944  30.686  32.480  1.00  0.00     0.167 HD
ATOM     47  C   UNL A   1      43.004  29.274  35.214  1.00  0.00     0.037 A 
ATOM     48  C   UNL A   1      37.876  32.417  31.716  1.00  0.00     0.037 A 
ATOM     49  C   UNL A   1      42.478  30.457  35.847  1.00  0.00     0.049 A 
ATOM     50  C   UNL A   1      38.327  32.915  33.070  1.00  0.00     0.074 A 
ATOM     51  C   UNL A   1      42.877  31.042  37.037  1.00  0.00     0.029 A 
ATOM     52  N   UNL A   1      41.436  31.227  35.355  1.00  0.00    -0.354 N 
ATOM     53  N   UNL A   1      39.289  32.465  33.839  1.00  0.00    -0.248 NA
ATOM     54  C   UNL A   1      37.612  34.074  33.629  1.00  0.00     0.031 C 
ATOM     55  C   UNL A   1      42.037  32.131  37.295  1.00  0.00     0.029 A 
ATOM     56  C   UNL A   1      41.156  32.262  36.234  1.00  0.00     0.049 A 
ATOM     57  H   UNL A   1      40.963  31.062  34.507  1.00  0.00     0.167 HD
ATOM     58  C   UNL A   1      39.316  33.304  34.951  1.00  0.00     0.074 A 
ATOM     59  C   UNL A   1      38.281  34.295  34.753  1.00  0.00     0.031 C 
ATOM     60  C   UNL A   1      40.131  33.257  36.035  1.00  0.00     0.037 A 
BRANCH  47  61
ATOM     61  C   UNL A   1      44.092  28.517  35.929  1.00  0.00     0.058 A 
ATOM     62  C   UNL A   1      43.799  27.459  36.805  1.00  0.00     0.135 A 
ATOM     63  C   UNL A   1      45.442  28.826  35.703  1.00  0.00     0.135 A 
ATOM     64  F   UNL A   1      42.525  27.130  37.068  1.00  0.00    -0.206 F 
ATOM     65  C   UNL A   1      44.807  26.756  37.458  1.00  0.00     0.059 A 
ATOM     66  C   UNL A   1      46.467  28.115  36.321  1.00  0.00     0.059 A 
ATOM     67  F   UNL A   1      45.779  29.824  34.872  1.00  0.00    -0.206 F 
ATOM     68  C   UNL A   1      46.139  27.092  37.209  1.00  0.00     0.060 A 
BRANCH  68  69
ATOM     69  S   UNL A   1      47.434  26.167  38.061  1.00  0.00     0.124 S 
ATOM     70  O   UNL A   1      48.018  25.403  36.962  1.00  0.00    -0.237 OA
ATOM     71  O   UNL A   1      48.269  27.230  38.609  1.00  0.00    -0.237 OA
ATOM     72  O   UNL A   1      46.697  25.381  39.047  1.00  0.00    -0.744 OA
ENDBRANCH  68  69
ENDBRANCH  47  61
BRANCH  48  73
ATOM     73  C   UNL A   1      36.758  33.103  31.006  1.00  0.00     0.058 A 
ATOM     74  C   UNL A   1      35.422  32.912  31.390  1.00  0.00     0.135 A 
ATOM     75  C   UNL A   1      37.005  33.945  29.911  1.00  0.00     0.135 A 
ATOM     76  F   UNL A   1      35.130  32.100  32.418  1.00  0.00    -0.206 F 
ATOM     77  C   UNL A   1      34.370  33.520  30.711  1.00  0.00     0.059 A 
ATOM     78  C   UNL A   1      35.972  34.587  29.232  1.00  0.00     0.059 A 
ATOM     79  F   UNL A   1      38.263  34.164  29.500  1.00  0.00    -0.206 F 
ATOM     80  C   UNL A   1      34.657  34.362  29.634  1.00  0.00     0.060 A 
BRANCH  80  81
ATOM     81  S   UNL A   1      33.289  35.190  28.793  1.00  0.00     0.124 S 
ATOM     82  O   UNL A   1      32.506  35.686  29.918  1.00  0.00    -0.237 OA
ATOM     83  O   UNL A   1      33.983  36.201  28.002  1.00  0.00    -0.237 OA
ATOM     84  O   UNL A   1      32.673  34.115  28.018  1.00  0.00    -0.744 OA
ENDBRANCH  80  81
ENDBRANCH  48  73
BRANCH  60  85
ATOM     85  C   UNL A   1      39.976  34.326  37.087  1.00  0.00     0.058 A 
ATOM     86  C   UNL A   1      40.571  35.592  36.956  1.00  0.00     0.135 A 
ATOM     87  C   UNL A   1      39.167  34.102  38.214  1.00  0.00     0.135 A 
ATOM     88  F   UNL A   1      41.358  35.862  35.904  1.00  0.00    -0.206 F 
ATOM     89  C   UNL A   1      40.387  36.586  37.914  1.00  0.00     0.059 A 
ATOM     90  C   UNL A   1      38.944  35.092  39.168  1.00  0.00     0.059 A 
ATOM     91  F   UNL A   1      38.562  32.916  38.386  1.00  0.00    -0.206 F 
ATOM     92  C   UNL A   1      39.569  36.328  39.015  1.00  0.00     0.060 A 
BRANCH  92  93
ATOM     93  S   UNL A   1      39.309  37.640  40.230  1.00  0.00     0.124 S 
ATOM     94  O   UNL A   1      40.614  38.294  40.241  1.00  0.00    -0.237 OA
ATOM     95  O   UNL A   1      38.220  38.407  39.634  1.00  0.00    -0.237 OA
ATOM     96  O   UNL A   1      38.962  36.914  41.448  1.00  0.00    -0.744 OA
ENDBRANCH  92  93
ENDBRANCH  60  85
ENDBRANCH  34  35
ENDBRANCH  27  29
ENDBRANCH  26  27
ENDBRANCH  25  26
ENDBRANCH   1  25
TORSDOF 19
ENDMDL
MODEL 3
REMARK VINA RESULT:     -10.5      1.542      2.094
REMARK SMILES O=C(CCCN1C(=O)/C(=C/c2cc(Br)ccc2O)SC1=S)OCCOC(=O)c1ccc(-c2c3nc(c(-c4c(F)cc(S(=O)(=O)[O-])cc4F)c4ccc([nH]4)c(-c4c(F)cc(S(=O)(=O)[O-])cc4F)c4nc(c(-c5c(F)cc(S(=O)(=O)[O-])cc5F)c5ccc2[nH]5)C=C4)C=C3)cc1
REMARK SMILES IDX 23 1 22 2 2 3 1 4 3 5 4 6 5 7 6 8 7 9 20 10 8 11 9 12 19 13
REMARK SMILES IDX 21 14 10 15 11 16 12 17 17 18 13 19 16 20 14 21 15 22 18 23
REMARK SMILES IDX 24 25 25 26 26 27 27 28 28 29 29 30 93 31 30 32 92 33 31 34
REMARK SMILES IDX 32 35 33 36 86 37 34 38 91 39 85 40 87 41 35 42 90 43 84 44
REMARK SMILES IDX 83 45 36 47 70 48 49 49 69 50 50 51 53 52 68 53 88 54 51 55
REMARK SMILES IDX 52 56 67 58 89 59 54 60 37 61 38 62 47 63 39 64 40 65 46 66
REMARK SMILES IDX 48 67 41 68 42 69 43 70 44 71 45 72 71 73 72 74 81 75 73 76
REMARK SMILES IDX 74 77 80 78 82 79 75 80 76 81 77 82 78 83 79 84 55 85 56 86
REMARK SMILES IDX 65 87 57 88 58 89 64 90 66 91 59 92 60 93 61 94 62 95 63 96
REMARK H PARENT 18 24 87 46 53 57
REMARK Flexibility Score: inf
ROOT
ATOM      1  C   UNL A   1      33.480  30.665  27.542  1.00  0.00     0.274 C 
ENDROOT
BRANCH   1   2
ATOM      2  O   UNL A   1      33.632  29.798  26.419  1.00  0.00    -0.462 OA
BRANCH   2   3
ATOM      3  C   UNL A   1      32.620  29.850  25.515  1.00  0.00     0.305 C 
ATOM      4  O   UNL A   1      31.437  29.976  25.804  1.00  0.00    -0.252 OA
BRANCH   3   5
ATOM      5  C   UNL A   1      33.110  29.481  24.138  1.00  0.00     0.124 C 
BRANCH   5   6
ATOM      6  C   UNL A   1      32.138  28.930  23.093  1.00  0.00     0.034 C 
BRANCH   6   7
ATOM      7  C   UNL A   1      31.667  27.467  23.069  1.00  0.00     0.128 C 
BRANCH   7   8
ATOM      8  N   UNL A   1      32.431  26.346  23.647  1.00  0.00    -0.293 N 
ATOM      9  C   UNL A   1      33.440  25.664  22.998  1.00  0.00     0.266 C 
ATOM     10  C   UNL A   1      32.159  25.887  24.929  1.00  0.00     0.148 C 
ATOM     11  O   UNL A   1      34.038  26.021  21.995  1.00  0.00    -0.268 OA
ATOM     12  C   UNL A   1      33.816  24.427  23.753  1.00  0.00     0.081 C 
ATOM     13  S   UNL A   1      33.243  24.573  25.360  1.00  0.00    -0.054 SA
ATOM     14  S   UNL A   1      30.985  26.415  25.996  1.00  0.00    -0.052 S 
ATOM     15  C   UNL A   1      34.488  23.399  23.206  1.00  0.00     0.033 C 
BRANCH  15  16
ATOM     16  C   UNL A   1      34.981  22.188  23.898  1.00  0.00     0.019 A 
ATOM     17  C   UNL A   1      34.039  21.183  24.171  1.00  0.00     0.027 A 
ATOM     18  C   UNL A   1      36.312  21.968  24.291  1.00  0.00     0.122 A 
ATOM     19  C   UNL A   1      34.436  19.971  24.742  1.00  0.00     0.018 A 
ATOM     20  C   UNL A   1      36.713  20.745  24.842  1.00  0.00     0.048 A 
ATOM     21  Br  UNL A   1      33.151  18.625  25.076  1.00  0.00    -0.051 Br
ATOM     22  C   UNL A   1      35.772  19.739  25.056  1.00  0.00     0.019 A 
BRANCH  18  23
ATOM     23  O   UNL A   1      37.236  22.969  24.155  1.00  0.00    -0.507 OA
ATOM     24  H   UNL A   1      37.036  23.836  24.452  1.00  0.00     0.293 HD
ENDBRANCH  18  23
ENDBRANCH  15  16
ENDBRANCH   7   8
ENDBRANCH   6   7
ENDBRANCH   5   6
ENDBRANCH   3   5
ENDBRANCH   2   3
ENDBRANCH   1   2
BRANCH   1  25
ATOM     25  C   UNL A   1      34.838  30.982  28.198  1.00  0.00     0.275 C 
BRANCH  25  26
ATOM     26  O   UNL A   1      35.554  29.791  28.585  1.00  0.00    -0.458 OA
BRANCH  26  27
ATOM     27  C   UNL A   1      36.317  29.836  29.702  1.00  0.00     0.338 C 
ATOM     28  O   UNL A   1      35.918  29.927  30.845  1.00  0.00    -0.246 OA
BRANCH  27  29
ATOM     29  C   UNL A   1      37.753  29.680  29.337  1.00  0.00     0.060 A 
ATOM     30  C   UNL A   1      38.105  29.634  27.984  1.00  0.00     0.016 A 
ATOM     31  C   UNL A   1      38.746  29.542  30.311  1.00  0.00     0.016 A 
ATOM     32  C   UNL A   1      39.440  29.408  27.608  1.00  0.00     0.010 A 
ATOM     33  C   UNL A   1      40.085  29.338  29.933  1.00  0.00     0.010 A 
ATOM     34  C   UNL A   1      40.440  29.227  28.577  1.00  0.00    -0.014 A 
BRANCH  34  35
ATOM     35  C   UNL A   1      41.811  28.780  28.174  1.00  0.00     0.031 A 
ATOM     36  C   UNL A   1      42.930  29.794  28.120  1.00  0.00     0.074 A 
ATOM     37  C   UNL A   1      42.087  27.492  27.885  1.00  0.00     0.049 A 
ATOM     38  N   UNL A   1      44.201  29.618  27.855  1.00  0.00    -0.248 NA
ATOM     39  C   UNL A   1      42.567  31.193  28.395  1.00  0.00     0.031 C 
ATOM     40  C   UNL A   1      41.118  26.399  27.883  1.00  0.00     0.029 A 
ATOM     41  N   UNL A   1      43.274  26.886  27.536  1.00  0.00    -0.354 N 
ATOM     42  C   UNL A   1      44.788  30.878  27.941  1.00  0.00     0.074 A 
ATOM     43  C   UNL A   1      43.724  31.816  28.228  1.00  0.00     0.031 C 
ATOM     44  C   UNL A   1      41.748  25.256  27.554  1.00  0.00     0.029 A 
ATOM     45  C   UNL A   1      43.165  25.533  27.306  1.00  0.00     0.049 A 
ATOM     46  H   UNL A   1      44.124  27.375  27.458  1.00  0.00     0.167 HD
ATOM     47  C   UNL A   1      46.092  31.226  27.817  1.00  0.00     0.037 A 
ATOM     48  C   UNL A   1      44.090  24.621  26.938  1.00  0.00     0.037 A 
ATOM     49  C   UNL A   1      47.162  30.304  27.531  1.00  0.00     0.049 A 
ATOM     50  C   UNL A   1      45.531  25.038  26.757  1.00  0.00     0.074 A 
ATOM     51  C   UNL A   1      48.517  30.569  27.429  1.00  0.00     0.029 A 
ATOM     52  N   UNL A   1      47.001  28.949  27.286  1.00  0.00    -0.354 N 
ATOM     53  N   UNL A   1      46.077  26.220  26.916  1.00  0.00    -0.248 NA
ATOM     54  C   UNL A   1      46.486  23.992  26.356  1.00  0.00     0.031 C 
ATOM     55  C   UNL A   1      49.170  29.386  27.065  1.00  0.00     0.029 A 
ATOM     56  C   UNL A   1      48.229  28.371  27.001  1.00  0.00     0.049 A 
ATOM     57  H   UNL A   1      46.142  28.469  27.310  1.00  0.00     0.167 HD
ATOM     58  C   UNL A   1      47.438  26.052  26.667  1.00  0.00     0.074 A 
ATOM     59  C   UNL A   1      47.637  24.653  26.357  1.00  0.00     0.031 C 
ATOM     60  C   UNL A   1      48.431  26.975  26.701  1.00  0.00     0.037 A 
BRANCH  47  61
ATOM     61  C   UNL A   1      46.442  32.681  27.984  1.00  0.00     0.058 A 
ATOM     62  C   UNL A   1      46.316  33.595  26.925  1.00  0.00     0.135 A 
ATOM     63  C   UNL A   1      46.869  33.175  29.227  1.00  0.00     0.135 A 
ATOM     64  F   UNL A   1      45.926  33.176  25.711  1.00  0.00    -0.206 F 
ATOM     65  C   UNL A   1      46.632  34.941  27.085  1.00  0.00     0.059 A 
ATOM     66  C   UNL A   1      47.160  34.522  29.417  1.00  0.00     0.059 A 
ATOM     67  F   UNL A   1      47.003  32.346  30.275  1.00  0.00    -0.206 F 
ATOM     68  C   UNL A   1      47.053  35.395  28.336  1.00  0.00     0.060 A 
BRANCH  68  69
ATOM     69  S   UNL A   1      47.456  37.144  28.525  1.00  0.00     0.124 S 
ATOM     70  O   UNL A   1      48.522  37.092  29.522  1.00  0.00    -0.237 OA
ATOM     71  O   UNL A   1      47.867  37.518  27.176  1.00  0.00    -0.237 OA
ATOM     72  O   UNL A   1      46.201  37.734  28.982  1.00  0.00    -0.744 OA
ENDBRANCH  68  69
ENDBRANCH  47  61
BRANCH  48  73
ATOM     73  C   UNL A   1      43.694  23.200  26.719  1.00  0.00     0.058 A 
ATOM     74  C   UNL A   1      43.636  22.648  25.430  1.00  0.00     0.135 A 
ATOM     75  C   UNL A   1      43.343  22.372  27.796  1.00  0.00     0.135 A 
ATOM     76  F   UNL A   1      43.941  23.403  24.363  1.00  0.00    -0.206 F 
ATOM     77  C   UNL A   1      43.233  21.333  25.214  1.00  0.00     0.059 A 
ATOM     78  C   UNL A   1      42.964  21.045  27.609  1.00  0.00     0.059 A 
ATOM     79  F   UNL A   1      43.382  22.847  29.050  1.00  0.00    -0.206 F 
ATOM     80  C   UNL A   1      42.904  20.537  26.313  1.00  0.00     0.060 A 
BRANCH  80  81
ATOM     81  S   UNL A   1      42.435  18.816  26.026  1.00  0.00     0.124 S 
ATOM     82  O   UNL A   1      42.703  18.214  27.326  1.00  0.00    -0.237 OA
ATOM     83  O   UNL A   1      41.029  18.939  25.657  1.00  0.00    -0.237 OA
ATOM     84  O   UNL A   1      43.324  18.403  24.943  1.00  0.00    -0.744 OA
ENDBRANCH  80  81
ENDBRANCH  48  73
BRANCH  60  85
ATOM     85  C   UNL A   1      49.841  26.512  26.432  1.00  0.00     0.058 A 
ATOM     86  C   UNL A   1      50.678  26.041  27.457  1.00  0.00     0.135 A 
ATOM     87  C   UNL A   1      50.341  26.478  25.119  1.00  0.00     0.135 A 
ATOM     88  F   UNL A   1      50.257  26.052  28.732  1.00  0.00    -0.206 F 
ATOM     89  C   UNL A   1      51.964  25.575  27.193  1.00  0.00     0.059 A 
ATOM     90  C   UNL A   1      51.612  25.989  24.828  1.00  0.00     0.059 A 
ATOM     91  F   UNL A   1      49.582  26.904  24.097  1.00  0.00    -0.206 F 
ATOM     92  C   UNL A   1      52.421  25.550  25.874  1.00  0.00     0.060 A 
BRANCH  92  93
ATOM     93  S   UNL A   1      54.077  24.910  25.541  1.00  0.00     0.124 S 
ATOM     94  O   UNL A   1      53.778  23.597  24.978  1.00  0.00    -0.237 OA
ATOM     95  O   UNL A   1      54.612  25.894  24.606  1.00  0.00    -0.237 OA
ATOM     96  O   UNL A   1      54.710  24.898  26.857  1.00  0.00    -0.744 OA
ENDBRANCH  92  93
ENDBRANCH  60  85
ENDBRANCH  34  35
ENDBRANCH  27  29
ENDBRANCH  26  27
ENDBRANCH  25  26
ENDBRANCH   1  25
TORSDOF 19
ENDMDL
