MODEL 1
REMARK VINA RESULT:     -12.1      0.000      0.000
REMARK SMILES COc1ccc(-c2cc(C(=O)OCCOC(=O)c3ccc(-c4c5nc(c(-c6c(F)cc(S(=O)(=O)[O-])cc6F)c6ccc([nH]6)c(-c6c(F)cc(S(=O)(=O)[O-])cc6F)c6nc(c(-c7c(F)cc(S(=O)(=O)[O-])cc7F)c7ccc4[nH]7)C=C6)C=C5)cc3)nc(=O)n2C)cc1
REMARK SMILES IDX 14 1 13 2 12 3 10 4 11 5 9 6 7 7 8 8 87 9 85 10 88 11 84 12
REMARK SMILES IDX 86 13 6 14 3 15 4 16 90 17 5 18 89 19 2 20 1 21 15 22 16 23
REMARK SMILES IDX 17 24 18 25 19 26 83 27 20 28 82 29 21 30 22 31 23 32 76 33
REMARK SMILES IDX 24 34 81 35 75 36 77 37 25 38 80 39 74 40 73 41 26 43 60 44
REMARK SMILES IDX 39 45 59 46 40 47 43 48 58 49 78 50 41 51 42 52 57 54 79 55
REMARK SMILES IDX 44 56 27 57 28 58 37 59 29 60 30 61 36 62 38 63 31 64 32 65
REMARK SMILES IDX 33 66 34 67 35 68 61 69 62 70 71 71 63 72 64 73 70 74 72 75
REMARK SMILES IDX 65 76 66 77 67 78 68 79 69 80 45 81 46 82 55 83 47 84 48 85
REMARK SMILES IDX 54 86 56 87 49 88 50 89 51 90 52 91 53 92
REMARK H PARENT 77 42 43 53
REMARK Flexibility Score: inf
ROOT
ATOM      1  C   UNL A   1      39.811  23.236  27.155  1.00  0.00     0.275 C 
ENDROOT
BRANCH   1   2
ATOM      2  C   UNL A   1      39.492  21.901  26.481  1.00  0.00     0.275 C 
BRANCH   2   3
ATOM      3  O   UNL A   1      40.267  20.822  27.042  1.00  0.00    -0.457 OA
BRANCH   3   4
ATOM      4  C   UNL A   1      40.670  19.882  26.169  1.00  0.00     0.357 C 
ATOM      5  O   UNL A   1      39.985  19.030  25.628  1.00  0.00    -0.244 OA
BRANCH   4   6
ATOM      6  C   UNL A   1      42.148  20.013  25.821  1.00  0.00     0.156 A 
ATOM      7  C   UNL A   1      43.985  21.518  25.735  1.00  0.00     0.055 A 
ATOM      8  C   UNL A   1      42.717  21.334  26.095  1.00  0.00     0.063 A 
ATOM      9  N   UNL A   1      44.686  20.492  25.134  1.00  0.00    -0.295 N 
ATOM     10  C   UNL A   1      44.092  19.235  24.895  1.00  0.00     0.348 A 
ATOM     11  C   UNL A   1      46.061  20.653  24.691  1.00  0.00     0.155 C 
ATOM     12  N   UNL A   1      42.778  19.034  25.266  1.00  0.00    -0.186 NA
ATOM     13  O   UNL A   1      44.720  18.337  24.344  1.00  0.00    -0.246 OA
BRANCH   7  14
ATOM     14  C   UNL A   1      44.521  22.871  25.968  1.00  0.00    -0.001 A 
ATOM     15  C   UNL A   1      45.268  25.525  26.532  1.00  0.00     0.118 A 
ATOM     16  C   UNL A   1      45.510  24.512  27.461  1.00  0.00     0.047 A 
ATOM     17  C   UNL A   1      44.679  25.210  25.308  1.00  0.00     0.047 A 
ATOM     18  C   UNL A   1      45.133  23.195  27.188  1.00  0.00     0.014 A 
ATOM     19  C   UNL A   1      44.301  23.890  25.029  1.00  0.00     0.014 A 
BRANCH  15  20
ATOM     20  O   UNL A   1      45.678  26.771  26.913  1.00  0.00    -0.497 OA
ATOM     21  C   UNL A   1      45.762  27.750  25.882  1.00  0.00     0.278 C 
ENDBRANCH  15  20
ENDBRANCH   7  14
ENDBRANCH   4   6
ENDBRANCH   3   4
ENDBRANCH   2   3
ENDBRANCH   1   2
BRANCH   1  22
ATOM     22  O   UNL A   1      39.540  24.339  26.267  1.00  0.00    -0.458 OA
BRANCH  22  23
ATOM     23  C   UNL A   1      40.467  25.320  26.299  1.00  0.00     0.338 C 
ATOM     24  O   UNL A   1      41.032  25.831  25.344  1.00  0.00    -0.246 OA
BRANCH  23  25
ATOM     25  C   UNL A   1      40.671  25.825  27.665  1.00  0.00     0.060 A 
ATOM     26  C   UNL A   1      39.576  25.827  28.517  1.00  0.00     0.016 A 
ATOM     27  C   UNL A   1      41.804  26.572  27.979  1.00  0.00     0.016 A 
ATOM     28  C   UNL A   1      39.519  26.750  29.560  1.00  0.00     0.010 A 
ATOM     29  C   UNL A   1      41.800  27.378  29.127  1.00  0.00     0.010 A 
ATOM     30  C   UNL A   1      40.624  27.556  29.880  1.00  0.00    -0.014 A 
BRANCH  30  31
ATOM     31  C   UNL A   1      40.518  28.631  30.923  1.00  0.00     0.031 A 
ATOM     32  C   UNL A   1      41.491  28.673  32.089  1.00  0.00     0.074 A 
ATOM     33  C   UNL A   1      39.589  29.606  30.831  1.00  0.00     0.049 A 
ATOM     34  N   UNL A   1      41.449  29.398  33.180  1.00  0.00    -0.248 NA
ATOM     35  C   UNL A   1      42.646  27.762  32.034  1.00  0.00     0.031 C 
ATOM     36  C   UNL A   1      38.590  29.737  29.768  1.00  0.00     0.029 A 
ATOM     37  N   UNL A   1      39.340  30.691  31.641  1.00  0.00    -0.354 N 
ATOM     38  C   UNL A   1      42.512  28.970  33.971  1.00  0.00     0.074 A 
ATOM     39  C   UNL A   1      43.185  27.924  33.235  1.00  0.00     0.031 C 
ATOM     40  C   UNL A   1      37.892  30.866  29.949  1.00  0.00     0.029 A 
ATOM     41  C   UNL A   1      38.314  31.491  31.197  1.00  0.00     0.049 A 
ATOM     42  H   UNL A   1      39.850  30.875  32.463  1.00  0.00     0.167 HD
ATOM     43  C   UNL A   1      42.894  29.405  35.198  1.00  0.00     0.037 A 
ATOM     44  C   UNL A   1      37.742  32.583  31.739  1.00  0.00     0.037 A 
ATOM     45  C   UNL A   1      42.295  30.521  35.889  1.00  0.00     0.049 A 
ATOM     46  C   UNL A   1      38.218  33.085  33.074  1.00  0.00     0.074 A 
ATOM     47  C   UNL A   1      42.626  31.045  37.128  1.00  0.00     0.029 A 
ATOM     48  N   UNL A   1      41.273  31.310  35.386  1.00  0.00    -0.354 N 
ATOM     49  N   UNL A   1      39.166  32.608  33.842  1.00  0.00    -0.248 NA
ATOM     50  C   UNL A   1      37.531  34.262  33.623  1.00  0.00     0.031 C 
ATOM     51  C   UNL A   1      41.790  32.138  37.383  1.00  0.00     0.029 A 
ATOM     52  C   UNL A   1      40.965  32.317  36.286  1.00  0.00     0.049 A 
ATOM     53  H   UNL A   1      40.830  31.173  34.517  1.00  0.00     0.167 HD
ATOM     54  C   UNL A   1      39.194  33.431  34.962  1.00  0.00     0.074 A 
ATOM     55  C   UNL A   1      38.189  34.453  34.758  1.00  0.00     0.031 C 
ATOM     56  C   UNL A   1      39.973  33.338  36.068  1.00  0.00     0.037 A 
BRANCH  43  57
ATOM     57  C   UNL A   1      43.999  28.662  35.902  1.00  0.00     0.058 A 
ATOM     58  C   UNL A   1      45.349  29.021  35.770  1.00  0.00     0.135 A 
ATOM     59  C   UNL A   1      43.688  27.604  36.774  1.00  0.00     0.135 A 
ATOM     60  F   UNL A   1      45.705  30.013  34.939  1.00  0.00    -0.206 F 
ATOM     61  C   UNL A   1      46.352  28.348  36.461  1.00  0.00     0.059 A 
ATOM     62  C   UNL A   1      44.672  26.933  37.495  1.00  0.00     0.059 A 
ATOM     63  F   UNL A   1      42.413  27.218  36.941  1.00  0.00    -0.206 F 
ATOM     64  C   UNL A   1      46.004  27.305  37.322  1.00  0.00     0.060 A 
BRANCH  64  65
ATOM     65  S   UNL A   1      47.313  26.451  38.227  1.00  0.00     0.124 S 
ATOM     66  O   UNL A   1      48.381  27.445  38.199  1.00  0.00    -0.237 OA
ATOM     67  O   UNL A   1      46.697  26.220  39.530  1.00  0.00    -0.237 OA
ATOM     68  O   UNL A   1      47.552  25.252  37.428  1.00  0.00    -0.744 OA
ENDBRANCH  64  65
ENDBRANCH  43  57
BRANCH  44  69
ATOM     69  C   UNL A   1      36.624  33.265  31.034  1.00  0.00     0.058 A 
ATOM     70  C   UNL A   1      36.861  34.049  29.895  1.00  0.00     0.135 A 
ATOM     71  C   UNL A   1      35.299  33.139  31.480  1.00  0.00     0.135 A 
ATOM     72  F   UNL A   1      38.112  34.199  29.433  1.00  0.00    -0.206 F 
ATOM     73  C   UNL A   1      35.826  34.702  29.234  1.00  0.00     0.059 A 
ATOM     74  C   UNL A   1      34.244  33.754  30.817  1.00  0.00     0.059 A 
ATOM     75  F   UNL A   1      35.019  32.385  32.554  1.00  0.00    -0.206 F 
ATOM     76  C   UNL A   1      34.520  34.546  29.702  1.00  0.00     0.060 A 
BRANCH  76  77
ATOM     77  S   UNL A   1      33.171  35.347  28.809  1.00  0.00     0.124 S 
ATOM     78  O   UNL A   1      33.892  36.337  28.018  1.00  0.00    -0.237 OA
ATOM     79  O   UNL A   1      32.589  34.234  28.065  1.00  0.00    -0.237 OA
ATOM     80  O   UNL A   1      32.334  35.878  29.880  1.00  0.00    -0.744 OA
ENDBRANCH  76  77
ENDBRANCH  44  69
BRANCH  56  81
ATOM     81  C   UNL A   1      39.798  34.397  37.120  1.00  0.00     0.058 A 
ATOM     82  C   UNL A   1      40.421  35.651  37.014  1.00  0.00     0.135 A 
ATOM     83  C   UNL A   1      38.994  34.155  38.245  1.00  0.00     0.135 A 
ATOM     84  F   UNL A   1      41.203  35.930  35.960  1.00  0.00    -0.206 F 
ATOM     85  C   UNL A   1      40.284  36.614  38.009  1.00  0.00     0.059 A 
ATOM     86  C   UNL A   1      38.824  35.113  39.239  1.00  0.00     0.059 A 
ATOM     87  F   UNL A   1      38.368  32.975  38.387  1.00  0.00    -0.206 F 
ATOM     88  C   UNL A   1      39.490  36.333  39.122  1.00  0.00     0.060 A 
BRANCH  88  89
ATOM     89  S   UNL A   1      39.327  37.583  40.413  1.00  0.00     0.124 S 
ATOM     90  O   UNL A   1      40.694  38.083  40.511  1.00  0.00    -0.237 OA
ATOM     91  O   UNL A   1      38.354  38.506  39.838  1.00  0.00    -0.237 OA
ATOM     92  O   UNL A   1      38.853  36.820  41.564  1.00  0.00    -0.744 OA
ENDBRANCH  88  89
ENDBRANCH  56  81
ENDBRANCH  30  31
ENDBRANCH  23  25
ENDBRANCH  22  23
ENDBRANCH   1  22
TORSDOF 16
ENDMDL
MODEL 2
REMARK VINA RESULT:     -11.9      2.956      4.918
REMARK SMILES COc1ccc(-c2cc(C(=O)OCCOC(=O)c3ccc(-c4c5nc(c(-c6c(F)cc(S(=O)(=O)[O-])cc6F)c6ccc([nH]6)c(-c6c(F)cc(S(=O)(=O)[O-])cc6F)c6nc(c(-c7c(F)cc(S(=O)(=O)[O-])cc7F)c7ccc4[nH]7)C=C6)C=C5)cc3)nc(=O)n2C)cc1
REMARK SMILES IDX 14 1 13 2 12 3 10 4 11 5 9 6 7 7 8 8 87 9 85 10 88 11 84 12
REMARK SMILES IDX 86 13 6 14 3 15 4 16 90 17 5 18 89 19 2 20 1 21 15 22 16 23
REMARK SMILES IDX 17 24 18 25 19 26 83 27 20 28 82 29 21 30 22 31 23 32 76 33
REMARK SMILES IDX 24 34 81 35 75 36 77 37 25 38 80 39 74 40 73 41 26 43 60 44
REMARK SMILES IDX 39 45 59 46 40 47 43 48 58 49 78 50 41 51 42 52 57 54 79 55
REMARK SMILES IDX 44 56 27 57 28 58 37 59 29 60 30 61 36 62 38 63 31 64 32 65
REMARK SMILES IDX 33 66 34 67 35 68 61 69 62 70 71 71 63 72 64 73 70 74 72 75
REMARK SMILES IDX 65 76 66 77 67 78 68 79 69 80 45 81 46 82 55 83 47 84 48 85
REMARK SMILES IDX 54 86 56 87 49 88 50 89 51 90 52 91 53 92
REMARK H PARENT 77 42 43 53
REMARK Flexibility Score: inf
ROOT
ATOM      1  C   UNL A   1      39.995  22.867  26.830  1.00  0.00     0.275 C 
ENDROOT
BRANCH   1   2
ATOM      2  C   UNL A   1      39.357  21.670  26.124  1.00  0.00     0.275 C 
BRANCH   2   3
ATOM      3  O   UNL A   1      38.060  21.996  25.586  1.00  0.00    -0.457 OA
BRANCH   3   4
ATOM      4  C   UNL A   1      37.403  20.981  24.998  1.00  0.00     0.357 C 
ATOM      5  O   UNL A   1      37.866  19.916  24.624  1.00  0.00    -0.244 OA
BRANCH   4   6
ATOM      6  C   UNL A   1      35.907  21.247  24.890  1.00  0.00     0.156 A 
ATOM      7  C   UNL A   1      34.257  22.947  24.707  1.00  0.00     0.055 A 
ATOM      8  C   UNL A   1      35.556  22.659  24.728  1.00  0.00     0.063 A 
ATOM      9  N   UNL A   1      33.326  21.938  24.838  1.00  0.00    -0.295 N 
ATOM     10  C   UNL A   1      33.716  20.590  24.987  1.00  0.00     0.348 A 
ATOM     11  C   UNL A   1      31.897  22.203  24.856  1.00  0.00     0.155 C 
ATOM     12  N   UNL A   1      35.060  20.281  25.009  1.00  0.00    -0.186 NA
ATOM     13  O   UNL A   1      32.879  19.703  25.120  1.00  0.00    -0.246 OA
BRANCH   7  14
ATOM     14  C   UNL A   1      33.926  24.380  24.601  1.00  0.00    -0.001 A 
ATOM     15  C   UNL A   1      33.599  27.168  24.400  1.00  0.00     0.118 A 
ATOM     16  C   UNL A   1      33.652  26.380  23.249  1.00  0.00     0.047 A 
ATOM     17  C   UNL A   1      33.679  26.562  25.652  1.00  0.00     0.047 A 
ATOM     18  C   UNL A   1      33.823  24.996  23.345  1.00  0.00     0.014 A 
ATOM     19  C   UNL A   1      33.848  25.175  25.753  1.00  0.00     0.014 A 
BRANCH  15  20
ATOM     20  O   UNL A   1      33.432  28.506  24.179  1.00  0.00    -0.497 OA
ATOM     21  C   UNL A   1      33.121  29.300  25.319  1.00  0.00     0.278 C 
ENDBRANCH  15  20
ENDBRANCH   7  14
ENDBRANCH   4   6
ENDBRANCH   3   4
ENDBRANCH   2   3
ENDBRANCH   1   2
BRANCH   1  22
ATOM     22  O   UNL A   1      39.411  24.104  26.374  1.00  0.00    -0.458 OA
BRANCH  22  23
ATOM     23  C   UNL A   1      40.264  25.151  26.363  1.00  0.00     0.338 C 
ATOM     24  O   UNL A   1      40.743  25.699  25.383  1.00  0.00    -0.246 OA
BRANCH  23  25
ATOM     25  C   UNL A   1      40.495  25.673  27.717  1.00  0.00     0.060 A 
ATOM     26  C   UNL A   1      39.412  25.707  28.585  1.00  0.00     0.016 A 
ATOM     27  C   UNL A   1      41.644  26.406  28.005  1.00  0.00     0.016 A 
ATOM     28  C   UNL A   1      39.384  26.648  29.614  1.00  0.00     0.010 A 
ATOM     29  C   UNL A   1      41.669  27.230  29.140  1.00  0.00     0.010 A 
ATOM     30  C   UNL A   1      40.507  27.439  29.906  1.00  0.00    -0.014 A 
BRANCH  30  31
ATOM     31  C   UNL A   1      40.433  28.532  30.933  1.00  0.00     0.031 A 
ATOM     32  C   UNL A   1      41.414  28.568  32.092  1.00  0.00     0.074 A 
ATOM     33  C   UNL A   1      39.526  29.527  30.832  1.00  0.00     0.049 A 
ATOM     34  N   UNL A   1      41.396  29.310  33.172  1.00  0.00    -0.248 NA
ATOM     35  C   UNL A   1      42.547  27.628  32.044  1.00  0.00     0.031 C 
ATOM     36  C   UNL A   1      38.525  29.666  29.773  1.00  0.00     0.029 A 
ATOM     37  N   UNL A   1      39.309  30.629  31.627  1.00  0.00    -0.354 N 
ATOM     38  C   UNL A   1      42.454  28.868  33.964  1.00  0.00     0.074 A 
ATOM     39  C   UNL A   1      43.097  27.796  33.239  1.00  0.00     0.031 C 
ATOM     40  C   UNL A   1      37.855  30.814  29.942  1.00  0.00     0.029 A 
ATOM     41  C   UNL A   1      38.299  31.448  31.177  1.00  0.00     0.049 A 
ATOM     42  H   UNL A   1      39.828  30.814  32.443  1.00  0.00     0.167 HD
ATOM     43  C   UNL A   1      42.853  29.312  35.182  1.00  0.00     0.037 A 
ATOM     44  C   UNL A   1      37.757  32.561  31.706  1.00  0.00     0.037 A 
ATOM     45  C   UNL A   1      42.285  30.452  35.860  1.00  0.00     0.049 A 
ATOM     46  C   UNL A   1      38.253  33.071  33.031  1.00  0.00     0.074 A 
ATOM     47  C   UNL A   1      42.637  30.987  37.088  1.00  0.00     0.029 A 
ATOM     48  N   UNL A   1      41.279  31.258  35.350  1.00  0.00    -0.354 N 
ATOM     49  N   UNL A   1      39.195  32.583  33.800  1.00  0.00    -0.248 NA
ATOM     50  C   UNL A   1      37.598  34.272  33.565  1.00  0.00     0.031 C 
ATOM     51  C   UNL A   1      41.829  32.103  37.332  1.00  0.00     0.029 A 
ATOM     52  C   UNL A   1      41.002  32.285  36.237  1.00  0.00     0.049 A 
ATOM     53  H   UNL A   1      40.828  31.119  34.486  1.00  0.00     0.167 HD
ATOM     54  C   UNL A   1      39.249  33.421  34.908  1.00  0.00     0.074 A 
ATOM     55  C   UNL A   1      38.267  34.464  34.694  1.00  0.00     0.031 C 
ATOM     56  C   UNL A   1      40.033  33.327  36.010  1.00  0.00     0.037 A 
BRANCH  43  57
ATOM     57  C   UNL A   1      43.945  28.554  35.890  1.00  0.00     0.058 A 
ATOM     58  C   UNL A   1      43.680  27.458  36.724  1.00  0.00     0.135 A 
ATOM     59  C   UNL A   1      45.292  28.900  35.676  1.00  0.00     0.135 A 
ATOM     60  F   UNL A   1      42.413  27.093  36.977  1.00  0.00    -0.206 F 
ATOM     61  C   UNL A   1      44.706  26.744  37.337  1.00  0.00     0.059 A 
ATOM     62  C   UNL A   1      46.335  28.185  36.257  1.00  0.00     0.059 A 
ATOM     63  F   UNL A   1      45.605  29.939  34.886  1.00  0.00    -0.206 F 
ATOM     64  C   UNL A   1      46.032  27.116  37.097  1.00  0.00     0.060 A 
BRANCH  64  65
ATOM     65  S   UNL A   1      47.355  26.170  37.883  1.00  0.00     0.124 S 
ATOM     66  O   UNL A   1      47.944  27.172  38.764  1.00  0.00    -0.237 OA
ATOM     67  O   UNL A   1      46.623  25.095  38.546  1.00  0.00    -0.237 OA
ATOM     68  O   UNL A   1      48.189  25.755  36.758  1.00  0.00    -0.744 OA
ENDBRANCH  64  65
ENDBRANCH  43  57
BRANCH  44  69
ATOM     69  C   UNL A   1      36.651  33.258  30.997  1.00  0.00     0.058 A 
ATOM     70  C   UNL A   1      36.903  34.042  29.862  1.00  0.00     0.135 A 
ATOM     71  C   UNL A   1      35.323  33.148  31.437  1.00  0.00     0.135 A 
ATOM     72  F   UNL A   1      38.159  34.178  29.406  1.00  0.00    -0.206 F 
ATOM     73  C   UNL A   1      35.880  34.710  29.198  1.00  0.00     0.059 A 
ATOM     74  C   UNL A   1      34.278  33.778  30.770  1.00  0.00     0.059 A 
ATOM     75  F   UNL A   1      35.028  32.394  32.507  1.00  0.00    -0.206 F 
ATOM     76  C   UNL A   1      34.569  34.570  29.660  1.00  0.00     0.060 A 
BRANCH  76  77
ATOM     77  S   UNL A   1      33.235  35.390  28.762  1.00  0.00     0.124 S 
ATOM     78  O   UNL A   1      32.450  35.952  29.855  1.00  0.00    -0.237 OA
ATOM     79  O   UNL A   1      33.961  36.350  27.937  1.00  0.00    -0.237 OA
ATOM     80  O   UNL A   1      32.608  34.295  28.028  1.00  0.00    -0.744 OA
ENDBRANCH  76  77
ENDBRANCH  44  69
BRANCH  56  81
ATOM     81  C   UNL A   1      39.890  34.405  37.047  1.00  0.00     0.058 A 
ATOM     82  C   UNL A   1      39.027  34.263  38.145  1.00  0.00     0.135 A 
ATOM     83  C   UNL A   1      40.630  35.594  36.942  1.00  0.00     0.135 A 
ATOM     84  F   UNL A   1      38.294  33.147  38.288  1.00  0.00    -0.206 F 
ATOM     85  C   UNL A   1      38.872  35.279  39.082  1.00  0.00     0.059 A 
ATOM     86  C   UNL A   1      40.508  36.613  37.880  1.00  0.00     0.059 A 
ATOM     87  F   UNL A   1      41.477  35.774  35.916  1.00  0.00    -0.206 F 
ATOM     88  C   UNL A   1      39.610  36.455  38.936  1.00  0.00     0.060 A 
BRANCH  88  89
ATOM     89  S   UNL A   1      39.395  37.773  40.150  1.00  0.00     0.124 S 
ATOM     90  O   UNL A   1      38.211  38.454  39.635  1.00  0.00    -0.237 OA
ATOM     91  O   UNL A   1      39.212  37.033  41.393  1.00  0.00    -0.237 OA
ATOM     92  O   UNL A   1      40.643  38.527  40.055  1.00  0.00    -0.744 OA
ENDBRANCH  88  89
ENDBRANCH  56  81
ENDBRANCH  30  31
ENDBRANCH  23  25
ENDBRANCH  22  23
ENDBRANCH   1  22
TORSDOF 16
ENDMDL
MODEL 3
REMARK VINA RESULT:     -11.9      3.215      5.496
REMARK SMILES COc1ccc(-c2cc(C(=O)OCCOC(=O)c3ccc(-c4c5nc(c(-c6c(F)cc(S(=O)(=O)[O-])cc6F)c6ccc([nH]6)c(-c6c(F)cc(S(=O)(=O)[O-])cc6F)c6nc(c(-c7c(F)cc(S(=O)(=O)[O-])cc7F)c7ccc4[nH]7)C=C6)C=C5)cc3)nc(=O)n2C)cc1
REMARK SMILES IDX 14 1 13 2 12 3 10 4 11 5 9 6 7 7 8 8 87 9 85 10 88 11 84 12
REMARK SMILES IDX 86 13 6 14 3 15 4 16 90 17 5 18 89 19 2 20 1 21 15 22 16 23
REMARK SMILES IDX 17 24 18 25 19 26 83 27 20 28 82 29 21 30 22 31 23 32 76 33
REMARK SMILES IDX 24 34 81 35 75 36 77 37 25 38 80 39 74 40 73 41 26 43 60 44
REMARK SMILES IDX 39 45 59 46 40 47 43 48 58 49 78 50 41 51 42 52 57 54 79 55
REMARK SMILES IDX 44 56 27 57 28 58 37 59 29 60 30 61 36 62 38 63 31 64 32 65
REMARK SMILES IDX 33 66 34 67 35 68 61 69 62 70 71 71 63 72 64 73 70 74 72 75
REMARK SMILES IDX 65 76 66 77 67 78 68 79 69 80 45 81 46 82 55 83 47 84 48 85
REMARK SMILES IDX 54 86 56 87 49 88 50 89 51 90 52 91 53 92
REMARK H PARENT 77 42 43 53
REMARK Flexibility Score: inf
ROOT
ATOM      1  C   UNL A   1      40.358  22.119  26.081  1.00  0.00     0.275 C 
ENDROOT
BRANCH   1   2
ATOM      2  C   UNL A   1      38.991  21.437  26.145  1.00  0.00     0.275 C 
BRANCH   2   3
ATOM      3  O   UNL A   1      38.110  21.909  25.106  1.00  0.00    -0.457 OA
BRANCH   3   4
ATOM      4  C   UNL A   1      37.122  22.727  25.510  1.00  0.00     0.357 C 
ATOM      5  O   UNL A   1      37.225  23.743  26.178  1.00  0.00    -0.244 OA
BRANCH   4   6
ATOM      6  C   UNL A   1      35.762  22.302  24.967  1.00  0.00     0.156 A 
ATOM      7  C   UNL A   1      34.321  20.447  24.610  1.00  0.00     0.055 A 
ATOM      8  C   UNL A   1      35.464  20.879  25.138  1.00  0.00     0.063 A 
ATOM      9  N   UNL A   1      33.495  21.328  23.943  1.00  0.00    -0.295 N 
ATOM     10  C   UNL A   1      33.826  22.693  23.809  1.00  0.00     0.348 A 
ATOM     11  C   UNL A   1      32.253  20.901  23.319  1.00  0.00     0.155 C 
ATOM     12  N   UNL A   1      35.009  23.150  24.354  1.00  0.00    -0.186 NA
ATOM     13  O   UNL A   1      33.092  23.463  23.199  1.00  0.00    -0.246 OA
BRANCH   7  14
ATOM     14  C   UNL A   1      34.067  19.001  24.743  1.00  0.00    -0.001 A 
ATOM     15  C   UNL A   1      33.757  16.251  25.251  1.00  0.00     0.118 A 
ATOM     16  C   UNL A   1      32.831  17.168  25.750  1.00  0.00     0.047 A 
ATOM     17  C   UNL A   1      34.822  16.702  24.473  1.00  0.00     0.047 A 
ATOM     18  C   UNL A   1      32.987  18.536  25.507  1.00  0.00     0.014 A 
ATOM     19  C   UNL A   1      34.980  18.072  24.225  1.00  0.00     0.014 A 
BRANCH  15  20
ATOM     20  O   UNL A   1      33.501  14.944  25.557  1.00  0.00    -0.497 OA
ATOM     21  C   UNL A   1      32.129  14.583  25.682  1.00  0.00     0.278 C 
ENDBRANCH  15  20
ENDBRANCH   7  14
ENDBRANCH   4   6
ENDBRANCH   3   4
ENDBRANCH   2   3
ENDBRANCH   1   2
BRANCH   1  22
ATOM     22  O   UNL A   1      40.488  23.112  27.118  1.00  0.00    -0.458 OA
BRANCH  22  23
ATOM     23  C   UNL A   1      41.107  24.247  26.728  1.00  0.00     0.338 C 
ATOM     24  O   UNL A   1      41.981  24.356  25.883  1.00  0.00    -0.246 OA
BRANCH  23  25
ATOM     25  C   UNL A   1      40.522  25.430  27.377  1.00  0.00     0.060 A 
ATOM     26  C   UNL A   1      41.166  26.646  27.193  1.00  0.00     0.016 A 
ATOM     27  C   UNL A   1      39.580  25.285  28.392  1.00  0.00     0.016 A 
ATOM     28  C   UNL A   1      41.043  27.643  28.159  1.00  0.00     0.010 A 
ATOM     29  C   UNL A   1      39.339  26.355  29.266  1.00  0.00     0.010 A 
ATOM     30  C   UNL A   1      40.136  27.514  29.225  1.00  0.00    -0.014 A 
BRANCH  30  31
ATOM     31  C   UNL A   1      40.093  28.532  30.327  1.00  0.00     0.031 A 
ATOM     32  C   UNL A   1      41.092  28.474  31.470  1.00  0.00     0.074 A 
ATOM     33  C   UNL A   1      39.199  29.545  30.311  1.00  0.00     0.049 A 
ATOM     34  N   UNL A   1      41.101  29.139  32.599  1.00  0.00    -0.248 NA
ATOM     35  C   UNL A   1      42.211  27.526  31.337  1.00  0.00     0.031 C 
ATOM     36  C   UNL A   1      38.183  29.770  29.281  1.00  0.00     0.029 A 
ATOM     37  N   UNL A   1      39.009  30.591  31.185  1.00  0.00    -0.354 N 
ATOM     38  C   UNL A   1      42.165  28.629  33.341  1.00  0.00     0.074 A 
ATOM     39  C   UNL A   1      42.782  27.602  32.532  1.00  0.00     0.031 C 
ATOM     40  C   UNL A   1      37.532  30.912  29.540  1.00  0.00     0.029 A 
ATOM     41  C   UNL A   1      38.004  31.451  30.810  1.00  0.00     0.049 A 
ATOM     42  H   UNL A   1      39.543  30.711  32.003  1.00  0.00     0.167 HD
ATOM     43  C   UNL A   1      42.589  28.981  34.580  1.00  0.00     0.037 A 
ATOM     44  C   UNL A   1      37.486  32.532  31.425  1.00  0.00     0.037 A 
ATOM     45  C   UNL A   1      42.048  30.078  35.345  1.00  0.00     0.049 A 
ATOM     46  C   UNL A   1      38.009  32.941  32.773  1.00  0.00     0.074 A 
ATOM     47  C   UNL A   1      42.426  30.520  36.603  1.00  0.00     0.029 A 
ATOM     48  N   UNL A   1      41.046  30.930  34.910  1.00  0.00    -0.354 N 
ATOM     49  N   UNL A   1      38.956  32.388  33.491  1.00  0.00    -0.248 NA
ATOM     50  C   UNL A   1      37.380  34.110  33.402  1.00  0.00     0.031 C 
ATOM     51  C   UNL A   1      41.637  31.627  36.937  1.00  0.00     0.029 A 
ATOM     52  C   UNL A   1      40.796  31.896  35.871  1.00  0.00     0.049 A 
ATOM     53  H   UNL A   1      40.579  30.859  34.046  1.00  0.00     0.167 HD
ATOM     54  C   UNL A   1      39.039  33.145  34.654  1.00  0.00     0.074 A 
ATOM     55  C   UNL A   1      38.069  34.213  34.530  1.00  0.00     0.031 C 
ATOM     56  C   UNL A   1      39.839  32.963  35.734  1.00  0.00     0.037 A 
BRANCH  43  57
ATOM     57  C   UNL A   1      43.682  28.161  35.215  1.00  0.00     0.058 A 
ATOM     58  C   UNL A   1      45.039  28.496  35.098  1.00  0.00     0.135 A 
ATOM     59  C   UNL A   1      43.351  27.048  36.009  1.00  0.00     0.135 A 
ATOM     60  F   UNL A   1      45.413  29.539  34.340  1.00  0.00    -0.206 F 
ATOM     61  C   UNL A   1      46.030  27.748  35.727  1.00  0.00     0.059 A 
ATOM     62  C   UNL A   1      44.323  26.301  36.667  1.00  0.00     0.059 A 
ATOM     63  F   UNL A   1      42.068  26.681  36.158  1.00  0.00    -0.206 F 
ATOM     64  C   UNL A   1      45.662  26.652  36.510  1.00  0.00     0.060 A 
BRANCH  64  65
ATOM     65  S   UNL A   1      46.957  25.701  37.336  1.00  0.00     0.124 S 
ATOM     66  O   UNL A   1      46.177  24.904  38.277  1.00  0.00    -0.237 OA
ATOM     67  O   UNL A   1      47.561  24.964  36.231  1.00  0.00    -0.237 OA
ATOM     68  O   UNL A   1      47.803  26.730  37.936  1.00  0.00    -0.744 OA
ENDBRANCH  64  65
ENDBRANCH  43  57
BRANCH  44  69
ATOM     69  C   UNL A   1      36.379  33.291  30.785  1.00  0.00     0.058 A 
ATOM     70  C   UNL A   1      36.625  34.150  29.703  1.00  0.00     0.135 A 
ATOM     71  C   UNL A   1      35.056  33.168  31.237  1.00  0.00     0.135 A 
ATOM     72  F   UNL A   1      37.875  34.301  29.238  1.00  0.00    -0.206 F 
ATOM     73  C   UNL A   1      35.600  34.876  29.105  1.00  0.00     0.059 A 
ATOM     74  C   UNL A   1      34.011  33.856  30.633  1.00  0.00     0.059 A 
ATOM     75  F   UNL A   1      34.768  32.344  32.257  1.00  0.00    -0.206 F 
ATOM     76  C   UNL A   1      34.296  34.720  29.576  1.00  0.00     0.060 A 
BRANCH  76  77
ATOM     77  S   UNL A   1      32.959  35.618  28.760  1.00  0.00     0.124 S 
ATOM     78  O   UNL A   1      33.699  36.631  28.017  1.00  0.00    -0.237 OA
ATOM     79  O   UNL A   1      32.326  34.574  27.962  1.00  0.00    -0.237 OA
ATOM     80  O   UNL A   1      32.160  36.111  29.879  1.00  0.00    -0.744 OA
ENDBRANCH  76  77
ENDBRANCH  44  69
BRANCH  56  81
ATOM     81  C   UNL A   1      39.727  33.968  36.846  1.00  0.00     0.058 A 
ATOM     82  C   UNL A   1      40.493  35.144  36.857  1.00  0.00     0.135 A 
ATOM     83  C   UNL A   1      38.837  33.752  37.911  1.00  0.00     0.135 A 
ATOM     84  F   UNL A   1      41.361  35.394  35.864  1.00  0.00    -0.206 F 
ATOM     85  C   UNL A   1      40.411  36.053  37.907  1.00  0.00     0.059 A 
ATOM     86  C   UNL A   1      38.722  34.660  38.959  1.00  0.00     0.059 A 
ATOM     87  F   UNL A   1      38.074  32.648  37.941  1.00  0.00    -0.206 F 
ATOM     88  C   UNL A   1      39.529  35.798  38.958  1.00  0.00     0.060 A 
BRANCH  88  89
ATOM     89  S   UNL A   1      39.437  36.976  40.322  1.00  0.00     0.124 S 
ATOM     90  O   UNL A   1      38.505  37.966  39.791  1.00  0.00    -0.237 OA
ATOM     91  O   UNL A   1      38.934  36.154  41.418  1.00  0.00    -0.237 OA
ATOM     92  O   UNL A   1      40.817  37.429  40.471  1.00  0.00    -0.744 OA
ENDBRANCH  88  89
ENDBRANCH  56  81
ENDBRANCH  30  31
ENDBRANCH  23  25
ENDBRANCH  22  23
ENDBRANCH   1  22
TORSDOF 16
ENDMDL
