MODEL 1
REMARK VINA RESULT:     -12.8      0.000      0.000
REMARK SMILES O=C(OCCOC(=O)[C@H]1Cc2[nH]cnc2CN1C(=O)c1ccncc1Cl)c1ccc(-c2c3nc(c(-c4c(F)cc(S(=O)(=O)[O-])cc4F)c4ccc([nH]4)c(-c4c(F)cc(S(=O)(=O)[O-])cc4F)c4nc(c(-c5c(F)cc(S(=O)(=O)[O-])cc5F)c5ccc2[nH]5)C=C4)C=C3)cc1
REMARK SMILES IDX 4 1 3 2 2 3 1 4 27 5 28 6 92 7 29 8 91 9 30 10 31 11 32 12
REMARK SMILES IDX 85 13 33 14 90 15 84 16 86 17 34 18 89 19 83 20 82 21 35 23
REMARK SMILES IDX 69 24 48 25 68 26 49 27 52 28 67 29 87 30 50 31 51 32 66 34
REMARK SMILES IDX 88 35 53 36 36 37 37 38 46 39 38 40 39 41 45 42 47 43 40 44
REMARK SMILES IDX 41 45 42 46 43 47 44 48 70 49 71 50 80 51 72 52 73 53 79 54
REMARK SMILES IDX 81 55 74 56 75 57 76 58 77 59 78 60 54 61 55 62 64 63 56 64
REMARK SMILES IDX 57 65 63 66 65 67 58 68 59 69 60 70 61 71 62 72 5 73 6 74
REMARK SMILES IDX 7 75 8 76 9 77 10 78 17 79 11 80 16 81 12 82 15 83 13 84
REMARK SMILES IDX 14 86 18 87 19 88 20 89 21 90 25 91 22 92 24 93 26 94 23 95
REMARK H PARENT 86 22 52 33 12 85
REMARK Flexibility Score: inf
ROOT
ATOM      1  C   UNL A   1      38.123  21.324  25.675  1.00  0.00     0.275 C 
ENDROOT
BRANCH   1   2
ATOM      2  O   UNL A   1      38.880  22.533  25.850  1.00  0.00    -0.458 OA
BRANCH   2   3
ATOM      3  C   UNL A   1      39.865  22.427  26.769  1.00  0.00     0.338 C 
ATOM      4  O   UNL A   1      40.128  21.427  27.443  1.00  0.00    -0.246 OA
BRANCH   3   5
ATOM      5  C   UNL A   1      40.453  23.732  27.083  1.00  0.00     0.060 A 
ATOM      6  C   UNL A   1      41.413  23.871  28.092  1.00  0.00     0.016 A 
ATOM      7  C   UNL A   1      39.736  24.839  26.647  1.00  0.00     0.016 A 
ATOM      8  C   UNL A   1      41.570  25.111  28.733  1.00  0.00     0.010 A 
ATOM      9  C   UNL A   1      39.842  26.027  27.344  1.00  0.00     0.010 A 
ATOM     10  C   UNL A   1      40.712  26.169  28.418  1.00  0.00    -0.014 A 
BRANCH  10  11
ATOM     11  C   UNL A   1      40.832  27.519  28.973  1.00  0.00     0.031 A 
ATOM     12  C   UNL A   1      41.998  28.218  28.391  1.00  0.00     0.074 A 
ATOM     13  C   UNL A   1      39.959  28.331  29.610  1.00  0.00     0.049 A 
ATOM     14  N   UNL A   1      43.230  28.077  28.748  1.00  0.00    -0.248 NA
ATOM     15  C   UNL A   1      41.813  28.969  27.136  1.00  0.00     0.031 C 
ATOM     16  C   UNL A   1      38.526  28.202  29.843  1.00  0.00     0.029 A 
ATOM     17  N   UNL A   1      40.251  29.551  30.168  1.00  0.00    -0.354 N 
ATOM     18  C   UNL A   1      43.922  28.967  27.947  1.00  0.00     0.074 A 
ATOM     19  C   UNL A   1      43.082  29.214  26.805  1.00  0.00     0.031 C 
ATOM     20  C   UNL A   1      38.047  29.350  30.386  1.00  0.00     0.029 A 
ATOM     21  C   UNL A   1      39.159  30.237  30.685  1.00  0.00     0.049 A 
ATOM     22  H   UNL A   1      41.165  29.914  30.198  1.00  0.00     0.167 HD
ATOM     23  C   UNL A   1      44.955  29.697  28.444  1.00  0.00     0.037 A 
ATOM     24  C   UNL A   1      39.188  31.433  31.329  1.00  0.00     0.037 A 
ATOM     25  C   UNL A   1      45.270  29.303  29.802  1.00  0.00     0.049 A 
ATOM     26  C   UNL A   1      40.576  31.628  31.828  1.00  0.00     0.074 A 
ATOM     27  C   UNL A   1      45.629  28.128  30.433  1.00  0.00     0.029 A 
ATOM     28  N   UNL A   1      44.812  30.145  30.788  1.00  0.00    -0.354 N 
ATOM     29  N   UNL A   1      41.132  30.903  32.760  1.00  0.00    -0.248 NA
ATOM     30  C   UNL A   1      41.490  32.500  31.099  1.00  0.00     0.031 C 
ATOM     31  C   UNL A   1      45.029  28.182  31.728  1.00  0.00     0.029 A 
ATOM     32  C   UNL A   1      44.356  29.399  31.848  1.00  0.00     0.049 A 
ATOM     33  H   UNL A   1      44.812  31.128  30.741  1.00  0.00     0.167 HD
ATOM     34  C   UNL A   1      42.479  30.907  32.454  1.00  0.00     0.074 A 
ATOM     35  C   UNL A   1      42.656  32.040  31.559  1.00  0.00     0.031 C 
ATOM     36  C   UNL A   1      43.253  29.811  32.699  1.00  0.00     0.037 A 
BRANCH  23  37
ATOM     37  C   UNL A   1      45.405  31.028  27.894  1.00  0.00     0.058 A 
ATOM     38  C   UNL A   1      44.476  32.084  27.852  1.00  0.00     0.135 A 
ATOM     39  C   UNL A   1      46.614  31.247  27.196  1.00  0.00     0.135 A 
ATOM     40  F   UNL A   1      43.288  31.970  28.466  1.00  0.00    -0.206 F 
ATOM     41  C   UNL A   1      44.707  33.249  27.124  1.00  0.00     0.059 A 
ATOM     42  C   UNL A   1      46.893  32.428  26.522  1.00  0.00     0.059 A 
ATOM     43  F   UNL A   1      47.539  30.291  27.042  1.00  0.00    -0.206 F 
ATOM     44  C   UNL A   1      45.915  33.404  26.452  1.00  0.00     0.060 A 
BRANCH  44  45
ATOM     45  S   UNL A   1      46.180  34.858  25.425  1.00  0.00     0.124 S 
ATOM     46  O   UNL A   1      47.610  34.761  25.157  1.00  0.00    -0.237 OA
ATOM     47  O   UNL A   1      45.298  34.599  24.290  1.00  0.00    -0.237 OA
ATOM     48  O   UNL A   1      45.768  35.958  26.291  1.00  0.00    -0.744 OA
ENDBRANCH  44  45
ENDBRANCH  23  37
BRANCH  24  49
ATOM     49  C   UNL A   1      38.161  32.490  31.514  1.00  0.00     0.058 A 
ATOM     50  C   UNL A   1      37.431  32.989  30.414  1.00  0.00     0.135 A 
ATOM     51  C   UNL A   1      37.666  32.826  32.787  1.00  0.00     0.135 A 
ATOM     52  F   UNL A   1      37.823  32.718  29.160  1.00  0.00    -0.206 F 
ATOM     53  C   UNL A   1      36.242  33.704  30.566  1.00  0.00     0.059 A 
ATOM     54  C   UNL A   1      36.484  33.553  32.963  1.00  0.00     0.059 A 
ATOM     55  F   UNL A   1      38.266  32.374  33.897  1.00  0.00    -0.206 F 
ATOM     56  C   UNL A   1      35.759  33.958  31.846  1.00  0.00     0.060 A 
BRANCH  56  57
ATOM     57  S   UNL A   1      34.117  34.693  32.032  1.00  0.00     0.124 S 
ATOM     58  O   UNL A   1      33.615  34.666  30.663  1.00  0.00    -0.237 OA
ATOM     59  O   UNL A   1      33.471  33.775  32.964  1.00  0.00    -0.237 OA
ATOM     60  O   UNL A   1      34.398  36.022  32.568  1.00  0.00    -0.744 OA
ENDBRANCH  56  57
ENDBRANCH  24  49
BRANCH  36  61
ATOM     61  C   UNL A   1      42.797  28.857  33.777  1.00  0.00     0.058 A 
ATOM     62  C   UNL A   1      41.839  27.842  33.608  1.00  0.00     0.135 A 
ATOM     63  C   UNL A   1      43.432  28.929  35.028  1.00  0.00     0.135 A 
ATOM     64  F   UNL A   1      41.252  27.635  32.422  1.00  0.00    -0.206 F 
ATOM     65  C   UNL A   1      41.497  26.970  34.646  1.00  0.00     0.059 A 
ATOM     66  C   UNL A   1      43.135  28.047  36.064  1.00  0.00     0.059 A 
ATOM     67  F   UNL A   1      44.391  29.844  35.244  1.00  0.00    -0.206 F 
ATOM     68  C   UNL A   1      42.154  27.078  35.871  1.00  0.00     0.060 A 
BRANCH  68  69
ATOM     69  S   UNL A   1      41.788  25.887  37.180  1.00  0.00     0.124 S 
ATOM     70  O   UNL A   1      42.023  24.612  36.512  1.00  0.00    -0.237 OA
ATOM     71  O   UNL A   1      42.748  26.245  38.220  1.00  0.00    -0.237 OA
ATOM     72  O   UNL A   1      40.394  26.170  37.514  1.00  0.00    -0.744 OA
ENDBRANCH  68  69
ENDBRANCH  36  61
ENDBRANCH  10  11
ENDBRANCH   3   5
ENDBRANCH   2   3
ENDBRANCH   1   2
BRANCH   1  73
ATOM     73  C   UNL A   1      37.075  21.512  24.575  1.00  0.00     0.274 C 
BRANCH  73  74
ATOM     74  O   UNL A   1      36.291  22.707  24.751  1.00  0.00    -0.461 OA
BRANCH  74  75
ATOM     75  C   UNL A   1      35.241  22.755  25.618  1.00  0.00     0.329 C 
ATOM     76  O   UNL A   1      35.192  23.442  26.636  1.00  0.00    -0.250 OA
BRANCH  75  77
ATOM     77  C   UNL A   1      34.191  21.718  25.176  1.00  0.00     0.201 C 
ATOM     78  C   UNL A   1      33.713  20.878  26.408  1.00  0.00     0.093 C 
ATOM     79  N   UNL A   1      33.072  21.935  24.194  1.00  0.00    -0.318 N 
ATOM     80  C   UNL A   1      33.049  19.657  25.869  1.00  0.00     0.042 A 
ATOM     81  C   UNL A   1      32.554  20.662  23.591  1.00  0.00     0.179 C 
ATOM     82  N   UNL A   1      32.943  18.404  26.399  1.00  0.00    -0.348 N 
ATOM     83  C   UNL A   1      32.513  19.568  24.605  1.00  0.00     0.081 A 
ATOM     84  C   UNL A   1      32.396  17.606  25.425  1.00  0.00     0.197 A 
ATOM     85  H   UNL A   1      33.206  18.126  27.306  1.00  0.00     0.167 HD
ATOM     86  N   UNL A   1      32.137  18.282  24.330  1.00  0.00    -0.240 NA
BRANCH  79  87
ATOM     87  C   UNL A   1      32.413  23.101  23.779  1.00  0.00     0.256 C 
ATOM     88  O   UNL A   1      31.608  23.085  22.848  1.00  0.00    -0.269 OA
BRANCH  87  89
ATOM     89  C   UNL A   1      32.558  24.422  24.423  1.00  0.00     0.061 A 
ATOM     90  C   UNL A   1      33.537  25.267  23.902  1.00  0.00     0.035 A 
ATOM     91  C   UNL A   1      32.072  24.713  25.705  1.00  0.00     0.072 A 
ATOM     92  C   UNL A   1      33.883  26.407  24.619  1.00  0.00     0.112 A 
ATOM     93  C   UNL A   1      32.400  25.928  26.289  1.00  0.00     0.132 A 
ATOM     94  Cl  UNL A   1      31.304  23.611  26.754  1.00  0.00    -0.082 Cl
ATOM     95  N   UNL A   1      33.291  26.793  25.768  1.00  0.00    -0.263 NA
ENDBRANCH  87  89
ENDBRANCH  79  87
ENDBRANCH  75  77
ENDBRANCH  74  75
ENDBRANCH  73  74
ENDBRANCH   1  73
TORSDOF 16
ENDMDL
MODEL 2
REMARK VINA RESULT:     -12.7      0.584      1.334
REMARK SMILES O=C(OCCOC(=O)[C@H]1Cc2[nH]cnc2CN1C(=O)c1ccncc1Cl)c1ccc(-c2c3nc(c(-c4c(F)cc(S(=O)(=O)[O-])cc4F)c4ccc([nH]4)c(-c4c(F)cc(S(=O)(=O)[O-])cc4F)c4nc(c(-c5c(F)cc(S(=O)(=O)[O-])cc5F)c5ccc2[nH]5)C=C4)C=C3)cc1
REMARK SMILES IDX 4 1 3 2 2 3 1 4 27 5 28 6 92 7 29 8 91 9 30 10 31 11 32 12
REMARK SMILES IDX 85 13 33 14 90 15 84 16 86 17 34 18 89 19 83 20 82 21 35 23
REMARK SMILES IDX 69 24 48 25 68 26 49 27 52 28 67 29 87 30 50 31 51 32 66 34
REMARK SMILES IDX 88 35 53 36 36 37 37 38 46 39 38 40 39 41 45 42 47 43 40 44
REMARK SMILES IDX 41 45 42 46 43 47 44 48 70 49 71 50 80 51 72 52 73 53 79 54
REMARK SMILES IDX 81 55 74 56 75 57 76 58 77 59 78 60 54 61 55 62 64 63 56 64
REMARK SMILES IDX 57 65 63 66 65 67 58 68 59 69 60 70 61 71 62 72 5 73 6 74
REMARK SMILES IDX 7 75 8 76 9 77 10 78 17 79 11 80 16 81 12 82 15 83 13 84
REMARK SMILES IDX 14 86 18 87 19 88 20 89 21 90 25 91 22 92 24 93 26 94 23 95
REMARK H PARENT 86 22 52 33 12 85
REMARK Flexibility Score: inf
ROOT
ATOM      1  C   UNL A   1      38.173  21.295  25.407  1.00  0.00     0.275 C 
ENDROOT
BRANCH   1   2
ATOM      2  O   UNL A   1      38.560  22.507  26.077  1.00  0.00    -0.458 OA
BRANCH   2   3
ATOM      3  C   UNL A   1      39.719  22.402  26.762  1.00  0.00     0.338 C 
ATOM      4  O   UNL A   1      40.148  21.385  27.316  1.00  0.00    -0.246 OA
BRANCH   3   5
ATOM      5  C   UNL A   1      40.322  23.714  27.009  1.00  0.00     0.060 A 
ATOM      6  C   UNL A   1      41.346  23.877  27.949  1.00  0.00     0.016 A 
ATOM      7  C   UNL A   1      39.573  24.809  26.599  1.00  0.00     0.016 A 
ATOM      8  C   UNL A   1      41.541  25.130  28.552  1.00  0.00     0.010 A 
ATOM      9  C   UNL A   1      39.721  26.012  27.262  1.00  0.00     0.010 A 
ATOM     10  C   UNL A   1      40.660  26.179  28.273  1.00  0.00    -0.014 A 
BRANCH  10  11
ATOM     11  C   UNL A   1      40.811  27.540  28.791  1.00  0.00     0.031 A 
ATOM     12  C   UNL A   1      41.955  28.218  28.143  1.00  0.00     0.074 A 
ATOM     13  C   UNL A   1      39.972  28.372  29.445  1.00  0.00     0.049 A 
ATOM     14  N   UNL A   1      43.200  28.078  28.449  1.00  0.00    -0.248 NA
ATOM     15  C   UNL A   1      41.720  28.941  26.880  1.00  0.00     0.031 C 
ATOM     16  C   UNL A   1      38.549  28.258  29.743  1.00  0.00     0.029 A 
ATOM     17  N   UNL A   1      40.294  29.604  29.961  1.00  0.00    -0.354 N 
ATOM     18  C   UNL A   1      43.862  28.944  27.599  1.00  0.00     0.074 A 
ATOM     19  C   UNL A   1      42.975  29.170  26.489  1.00  0.00     0.031 C 
ATOM     20  C   UNL A   1      38.100  29.422  30.280  1.00  0.00     0.029 A 
ATOM     21  C   UNL A   1      39.230  30.309  30.510  1.00  0.00     0.049 A 
ATOM     22  H   UNL A   1      41.211  29.961  29.944  1.00  0.00     0.167 HD
ATOM     23  C   UNL A   1      44.920  29.679  28.034  1.00  0.00     0.037 A 
ATOM     24  C   UNL A   1      39.293  31.519  31.123  1.00  0.00     0.037 A 
ATOM     25  C   UNL A   1      45.291  29.314  29.385  1.00  0.00     0.049 A 
ATOM     26  C   UNL A   1      40.702  31.716  31.558  1.00  0.00     0.074 A 
ATOM     27  C   UNL A   1      45.671  28.151  30.028  1.00  0.00     0.029 A 
ATOM     28  N   UNL A   1      44.881  30.182  30.371  1.00  0.00    -0.354 N 
ATOM     29  N   UNL A   1      41.293  31.009  32.481  1.00  0.00    -0.248 NA
ATOM     30  C   UNL A   1      41.589  32.565  30.770  1.00  0.00     0.031 C 
ATOM     31  C   UNL A   1      45.127  28.239  31.346  1.00  0.00     0.029 A 
ATOM     32  C   UNL A   1      44.467  29.463  31.466  1.00  0.00     0.049 A 
ATOM     33  H   UNL A   1      44.884  31.164  30.300  1.00  0.00     0.167 HD
ATOM     34  C   UNL A   1      42.626  30.997  32.117  1.00  0.00     0.074 A 
ATOM     35  C   UNL A   1      42.771  32.107  31.189  1.00  0.00     0.031 C 
ATOM     36  C   UNL A   1      43.404  29.902  32.355  1.00  0.00     0.037 A 
BRANCH  23  37
ATOM     37  C   UNL A   1      45.353  30.993  27.434  1.00  0.00     0.058 A 
ATOM     38  C   UNL A   1      46.673  31.111  26.961  1.00  0.00     0.135 A 
ATOM     39  C   UNL A   1      44.622  32.200  27.517  1.00  0.00     0.135 A 
ATOM     40  F   UNL A   1      47.461  30.028  26.863  1.00  0.00    -0.206 F 
ATOM     41  C   UNL A   1      47.244  32.343  26.646  1.00  0.00     0.059 A 
ATOM     42  C   UNL A   1      45.149  33.429  27.143  1.00  0.00     0.059 A 
ATOM     43  F   UNL A   1      43.401  32.265  28.062  1.00  0.00    -0.206 F 
ATOM     44  C   UNL A   1      46.474  33.497  26.753  1.00  0.00     0.060 A 
BRANCH  44  45
ATOM     45  S   UNL A   1      47.232  35.101  26.451  1.00  0.00     0.124 S 
ATOM     46  O   UNL A   1      46.087  35.872  25.982  1.00  0.00    -0.237 OA
ATOM     47  O   UNL A   1      47.744  35.455  27.771  1.00  0.00    -0.237 OA
ATOM     48  O   UNL A   1      48.252  34.804  25.450  1.00  0.00    -0.744 OA
ENDBRANCH  44  45
ENDBRANCH  23  37
BRANCH  24  49
ATOM     49  C   UNL A   1      38.281  32.587  31.328  1.00  0.00     0.058 A 
ATOM     50  C   UNL A   1      37.502  33.059  30.251  1.00  0.00     0.135 A 
ATOM     51  C   UNL A   1      37.848  32.960  32.613  1.00  0.00     0.135 A 
ATOM     52  F   UNL A   1      37.832  32.752  28.987  1.00  0.00    -0.206 F 
ATOM     53  C   UNL A   1      36.324  33.786  30.439  1.00  0.00     0.059 A 
ATOM     54  C   UNL A   1      36.680  33.699  32.825  1.00  0.00     0.059 A 
ATOM     55  F   UNL A   1      38.499  32.535  33.706  1.00  0.00    -0.206 F 
ATOM     56  C   UNL A   1      35.905  34.078  31.734  1.00  0.00     0.060 A 
BRANCH  56  57
ATOM     57  S   UNL A   1      34.277  34.827  31.977  1.00  0.00     0.124 S 
ATOM     58  O   UNL A   1      33.560  33.775  32.689  1.00  0.00    -0.237 OA
ATOM     59  O   UNL A   1      34.598  36.018  32.758  1.00  0.00    -0.237 OA
ATOM     60  O   UNL A   1      33.815  35.087  30.616  1.00  0.00    -0.744 OA
ENDBRANCH  56  57
ENDBRANCH  24  49
BRANCH  36  61
ATOM     61  C   UNL A   1      42.990  28.976  33.472  1.00  0.00     0.058 A 
ATOM     62  C   UNL A   1      42.021  27.962  33.369  1.00  0.00     0.135 A 
ATOM     63  C   UNL A   1      43.677  29.075  34.694  1.00  0.00     0.135 A 
ATOM     64  F   UNL A   1      41.384  27.731  32.214  1.00  0.00    -0.206 F 
ATOM     65  C   UNL A   1      41.720  27.117  34.440  1.00  0.00     0.059 A 
ATOM     66  C   UNL A   1      43.421  28.218  35.763  1.00  0.00     0.059 A 
ATOM     67  F   UNL A   1      44.649  29.990  34.848  1.00  0.00    -0.206 F 
ATOM     68  C   UNL A   1      42.428  27.250  35.634  1.00  0.00     0.060 A 
BRANCH  68  69
ATOM     69  S   UNL A   1      42.112  26.092  36.985  1.00  0.00     0.124 S 
ATOM     70  O   UNL A   1      42.999  26.589  38.031  1.00  0.00    -0.237 OA
ATOM     71  O   UNL A   1      40.682  26.264  37.229  1.00  0.00    -0.237 OA
ATOM     72  O   UNL A   1      42.481  24.798  36.415  1.00  0.00    -0.744 OA
ENDBRANCH  68  69
ENDBRANCH  36  61
ENDBRANCH  10  11
ENDBRANCH   3   5
ENDBRANCH   2   3
ENDBRANCH   1   2
BRANCH   1  73
ATOM     73  C   UNL A   1      36.929  21.539  24.550  1.00  0.00     0.274 C 
BRANCH  73  74
ATOM     74  O   UNL A   1      36.256  22.768  24.883  1.00  0.00    -0.461 OA
BRANCH  74  75
ATOM     75  C   UNL A   1      35.171  22.791  25.706  1.00  0.00     0.329 C 
ATOM     76  O   UNL A   1      35.068  23.472  26.725  1.00  0.00    -0.250 OA
BRANCH  75  77
ATOM     77  C   UNL A   1      34.159  21.737  25.217  1.00  0.00     0.201 C 
ATOM     78  C   UNL A   1      33.636  20.893  26.427  1.00  0.00     0.093 C 
ATOM     79  N   UNL A   1      33.087  21.934  24.182  1.00  0.00    -0.318 N 
ATOM     80  C   UNL A   1      33.017  19.661  25.862  1.00  0.00     0.042 A 
ATOM     81  C   UNL A   1      32.617  20.652  23.559  1.00  0.00     0.179 C 
ATOM     82  N   UNL A   1      32.904  18.407  26.390  1.00  0.00    -0.348 N 
ATOM     83  C   UNL A   1      32.545  19.560  24.573  1.00  0.00     0.081 A 
ATOM     84  C   UNL A   1      32.418  17.598  25.393  1.00  0.00     0.197 A 
ATOM     85  H   UNL A   1      33.128  18.136  27.309  1.00  0.00     0.167 HD
ATOM     86  N   UNL A   1      32.202  18.268  24.285  1.00  0.00    -0.240 NA
BRANCH  79  87
ATOM     87  C   UNL A   1      32.430  23.089  23.732  1.00  0.00     0.256 C 
ATOM     88  O   UNL A   1      32.198  23.269  22.536  1.00  0.00    -0.269 OA
BRANCH  87  89
ATOM     89  C   UNL A   1      31.909  24.156  24.610  1.00  0.00     0.061 A 
ATOM     90  C   UNL A   1      32.648  25.337  24.664  1.00  0.00     0.035 A 
ATOM     91  C   UNL A   1      30.989  23.925  25.641  1.00  0.00     0.072 A 
ATOM     92  C   UNL A   1      32.345  26.267  25.652  1.00  0.00     0.112 A 
ATOM     93  C   UNL A   1      30.685  24.958  26.517  1.00  0.00     0.132 A 
ATOM     94  Cl  UNL A   1      30.366  22.406  26.101  1.00  0.00    -0.082 Cl
ATOM     95  N   UNL A   1      31.338  26.136  26.539  1.00  0.00    -0.263 NA
ENDBRANCH  87  89
ENDBRANCH  79  87
ENDBRANCH  75  77
ENDBRANCH  74  75
ENDBRANCH  73  74
ENDBRANCH   1  73
TORSDOF 16
ENDMDL
MODEL 3
REMARK VINA RESULT:     -12.3      1.321      1.959
REMARK SMILES O=C(OCCOC(=O)[C@H]1Cc2[nH]cnc2CN1C(=O)c1ccncc1Cl)c1ccc(-c2c3nc(c(-c4c(F)cc(S(=O)(=O)[O-])cc4F)c4ccc([nH]4)c(-c4c(F)cc(S(=O)(=O)[O-])cc4F)c4nc(c(-c5c(F)cc(S(=O)(=O)[O-])cc5F)c5ccc2[nH]5)C=C4)C=C3)cc1
REMARK SMILES IDX 4 1 3 2 2 3 1 4 27 5 28 6 92 7 29 8 91 9 30 10 31 11 32 12
REMARK SMILES IDX 85 13 33 14 90 15 84 16 86 17 34 18 89 19 83 20 82 21 35 23
REMARK SMILES IDX 69 24 48 25 68 26 49 27 52 28 67 29 87 30 50 31 51 32 66 34
REMARK SMILES IDX 88 35 53 36 36 37 37 38 46 39 38 40 39 41 45 42 47 43 40 44
REMARK SMILES IDX 41 45 42 46 43 47 44 48 70 49 71 50 80 51 72 52 73 53 79 54
REMARK SMILES IDX 81 55 74 56 75 57 76 58 77 59 78 60 54 61 55 62 64 63 56 64
REMARK SMILES IDX 57 65 63 66 65 67 58 68 59 69 60 70 61 71 62 72 5 73 6 74
REMARK SMILES IDX 7 75 8 76 9 77 10 78 17 79 11 80 16 81 12 82 15 83 13 84
REMARK SMILES IDX 14 86 18 87 19 88 20 89 21 90 25 91 22 92 24 93 26 94 23 95
REMARK H PARENT 86 22 52 33 12 85
REMARK Flexibility Score: inf
ROOT
ATOM      1  C   UNL A   1      39.545  21.458  26.038  1.00  0.00     0.275 C 
ENDROOT
BRANCH   1   2
ATOM      2  O   UNL A   1      40.513  21.999  26.954  1.00  0.00    -0.458 OA
BRANCH   2   3
ATOM      3  C   UNL A   1      41.590  22.541  26.346  1.00  0.00     0.338 C 
ATOM      4  O   UNL A   1      42.384  21.951  25.607  1.00  0.00    -0.246 OA
BRANCH   3   5
ATOM      5  C   UNL A   1      41.884  23.881  26.861  1.00  0.00     0.060 A 
ATOM      6  C   UNL A   1      42.407  24.066  28.145  1.00  0.00     0.016 A 
ATOM      7  C   UNL A   1      41.247  24.931  26.211  1.00  0.00     0.016 A 
ATOM      8  C   UNL A   1      42.192  25.283  28.813  1.00  0.00     0.010 A 
ATOM      9  C   UNL A   1      40.971  26.088  26.912  1.00  0.00     0.010 A 
ATOM     10  C   UNL A   1      41.388  26.265  28.225  1.00  0.00    -0.014 A 
BRANCH  10  11
ATOM     11  C   UNL A   1      41.156  27.591  28.801  1.00  0.00     0.031 A 
ATOM     12  C   UNL A   1      42.169  28.553  28.313  1.00  0.00     0.074 A 
ATOM     13  C   UNL A   1      40.079  28.166  29.379  1.00  0.00     0.049 A 
ATOM     14  N   UNL A   1      43.372  28.687  28.758  1.00  0.00    -0.248 NA
ATOM     15  C   UNL A   1      41.904  29.274  27.055  1.00  0.00     0.031 C 
ATOM     16  C   UNL A   1      38.701  27.707  29.504  1.00  0.00     0.029 A 
ATOM     17  N   UNL A   1      40.043  29.405  29.968  1.00  0.00    -0.354 N 
ATOM     18  C   UNL A   1      43.896  29.732  28.019  1.00  0.00     0.074 A 
ATOM     19  C   UNL A   1      43.103  29.811  26.821  1.00  0.00     0.031 C 
ATOM     20  C   UNL A   1      37.934  28.702  30.022  1.00  0.00     0.029 A 
ATOM     21  C   UNL A   1      38.790  29.811  30.411  1.00  0.00     0.049 A 
ATOM     22  H   UNL A   1      40.846  29.966  30.069  1.00  0.00     0.167 HD
ATOM     23  C   UNL A   1      44.697  30.666  28.599  1.00  0.00     0.037 A 
ATOM     24  C   UNL A   1      38.499  30.965  31.066  1.00  0.00     0.037 A 
ATOM     25  C   UNL A   1      44.998  30.318  29.972  1.00  0.00     0.049 A 
ATOM     26  C   UNL A   1      39.766  31.458  31.668  1.00  0.00     0.074 A 
ATOM     27  C   UNL A   1      45.573  29.239  30.617  1.00  0.00     0.029 A 
ATOM     28  N   UNL A   1      44.292  31.008  30.930  1.00  0.00    -0.354 N 
ATOM     29  N   UNL A   1      40.407  30.855  32.631  1.00  0.00    -0.248 NA
ATOM     30  C   UNL A   1      40.505  32.534  31.017  1.00  0.00     0.031 C 
ATOM     31  C   UNL A   1      44.887  29.122  31.865  1.00  0.00     0.029 A 
ATOM     32  C   UNL A   1      43.947  30.150  31.946  1.00  0.00     0.049 A 
ATOM     33  H   UNL A   1      44.070  31.966  30.892  1.00  0.00     0.167 HD
ATOM     34  C   UNL A   1      41.736  31.174  32.425  1.00  0.00     0.074 A 
ATOM     35  C   UNL A   1      41.710  32.339  31.557  1.00  0.00     0.031 C 
ATOM     36  C   UNL A   1      42.721  30.277  32.717  1.00  0.00     0.037 A 
BRANCH  23  37
ATOM     37  C   UNL A   1      44.867  32.078  28.096  1.00  0.00     0.058 A 
ATOM     38  C   UNL A   1      46.139  32.480  27.648  1.00  0.00     0.135 A 
ATOM     39  C   UNL A   1      43.917  33.111  28.253  1.00  0.00     0.135 A 
ATOM     40  F   UNL A   1      47.121  31.579  27.485  1.00  0.00    -0.206 F 
ATOM     41  C   UNL A   1      46.460  33.818  27.426  1.00  0.00     0.059 A 
ATOM     42  C   UNL A   1      44.195  34.442  27.971  1.00  0.00     0.059 A 
ATOM     43  F   UNL A   1      42.707  32.902  28.787  1.00  0.00    -0.206 F 
ATOM     44  C   UNL A   1      45.482  34.792  27.603  1.00  0.00     0.060 A 
BRANCH  44  45
ATOM     45  S   UNL A   1      45.915  36.528  27.420  1.00  0.00     0.124 S 
ATOM     46  O   UNL A   1      46.954  36.457  26.400  1.00  0.00    -0.237 OA
ATOM     47  O   UNL A   1      44.648  37.120  27.003  1.00  0.00    -0.237 OA
ATOM     48  O   UNL A   1      46.363  36.903  28.758  1.00  0.00    -0.744 OA
ENDBRANCH  44  45
ENDBRANCH  23  37
BRANCH  24  49
ATOM     49  C   UNL A   1      37.246  31.755  31.184  1.00  0.00     0.058 A 
ATOM     50  C   UNL A   1      36.533  31.799  32.401  1.00  0.00     0.135 A 
ATOM     51  C   UNL A   1      36.878  32.708  30.218  1.00  0.00     0.135 A 
ATOM     52  F   UNL A   1      36.816  30.934  33.386  1.00  0.00    -0.206 F 
ATOM     53  C   UNL A   1      35.574  32.777  32.672  1.00  0.00     0.059 A 
ATOM     54  C   UNL A   1      35.910  33.687  30.462  1.00  0.00     0.059 A 
ATOM     55  F   UNL A   1      37.517  32.772  29.041  1.00  0.00    -0.206 F 
ATOM     56  C   UNL A   1      35.288  33.736  31.705  1.00  0.00     0.060 A 
BRANCH  56  57
ATOM     57  S   UNL A   1      34.207  35.120  32.140  1.00  0.00     0.124 S 
ATOM     58  O   UNL A   1      35.093  35.958  32.941  1.00  0.00    -0.237 OA
ATOM     59  O   UNL A   1      33.844  35.652  30.830  1.00  0.00    -0.237 OA
ATOM     60  O   UNL A   1      33.117  34.483  32.873  1.00  0.00    -0.744 OA
ENDBRANCH  56  57
ENDBRANCH  24  49
BRANCH  36  61
ATOM     61  C   UNL A   1      42.423  29.216  33.749  1.00  0.00     0.058 A 
ATOM     62  C   UNL A   1      41.795  27.985  33.488  1.00  0.00     0.135 A 
ATOM     63  C   UNL A   1      42.874  29.432  35.061  1.00  0.00     0.135 A 
ATOM     64  F   UNL A   1      41.418  27.651  32.247  1.00  0.00    -0.206 F 
ATOM     65  C   UNL A   1      41.588  27.035  34.491  1.00  0.00     0.059 A 
ATOM     66  C   UNL A   1      42.713  28.483  36.069  1.00  0.00     0.059 A 
ATOM     67  F   UNL A   1      43.524  30.566  35.371  1.00  0.00    -0.206 F 
ATOM     68  C   UNL A   1      42.054  27.291  35.780  1.00  0.00     0.060 A 
BRANCH  68  69
ATOM     69  S   UNL A   1      41.879  26.022  37.054  1.00  0.00     0.124 S 
ATOM     70  O   UNL A   1      42.175  24.800  36.316  1.00  0.00    -0.237 OA
ATOM     71  O   UNL A   1      42.874  26.422  38.046  1.00  0.00    -0.237 OA
ATOM     72  O   UNL A   1      40.492  26.169  37.489  1.00  0.00    -0.744 OA
ENDBRANCH  68  69
ENDBRANCH  36  61
ENDBRANCH  10  11
ENDBRANCH   3   5
ENDBRANCH   2   3
ENDBRANCH   1   2
BRANCH   1  73
ATOM     73  C   UNL A   1      38.359  22.416  25.898  1.00  0.00     0.274 C 
BRANCH  73  74
ATOM     74  O   UNL A   1      37.248  21.827  25.195  1.00  0.00    -0.461 OA
BRANCH  74  75
ATOM     75  C   UNL A   1      36.137  22.548  24.876  1.00  0.00     0.329 C 
ATOM     76  O   UNL A   1      36.093  23.772  24.766  1.00  0.00    -0.250 OA
BRANCH  75  77
ATOM     77  C   UNL A   1      34.933  21.591  24.802  1.00  0.00     0.201 C 
ATOM     78  C   UNL A   1      35.390  20.127  25.117  1.00  0.00     0.093 C 
ATOM     79  N   UNL A   1      33.544  21.853  25.315  1.00  0.00    -0.318 N 
ATOM     80  C   UNL A   1      34.313  19.221  24.627  1.00  0.00     0.042 A 
ATOM     81  C   UNL A   1      32.497  20.994  24.667  1.00  0.00     0.179 C 
ATOM     82  N   UNL A   1      34.382  17.941  24.157  1.00  0.00    -0.348 N 
ATOM     83  C   UNL A   1      33.006  19.610  24.440  1.00  0.00     0.081 A 
ATOM     84  C   UNL A   1      33.138  17.631  23.667  1.00  0.00     0.197 A 
ATOM     85  H   UNL A   1      35.172  17.354  24.169  1.00  0.00     0.167 HD
ATOM     86  N   UNL A   1      32.293  18.624  23.817  1.00  0.00    -0.240 NA
BRANCH  79  87
ATOM     87  C   UNL A   1      33.069  22.722  26.309  1.00  0.00     0.256 C 
ATOM     88  O   UNL A   1      33.337  22.543  27.497  1.00  0.00    -0.269 OA
BRANCH  87  89
ATOM     89  C   UNL A   1      32.272  23.938  26.051  1.00  0.00     0.061 A 
ATOM     90  C   UNL A   1      32.974  25.139  25.963  1.00  0.00     0.035 A 
ATOM     91  C   UNL A   1      30.890  24.015  26.274  1.00  0.00     0.072 A 
ATOM     92  C   UNL A   1      32.259  26.331  25.972  1.00  0.00     0.112 A 
ATOM     93  C   UNL A   1      30.258  25.246  26.160  1.00  0.00     0.132 A 
ATOM     94  Cl  UNL A   1      29.914  22.779  26.923  1.00  0.00    -0.082 Cl
ATOM     95  N   UNL A   1      30.913  26.412  26.002  1.00  0.00    -0.263 NA
ENDBRANCH  87  89
ENDBRANCH  79  87
ENDBRANCH  75  77
ENDBRANCH  74  75
ENDBRANCH  73  74
ENDBRANCH   1  73
TORSDOF 16
ENDMDL
