MODEL 1
REMARK VINA RESULT:     -11.1      0.000      0.000
REMARK SMILES C[C@@H](C(=O)OCCOC(=O)c1ccc(-c2c3nc(c(-c4c(F)cc(S(=O)(=O)[O-])cc4F)c4ccc([nH]4)c(-c4c(F)cc(S(=O)(=O)[O-])cc4F)c4nc(c(-c5c(F)cc(S(=O)(=O)[O-])cc5F)c5ccc2[nH]5)C=C4)C=C3)cc1)c1cccn(C(F)F)c1=O
REMARK SMILES IDX 7 1 6 2 5 3 3 4 4 5 2 6 1 7 77 8 78 9 85 10 79 11 81 12
REMARK SMILES IDX 86 13 80 14 82 15 83 16 84 17 8 18 9 19 10 20 11 21 12 22
REMARK SMILES IDX 76 23 13 24 75 25 14 26 15 27 16 28 69 29 17 30 74 31 68 32
REMARK SMILES IDX 70 33 18 34 73 35 67 36 66 37 19 39 53 40 32 41 52 42 33 43
REMARK SMILES IDX 36 44 51 45 71 46 34 47 35 48 50 50 72 51 37 52 20 53 21 54
REMARK SMILES IDX 30 55 22 56 23 57 29 58 31 59 24 60 25 61 26 62 27 63 28 64
REMARK SMILES IDX 54 65 55 66 64 67 56 68 57 69 63 70 65 71 58 72 59 73 60 74
REMARK SMILES IDX 61 75 62 76 38 77 39 78 48 79 40 80 41 81 47 82 49 83 42 84
REMARK SMILES IDX 43 85 44 86 45 87 46 88
REMARK H PARENT 70 38 36 49
REMARK Flexibility Score: inf
ROOT
ATOM      1  C   UNL A   1      34.258  31.014  27.655  1.00  0.00     0.275 C 
ENDROOT
BRANCH   1   2
ATOM      2  C   UNL A   1      32.984  30.253  27.300  1.00  0.00     0.274 C 
BRANCH   2   3
ATOM      3  O   UNL A   1      33.225  28.832  27.339  1.00  0.00    -0.462 OA
BRANCH   3   4
ATOM      4  C   UNL A   1      32.134  28.031  27.184  1.00  0.00     0.313 C 
ATOM      5  O   UNL A   1      31.194  27.995  27.972  1.00  0.00    -0.252 OA
BRANCH   4   6
ATOM      6  C   UNL A   1      32.259  27.084  25.987  1.00  0.00     0.132 C 
ATOM      7  C   UNL A   1      33.628  27.124  25.300  1.00  0.00     0.025 C 
BRANCH   6   8
ATOM      8  C   UNL A   1      31.057  27.254  25.071  1.00  0.00     0.032 A 
ATOM      9  C   UNL A   1      30.099  26.311  24.979  1.00  0.00     0.012 A 
ATOM     10  C   UNL A   1      30.899  28.498  24.236  1.00  0.00     0.259 A 
ATOM     11  C   UNL A   1      28.962  26.457  24.110  1.00  0.00     0.019 A 
ATOM     12  N   UNL A   1      29.805  28.539  23.387  1.00  0.00    -0.258 N 
ATOM     13  O   UNL A   1      31.702  29.420  24.339  1.00  0.00    -0.269 OA
ATOM     14  C   UNL A   1      28.857  27.537  23.330  1.00  0.00     0.095 A 
BRANCH  12  15
ATOM     15  C   UNL A   1      29.685  29.679  22.509  1.00  0.00     0.451 C 
ATOM     16  F   UNL A   1      30.695  29.642  21.600  1.00  0.00    -0.185 F 
ATOM     17  F   UNL A   1      28.528  29.608  21.802  1.00  0.00    -0.185 F 
ENDBRANCH  12  15
ENDBRANCH   6   8
ENDBRANCH   4   6
ENDBRANCH   3   4
ENDBRANCH   2   3
ENDBRANCH   1   2
BRANCH   1  18
ATOM     18  O   UNL A   1      35.111  30.154  28.425  1.00  0.00    -0.458 OA
BRANCH  18  19
ATOM     19  C   UNL A   1      36.033  30.768  29.200  1.00  0.00     0.338 C 
ATOM     20  O   UNL A   1      35.847  31.730  29.933  1.00  0.00    -0.246 OA
BRANCH  19  21
ATOM     21  C   UNL A   1      37.351  30.128  29.006  1.00  0.00     0.060 A 
ATOM     22  C   UNL A   1      38.147  29.773  30.095  1.00  0.00     0.016 A 
ATOM     23  C   UNL A   1      37.832  29.936  27.710  1.00  0.00     0.016 A 
ATOM     24  C   UNL A   1      39.448  29.314  29.890  1.00  0.00     0.010 A 
ATOM     25  C   UNL A   1      39.106  29.389  27.509  1.00  0.00     0.010 A 
ATOM     26  C   UNL A   1      39.952  29.114  28.596  1.00  0.00    -0.014 A 
BRANCH  26  27
ATOM     27  C   UNL A   1      41.369  28.684  28.386  1.00  0.00     0.031 A 
ATOM     28  C   UNL A   1      42.500  29.675  28.552  1.00  0.00     0.074 A 
ATOM     29  C   UNL A   1      41.669  27.403  28.085  1.00  0.00     0.049 A 
ATOM     30  N   UNL A   1      43.771  29.538  28.268  1.00  0.00    -0.248 NA
ATOM     31  C   UNL A   1      42.153  30.998  29.099  1.00  0.00     0.031 C 
ATOM     32  C   UNL A   1      40.701  26.315  27.934  1.00  0.00     0.029 A 
ATOM     33  N   UNL A   1      42.882  26.793  27.865  1.00  0.00    -0.354 N 
ATOM     34  C   UNL A   1      44.364  30.761  28.564  1.00  0.00     0.074 A 
ATOM     35  C   UNL A   1      43.314  31.635  29.038  1.00  0.00     0.031 C 
ATOM     36  C   UNL A   1      41.356  25.168  27.698  1.00  0.00     0.029 A 
ATOM     37  C   UNL A   1      42.784  25.449  27.585  1.00  0.00     0.049 A 
ATOM     38  H   UNL A   1      43.740  27.272  27.903  1.00  0.00     0.167 HD
ATOM     39  C   UNL A   1      45.664  31.126  28.455  1.00  0.00     0.037 A 
ATOM     40  C   UNL A   1      43.720  24.547  27.231  1.00  0.00     0.037 A 
ATOM     41  C   UNL A   1      46.725  30.253  28.027  1.00  0.00     0.049 A 
ATOM     42  C   UNL A   1      45.148  24.985  27.064  1.00  0.00     0.074 A 
ATOM     43  C   UNL A   1      48.070  30.542  27.874  1.00  0.00     0.029 A 
ATOM     44  N   UNL A   1      46.565  28.915  27.703  1.00  0.00    -0.354 N 
ATOM     45  N   UNL A   1      45.674  26.170  27.266  1.00  0.00    -0.248 NA
ATOM     46  C   UNL A   1      46.102  23.974  26.588  1.00  0.00     0.031 C 
ATOM     47  C   UNL A   1      48.720  29.386  27.429  1.00  0.00     0.029 A 
ATOM     48  C   UNL A   1      47.785  28.368  27.337  1.00  0.00     0.049 A 
ATOM     49  H   UNL A   1      45.712  28.425  27.727  1.00  0.00     0.167 HD
ATOM     50  C   UNL A   1      47.017  26.048  26.936  1.00  0.00     0.074 A 
ATOM     51  C   UNL A   1      47.232  24.668  26.548  1.00  0.00     0.031 C 
ATOM     52  C   UNL A   1      47.985  26.998  26.942  1.00  0.00     0.037 A 
BRANCH  39  53
ATOM     53  C   UNL A   1      46.012  32.553  28.777  1.00  0.00     0.058 A 
ATOM     54  C   UNL A   1      46.418  32.943  30.062  1.00  0.00     0.135 A 
ATOM     55  C   UNL A   1      45.971  33.534  27.774  1.00  0.00     0.135 A 
ATOM     56  F   UNL A   1      46.457  32.047  31.061  1.00  0.00    -0.206 F 
ATOM     57  C   UNL A   1      46.752  34.264  30.346  1.00  0.00     0.059 A 
ATOM     58  C   UNL A   1      46.319  34.856  28.030  1.00  0.00     0.059 A 
ATOM     59  F   UNL A   1      45.587  33.212  26.528  1.00  0.00    -0.206 F 
ATOM     60  C   UNL A   1      46.697  35.215  29.324  1.00  0.00     0.060 A 
BRANCH  60  61
ATOM     61  S   UNL A   1      47.136  36.924  29.704  1.00  0.00     0.124 S 
ATOM     62  O   UNL A   1      47.123  37.529  28.376  1.00  0.00    -0.237 OA
ATOM     63  O   UNL A   1      46.058  37.335  30.597  1.00  0.00    -0.237 OA
ATOM     64  O   UNL A   1      48.451  36.807  30.327  1.00  0.00    -0.744 OA
ENDBRANCH  60  61
ENDBRANCH  39  53
BRANCH  40  65
ATOM     65  C   UNL A   1      43.319  23.142  26.949  1.00  0.00     0.058 A 
ATOM     66  C   UNL A   1      43.268  22.652  25.637  1.00  0.00     0.135 A 
ATOM     67  C   UNL A   1      43.008  22.257  27.993  1.00  0.00     0.135 A 
ATOM     68  F   UNL A   1      43.540  23.467  24.605  1.00  0.00    -0.206 F 
ATOM     69  C   UNL A   1      42.930  21.330  25.367  1.00  0.00     0.059 A 
ATOM     70  C   UNL A   1      42.694  20.924  27.751  1.00  0.00     0.059 A 
ATOM     71  F   UNL A   1      43.049  22.677  29.267  1.00  0.00    -0.206 F 
ATOM     72  C   UNL A   1      42.652  20.471  26.433  1.00  0.00     0.060 A 
BRANCH  72  73
ATOM     73  S   UNL A   1      42.302  18.732  26.090  1.00  0.00     0.124 S 
ATOM     74  O   UNL A   1      43.261  18.443  25.031  1.00  0.00    -0.237 OA
ATOM     75  O   UNL A   1      42.565  18.101  27.380  1.00  0.00    -0.237 OA
ATOM     76  O   UNL A   1      40.898  18.751  25.688  1.00  0.00    -0.744 OA
ENDBRANCH  72  73
ENDBRANCH  40  65
BRANCH  52  77
ATOM     77  C   UNL A   1      49.363  26.580  26.518  1.00  0.00     0.058 A 
ATOM     78  C   UNL A   1      50.237  25.938  27.409  1.00  0.00     0.135 A 
ATOM     79  C   UNL A   1      49.801  26.787  25.201  1.00  0.00     0.135 A 
ATOM     80  F   UNL A   1      49.866  25.724  28.681  1.00  0.00    -0.206 F 
ATOM     81  C   UNL A   1      51.508  25.533  27.014  1.00  0.00     0.059 A 
ATOM     82  C   UNL A   1      51.061  26.374  24.779  1.00  0.00     0.059 A 
ATOM     83  F   UNL A   1      49.000  27.389  24.308  1.00  0.00    -0.206 F 
ATOM     84  C   UNL A   1      51.912  25.758  25.696  1.00  0.00     0.060 A 
BRANCH  84  85
ATOM     85  S   UNL A   1      53.555  25.210  25.186  1.00  0.00     0.124 S 
ATOM     86  O   UNL A   1      54.406  25.889  26.157  1.00  0.00    -0.237 OA
ATOM     87  O   UNL A   1      53.463  23.760  25.328  1.00  0.00    -0.237 OA
ATOM     88  O   UNL A   1      53.661  25.692  23.813  1.00  0.00    -0.744 OA
ENDBRANCH  84  85
ENDBRANCH  52  77
ENDBRANCH  26  27
ENDBRANCH  19  21
ENDBRANCH  18  19
ENDBRANCH   1  18
TORSDOF 16
ENDMDL
MODEL 2
REMARK VINA RESULT:     -11.0      1.224      1.825
REMARK SMILES C[C@@H](C(=O)OCCOC(=O)c1ccc(-c2c3nc(c(-c4c(F)cc(S(=O)(=O)[O-])cc4F)c4ccc([nH]4)c(-c4c(F)cc(S(=O)(=O)[O-])cc4F)c4nc(c(-c5c(F)cc(S(=O)(=O)[O-])cc5F)c5ccc2[nH]5)C=C4)C=C3)cc1)c1cccn(C(F)F)c1=O
REMARK SMILES IDX 7 1 6 2 5 3 3 4 4 5 2 6 1 7 77 8 78 9 85 10 79 11 81 12
REMARK SMILES IDX 86 13 80 14 82 15 83 16 84 17 8 18 9 19 10 20 11 21 12 22
REMARK SMILES IDX 76 23 13 24 75 25 14 26 15 27 16 28 69 29 17 30 74 31 68 32
REMARK SMILES IDX 70 33 18 34 73 35 67 36 66 37 19 39 53 40 32 41 52 42 33 43
REMARK SMILES IDX 36 44 51 45 71 46 34 47 35 48 50 50 72 51 37 52 20 53 21 54
REMARK SMILES IDX 30 55 22 56 23 57 29 58 31 59 24 60 25 61 26 62 27 63 28 64
REMARK SMILES IDX 54 65 55 66 64 67 56 68 57 69 63 70 65 71 58 72 59 73 60 74
REMARK SMILES IDX 61 75 62 76 38 77 39 78 48 79 40 80 41 81 47 82 49 83 42 84
REMARK SMILES IDX 43 85 44 86 45 87 46 88
REMARK H PARENT 70 38 36 49
REMARK Flexibility Score: inf
ROOT
ATOM      1  C   UNL A   1      34.507  31.624  27.715  1.00  0.00     0.275 C 
ENDROOT
BRANCH   1   2
ATOM      2  C   UNL A   1      33.121  31.166  27.271  1.00  0.00     0.274 C 
BRANCH   2   3
ATOM      3  O   UNL A   1      33.231  30.052  26.362  1.00  0.00    -0.462 OA
BRANCH   3   4
ATOM      4  C   UNL A   1      32.074  29.637  25.775  1.00  0.00     0.313 C 
ATOM      5  O   UNL A   1      31.406  30.329  25.013  1.00  0.00    -0.252 OA
BRANCH   4   6
ATOM      6  C   UNL A   1      31.622  28.259  26.266  1.00  0.00     0.132 C 
ATOM      7  C   UNL A   1      31.602  28.115  27.791  1.00  0.00     0.025 C 
BRANCH   6   8
ATOM      8  C   UNL A   1      32.375  27.173  25.512  1.00  0.00     0.032 A 
ATOM      9  C   UNL A   1      33.497  26.616  26.008  1.00  0.00     0.012 A 
ATOM     10  C   UNL A   1      31.876  26.679  24.179  1.00  0.00     0.259 A 
ATOM     11  C   UNL A   1      34.221  25.594  25.299  1.00  0.00     0.019 A 
ATOM     12  N   UNL A   1      32.657  25.732  23.538  1.00  0.00    -0.258 N 
ATOM     13  O   UNL A   1      30.818  27.097  23.719  1.00  0.00    -0.269 OA
ATOM     14  C   UNL A   1      33.805  25.202  24.092  1.00  0.00     0.095 A 
BRANCH  12  15
ATOM     15  C   UNL A   1      32.249  25.315  22.218  1.00  0.00     0.451 C 
ATOM     16  F   UNL A   1      32.861  26.106  21.298  1.00  0.00    -0.185 F 
ATOM     17  F   UNL A   1      32.669  24.046  21.974  1.00  0.00    -0.185 F 
ENDBRANCH  12  15
ENDBRANCH   6   8
ENDBRANCH   4   6
ENDBRANCH   3   4
ENDBRANCH   2   3
ENDBRANCH   1   2
BRANCH   1  18
ATOM     18  O   UNL A   1      35.211  30.501  28.266  1.00  0.00    -0.458 OA
BRANCH  18  19
ATOM     19  C   UNL A   1      36.021  30.763  29.316  1.00  0.00     0.338 C 
ATOM     20  O   UNL A   1      35.751  31.448  30.293  1.00  0.00    -0.246 OA
BRANCH  19  21
ATOM     21  C   UNL A   1      37.336  30.124  29.100  1.00  0.00     0.060 A 
ATOM     22  C   UNL A   1      38.122  29.711  30.176  1.00  0.00     0.016 A 
ATOM     23  C   UNL A   1      37.825  29.993  27.799  1.00  0.00     0.016 A 
ATOM     24  C   UNL A   1      39.422  29.254  29.958  1.00  0.00     0.010 A 
ATOM     25  C   UNL A   1      39.097  29.448  27.581  1.00  0.00     0.010 A 
ATOM     26  C   UNL A   1      39.934  29.114  28.659  1.00  0.00    -0.014 A 
BRANCH  26  27
ATOM     27  C   UNL A   1      41.350  28.686  28.438  1.00  0.00     0.031 A 
ATOM     28  C   UNL A   1      42.480  29.679  28.593  1.00  0.00     0.074 A 
ATOM     29  C   UNL A   1      41.649  27.405  28.136  1.00  0.00     0.049 A 
ATOM     30  N   UNL A   1      43.749  29.542  28.298  1.00  0.00    -0.248 NA
ATOM     31  C   UNL A   1      42.136  31.002  29.141  1.00  0.00     0.031 C 
ATOM     32  C   UNL A   1      40.680  26.315  27.994  1.00  0.00     0.029 A 
ATOM     33  N   UNL A   1      42.860  26.795  27.907  1.00  0.00    -0.354 N 
ATOM     34  C   UNL A   1      44.343  30.767  28.587  1.00  0.00     0.074 A 
ATOM     35  C   UNL A   1      43.296  31.640  29.069  1.00  0.00     0.031 C 
ATOM     36  C   UNL A   1      41.335  25.169  27.755  1.00  0.00     0.029 A 
ATOM     37  C   UNL A   1      42.761  25.451  27.630  1.00  0.00     0.049 A 
ATOM     38  H   UNL A   1      43.718  27.276  27.937  1.00  0.00     0.167 HD
ATOM     39  C   UNL A   1      45.642  31.133  28.467  1.00  0.00     0.037 A 
ATOM     40  C   UNL A   1      43.696  24.550  27.269  1.00  0.00     0.037 A 
ATOM     41  C   UNL A   1      46.700  30.261  28.031  1.00  0.00     0.049 A 
ATOM     42  C   UNL A   1      45.121  24.990  27.089  1.00  0.00     0.074 A 
ATOM     43  C   UNL A   1      48.044  30.551  27.867  1.00  0.00     0.029 A 
ATOM     44  N   UNL A   1      46.540  28.922  27.711  1.00  0.00    -0.354 N 
ATOM     45  N   UNL A   1      45.648  26.175  27.286  1.00  0.00    -0.248 NA
ATOM     46  C   UNL A   1      46.073  23.979  26.607  1.00  0.00     0.031 C 
ATOM     47  C   UNL A   1      48.691  29.395  27.418  1.00  0.00     0.029 A 
ATOM     48  C   UNL A   1      47.757  28.376  27.336  1.00  0.00     0.049 A 
ATOM     49  H   UNL A   1      45.687  28.431  27.743  1.00  0.00     0.167 HD
ATOM     50  C   UNL A   1      46.989  26.054  26.944  1.00  0.00     0.074 A 
ATOM     51  C   UNL A   1      47.201  24.675  26.557  1.00  0.00     0.031 C 
ATOM     52  C   UNL A   1      47.955  27.005  26.941  1.00  0.00     0.037 A 
BRANCH  39  53
ATOM     53  C   UNL A   1      45.991  32.561  28.784  1.00  0.00     0.058 A 
ATOM     54  C   UNL A   1      46.393  32.956  30.069  1.00  0.00     0.135 A 
ATOM     55  C   UNL A   1      45.954  33.538  27.777  1.00  0.00     0.135 A 
ATOM     56  F   UNL A   1      46.427  32.065  31.071  1.00  0.00    -0.206 F 
ATOM     57  C   UNL A   1      46.728  34.278  30.348  1.00  0.00     0.059 A 
ATOM     58  C   UNL A   1      46.304  34.860  28.029  1.00  0.00     0.059 A 
ATOM     59  F   UNL A   1      45.574  33.211  26.531  1.00  0.00    -0.206 F 
ATOM     60  C   UNL A   1      46.678  35.224  29.322  1.00  0.00     0.060 A 
BRANCH  60  61
ATOM     61  S   UNL A   1      47.118  36.935  29.696  1.00  0.00     0.124 S 
ATOM     62  O   UNL A   1      48.280  36.753  30.560  1.00  0.00    -0.237 OA
ATOM     63  O   UNL A   1      47.392  37.485  28.373  1.00  0.00    -0.237 OA
ATOM     64  O   UNL A   1      45.924  37.457  30.352  1.00  0.00    -0.744 OA
ENDBRANCH  60  61
ENDBRANCH  39  53
BRANCH  40  65
ATOM     65  C   UNL A   1      43.294  23.144  26.993  1.00  0.00     0.058 A 
ATOM     66  C   UNL A   1      43.201  22.662  25.680  1.00  0.00     0.135 A 
ATOM     67  C   UNL A   1      43.025  22.250  28.041  1.00  0.00     0.135 A 
ATOM     68  F   UNL A   1      43.431  23.484  24.644  1.00  0.00    -0.206 F 
ATOM     69  C   UNL A   1      42.862  21.339  25.414  1.00  0.00     0.059 A 
ATOM     70  C   UNL A   1      42.712  20.917  27.802  1.00  0.00     0.059 A 
ATOM     71  F   UNL A   1      43.108  22.664  29.315  1.00  0.00    -0.206 F 
ATOM     72  C   UNL A   1      42.627  20.472  26.483  1.00  0.00     0.060 A 
BRANCH  72  73
ATOM     73  S   UNL A   1      42.276  18.733  26.142  1.00  0.00     0.124 S 
ATOM     74  O   UNL A   1      42.529  18.123  27.442  1.00  0.00    -0.237 OA
ATOM     75  O   UNL A   1      40.881  18.773  25.717  1.00  0.00    -0.237 OA
ATOM     76  O   UNL A   1      43.233  18.403  25.089  1.00  0.00    -0.744 OA
ENDBRANCH  72  73
ENDBRANCH  40  65
BRANCH  52  77
ATOM     77  C   UNL A   1      49.330  26.588  26.506  1.00  0.00     0.058 A 
ATOM     78  C   UNL A   1      50.227  25.987  27.402  1.00  0.00     0.135 A 
ATOM     79  C   UNL A   1      49.742  26.756  25.175  1.00  0.00     0.135 A 
ATOM     80  F   UNL A   1      49.882  25.811  28.687  1.00  0.00    -0.206 F 
ATOM     81  C   UNL A   1      51.495  25.583  26.998  1.00  0.00     0.059 A 
ATOM     82  C   UNL A   1      51.000  26.343  24.744  1.00  0.00     0.059 A 
ATOM     83  F   UNL A   1      48.918  27.320  24.278  1.00  0.00    -0.206 F 
ATOM     84  C   UNL A   1      51.873  25.767  25.666  1.00  0.00     0.060 A 
BRANCH  84  85
ATOM     85  S   UNL A   1      53.514  25.220  25.145  1.00  0.00     0.124 S 
ATOM     86  O   UNL A   1      53.389  23.772  25.255  1.00  0.00    -0.237 OA
ATOM     87  O   UNL A   1      53.605  25.747  23.787  1.00  0.00    -0.237 OA
ATOM     88  O   UNL A   1      54.404  25.851  26.115  1.00  0.00    -0.744 OA
ENDBRANCH  84  85
ENDBRANCH  52  77
ENDBRANCH  26  27
ENDBRANCH  19  21
ENDBRANCH  18  19
ENDBRANCH   1  18
TORSDOF 16
ENDMDL
MODEL 3
REMARK VINA RESULT:     -10.7      6.926     12.327
REMARK SMILES C[C@@H](C(=O)OCCOC(=O)c1ccc(-c2c3nc(c(-c4c(F)cc(S(=O)(=O)[O-])cc4F)c4ccc([nH]4)c(-c4c(F)cc(S(=O)(=O)[O-])cc4F)c4nc(c(-c5c(F)cc(S(=O)(=O)[O-])cc5F)c5ccc2[nH]5)C=C4)C=C3)cc1)c1cccn(C(F)F)c1=O
REMARK SMILES IDX 7 1 6 2 5 3 3 4 4 5 2 6 1 7 77 8 78 9 85 10 79 11 81 12
REMARK SMILES IDX 86 13 80 14 82 15 83 16 84 17 8 18 9 19 10 20 11 21 12 22
REMARK SMILES IDX 76 23 13 24 75 25 14 26 15 27 16 28 69 29 17 30 74 31 68 32
REMARK SMILES IDX 70 33 18 34 73 35 67 36 66 37 19 39 53 40 32 41 52 42 33 43
REMARK SMILES IDX 36 44 51 45 71 46 34 47 35 48 50 50 72 51 37 52 20 53 21 54
REMARK SMILES IDX 30 55 22 56 23 57 29 58 31 59 24 60 25 61 26 62 27 63 28 64
REMARK SMILES IDX 54 65 55 66 64 67 56 68 57 69 63 70 65 71 58 72 59 73 60 74
REMARK SMILES IDX 61 75 62 76 38 77 39 78 48 79 40 80 41 81 47 82 49 83 42 84
REMARK SMILES IDX 43 85 44 86 45 87 46 88
REMARK H PARENT 70 38 36 49
REMARK Flexibility Score: inf
ROOT
ATOM      1  C   UNL A   1      38.262  23.567  25.891  1.00  0.00     0.275 C 
ENDROOT
BRANCH   1   2
ATOM      2  C   UNL A   1      37.775  22.198  25.425  1.00  0.00     0.274 C 
BRANCH   2   3
ATOM      3  O   UNL A   1      36.452  21.938  25.938  1.00  0.00    -0.462 OA
BRANCH   3   4
ATOM      4  C   UNL A   1      35.793  20.878  25.394  1.00  0.00     0.313 C 
ATOM      5  O   UNL A   1      36.351  19.881  24.946  1.00  0.00    -0.252 OA
BRANCH   4   6
ATOM      6  C   UNL A   1      34.284  21.113  25.280  1.00  0.00     0.132 C 
ATOM      7  C   UNL A   1      33.533  20.005  24.536  1.00  0.00     0.025 C 
BRANCH   6   8
ATOM      8  C   UNL A   1      34.021  22.530  24.791  1.00  0.00     0.032 A 
ATOM      9  C   UNL A   1      34.249  22.892  23.514  1.00  0.00     0.012 A 
ATOM     10  C   UNL A   1      33.484  23.578  25.731  1.00  0.00     0.259 A 
ATOM     11  C   UNL A   1      34.012  24.230  23.043  1.00  0.00     0.019 A 
ATOM     12  N   UNL A   1      33.332  24.854  25.215  1.00  0.00    -0.258 N 
ATOM     13  O   UNL A   1      33.187  23.283  26.885  1.00  0.00    -0.269 OA
ATOM     14  C   UNL A   1      33.591  25.169  23.896  1.00  0.00     0.095 A 
BRANCH  12  15
ATOM     15  C   UNL A   1      32.911  25.894  26.122  1.00  0.00     0.451 C 
ATOM     16  F   UNL A   1      33.750  26.956  25.996  1.00  0.00    -0.185 F 
ATOM     17  F   UNL A   1      31.673  26.341  25.784  1.00  0.00    -0.185 F 
ENDBRANCH  12  15
ENDBRANCH   6   8
ENDBRANCH   4   6
ENDBRANCH   3   4
ENDBRANCH   2   3
ENDBRANCH   1   2
BRANCH   1  18
ATOM     18  O   UNL A   1      39.243  23.381  26.923  1.00  0.00    -0.458 OA
BRANCH  18  19
ATOM     19  C   UNL A   1      40.358  24.140  26.827  1.00  0.00     0.338 C 
ATOM     20  O   UNL A   1      41.353  23.895  26.159  1.00  0.00    -0.246 OA
BRANCH  19  21
ATOM     21  C   UNL A   1      40.226  25.327  27.697  1.00  0.00     0.060 A 
ATOM     22  C   UNL A   1      41.053  26.439  27.531  1.00  0.00     0.016 A 
ATOM     23  C   UNL A   1      39.303  25.306  28.744  1.00  0.00     0.016 A 
ATOM     24  C   UNL A   1      41.018  27.481  28.456  1.00  0.00     0.010 A 
ATOM     25  C   UNL A   1      39.210  26.397  29.618  1.00  0.00     0.010 A 
ATOM     26  C   UNL A   1      40.099  27.481  29.516  1.00  0.00    -0.014 A 
BRANCH  26  27
ATOM     27  C   UNL A   1      40.113  28.571  30.541  1.00  0.00     0.031 A 
ATOM     28  C   UNL A   1      41.142  28.561  31.649  1.00  0.00     0.074 A 
ATOM     29  C   UNL A   1      39.240  29.598  30.474  1.00  0.00     0.049 A 
ATOM     30  N   UNL A   1      41.223  29.325  32.711  1.00  0.00    -0.248 NA
ATOM     31  C   UNL A   1      42.213  27.554  31.559  1.00  0.00     0.031 C 
ATOM     32  C   UNL A   1      38.216  29.780  29.444  1.00  0.00     0.029 A 
ATOM     33  N   UNL A   1      39.084  30.697  31.287  1.00  0.00    -0.354 N 
ATOM     34  C   UNL A   1      42.324  28.867  33.428  1.00  0.00     0.074 A 
ATOM     35  C   UNL A   1      42.874  27.752  32.690  1.00  0.00     0.031 C 
ATOM     36  C   UNL A   1      37.575  30.939  29.655  1.00  0.00     0.029 A 
ATOM     37  C   UNL A   1      38.073  31.541  30.888  1.00  0.00     0.049 A 
ATOM     38  H   UNL A   1      39.641  30.863  32.080  1.00  0.00     0.167 HD
ATOM     39  C   UNL A   1      42.835  29.333  34.594  1.00  0.00     0.037 A 
ATOM     40  C   UNL A   1      37.565  32.648  31.464  1.00  0.00     0.037 A 
ATOM     41  C   UNL A   1      42.323  30.469  35.314  1.00  0.00     0.049 A 
ATOM     42  C   UNL A   1      38.111  33.117  32.783  1.00  0.00     0.074 A 
ATOM     43  C   UNL A   1      42.771  31.003  36.511  1.00  0.00     0.029 A 
ATOM     44  N   UNL A   1      41.264  31.259  34.896  1.00  0.00    -0.354 N 
ATOM     45  N   UNL A   1      39.098  32.619  33.489  1.00  0.00    -0.248 NA
ATOM     46  C   UNL A   1      37.453  34.276  33.401  1.00  0.00     0.031 C 
ATOM     47  C   UNL A   1      41.963  32.100  36.831  1.00  0.00     0.029 A 
ATOM     48  C   UNL A   1      41.034  32.268  35.817  1.00  0.00     0.049 A 
ATOM     49  H   UNL A   1      40.750  31.123  34.068  1.00  0.00     0.167 HD
ATOM     50  C   UNL A   1      39.174  33.398  34.635  1.00  0.00     0.074 A 
ATOM     51  C   UNL A   1      38.154  34.420  34.518  1.00  0.00     0.031 C 
ATOM     52  C   UNL A   1      40.009  33.272  35.697  1.00  0.00     0.037 A 
BRANCH  39  53
ATOM     53  C   UNL A   1      43.999  28.589  35.186  1.00  0.00     0.058 A 
ATOM     54  C   UNL A   1      45.327  28.930  34.884  1.00  0.00     0.135 A 
ATOM     55  C   UNL A   1      43.780  27.540  36.094  1.00  0.00     0.135 A 
ATOM     56  F   UNL A   1      45.590  29.912  34.007  1.00  0.00    -0.206 F 
ATOM     57  C   UNL A   1      46.397  28.244  35.449  1.00  0.00     0.059 A 
ATOM     58  C   UNL A   1      44.835  26.854  36.686  1.00  0.00     0.059 A 
ATOM     59  F   UNL A   1      42.529  27.174  36.414  1.00  0.00    -0.206 F 
ATOM     60  C   UNL A   1      46.142  27.205  36.347  1.00  0.00     0.060 A 
BRANCH  60  61
ATOM     61  S   UNL A   1      47.540  26.325  37.077  1.00  0.00     0.124 S 
ATOM     62  O   UNL A   1      48.298  27.423  37.669  1.00  0.00    -0.237 OA
ATOM     63  O   UNL A   1      46.886  25.425  38.021  1.00  0.00    -0.237 OA
ATOM     64  O   UNL A   1      48.167  25.676  35.930  1.00  0.00    -0.744 OA
ENDBRANCH  60  61
ENDBRANCH  39  53
BRANCH  40  65
ATOM     65  C   UNL A   1      36.428  33.358  30.817  1.00  0.00     0.058 A 
ATOM     66  C   UNL A   1      35.128  33.266  31.333  1.00  0.00     0.135 A 
ATOM     67  C   UNL A   1      36.630  34.166  29.688  1.00  0.00     0.135 A 
ATOM     68  F   UNL A   1      34.883  32.491  32.402  1.00  0.00    -0.206 F 
ATOM     69  C   UNL A   1      34.066  33.955  30.757  1.00  0.00     0.059 A 
ATOM     70  C   UNL A   1      35.590  34.887  29.111  1.00  0.00     0.059 A 
ATOM     71  F   UNL A   1      37.857  34.292  29.161  1.00  0.00    -0.206 F 
ATOM     72  C   UNL A   1      34.310  34.771  29.650  1.00  0.00     0.060 A 
BRANCH  72  73
ATOM     73  S   UNL A   1      32.951  35.738  28.956  1.00  0.00     0.124 S 
ATOM     74  O   UNL A   1      32.345  34.778  28.041  1.00  0.00    -0.237 OA
ATOM     75  O   UNL A   1      32.168  36.072  30.142  1.00  0.00    -0.237 OA
ATOM     76  O   UNL A   1      33.635  36.866  28.330  1.00  0.00    -0.744 OA
ENDBRANCH  72  73
ENDBRANCH  40  65
BRANCH  52  77
ATOM     77  C   UNL A   1      39.854  34.260  36.815  1.00  0.00     0.058 A 
ATOM     78  C   UNL A   1      40.470  35.521  36.765  1.00  0.00     0.135 A 
ATOM     79  C   UNL A   1      39.055  33.963  37.930  1.00  0.00     0.135 A 
ATOM     80  F   UNL A   1      41.249  35.850  35.722  1.00  0.00    -0.206 F 
ATOM     81  C   UNL A   1      40.314  36.446  37.791  1.00  0.00     0.059 A 
ATOM     82  C   UNL A   1      38.871  34.880  38.960  1.00  0.00     0.059 A 
ATOM     83  F   UNL A   1      38.440  32.773  38.022  1.00  0.00    -0.206 F 
ATOM     84  C   UNL A   1      39.514  36.116  38.887  1.00  0.00     0.060 A 
BRANCH  84  85
ATOM     85  S   UNL A   1      39.300  37.331  40.205  1.00  0.00     0.124 S 
ATOM     86  O   UNL A   1      38.625  36.539  41.228  1.00  0.00    -0.237 OA
ATOM     87  O   UNL A   1      40.675  37.716  40.506  1.00  0.00    -0.237 OA
ATOM     88  O   UNL A   1      38.489  38.370  39.578  1.00  0.00    -0.744 OA
ENDBRANCH  84  85
ENDBRANCH  52  77
ENDBRANCH  26  27
ENDBRANCH  19  21
ENDBRANCH  18  19
ENDBRANCH   1  18
TORSDOF 16
ENDMDL
