MODEL 1
REMARK VINA RESULT:     -11.4      0.000      0.000
REMARK SMILES O=C(Cn1c2ccccc2c(=O)c2cc(F)ccc21)OCCOC(=O)c1ccc(-c2c3nc(c(-c4c(F)cc(S(=O)(=O)[O-])cc4F)c4ccc([nH]4)c(-c4c(F)cc(S(=O)(=O)[O-])cc4F)c4nc(c(-c5c(F)cc(S(=O)(=O)[O-])cc5F)c5ccc2[nH]5)C=C4)C=C3)cc1
REMARK SMILES IDX 22 1 21 2 20 3 2 4 1 5 3 6 4 7 5 8 19 9 6 10 10 11 13 12
REMARK SMILES IDX 18 13 7 14 9 15 11 16 14 17 17 18 8 19 12 20 15 21 16 22
REMARK SMILES IDX 23 23 24 24 25 25 26 26 27 27 91 28 28 29 90 30 29 31 30 32
REMARK SMILES IDX 31 33 84 34 32 35 89 36 83 37 85 38 33 39 88 40 82 41 81 42
REMARK SMILES IDX 34 44 68 45 47 46 67 47 48 48 51 49 66 50 86 51 49 52 50 53
REMARK SMILES IDX 65 55 87 56 52 57 35 58 36 59 45 60 37 61 38 62 44 63 46 64
REMARK SMILES IDX 39 65 40 66 41 67 42 68 43 69 69 70 70 71 79 72 71 73 72 74
REMARK SMILES IDX 78 75 80 76 73 77 74 78 75 79 76 80 77 81 53 82 54 83 63 84
REMARK SMILES IDX 55 85 56 86 62 87 64 88 57 89 58 90 59 91 60 92 61 93
REMARK H PARENT 85 43 51 54
REMARK Flexibility Score: inf
ROOT
ATOM      1  C   UNL A   1      33.268  29.188  26.434  1.00  0.00     0.275 C 
ENDROOT
BRANCH   1   2
ATOM      2  C   UNL A   1      34.055  28.144  25.641  1.00  0.00     0.274 C 
BRANCH   2   3
ATOM      3  O   UNL A   1      33.712  26.811  26.084  1.00  0.00    -0.461 OA
BRANCH   3   4
ATOM      4  C   UNL A   1      33.971  25.663  25.408  1.00  0.00     0.326 C 
ATOM      5  O   UNL A   1      34.156  25.706  24.191  1.00  0.00    -0.250 OA
BRANCH   4   6
ATOM      6  C   UNL A   1      34.015  24.355  26.160  1.00  0.00     0.245 C 
BRANCH   6   7
ATOM      7  N   UNL A   1      34.836  23.198  25.696  1.00  0.00    -0.329 N 
ATOM      8  C   UNL A   1      36.243  23.123  25.760  1.00  0.00     0.053 A 
ATOM      9  C   UNL A   1      34.035  22.046  25.359  1.00  0.00     0.053 A 
ATOM     10  C   UNL A   1      37.112  24.193  26.015  1.00  0.00     0.027 A 
ATOM     11  C   UNL A   1      36.886  21.883  25.564  1.00  0.00     0.046 A 
ATOM     12  C   UNL A   1      34.656  20.841  24.978  1.00  0.00     0.049 A 
ATOM     13  C   UNL A   1      32.625  22.023  25.400  1.00  0.00     0.030 A 
ATOM     14  C   UNL A   1      38.485  24.018  26.254  1.00  0.00     0.002 A 
ATOM     15  C   UNL A   1      38.262  21.693  25.793  1.00  0.00     0.014 A 
ATOM     16  C   UNL A   1      36.116  20.723  25.085  1.00  0.00     0.197 A 
ATOM     17  C   UNL A   1      33.930  19.709  24.578  1.00  0.00     0.053 A 
ATOM     18  C   UNL A   1      31.894  20.873  25.062  1.00  0.00     0.041 A 
ATOM     19  C   UNL A   1      39.056  22.760  26.177  1.00  0.00     0.001 A 
ATOM     20  O   UNL A   1      36.682  19.669  24.812  1.00  0.00    -0.288 OA
ATOM     21  C   UNL A   1      32.551  19.739  24.625  1.00  0.00     0.124 A 
ATOM     22  F   UNL A   1      31.846  18.655  24.285  1.00  0.00    -0.207 F 
ENDBRANCH   6   7
ENDBRANCH   4   6
ENDBRANCH   3   4
ENDBRANCH   2   3
ENDBRANCH   1   2
BRANCH   1  23
ATOM     23  O   UNL A   1      33.812  29.289  27.761  1.00  0.00    -0.458 OA
BRANCH  23  24
ATOM     24  C   UNL A   1      34.585  30.375  28.011  1.00  0.00     0.338 C 
ATOM     25  O   UNL A   1      34.198  31.514  28.200  1.00  0.00    -0.246 OA
BRANCH  24  26
ATOM     26  C   UNL A   1      35.973  29.916  28.257  1.00  0.00     0.060 A 
ATOM     27  C   UNL A   1      36.904  29.811  27.218  1.00  0.00     0.016 A 
ATOM     28  C   UNL A   1      36.322  29.520  29.555  1.00  0.00     0.016 A 
ATOM     29  C   UNL A   1      38.185  29.326  27.483  1.00  0.00     0.010 A 
ATOM     30  C   UNL A   1      37.610  29.043  29.821  1.00  0.00     0.010 A 
ATOM     31  C   UNL A   1      38.554  28.956  28.789  1.00  0.00    -0.014 A 
BRANCH  31  32
ATOM     32  C   UNL A   1      39.977  28.666  29.080  1.00  0.00     0.031 A 
ATOM     33  C   UNL A   1      40.587  27.319  28.852  1.00  0.00     0.074 A 
ATOM     34  C   UNL A   1      40.743  29.682  29.519  1.00  0.00     0.049 A 
ATOM     35  N   UNL A   1      41.855  27.003  28.778  1.00  0.00    -0.248 NA
ATOM     36  C   UNL A   1      39.673  26.188  28.658  1.00  0.00     0.031 C 
ATOM     37  C   UNL A   1      40.256  31.032  29.813  1.00  0.00     0.029 A 
ATOM     38  N   UNL A   1      42.084  29.743  29.786  1.00  0.00    -0.354 N 
ATOM     39  C   UNL A   1      41.891  25.661  28.426  1.00  0.00     0.074 A 
ATOM     40  C   UNL A   1      40.518  25.205  28.366  1.00  0.00     0.031 C 
ATOM     41  C   UNL A   1      41.287  31.791  30.213  1.00  0.00     0.029 A 
ATOM     42  C   UNL A   1      42.501  30.979  30.212  1.00  0.00     0.049 A 
ATOM     43  H   UNL A   1      42.690  28.975  29.683  1.00  0.00     0.167 HD
ATOM     44  C   UNL A   1      42.974  24.893  28.160  1.00  0.00     0.037 A 
ATOM     45  C   UNL A   1      43.726  31.414  30.562  1.00  0.00     0.037 A 
ATOM     46  C   UNL A   1      44.336  25.318  28.363  1.00  0.00     0.049 A 
ATOM     47  C   UNL A   1      44.897  30.484  30.438  1.00  0.00     0.074 A 
ATOM     48  C   UNL A   1      45.504  24.612  28.129  1.00  0.00     0.029 A 
ATOM     49  N   UNL A   1      44.711  26.537  28.910  1.00  0.00    -0.354 N 
ATOM     50  N   UNL A   1      44.929  29.263  29.960  1.00  0.00    -0.248 NA
ATOM     51  C   UNL A   1      46.197  30.989  30.895  1.00  0.00     0.031 C 
ATOM     52  C   UNL A   1      46.578  25.375  28.604  1.00  0.00     0.029 A 
ATOM     53  C   UNL A   1      46.085  26.577  29.083  1.00  0.00     0.049 A 
ATOM     54  H   UNL A   1      44.092  27.266  29.142  1.00  0.00     0.167 HD
ATOM     55  C   UNL A   1      46.256  28.859  30.041  1.00  0.00     0.074 A 
ATOM     56  C   UNL A   1      46.995  29.970  30.607  1.00  0.00     0.031 C 
ATOM     57  C   UNL A   1      46.809  27.677  29.673  1.00  0.00     0.037 A 
BRANCH  44  58
ATOM     58  C   UNL A   1      42.737  23.512  27.622  1.00  0.00     0.058 A 
ATOM     59  C   UNL A   1      42.733  23.276  26.237  1.00  0.00     0.135 A 
ATOM     60  C   UNL A   1      42.601  22.409  28.477  1.00  0.00     0.135 A 
ATOM     61  F   UNL A   1      42.856  24.300  25.377  1.00  0.00    -0.206 F 
ATOM     62  C   UNL A   1      42.602  21.991  25.718  1.00  0.00     0.059 A 
ATOM     63  C   UNL A   1      42.482  21.114  27.981  1.00  0.00     0.059 A 
ATOM     64  F   UNL A   1      42.593  22.585  29.807  1.00  0.00    -0.206 F 
ATOM     65  C   UNL A   1      42.481  20.915  26.600  1.00  0.00     0.060 A 
BRANCH  65  66
ATOM     66  S   UNL A   1      42.342  19.250  25.913  1.00  0.00     0.124 S 
ATOM     67  O   UNL A   1      42.817  18.433  27.027  1.00  0.00    -0.237 OA
ATOM     68  O   UNL A   1      40.916  19.153  25.619  1.00  0.00    -0.237 OA
ATOM     69  O   UNL A   1      43.219  19.288  24.748  1.00  0.00    -0.744 OA
ENDBRANCH  65  66
ENDBRANCH  44  58
BRANCH  45  70
ATOM     70  C   UNL A   1      43.887  32.805  31.049  1.00  0.00     0.058 A 
ATOM     71  C   UNL A   1      44.035  33.873  30.154  1.00  0.00     0.135 A 
ATOM     72  C   UNL A   1      43.839  33.097  32.422  1.00  0.00     0.135 A 
ATOM     73  F   UNL A   1      44.087  33.641  28.835  1.00  0.00    -0.206 F 
ATOM     74  C   UNL A   1      44.128  35.186  30.603  1.00  0.00     0.059 A 
ATOM     75  C   UNL A   1      43.908  34.402  32.893  1.00  0.00     0.059 A 
ATOM     76  F   UNL A   1      43.681  32.106  33.314  1.00  0.00    -0.206 F 
ATOM     77  C   UNL A   1      44.056  35.440  31.975  1.00  0.00     0.060 A 
BRANCH  77  78
ATOM     78  S   UNL A   1      44.103  37.154  32.541  1.00  0.00     0.124 S 
ATOM     79  O   UNL A   1      43.017  37.171  33.514  1.00  0.00    -0.237 OA
ATOM     80  O   UNL A   1      45.453  37.257  33.088  1.00  0.00    -0.237 OA
ATOM     81  O   UNL A   1      43.869  37.918  31.319  1.00  0.00    -0.744 OA
ENDBRANCH  77  78
ENDBRANCH  45  70
BRANCH  57  82
ATOM     82  C   UNL A   1      48.288  27.513  29.883  1.00  0.00     0.058 A 
ATOM     83  C   UNL A   1      48.798  26.881  31.029  1.00  0.00     0.135 A 
ATOM     84  C   UNL A   1      49.203  27.942  28.908  1.00  0.00     0.135 A 
ATOM     85  F   UNL A   1      47.966  26.463  31.995  1.00  0.00    -0.206 F 
ATOM     86  C   UNL A   1      50.164  26.695  31.208  1.00  0.00     0.059 A 
ATOM     87  C   UNL A   1      50.573  27.742  29.055  1.00  0.00     0.059 A 
ATOM     88  F   UNL A   1      48.768  28.546  27.791  1.00  0.00    -0.206 F 
ATOM     89  C   UNL A   1      51.044  27.126  30.213  1.00  0.00     0.060 A 
BRANCH  89  90
ATOM     90  S   UNL A   1      52.812  26.841  30.441  1.00  0.00     0.124 S 
ATOM     91  O   UNL A   1      52.813  25.780  31.442  1.00  0.00    -0.237 OA
ATOM     92  O   UNL A   1      53.240  26.448  29.101  1.00  0.00    -0.237 OA
ATOM     93  O   UNL A   1      53.310  28.135  30.897  1.00  0.00    -0.744 OA
ENDBRANCH  89  90
ENDBRANCH  57  82
ENDBRANCH  31  32
ENDBRANCH  24  26
ENDBRANCH  23  24
ENDBRANCH   1  23
TORSDOF 15
ENDMDL
MODEL 2
REMARK VINA RESULT:     -11.1      2.665      8.449
REMARK SMILES O=C(Cn1c2ccccc2c(=O)c2cc(F)ccc21)OCCOC(=O)c1ccc(-c2c3nc(c(-c4c(F)cc(S(=O)(=O)[O-])cc4F)c4ccc([nH]4)c(-c4c(F)cc(S(=O)(=O)[O-])cc4F)c4nc(c(-c5c(F)cc(S(=O)(=O)[O-])cc5F)c5ccc2[nH]5)C=C4)C=C3)cc1
REMARK SMILES IDX 22 1 21 2 20 3 2 4 1 5 3 6 4 7 5 8 19 9 6 10 10 11 13 12
REMARK SMILES IDX 18 13 7 14 9 15 11 16 14 17 17 18 8 19 12 20 15 21 16 22
REMARK SMILES IDX 23 23 24 24 25 25 26 26 27 27 91 28 28 29 90 30 29 31 30 32
REMARK SMILES IDX 31 33 84 34 32 35 89 36 83 37 85 38 33 39 88 40 82 41 81 42
REMARK SMILES IDX 34 44 68 45 47 46 67 47 48 48 51 49 66 50 86 51 49 52 50 53
REMARK SMILES IDX 65 55 87 56 52 57 35 58 36 59 45 60 37 61 38 62 44 63 46 64
REMARK SMILES IDX 39 65 40 66 41 67 42 68 43 69 69 70 70 71 79 72 71 73 72 74
REMARK SMILES IDX 78 75 80 76 73 77 74 78 75 79 76 80 77 81 53 82 54 83 63 84
REMARK SMILES IDX 55 85 56 86 62 87 64 88 57 89 58 90 59 91 60 92 61 93
REMARK H PARENT 85 43 51 54
REMARK Flexibility Score: inf
ROOT
ATOM      1  C   UNL A   1      33.571  29.049  25.727  1.00  0.00     0.275 C 
ENDROOT
BRANCH   1   2
ATOM      2  C   UNL A   1      32.987  27.661  25.466  1.00  0.00     0.274 C 
BRANCH   2   3
ATOM      3  O   UNL A   1      33.928  26.636  25.862  1.00  0.00    -0.461 OA
BRANCH   3   4
ATOM      4  C   UNL A   1      34.078  25.427  25.264  1.00  0.00     0.326 C 
ATOM      5  O   UNL A   1      34.066  25.356  24.034  1.00  0.00    -0.250 OA
BRANCH   4   6
ATOM      6  C   UNL A   1      34.246  24.194  26.118  1.00  0.00     0.245 C 
BRANCH   6   7
ATOM      7  N   UNL A   1      35.083  23.036  25.685  1.00  0.00    -0.329 N 
ATOM      8  C   UNL A   1      36.487  22.964  25.793  1.00  0.00     0.053 A 
ATOM      9  C   UNL A   1      34.295  21.881  25.332  1.00  0.00     0.053 A 
ATOM     10  C   UNL A   1      37.346  24.038  26.069  1.00  0.00     0.027 A 
ATOM     11  C   UNL A   1      37.138  21.724  25.625  1.00  0.00     0.046 A 
ATOM     12  C   UNL A   1      34.929  20.675  24.977  1.00  0.00     0.049 A 
ATOM     13  C   UNL A   1      32.884  21.855  25.330  1.00  0.00     0.030 A 
ATOM     14  C   UNL A   1      38.711  23.867  26.350  1.00  0.00     0.002 A 
ATOM     15  C   UNL A   1      38.506  21.539  25.898  1.00  0.00     0.014 A 
ATOM     16  C   UNL A   1      36.385  20.560  25.130  1.00  0.00     0.197 A 
ATOM     17  C   UNL A   1      34.217  19.539  24.562  1.00  0.00     0.053 A 
ATOM     18  C   UNL A   1      32.165  20.702  24.977  1.00  0.00     0.041 A 
ATOM     19  C   UNL A   1      39.287  22.610  26.299  1.00  0.00     0.001 A 
ATOM     20  O   UNL A   1      36.961  19.505  24.881  1.00  0.00    -0.288 OA
ATOM     21  C   UNL A   1      32.838  19.566  24.567  1.00  0.00     0.124 A 
ATOM     22  F   UNL A   1      32.145  18.479  24.212  1.00  0.00    -0.207 F 
ENDBRANCH   6   7
ENDBRANCH   4   6
ENDBRANCH   3   4
ENDBRANCH   2   3
ENDBRANCH   1   2
BRANCH   1  23
ATOM     23  O   UNL A   1      33.870  29.186  27.126  1.00  0.00    -0.458 OA
BRANCH  23  24
ATOM     24  C   UNL A   1      34.474  30.343  27.499  1.00  0.00     0.338 C 
ATOM     25  O   UNL A   1      33.955  31.442  27.572  1.00  0.00    -0.246 OA
BRANCH  24  26
ATOM     26  C   UNL A   1      35.816  30.018  28.041  1.00  0.00     0.060 A 
ATOM     27  C   UNL A   1      36.969  30.142  27.259  1.00  0.00     0.016 A 
ATOM     28  C   UNL A   1      35.903  29.515  29.346  1.00  0.00     0.016 A 
ATOM     29  C   UNL A   1      38.207  29.777  27.790  1.00  0.00     0.010 A 
ATOM     30  C   UNL A   1      37.145  29.159  29.879  1.00  0.00     0.010 A 
ATOM     31  C   UNL A   1      38.307  29.301  29.109  1.00  0.00    -0.014 A 
BRANCH  31  32
ATOM     32  C   UNL A   1      39.649  29.142  29.717  1.00  0.00     0.031 A 
ATOM     33  C   UNL A   1      40.144  30.025  30.819  1.00  0.00     0.074 A 
ATOM     34  C   UNL A   1      40.415  28.126  29.278  1.00  0.00     0.049 A 
ATOM     35  N   UNL A   1      41.147  29.824  31.633  1.00  0.00    -0.248 NA
ATOM     36  C   UNL A   1      39.414  31.276  31.060  1.00  0.00     0.031 C 
ATOM     37  C   UNL A   1      40.058  27.219  28.185  1.00  0.00     0.029 A 
ATOM     38  N   UNL A   1      41.640  27.683  29.697  1.00  0.00    -0.354 N 
ATOM     39  C   UNL A   1      41.109  30.866  32.549  1.00  0.00     0.074 A 
ATOM     40  C   UNL A   1      40.022  31.736  32.150  1.00  0.00     0.031 C 
ATOM     41  C   UNL A   1      41.040  26.319  28.025  1.00  0.00     0.029 A 
ATOM     42  C   UNL A   1      42.097  26.595  28.995  1.00  0.00     0.049 A 
ATOM     43  H   UNL A   1      42.145  28.102  30.430  1.00  0.00     0.167 HD
ATOM     44  C   UNL A   1      41.899  31.062  33.630  1.00  0.00     0.037 A 
ATOM     45  C   UNL A   1      43.238  25.893  29.120  1.00  0.00     0.037 A 
ATOM     46  C   UNL A   1      43.065  30.272  33.933  1.00  0.00     0.049 A 
ATOM     47  C   UNL A   1      44.200  26.246  30.216  1.00  0.00     0.074 A 
ATOM     48  C   UNL A   1      43.936  30.393  35.003  1.00  0.00     0.029 A 
ATOM     49  N   UNL A   1      43.561  29.254  33.130  1.00  0.00    -0.354 N 
ATOM     50  N   UNL A   1      44.071  27.142  31.165  1.00  0.00    -0.248 NA
ATOM     51  C   UNL A   1      45.458  25.491  30.264  1.00  0.00     0.031 C 
ATOM     52  C   UNL A   1      44.997  29.500  34.806  1.00  0.00     0.029 A 
ATOM     53  C   UNL A   1      44.759  28.785  33.644  1.00  0.00     0.049 A 
ATOM     54  H   UNL A   1      43.127  28.915  32.315  1.00  0.00     0.167 HD
ATOM     55  C   UNL A   1      45.224  27.048  31.935  1.00  0.00     0.074 A 
ATOM     56  C   UNL A   1      46.034  26.000  31.346  1.00  0.00     0.031 C 
ATOM     57  C   UNL A   1      45.573  27.761  33.035  1.00  0.00     0.037 A 
BRANCH  44  58
ATOM     58  C   UNL A   1      41.536  32.175  34.570  1.00  0.00     0.058 A 
ATOM     59  C   UNL A   1      42.048  33.469  34.378  1.00  0.00     0.135 A 
ATOM     60  C   UNL A   1      40.614  31.980  35.608  1.00  0.00     0.135 A 
ATOM     61  F   UNL A   1      42.937  33.705  33.400  1.00  0.00    -0.206 F 
ATOM     62  C   UNL A   1      41.657  34.533  35.185  1.00  0.00     0.059 A 
ATOM     63  C   UNL A   1      40.198  33.032  36.419  1.00  0.00     0.059 A 
ATOM     64  F   UNL A   1      40.101  30.761  35.834  1.00  0.00    -0.206 F 
ATOM     65  C   UNL A   1      40.727  34.305  36.202  1.00  0.00     0.060 A 
BRANCH  65  66
ATOM     66  S   UNL A   1      40.206  35.702  37.222  1.00  0.00     0.124 S 
ATOM     67  O   UNL A   1      41.451  36.045  37.904  1.00  0.00    -0.237 OA
ATOM     68  O   UNL A   1      39.744  36.660  36.224  1.00  0.00    -0.237 OA
ATOM     69  O   UNL A   1      39.165  35.134  38.072  1.00  0.00    -0.744 OA
ENDBRANCH  65  66
ENDBRANCH  44  58
BRANCH  45  70
ATOM     70  C   UNL A   1      43.510  24.781  28.177  1.00  0.00     0.058 A 
ATOM     71  C   UNL A   1      42.984  23.501  28.396  1.00  0.00     0.135 A 
ATOM     72  C   UNL A   1      44.256  24.997  27.007  1.00  0.00     0.135 A 
ATOM     73  F   UNL A   1      42.267  23.250  29.500  1.00  0.00    -0.206 F 
ATOM     74  C   UNL A   1      43.187  22.471  27.485  1.00  0.00     0.059 A 
ATOM     75  C   UNL A   1      44.453  23.988  26.072  1.00  0.00     0.059 A 
ATOM     76  F   UNL A   1      44.764  26.212  26.748  1.00  0.00    -0.206 F 
ATOM     77  C   UNL A   1      43.917  22.727  26.322  1.00  0.00     0.060 A 
BRANCH  77  78
ATOM     78  S   UNL A   1      44.110  21.401  25.112  1.00  0.00     0.124 S 
ATOM     79  O   UNL A   1      45.414  20.859  25.476  1.00  0.00    -0.237 OA
ATOM     80  O   UNL A   1      42.960  20.550  25.406  1.00  0.00    -0.237 OA
ATOM     81  O   UNL A   1      44.051  22.102  23.833  1.00  0.00    -0.744 OA
ENDBRANCH  77  78
ENDBRANCH  45  70
BRANCH  57  82
ATOM     82  C   UNL A   1      46.898  27.445  33.669  1.00  0.00     0.058 A 
ATOM     83  C   UNL A   1      48.063  28.143  33.314  1.00  0.00     0.135 A 
ATOM     84  C   UNL A   1      46.997  26.474  34.678  1.00  0.00     0.135 A 
ATOM     85  F   UNL A   1      48.024  29.073  32.347  1.00  0.00    -0.206 F 
ATOM     86  C   UNL A   1      49.283  27.879  33.926  1.00  0.00     0.059 A 
ATOM     87  C   UNL A   1      48.203  26.211  35.322  1.00  0.00     0.059 A 
ATOM     88  F   UNL A   1      45.912  25.782  35.060  1.00  0.00    -0.206 F 
ATOM     89  C   UNL A   1      49.343  26.913  34.932  1.00  0.00     0.060 A 
BRANCH  89  90
ATOM     90  S   UNL A   1      50.925  26.608  35.746  1.00  0.00     0.124 S 
ATOM     91  O   UNL A   1      51.827  26.496  34.604  1.00  0.00    -0.237 OA
ATOM     92  O   UNL A   1      51.089  27.805  36.567  1.00  0.00    -0.237 OA
ATOM     93  O   UNL A   1      50.695  25.373  36.488  1.00  0.00    -0.744 OA
ENDBRANCH  89  90
ENDBRANCH  57  82
ENDBRANCH  31  32
ENDBRANCH  24  26
ENDBRANCH  23  24
ENDBRANCH   1  23
TORSDOF 15
ENDMDL
MODEL 3
REMARK VINA RESULT:     -11.1      3.650      9.724
REMARK SMILES O=C(Cn1c2ccccc2c(=O)c2cc(F)ccc21)OCCOC(=O)c1ccc(-c2c3nc(c(-c4c(F)cc(S(=O)(=O)[O-])cc4F)c4ccc([nH]4)c(-c4c(F)cc(S(=O)(=O)[O-])cc4F)c4nc(c(-c5c(F)cc(S(=O)(=O)[O-])cc5F)c5ccc2[nH]5)C=C4)C=C3)cc1
REMARK SMILES IDX 22 1 21 2 20 3 2 4 1 5 3 6 4 7 5 8 19 9 6 10 10 11 13 12
REMARK SMILES IDX 18 13 7 14 9 15 11 16 14 17 17 18 8 19 12 20 15 21 16 22
REMARK SMILES IDX 23 23 24 24 25 25 26 26 27 27 91 28 28 29 90 30 29 31 30 32
REMARK SMILES IDX 31 33 84 34 32 35 89 36 83 37 85 38 33 39 88 40 82 41 81 42
REMARK SMILES IDX 34 44 68 45 47 46 67 47 48 48 51 49 66 50 86 51 49 52 50 53
REMARK SMILES IDX 65 55 87 56 52 57 35 58 36 59 45 60 37 61 38 62 44 63 46 64
REMARK SMILES IDX 39 65 40 66 41 67 42 68 43 69 69 70 70 71 79 72 71 73 72 74
REMARK SMILES IDX 78 75 80 76 73 77 74 78 75 79 76 80 77 81 53 82 54 83 63 84
REMARK SMILES IDX 55 85 56 86 62 87 64 88 57 89 58 90 59 91 60 92 61 93
REMARK H PARENT 85 43 51 54
REMARK Flexibility Score: inf
ROOT
ATOM      1  C   UNL A   1      36.296  23.553  25.631  1.00  0.00     0.275 C 
ENDROOT
BRANCH   1   2
ATOM      2  C   UNL A   1      35.297  24.229  24.692  1.00  0.00     0.274 C 
BRANCH   2   3
ATOM      3  O   UNL A   1      33.970  24.201  25.264  1.00  0.00    -0.461 OA
BRANCH   3   4
ATOM      4  C   UNL A   1      33.205  25.288  25.540  1.00  0.00     0.326 C 
ATOM      5  O   UNL A   1      32.302  25.196  26.373  1.00  0.00    -0.250 OA
BRANCH   4   6
ATOM      6  C   UNL A   1      33.468  26.583  24.812  1.00  0.00     0.245 C 
BRANCH   6   7
ATOM      7  N   UNL A   1      32.825  27.868  25.218  1.00  0.00    -0.329 N 
ATOM      8  C   UNL A   1      33.347  28.774  26.164  1.00  0.00     0.053 A 
ATOM      9  C   UNL A   1      31.700  28.215  24.384  1.00  0.00     0.053 A 
ATOM     10  C   UNL A   1      34.393  28.513  27.062  1.00  0.00     0.027 A 
ATOM     11  C   UNL A   1      32.811  30.075  26.255  1.00  0.00     0.046 A 
ATOM     12  C   UNL A   1      31.027  29.436  24.579  1.00  0.00     0.049 A 
ATOM     13  C   UNL A   1      31.212  27.406  23.336  1.00  0.00     0.030 A 
ATOM     14  C   UNL A   1      34.990  29.514  27.845  1.00  0.00     0.002 A 
ATOM     15  C   UNL A   1      33.396  31.087  27.039  1.00  0.00     0.014 A 
ATOM     16  C   UNL A   1      31.581  30.416  25.522  1.00  0.00     0.197 A 
ATOM     17  C   UNL A   1      29.888  29.798  23.843  1.00  0.00     0.053 A 
ATOM     18  C   UNL A   1      30.111  27.792  22.554  1.00  0.00     0.041 A 
ATOM     19  C   UNL A   1      34.514  30.813  27.808  1.00  0.00     0.001 A 
ATOM     20  O   UNL A   1      31.048  31.511  25.674  1.00  0.00    -0.288 OA
ATOM     21  C   UNL A   1      29.442  28.968  22.835  1.00  0.00     0.124 A 
ATOM     22  F   UNL A   1      28.382  29.318  22.099  1.00  0.00    -0.207 F 
ENDBRANCH   6   7
ENDBRANCH   4   6
ENDBRANCH   3   4
ENDBRANCH   2   3
ENDBRANCH   1   2
BRANCH   1  23
ATOM     23  O   UNL A   1      37.611  24.082  25.390  1.00  0.00    -0.458 OA
BRANCH  23  24
ATOM     24  C   UNL A   1      38.605  23.599  26.177  1.00  0.00     0.338 C 
ATOM     25  O   UNL A   1      39.097  22.486  26.126  1.00  0.00    -0.246 OA
BRANCH  24  26
ATOM     26  C   UNL A   1      39.170  24.723  26.961  1.00  0.00     0.060 A 
ATOM     27  C   UNL A   1      40.122  25.591  26.415  1.00  0.00     0.016 A 
ATOM     28  C   UNL A   1      38.778  24.864  28.300  1.00  0.00     0.016 A 
ATOM     29  C   UNL A   1      40.667  26.604  27.203  1.00  0.00     0.010 A 
ATOM     30  C   UNL A   1      39.318  25.887  29.085  1.00  0.00     0.010 A 
ATOM     31  C   UNL A   1      40.256  26.773  28.537  1.00  0.00    -0.014 A 
BRANCH  31  32
ATOM     32  C   UNL A   1      40.677  27.989  29.272  1.00  0.00     0.031 A 
ATOM     33  C   UNL A   1      39.843  29.231  29.317  1.00  0.00     0.074 A 
ATOM     34  C   UNL A   1      41.833  27.933  29.959  1.00  0.00     0.049 A 
ATOM     35  N   UNL A   1      39.935  30.241  30.143  1.00  0.00    -0.248 NA
ATOM     36  C   UNL A   1      38.758  29.351  28.337  1.00  0.00     0.031 C 
ATOM     37  C   UNL A   1      42.750  26.791  29.964  1.00  0.00     0.029 A 
ATOM     38  N   UNL A   1      42.429  28.847  30.784  1.00  0.00    -0.354 N 
ATOM     39  C   UNL A   1      38.858  31.068  29.852  1.00  0.00     0.074 A 
ATOM     40  C   UNL A   1      38.164  30.474  28.729  1.00  0.00     0.031 C 
ATOM     41  C   UNL A   1      43.791  27.070  30.763  1.00  0.00     0.029 A 
ATOM     42  C   UNL A   1      43.618  28.411  31.315  1.00  0.00     0.049 A 
ATOM     43  H   UNL A   1      42.043  29.731  30.979  1.00  0.00     0.167 HD
ATOM     44  C   UNL A   1      38.481  32.205  30.482  1.00  0.00     0.037 A 
ATOM     45  C   UNL A   1      44.474  29.021  32.156  1.00  0.00     0.037 A 
ATOM     46  C   UNL A   1      39.259  32.861  31.502  1.00  0.00     0.049 A 
ATOM     47  C   UNL A   1      44.125  30.374  32.702  1.00  0.00     0.074 A 
ATOM     48  C   UNL A   1      38.966  34.021  32.199  1.00  0.00     0.029 A 
ATOM     49  N   UNL A   1      40.515  32.450  31.926  1.00  0.00    -0.354 N 
ATOM     50  N   UNL A   1      43.029  31.072  32.529  1.00  0.00    -0.248 NA
ATOM     51  C   UNL A   1      45.125  31.020  33.562  1.00  0.00     0.031 C 
ATOM     52  C   UNL A   1      40.076  34.351  32.986  1.00  0.00     0.029 A 
ATOM     53  C   UNL A   1      41.038  33.368  32.822  1.00  0.00     0.049 A 
ATOM     54  H   UNL A   1      40.969  31.628  31.632  1.00  0.00     0.167 HD
ATOM     55  C   UNL A   1      43.198  32.234  33.273  1.00  0.00     0.074 A 
ATOM     56  C   UNL A   1      44.499  32.138  33.904  1.00  0.00     0.031 C 
ATOM     57  C   UNL A   1      42.346  33.278  33.424  1.00  0.00     0.037 A 
BRANCH  44  58
ATOM     58  C   UNL A   1      37.169  32.819  30.090  1.00  0.00     0.058 A 
ATOM     59  C   UNL A   1      36.008  32.567  30.841  1.00  0.00     0.135 A 
ATOM     60  C   UNL A   1      37.077  33.725  29.023  1.00  0.00     0.135 A 
ATOM     61  F   UNL A   1      36.044  31.703  31.868  1.00  0.00    -0.206 F 
ATOM     62  C   UNL A   1      34.801  33.193  30.547  1.00  0.00     0.059 A 
ATOM     63  C   UNL A   1      35.884  34.374  28.719  1.00  0.00     0.059 A 
ATOM     64  F   UNL A   1      38.157  33.995  28.274  1.00  0.00    -0.206 F 
ATOM     65  C   UNL A   1      34.750  34.100  29.485  1.00  0.00     0.060 A 
BRANCH  65  66
ATOM     66  S   UNL A   1      33.183  34.928  29.134  1.00  0.00     0.124 S 
ATOM     67  O   UNL A   1      33.642  36.220  28.633  1.00  0.00    -0.237 OA
ATOM     68  O   UNL A   1      32.578  34.042  28.145  1.00  0.00    -0.237 OA
ATOM     69  O   UNL A   1      32.518  34.962  30.432  1.00  0.00    -0.744 OA
ENDBRANCH  65  66
ENDBRANCH  44  58
BRANCH  45  70
ATOM     70  C   UNL A   1      45.734  28.334  32.528  1.00  0.00     0.058 A 
ATOM     71  C   UNL A   1      45.799  27.499  33.651  1.00  0.00     0.135 A 
ATOM     72  C   UNL A   1      46.883  28.456  31.730  1.00  0.00     0.135 A 
ATOM     73  F   UNL A   1      44.726  27.354  34.442  1.00  0.00    -0.206 F 
ATOM     74  C   UNL A   1      46.961  26.807  33.972  1.00  0.00     0.059 A 
ATOM     75  C   UNL A   1      48.049  27.758  32.018  1.00  0.00     0.059 A 
ATOM     76  F   UNL A   1      46.861  29.231  30.634  1.00  0.00    -0.206 F 
ATOM     77  C   UNL A   1      48.079  26.937  33.144  1.00  0.00     0.060 A 
BRANCH  77  78
ATOM     78  S   UNL A   1      49.558  25.975  33.529  1.00  0.00     0.124 S 
ATOM     79  O   UNL A   1      49.696  26.211  34.961  1.00  0.00    -0.237 OA
ATOM     80  O   UNL A   1      49.154  24.627  33.139  1.00  0.00    -0.237 OA
ATOM     81  O   UNL A   1      50.582  26.583  32.685  1.00  0.00    -0.744 OA
ENDBRANCH  77  78
ENDBRANCH  45  70
BRANCH  57  82
ATOM     82  C   UNL A   1      42.799  34.417  34.294  1.00  0.00     0.058 A 
ATOM     83  C   UNL A   1      42.581  34.407  35.682  1.00  0.00     0.135 A 
ATOM     84  C   UNL A   1      43.503  35.501  33.749  1.00  0.00     0.135 A 
ATOM     85  F   UNL A   1      41.904  33.398  36.251  1.00  0.00    -0.206 F 
ATOM     86  C   UNL A   1      43.032  35.441  36.495  1.00  0.00     0.059 A 
ATOM     87  C   UNL A   1      43.986  36.534  34.547  1.00  0.00     0.059 A 
ATOM     88  F   UNL A   1      43.744  35.556  32.429  1.00  0.00    -0.206 F 
ATOM     89  C   UNL A   1      43.738  36.499  35.919  1.00  0.00     0.060 A 
BRANCH  89  90
ATOM     90  S   UNL A   1      44.352  37.814  36.992  1.00  0.00     0.124 S 
ATOM     91  O   UNL A   1      43.321  37.859  38.023  1.00  0.00    -0.237 OA
ATOM     92  O   UNL A   1      45.649  37.291  37.415  1.00  0.00    -0.237 OA
ATOM     93  O   UNL A   1      44.409  38.975  36.110  1.00  0.00    -0.744 OA
ENDBRANCH  89  90
ENDBRANCH  57  82
ENDBRANCH  31  32
ENDBRANCH  24  26
ENDBRANCH  23  24
ENDBRANCH   1  23
TORSDOF 15
ENDMDL
