MODEL 1
REMARK VINA RESULT:     -11.8      0.000      0.000
REMARK SMILES COc1ccc2[nH]c(C(=O)c3cc(C)ccn3)c(CC(=O)OCCOC(=O)c3ccc(-c4c5nc(c(-c6c(F)cc(S(=O)(=O)[O-])cc6F)c6ccc([nH]6)c(-c6c(F)cc(S(=O)(=O)[O-])cc6F)c6nc(c(-c7c(F)cc(S(=O)(=O)[O-])cc7F)c7ccc4[nH]7)C=C6)C=C5)cc3)c2c1
REMARK SMILES IDX 23 1 22 2 20 3 21 4 19 5 18 6 3 7 4 8 95 9 5 10 94 11 6 12
REMARK SMILES IDX 7 13 8 14 2 16 1 17 9 18 10 19 11 20 12 21 17 22 13 23 16 24
REMARK SMILES IDX 14 25 15 26 24 27 25 28 26 29 27 30 28 31 29 32 93 33 30 34
REMARK SMILES IDX 92 35 31 36 32 37 33 38 86 39 34 40 91 41 85 42 87 43 35 44
REMARK SMILES IDX 90 45 84 46 83 47 36 49 70 50 49 51 69 52 50 53 53 54 68 55
REMARK SMILES IDX 88 56 51 57 52 58 67 60 89 61 54 62 37 63 38 64 47 65 39 66
REMARK SMILES IDX 40 67 46 68 48 69 41 70 42 71 43 72 44 73 45 74 71 75 72 76
REMARK SMILES IDX 81 77 73 78 74 79 80 80 82 81 75 82 76 83 77 84 78 85 79 86
REMARK SMILES IDX 55 87 56 88 65 89 57 90 58 91 64 92 66 93 59 94 60 95 61 96
REMARK SMILES IDX 62 97 63 98
REMARK H PARENT 7 15 87 48 53 59
REMARK Flexibility Score: inf
ROOT
ATOM      1  C   UNL A   1      32.880  30.986  27.201  1.00  0.00     0.274 C 
ENDROOT
BRANCH   1   2
ATOM      2  O   UNL A   1      32.882  29.556  27.007  1.00  0.00    -0.462 OA
BRANCH   2   3
ATOM      3  C   UNL A   1      33.342  29.131  25.799  1.00  0.00     0.310 C 
ATOM      4  O   UNL A   1      34.292  28.362  25.660  1.00  0.00    -0.252 OA
BRANCH   3   5
ATOM      5  C   UNL A   1      32.574  29.650  24.602  1.00  0.00     0.161 C 
BRANCH   5   6
ATOM      6  C   UNL A   1      31.426  28.810  24.122  1.00  0.00     0.000 A 
ATOM      7  C   UNL A   1      28.267  30.806  23.335  1.00  0.00     0.119 A 
ATOM      8  C   UNL A   1      27.528  29.728  22.852  1.00  0.00     0.048 A 
ATOM      9  C   UNL A   1      29.559  30.609  23.829  1.00  0.00     0.057 A 
ATOM     10  C   UNL A   1      28.050  28.426  22.873  1.00  0.00     0.030 A 
ATOM     11  C   UNL A   1      30.123  29.318  23.820  1.00  0.00     0.008 A 
ATOM     12  C   UNL A   1      29.355  28.258  23.351  1.00  0.00     0.046 A 
ATOM     13  N   UNL A   1      30.139  27.131  23.433  1.00  0.00    -0.352 N 
ATOM     14  C   UNL A   1      31.447  27.480  23.700  1.00  0.00     0.093 A 
ATOM     15  H   UNL A   1      29.815  26.209  23.317  1.00  0.00     0.167 HD
BRANCH   7  16
ATOM     16  O   UNL A   1      27.865  32.114  23.297  1.00  0.00    -0.497 OA
ATOM     17  C   UNL A   1      28.850  33.036  22.853  1.00  0.00     0.278 C 
ENDBRANCH   7  16
BRANCH  14  18
ATOM     18  C   UNL A   1      32.594  26.620  23.455  1.00  0.00     0.227 C 
ATOM     19  O   UNL A   1      33.214  26.621  22.394  1.00  0.00    -0.285 OA
BRANCH  18  20
ATOM     20  C   UNL A   1      32.962  25.590  24.455  1.00  0.00     0.113 A 
ATOM     21  C   UNL A   1      34.288  25.187  24.558  1.00  0.00     0.036 A 
ATOM     22  N   UNL A   1      31.962  25.128  25.242  1.00  0.00    -0.253 NA
ATOM     23  C   UNL A   1      34.620  24.257  25.546  1.00  0.00    -0.047 A 
ATOM     24  C   UNL A   1      32.325  24.300  26.243  1.00  0.00     0.112 A 
ATOM     25  C   UNL A   1      36.021  23.746  25.697  1.00  0.00     0.044 C 
ATOM     26  C   UNL A   1      33.620  23.837  26.428  1.00  0.00     0.023 A 
ENDBRANCH  18  20
ENDBRANCH  14  18
ENDBRANCH   5   6
ENDBRANCH   3   5
ENDBRANCH   2   3
ENDBRANCH   1   2
BRANCH   1  27
ATOM     27  C   UNL A   1      34.260  31.479  27.628  1.00  0.00     0.275 C 
BRANCH  27  28
ATOM     28  O   UNL A   1      34.973  30.418  28.283  1.00  0.00    -0.458 OA
BRANCH  28  29
ATOM     29  C   UNL A   1      35.752  30.806  29.319  1.00  0.00     0.338 C 
ATOM     30  O   UNL A   1      35.442  31.587  30.211  1.00  0.00    -0.246 OA
BRANCH  29  31
ATOM     31  C   UNL A   1      37.094  30.208  29.212  1.00  0.00     0.060 A 
ATOM     32  C   UNL A   1      37.818  29.829  30.343  1.00  0.00     0.016 A 
ATOM     33  C   UNL A   1      37.681  30.120  27.948  1.00  0.00     0.016 A 
ATOM     34  C   UNL A   1      39.159  29.462  30.219  1.00  0.00     0.010 A 
ATOM     35  C   UNL A   1      38.991  29.654  27.818  1.00  0.00     0.010 A 
ATOM     36  C   UNL A   1      39.759  29.354  28.954  1.00  0.00    -0.014 A 
BRANCH  36  37
ATOM     37  C   UNL A   1      41.180  28.932  28.810  1.00  0.00     0.031 A 
ATOM     38  C   UNL A   1      42.299  29.922  29.012  1.00  0.00     0.074 A 
ATOM     39  C   UNL A   1      41.471  27.661  28.468  1.00  0.00     0.049 A 
ATOM     40  N   UNL A   1      43.574  29.791  28.748  1.00  0.00    -0.248 NA
ATOM     41  C   UNL A   1      41.935  31.235  29.567  1.00  0.00     0.031 C 
ATOM     42  C   UNL A   1      40.491  26.594  28.260  1.00  0.00     0.029 A 
ATOM     43  N   UNL A   1      42.678  27.051  28.231  1.00  0.00    -0.354 N 
ATOM     44  C   UNL A   1      44.156  31.017  29.053  1.00  0.00     0.074 A 
ATOM     45  C   UNL A   1      43.093  31.881  29.521  1.00  0.00     0.031 C 
ATOM     46  C   UNL A   1      41.134  25.456  27.959  1.00  0.00     0.029 A 
ATOM     47  C   UNL A   1      42.564  25.728  27.878  1.00  0.00     0.049 A 
ATOM     48  H   UNL A   1      43.543  27.517  28.307  1.00  0.00     0.167 HD
ATOM     49  C   UNL A   1      45.457  31.386  28.950  1.00  0.00     0.037 A 
ATOM     50  C   UNL A   1      43.498  24.836  27.494  1.00  0.00     0.037 A 
ATOM     51  C   UNL A   1      46.523  30.506  28.537  1.00  0.00     0.049 A 
ATOM     52  C   UNL A   1      44.932  25.266  27.393  1.00  0.00     0.074 A 
ATOM     53  C   UNL A   1      47.875  30.785  28.421  1.00  0.00     0.029 A 
ATOM     54  N   UNL A   1      46.362  29.173  28.192  1.00  0.00    -0.354 N 
ATOM     55  N   UNL A   1      45.456  26.443  27.636  1.00  0.00    -0.248 NA
ATOM     56  C   UNL A   1      45.898  24.252  26.953  1.00  0.00     0.031 C 
ATOM     57  C   UNL A   1      48.528  29.626  27.987  1.00  0.00     0.029 A 
ATOM     58  C   UNL A   1      47.587  28.617  27.860  1.00  0.00     0.049 A 
ATOM     59  H   UNL A   1      45.503  28.691  28.184  1.00  0.00     0.167 HD
ATOM     60  C   UNL A   1      46.816  26.309  27.382  1.00  0.00     0.074 A 
ATOM     61  C   UNL A   1      47.035  24.934  26.984  1.00  0.00     0.031 C 
ATOM     62  C   UNL A   1      47.792  27.246  27.466  1.00  0.00     0.037 A 
BRANCH  49  63
ATOM     63  C   UNL A   1      45.805  32.813  29.268  1.00  0.00     0.058 A 
ATOM     64  C   UNL A   1      46.078  33.235  30.577  1.00  0.00     0.135 A 
ATOM     65  C   UNL A   1      45.907  33.763  28.238  1.00  0.00     0.135 A 
ATOM     66  F   UNL A   1      45.984  32.372  31.600  1.00  0.00    -0.206 F 
ATOM     67  C   UNL A   1      46.418  34.555  30.859  1.00  0.00     0.059 A 
ATOM     68  C   UNL A   1      46.262  35.084  28.494  1.00  0.00     0.059 A 
ATOM     69  F   UNL A   1      45.658  33.411  26.967  1.00  0.00    -0.206 F 
ATOM     70  C   UNL A   1      46.500  35.475  29.811  1.00  0.00     0.060 A 
BRANCH  70  71
ATOM     71  S   UNL A   1      46.928  37.188  30.190  1.00  0.00     0.124 S 
ATOM     72  O   UNL A   1      48.276  37.278  29.634  1.00  0.00    -0.237 OA
ATOM     73  O   UNL A   1      45.900  37.937  29.476  1.00  0.00    -0.237 OA
ATOM     74  O   UNL A   1      46.844  37.245  31.646  1.00  0.00    -0.744 OA
ENDBRANCH  70  71
ENDBRANCH  49  63
BRANCH  50  75
ATOM     75  C   UNL A   1      43.086  23.452  27.151  1.00  0.00     0.058 A 
ATOM     76  C   UNL A   1      42.895  23.069  25.817  1.00  0.00     0.135 A 
ATOM     77  C   UNL A   1      42.923  22.476  28.145  1.00  0.00     0.135 A 
ATOM     78  F   UNL A   1      43.032  23.971  24.833  1.00  0.00    -0.206 F 
ATOM     79  C   UNL A   1      42.557  21.762  25.478  1.00  0.00     0.059 A 
ATOM     80  C   UNL A   1      42.608  21.159  27.830  1.00  0.00     0.059 A 
ATOM     81  F   UNL A   1      43.109  22.793  29.436  1.00  0.00    -0.206 F 
ATOM     82  C   UNL A   1      42.420  20.814  26.492  1.00  0.00     0.060 A 
BRANCH  82  83
ATOM     83  S   UNL A   1      42.054  19.102  26.045  1.00  0.00     0.124 S 
ATOM     84  O   UNL A   1      42.903  18.920  24.873  1.00  0.00    -0.237 OA
ATOM     85  O   UNL A   1      42.456  18.373  27.243  1.00  0.00    -0.237 OA
ATOM     86  O   UNL A   1      40.617  19.127  25.789  1.00  0.00    -0.744 OA
ENDBRANCH  82  83
ENDBRANCH  50  75
BRANCH  62  87
ATOM     87  C   UNL A   1      49.188  26.806  27.140  1.00  0.00     0.058 A 
ATOM     88  C   UNL A   1      50.086  26.416  28.146  1.00  0.00     0.135 A 
ATOM     89  C   UNL A   1      49.625  26.748  25.808  1.00  0.00     0.135 A 
ATOM     90  F   UNL A   1      49.717  26.461  29.435  1.00  0.00    -0.206 F 
ATOM     91  C   UNL A   1      51.379  26.003  27.843  1.00  0.00     0.059 A 
ATOM     92  C   UNL A   1      50.909  26.321  25.481  1.00  0.00     0.059 A 
ATOM     93  F   UNL A   1      48.801  27.105  24.810  1.00  0.00    -0.206 F 
ATOM     94  C   UNL A   1      51.783  25.963  26.507  1.00  0.00     0.060 A 
BRANCH  94  95
ATOM     95  S   UNL A   1      53.455  25.403  26.118  1.00  0.00     0.124 S 
ATOM     96  O   UNL A   1      53.198  24.079  25.558  1.00  0.00    -0.237 OA
ATOM     97  O   UNL A   1      53.916  26.413  25.170  1.00  0.00    -0.237 OA
ATOM     98  O   UNL A   1      54.126  25.418  27.414  1.00  0.00    -0.744 OA
ENDBRANCH  94  95
ENDBRANCH  62  87
ENDBRANCH  36  37
ENDBRANCH  29  31
ENDBRANCH  28  29
ENDBRANCH  27  28
ENDBRANCH   1  27
TORSDOF 18
ENDMDL
MODEL 2
REMARK VINA RESULT:     -11.7      6.372     11.780
REMARK SMILES COc1ccc2[nH]c(C(=O)c3cc(C)ccn3)c(CC(=O)OCCOC(=O)c3ccc(-c4c5nc(c(-c6c(F)cc(S(=O)(=O)[O-])cc6F)c6ccc([nH]6)c(-c6c(F)cc(S(=O)(=O)[O-])cc6F)c6nc(c(-c7c(F)cc(S(=O)(=O)[O-])cc7F)c7ccc4[nH]7)C=C6)C=C5)cc3)c2c1
REMARK SMILES IDX 23 1 22 2 20 3 21 4 19 5 18 6 3 7 4 8 95 9 5 10 94 11 6 12
REMARK SMILES IDX 7 13 8 14 2 16 1 17 9 18 10 19 11 20 12 21 17 22 13 23 16 24
REMARK SMILES IDX 14 25 15 26 24 27 25 28 26 29 27 30 28 31 29 32 93 33 30 34
REMARK SMILES IDX 92 35 31 36 32 37 33 38 86 39 34 40 91 41 85 42 87 43 35 44
REMARK SMILES IDX 90 45 84 46 83 47 36 49 70 50 49 51 69 52 50 53 53 54 68 55
REMARK SMILES IDX 88 56 51 57 52 58 67 60 89 61 54 62 37 63 38 64 47 65 39 66
REMARK SMILES IDX 40 67 46 68 48 69 41 70 42 71 43 72 44 73 45 74 71 75 72 76
REMARK SMILES IDX 81 77 73 78 74 79 80 80 82 81 75 82 76 83 77 84 78 85 79 86
REMARK SMILES IDX 55 87 56 88 65 89 57 90 58 91 64 92 66 93 59 94 60 95 61 96
REMARK SMILES IDX 62 97 63 98
REMARK H PARENT 7 15 87 48 53 59
REMARK Flexibility Score: inf
ROOT
ATOM      1  C   UNL A   1      37.111  23.084  25.479  1.00  0.00     0.274 C 
ENDROOT
BRANCH   1   2
ATOM      2  O   UNL A   1      36.009  23.393  26.357  1.00  0.00    -0.462 OA
BRANCH   2   3
ATOM      3  C   UNL A   1      34.915  23.932  25.754  1.00  0.00     0.310 C 
ATOM      4  O   UNL A   1      33.885  24.239  26.351  1.00  0.00    -0.252 OA
BRANCH   3   5
ATOM      5  C   UNL A   1      35.055  24.171  24.265  1.00  0.00     0.161 C 
BRANCH   5   6
ATOM      6  C   UNL A   1      34.039  23.514  23.377  1.00  0.00     0.000 A 
ATOM      7  C   UNL A   1      33.220  19.915  24.356  1.00  0.00     0.119 A 
ATOM      8  C   UNL A   1      32.222  19.727  23.401  1.00  0.00     0.048 A 
ATOM      9  C   UNL A   1      33.925  21.119  24.407  1.00  0.00     0.057 A 
ATOM     10  C   UNL A   1      31.922  20.724  22.462  1.00  0.00     0.030 A 
ATOM     11  C   UNL A   1      33.612  22.154  23.504  1.00  0.00     0.008 A 
ATOM     12  C   UNL A   1      32.626  21.930  22.550  1.00  0.00     0.046 A 
ATOM     13  N   UNL A   1      32.508  23.091  21.820  1.00  0.00    -0.352 N 
ATOM     14  C   UNL A   1      33.202  24.112  22.435  1.00  0.00     0.093 A 
ATOM     15  H   UNL A   1      32.001  23.179  20.981  1.00  0.00     0.167 HD
BRANCH   7  16
ATOM     16  O   UNL A   1      33.537  19.025  25.346  1.00  0.00    -0.497 OA
ATOM     17  C   UNL A   1      32.835  17.792  25.298  1.00  0.00     0.278 C 
ENDBRANCH   7  16
BRANCH  14  18
ATOM     18  C   UNL A   1      32.974  25.527  22.186  1.00  0.00     0.227 C 
ATOM     19  O   UNL A   1      33.812  26.255  21.659  1.00  0.00    -0.285 OA
BRANCH  18  20
ATOM     20  C   UNL A   1      31.747  26.173  22.709  1.00  0.00     0.113 A 
ATOM     21  C   UNL A   1      31.446  27.473  22.321  1.00  0.00     0.036 A 
ATOM     22  N   UNL A   1      30.967  25.420  23.520  1.00  0.00    -0.253 NA
ATOM     23  C   UNL A   1      30.255  28.039  22.781  1.00  0.00    -0.047 A 
ATOM     24  C   UNL A   1      29.784  25.959  23.878  1.00  0.00     0.112 A 
ATOM     25  C   UNL A   1      29.877  29.449  22.437  1.00  0.00     0.044 C 
ATOM     26  C   UNL A   1      29.393  27.248  23.545  1.00  0.00     0.023 A 
ENDBRANCH  18  20
ENDBRANCH  14  18
ENDBRANCH   5   6
ENDBRANCH   3   5
ENDBRANCH   2   3
ENDBRANCH   1   2
BRANCH   1  27
ATOM     27  C   UNL A   1      38.427  23.043  26.250  1.00  0.00     0.275 C 
BRANCH  27  28
ATOM     28  O   UNL A   1      39.119  24.293  26.097  1.00  0.00    -0.458 OA
BRANCH  28  29
ATOM     29  C   UNL A   1      40.271  24.400  26.799  1.00  0.00     0.338 C 
ATOM     30  O   UNL A   1      41.221  23.627  26.761  1.00  0.00    -0.246 OA
BRANCH  29  31
ATOM     31  C   UNL A   1      40.223  25.565  27.699  1.00  0.00     0.060 A 
ATOM     32  C   UNL A   1      41.144  26.608  27.595  1.00  0.00     0.016 A 
ATOM     33  C   UNL A   1      39.292  25.559  28.740  1.00  0.00     0.016 A 
ATOM     34  C   UNL A   1      41.200  27.587  28.588  1.00  0.00     0.010 A 
ATOM     35  C   UNL A   1      39.285  26.597  29.674  1.00  0.00     0.010 A 
ATOM     36  C   UNL A   1      40.262  27.604  29.632  1.00  0.00    -0.014 A 
BRANCH  36  37
ATOM     37  C   UNL A   1      40.295  28.664  30.678  1.00  0.00     0.031 A 
ATOM     38  C   UNL A   1      41.273  28.585  31.821  1.00  0.00     0.074 A 
ATOM     39  C   UNL A   1      39.423  29.691  30.620  1.00  0.00     0.049 A 
ATOM     40  N   UNL A   1      41.325  29.301  32.915  1.00  0.00    -0.248 NA
ATOM     41  C   UNL A   1      42.321  27.555  31.731  1.00  0.00     0.031 C 
ATOM     42  C   UNL A   1      38.434  29.905  29.561  1.00  0.00     0.029 A 
ATOM     43  N   UNL A   1      39.226  30.748  31.474  1.00  0.00    -0.354 N 
ATOM     44  C   UNL A   1      42.371  28.778  33.667  1.00  0.00     0.074 A 
ATOM     45  C   UNL A   1      42.928  27.680  32.904  1.00  0.00     0.031 C 
ATOM     46  C   UNL A   1      37.759  31.037  29.810  1.00  0.00     0.029 A 
ATOM     47  C   UNL A   1      38.211  31.588  31.082  1.00  0.00     0.049 A 
ATOM     48  H   UNL A   1      39.759  30.890  32.289  1.00  0.00     0.167 HD
ATOM     49  C   UNL A   1      42.823  29.177  34.882  1.00  0.00     0.037 A 
ATOM     50  C   UNL A   1      37.674  32.663  31.690  1.00  0.00     0.037 A 
ATOM     51  C   UNL A   1      42.304  30.306  35.614  1.00  0.00     0.049 A 
ATOM     52  C   UNL A   1      38.195  33.089  33.031  1.00  0.00     0.074 A 
ATOM     53  C   UNL A   1      42.712  30.797  36.843  1.00  0.00     0.029 A 
ATOM     54  N   UNL A   1      41.278  31.131  35.177  1.00  0.00    -0.354 N 
ATOM     55  N   UNL A   1      39.150  32.551  33.751  1.00  0.00    -0.248 NA
ATOM     56  C   UNL A   1      37.557  34.258  33.649  1.00  0.00     0.031 C 
ATOM     57  C   UNL A   1      41.919  31.908  37.158  1.00  0.00     0.029 A 
ATOM     58  C   UNL A   1      41.037  32.125  36.111  1.00  0.00     0.049 A 
ATOM     59  H   UNL A   1      40.793  31.026  34.327  1.00  0.00     0.167 HD
ATOM     60  C   UNL A   1      39.230  33.320  34.905  1.00  0.00     0.074 A 
ATOM     61  C   UNL A   1      38.239  34.369  34.781  1.00  0.00     0.031 C 
ATOM     62  C   UNL A   1      40.048  33.164  35.975  1.00  0.00     0.037 A 
BRANCH  49  63
ATOM     63  C   UNL A   1      43.925  28.374  35.515  1.00  0.00     0.058 A 
ATOM     64  C   UNL A   1      43.658  27.295  36.371  1.00  0.00     0.135 A 
ATOM     65  C   UNL A   1      45.268  28.664  35.225  1.00  0.00     0.135 A 
ATOM     66  F   UNL A   1      42.393  26.982  36.692  1.00  0.00    -0.206 F 
ATOM     67  C   UNL A   1      44.685  26.546  36.938  1.00  0.00     0.059 A 
ATOM     68  C   UNL A   1      46.312  27.917  35.765  1.00  0.00     0.059 A 
ATOM     69  F   UNL A   1      45.579  29.684  34.410  1.00  0.00    -0.206 F 
ATOM     70  C   UNL A   1      46.010  26.869  36.634  1.00  0.00     0.060 A 
BRANCH  70  71
ATOM     71  S   UNL A   1      47.334  25.898  37.385  1.00  0.00     0.124 S 
ATOM     72  O   UNL A   1      47.581  26.650  38.613  1.00  0.00    -0.237 OA
ATOM     73  O   UNL A   1      46.708  24.592  37.562  1.00  0.00    -0.237 OA
ATOM     74  O   UNL A   1      48.401  25.950  36.391  1.00  0.00    -0.744 OA
ENDBRANCH  70  71
ENDBRANCH  49  63
BRANCH  50  75
ATOM     75  C   UNL A   1      36.558  33.389  31.035  1.00  0.00     0.058 A 
ATOM     76  C   UNL A   1      36.782  34.175  29.897  1.00  0.00     0.135 A 
ATOM     77  C   UNL A   1      35.241  33.274  31.505  1.00  0.00     0.135 A 
ATOM     78  F   UNL A   1      38.026  34.322  29.416  1.00  0.00    -0.206 F 
ATOM     79  C   UNL A   1      35.738  34.823  29.244  1.00  0.00     0.059 A 
ATOM     80  C   UNL A   1      34.178  33.892  30.857  1.00  0.00     0.059 A 
ATOM     81  F   UNL A   1      34.976  32.520  32.584  1.00  0.00    -0.206 F 
ATOM     82  C   UNL A   1      34.438  34.671  29.730  1.00  0.00     0.060 A 
BRANCH  82  83
ATOM     83  S   UNL A   1      33.075  35.451  28.838  1.00  0.00     0.124 S 
ATOM     84  O   UNL A   1      32.247  35.935  29.937  1.00  0.00    -0.237 OA
ATOM     85  O   UNL A   1      33.757  36.475  28.054  1.00  0.00    -0.237 OA
ATOM     86  O   UNL A   1      32.514  34.349  28.062  1.00  0.00    -0.744 OA
ENDBRANCH  82  83
ENDBRANCH  50  75
BRANCH  62  87
ATOM     87  C   UNL A   1      39.918  34.165  37.084  1.00  0.00     0.058 A 
ATOM     88  C   UNL A   1      40.594  35.394  37.043  1.00  0.00     0.135 A 
ATOM     89  C   UNL A   1      39.089  33.905  38.186  1.00  0.00     0.135 A 
ATOM     90  F   UNL A   1      41.404  35.686  36.013  1.00  0.00    -0.206 F 
ATOM     91  C   UNL A   1      40.469  36.325  38.069  1.00  0.00     0.059 A 
ATOM     92  C   UNL A   1      38.936  34.829  39.215  1.00  0.00     0.059 A 
ATOM     93  F   UNL A   1      38.417  32.745  38.267  1.00  0.00    -0.206 F 
ATOM     94  C   UNL A   1      39.640  36.031  39.154  1.00  0.00     0.060 A 
BRANCH  94  95
ATOM     95  S   UNL A   1      39.462  37.252  40.472  1.00  0.00     0.124 S 
ATOM     96  O   UNL A   1      40.853  37.619  40.721  1.00  0.00    -0.237 OA
ATOM     97  O   UNL A   1      38.639  38.281  39.844  1.00  0.00    -0.237 OA
ATOM     98  O   UNL A   1      38.809  36.503  41.541  1.00  0.00    -0.744 OA
ENDBRANCH  94  95
ENDBRANCH  62  87
ENDBRANCH  36  37
ENDBRANCH  29  31
ENDBRANCH  28  29
ENDBRANCH  27  28
ENDBRANCH   1  27
TORSDOF 18
ENDMDL
MODEL 3
REMARK VINA RESULT:     -11.7      2.020      4.359
REMARK SMILES COc1ccc2[nH]c(C(=O)c3cc(C)ccn3)c(CC(=O)OCCOC(=O)c3ccc(-c4c5nc(c(-c6c(F)cc(S(=O)(=O)[O-])cc6F)c6ccc([nH]6)c(-c6c(F)cc(S(=O)(=O)[O-])cc6F)c6nc(c(-c7c(F)cc(S(=O)(=O)[O-])cc7F)c7ccc4[nH]7)C=C6)C=C5)cc3)c2c1
REMARK SMILES IDX 23 1 22 2 20 3 21 4 19 5 18 6 3 7 4 8 95 9 5 10 94 11 6 12
REMARK SMILES IDX 7 13 8 14 2 16 1 17 9 18 10 19 11 20 12 21 17 22 13 23 16 24
REMARK SMILES IDX 14 25 15 26 24 27 25 28 26 29 27 30 28 31 29 32 93 33 30 34
REMARK SMILES IDX 92 35 31 36 32 37 33 38 86 39 34 40 91 41 85 42 87 43 35 44
REMARK SMILES IDX 90 45 84 46 83 47 36 49 70 50 49 51 69 52 50 53 53 54 68 55
REMARK SMILES IDX 88 56 51 57 52 58 67 60 89 61 54 62 37 63 38 64 47 65 39 66
REMARK SMILES IDX 40 67 46 68 48 69 41 70 42 71 43 72 44 73 45 74 71 75 72 76
REMARK SMILES IDX 81 77 73 78 74 79 80 80 82 81 75 82 76 83 77 84 78 85 79 86
REMARK SMILES IDX 55 87 56 88 65 89 57 90 58 91 64 92 66 93 59 94 60 95 61 96
REMARK SMILES IDX 62 97 63 98
REMARK H PARENT 7 15 87 48 53 59
REMARK Flexibility Score: inf
ROOT
ATOM      1  C   UNL A   1      31.451  28.517  27.265  1.00  0.00     0.274 C 
ENDROOT
BRANCH   1   2
ATOM      2  O   UNL A   1      32.121  27.411  26.625  1.00  0.00    -0.462 OA
BRANCH   2   3
ATOM      3  C   UNL A   1      31.351  26.311  26.402  1.00  0.00     0.310 C 
ATOM      4  O   UNL A   1      31.506  25.237  26.981  1.00  0.00    -0.252 OA
BRANCH   3   5
ATOM      5  C   UNL A   1      30.238  26.502  25.394  1.00  0.00     0.161 C 
BRANCH   5   6
ATOM      6  C   UNL A   1      30.650  26.741  23.970  1.00  0.00     0.000 A 
ATOM      7  C   UNL A   1      33.118  24.162  22.616  1.00  0.00     0.119 A 
ATOM      8  C   UNL A   1      33.154  24.662  21.315  1.00  0.00     0.048 A 
ATOM      9  C   UNL A   1      32.356  24.804  23.595  1.00  0.00     0.057 A 
ATOM     10  C   UNL A   1      32.451  25.825  20.968  1.00  0.00     0.030 A 
ATOM     11  C   UNL A   1      31.606  25.948  23.261  1.00  0.00     0.008 A 
ATOM     12  C   UNL A   1      31.677  26.436  21.961  1.00  0.00     0.046 A 
ATOM     13  N   UNL A   1      30.848  27.532  21.901  1.00  0.00    -0.352 N 
ATOM     14  C   UNL A   1      30.071  27.603  23.038  1.00  0.00     0.093 A 
ATOM     15  H   UNL A   1      30.813  28.171  21.154  1.00  0.00     0.167 HD
BRANCH   7  16
ATOM     16  O   UNL A   1      33.719  23.004  23.029  1.00  0.00    -0.497 OA
ATOM     17  C   UNL A   1      33.088  22.353  24.123  1.00  0.00     0.278 C 
ENDBRANCH   7  16
BRANCH  14  18
ATOM     18  C   UNL A   1      28.833  28.360  23.142  1.00  0.00     0.227 C 
ATOM     19  O   UNL A   1      27.741  27.828  23.331  1.00  0.00    -0.285 OA
BRANCH  18  20
ATOM     20  C   UNL A   1      28.841  29.816  22.870  1.00  0.00     0.113 A 
ATOM     21  C   UNL A   1      28.388  30.279  21.640  1.00  0.00     0.036 A 
ATOM     22  N   UNL A   1      29.265  30.616  23.876  1.00  0.00    -0.253 NA
ATOM     23  C   UNL A   1      28.352  31.659  21.428  1.00  0.00    -0.047 A 
ATOM     24  C   UNL A   1      29.136  31.944  23.677  1.00  0.00     0.112 A 
ATOM     25  C   UNL A   1      27.911  32.236  20.116  1.00  0.00     0.044 C 
ATOM     26  C   UNL A   1      28.699  32.504  22.486  1.00  0.00     0.023 A 
ENDBRANCH  18  20
ENDBRANCH  14  18
ENDBRANCH   5   6
ENDBRANCH   3   5
ENDBRANCH   2   3
ENDBRANCH   1   2
BRANCH   1  27
ATOM     27  C   UNL A   1      32.310  29.776  27.214  1.00  0.00     0.275 C 
BRANCH  27  28
ATOM     28  O   UNL A   1      33.690  29.432  27.423  1.00  0.00    -0.458 OA
BRANCH  28  29
ATOM     29  C   UNL A   1      34.427  30.377  28.050  1.00  0.00     0.338 C 
ATOM     30  O   UNL A   1      34.058  31.505  28.356  1.00  0.00    -0.246 OA
BRANCH  29  31
ATOM     31  C   UNL A   1      35.803  29.898  28.273  1.00  0.00     0.060 A 
ATOM     32  C   UNL A   1      36.215  29.409  29.513  1.00  0.00     0.016 A 
ATOM     33  C   UNL A   1      36.729  30.041  27.238  1.00  0.00     0.016 A 
ATOM     34  C   UNL A   1      37.569  29.160  29.747  1.00  0.00     0.010 A 
ATOM     35  C   UNL A   1      38.066  29.693  27.445  1.00  0.00     0.010 A 
ATOM     36  C   UNL A   1      38.509  29.284  28.713  1.00  0.00    -0.014 A 
BRANCH  36  37
ATOM     37  C   UNL A   1      39.951  28.990  28.945  1.00  0.00     0.031 A 
ATOM     38  C   UNL A   1      40.873  30.051  29.489  1.00  0.00     0.074 A 
ATOM     39  C   UNL A   1      40.445  27.773  28.640  1.00  0.00     0.049 A 
ATOM     40  N   UNL A   1      42.179  30.043  29.579  1.00  0.00    -0.248 NA
ATOM     41  C   UNL A   1      40.247  31.289  29.981  1.00  0.00     0.031 C 
ATOM     42  C   UNL A   1      39.666  26.647  28.124  1.00  0.00     0.029 A 
ATOM     43  N   UNL A   1      41.725  27.281  28.717  1.00  0.00    -0.354 N 
ATOM     44  C   UNL A   1      42.535  31.289  30.086  1.00  0.00     0.074 A 
ATOM     45  C   UNL A   1      41.306  32.029  30.283  1.00  0.00     0.031 C 
ATOM     46  C   UNL A   1      40.474  25.588  27.962  1.00  0.00     0.029 A 
ATOM     47  C   UNL A   1      41.840  25.981  28.287  1.00  0.00     0.049 A 
ATOM     48  H   UNL A   1      42.488  27.810  29.047  1.00  0.00     0.167 HD
ATOM     49  C   UNL A   1      43.774  31.768  30.360  1.00  0.00     0.037 A 
ATOM     50  C   UNL A   1      42.924  25.197  28.135  1.00  0.00     0.037 A 
ATOM     51  C   UNL A   1      44.991  31.009  30.217  1.00  0.00     0.049 A 
ATOM     52  C   UNL A   1      44.283  25.747  28.451  1.00  0.00     0.074 A 
ATOM     53  C   UNL A   1      46.291  31.404  30.488  1.00  0.00     0.029 A 
ATOM     54  N   UNL A   1      45.060  29.693  29.782  1.00  0.00    -0.354 N 
ATOM     55  N   UNL A   1      44.607  26.944  28.879  1.00  0.00    -0.248 NA
ATOM     56  C   UNL A   1      45.426  24.848  28.248  1.00  0.00     0.031 C 
ATOM     57  C   UNL A   1      47.147  30.335  30.199  1.00  0.00     0.029 A 
ATOM     58  C   UNL A   1      46.377  29.264  29.774  1.00  0.00     0.049 A 
ATOM     59  H   UNL A   1      44.286  29.145  29.518  1.00  0.00     0.167 HD
ATOM     60  C   UNL A   1      45.990  26.939  29.002  1.00  0.00     0.074 A 
ATOM     61  C   UNL A   1      46.441  25.617  28.619  1.00  0.00     0.031 C 
ATOM     62  C   UNL A   1      46.812  27.944  29.391  1.00  0.00     0.037 A 
BRANCH  49  63
ATOM     63  C   UNL A   1      43.883  33.194  30.824  1.00  0.00     0.058 A 
ATOM     64  C   UNL A   1      43.904  34.267  29.920  1.00  0.00     0.135 A 
ATOM     65  C   UNL A   1      43.926  33.491  32.195  1.00  0.00     0.135 A 
ATOM     66  F   UNL A   1      43.878  34.040  28.598  1.00  0.00    -0.206 F 
ATOM     67  C   UNL A   1      43.987  35.585  30.361  1.00  0.00     0.059 A 
ATOM     68  C   UNL A   1      43.991  34.801  32.659  1.00  0.00     0.059 A 
ATOM     69  F   UNL A   1      43.907  32.501  33.103  1.00  0.00    -0.206 F 
ATOM     70  C   UNL A   1      44.037  35.842  31.733  1.00  0.00     0.060 A 
BRANCH  70  71
ATOM     71  S   UNL A   1      44.158  37.555  32.291  1.00  0.00     0.124 S 
ATOM     72  O   UNL A   1      43.775  38.279  31.082  1.00  0.00    -0.237 OA
ATOM     73  O   UNL A   1      43.193  37.600  33.385  1.00  0.00    -0.237 OA
ATOM     74  O   UNL A   1      45.556  37.686  32.687  1.00  0.00    -0.744 OA
ENDBRANCH  70  71
ENDBRANCH  49  63
BRANCH  50  75
ATOM     75  C   UNL A   1      42.756  23.811  27.632  1.00  0.00     0.058 A 
ATOM     76  C   UNL A   1      42.558  22.743  28.517  1.00  0.00     0.135 A 
ATOM     77  C   UNL A   1      42.742  23.535  26.256  1.00  0.00     0.135 A 
ATOM     78  F   UNL A   1      42.572  22.959  29.842  1.00  0.00    -0.206 F 
ATOM     79  C   UNL A   1      42.352  21.446  28.058  1.00  0.00     0.059 A 
ATOM     80  C   UNL A   1      42.515  22.252  25.772  1.00  0.00     0.059 A 
ATOM     81  F   UNL A   1      42.913  24.527  25.369  1.00  0.00    -0.206 F 
ATOM     82  C   UNL A   1      42.327  21.212  26.682  1.00  0.00     0.060 A 
BRANCH  82  83
ATOM     83  S   UNL A   1      41.984  19.542  26.086  1.00  0.00     0.124 S 
ATOM     84  O   UNL A   1      42.370  18.736  27.238  1.00  0.00    -0.237 OA
ATOM     85  O   UNL A   1      40.554  19.599  25.798  1.00  0.00    -0.237 OA
ATOM     86  O   UNL A   1      42.846  19.425  24.914  1.00  0.00    -0.744 OA
ENDBRANCH  82  83
ENDBRANCH  50  75
BRANCH  62  87
ATOM     87  C   UNL A   1      48.281  27.643  29.442  1.00  0.00     0.058 A 
ATOM     88  C   UNL A   1      49.124  27.928  28.357  1.00  0.00     0.135 A 
ATOM     89  C   UNL A   1      48.856  27.087  30.596  1.00  0.00     0.135 A 
ATOM     90  F   UNL A   1      48.619  28.452  27.229  1.00  0.00    -0.206 F 
ATOM     91  C   UNL A   1      50.486  27.653  28.406  1.00  0.00     0.059 A 
ATOM     92  C   UNL A   1      50.219  26.820  30.672  1.00  0.00     0.059 A 
ATOM     93  F   UNL A   1      48.091  26.802  31.662  1.00  0.00    -0.206 F 
ATOM     94  C   UNL A   1      51.024  27.095  29.567  1.00  0.00     0.060 A 
BRANCH  94  95
ATOM     95  S   UNL A   1      52.798  26.761  29.634  1.00  0.00     0.124 S 
ATOM     96  O   UNL A   1      52.891  25.907  30.815  1.00  0.00    -0.237 OA
ATOM     97  O   UNL A   1      53.046  26.104  28.355  1.00  0.00    -0.237 OA
ATOM     98  O   UNL A   1      53.386  28.090  29.772  1.00  0.00    -0.744 OA
ENDBRANCH  94  95
ENDBRANCH  62  87
ENDBRANCH  36  37
ENDBRANCH  29  31
ENDBRANCH  28  29
ENDBRANCH  27  28
ENDBRANCH   1  27
TORSDOF 18
ENDMDL
