MODEL 1
REMARK VINA RESULT:     -10.2      0.000      0.000
REMARK SMILES CC[C@@](C)([NH2+][C@H]1CC[C@H](C)[C@H](C)C1)C(=O)OCCOC(=O)c1ccc(-c2c3nc(c(-c4c(F)cc(S(=O)(=O)[O-])cc4F)c4ccc([nH]4)c(-c4c(F)cc(S(=O)(=O)[O-])cc4F)c4nc(c(-c5c(F)cc(S(=O)(=O)[O-])cc5F)c5ccc2[nH]5)C=C4)C=C3)cc1
REMARK SMILES IDX 18 1 17 2 16 3 14 4 15 5 3 6 4 7 2 8 1 9 5 10 6 13 7 14
REMARK SMILES IDX 13 15 8 16 11 17 9 18 12 19 10 20 19 21 20 22 21 23 22 24
REMARK SMILES IDX 23 25 87 26 24 27 86 28 25 29 26 30 27 31 80 32 28 33 85 34
REMARK SMILES IDX 79 35 81 36 29 37 84 38 78 39 77 40 30 42 64 43 43 44 63 45
REMARK SMILES IDX 44 46 47 47 62 48 82 49 45 50 46 51 61 53 83 54 48 55 31 56
REMARK SMILES IDX 32 57 41 58 33 59 34 60 40 61 42 62 35 63 36 64 37 65 38 66
REMARK SMILES IDX 39 67 65 68 66 69 75 70 67 71 68 72 74 73 76 74 69 75 70 76
REMARK SMILES IDX 71 77 72 78 73 79 49 80 50 81 59 82 51 83 52 84 58 85 60 86
REMARK SMILES IDX 53 87 54 88 55 89 56 90 57 91
REMARK H PARENT 5 11 5 12 81 41 47 52
REMARK Flexibility Score: inf
ROOT
ATOM      1  C   UNL A   1      33.383  28.257  26.310  1.00  0.00     0.275 C 
ENDROOT
BRANCH   1   2
ATOM      2  C   UNL A   1      31.994  27.649  26.510  1.00  0.00     0.274 C 
BRANCH   2   3
ATOM      3  O   UNL A   1      31.641  26.850  25.361  1.00  0.00    -0.457 OA
BRANCH   3   4
ATOM      4  C   UNL A   1      31.445  25.517  25.603  1.00  0.00     0.367 C 
ATOM      5  O   UNL A   1      31.011  25.088  26.667  1.00  0.00    -0.245 OA
BRANCH   4   6
ATOM      6  C   UNL A   1      31.865  24.608  24.389  1.00  0.00     0.191 C 
ATOM      7  C   UNL A   1      30.639  24.221  23.529  1.00  0.00     0.092 C 
BRANCH   6   8
ATOM      8  C   UNL A   1      32.849  25.380  23.458  1.00  0.00     0.077 C 
ATOM      9  C   UNL A   1      32.752  25.048  21.973  1.00  0.00     0.011 C 
ENDBRANCH   6   8
BRANCH   6  10
ATOM     10  N   UNL A   1      32.625  23.429  24.870  1.00  0.00    -0.330 N 
ATOM     11  H   UNL A   1      32.227  22.622  24.390  1.00  0.00     0.347 HD
ATOM     12  H   UNL A   1      32.525  23.515  25.881  1.00  0.00     0.347 HD
BRANCH  10  13
ATOM     13  C   UNL A   1      34.079  23.312  24.722  1.00  0.00     0.183 C 
ATOM     14  C   UNL A   1      34.683  23.729  26.084  1.00  0.00     0.065 C 
ATOM     15  C   UNL A   1      34.667  21.955  24.293  1.00  0.00     0.068 C 
ATOM     16  C   UNL A   1      36.212  23.632  26.151  1.00  0.00     0.010 C 
ATOM     17  C   UNL A   1      36.202  21.964  24.235  1.00  0.00    -0.006 C 
ATOM     18  C   UNL A   1      36.734  22.280  25.647  1.00  0.00    -0.011 C 
ATOM     19  C   UNL A   1      36.717  22.904  23.138  1.00  0.00     0.008 C 
ATOM     20  C   UNL A   1      38.257  22.196  25.727  1.00  0.00     0.008 C 
ENDBRANCH  10  13
ENDBRANCH   6  10
ENDBRANCH   4   6
ENDBRANCH   3   4
ENDBRANCH   2   3
ENDBRANCH   1   2
BRANCH   1  21
ATOM     21  O   UNL A   1      33.908  28.578  27.608  1.00  0.00    -0.458 OA
BRANCH  21  22
ATOM     22  C   UNL A   1      34.306  29.862  27.754  1.00  0.00     0.338 C 
ATOM     23  O   UNL A   1      33.620  30.866  27.754  1.00  0.00    -0.246 OA
BRANCH  22  24
ATOM     24  C   UNL A   1      35.710  29.828  28.183  1.00  0.00     0.060 A 
ATOM     25  C   UNL A   1      36.663  30.118  27.210  1.00  0.00     0.016 A 
ATOM     26  C   UNL A   1      36.093  29.457  29.465  1.00  0.00     0.016 A 
ATOM     27  C   UNL A   1      38.017  29.962  27.476  1.00  0.00     0.010 A 
ATOM     28  C   UNL A   1      37.458  29.338  29.750  1.00  0.00     0.010 A 
ATOM     29  C   UNL A   1      38.428  29.544  28.745  1.00  0.00    -0.014 A 
BRANCH  29  30
ATOM     30  C   UNL A   1      39.848  29.167  28.973  1.00  0.00     0.031 A 
ATOM     31  C   UNL A   1      40.767  30.172  29.615  1.00  0.00     0.074 A 
ATOM     32  C   UNL A   1      40.306  27.937  28.670  1.00  0.00     0.049 A 
ATOM     33  N   UNL A   1      42.065  30.130  29.773  1.00  0.00    -0.248 NA
ATOM     34  C   UNL A   1      40.138  31.394  30.143  1.00  0.00     0.031 C 
ATOM     35  C   UNL A   1      39.503  26.840  28.128  1.00  0.00     0.029 A 
ATOM     36  N   UNL A   1      41.565  27.401  28.786  1.00  0.00    -0.354 N 
ATOM     37  C   UNL A   1      42.413  31.341  30.362  1.00  0.00     0.074 A 
ATOM     38  C   UNL A   1      41.191  32.096  30.534  1.00  0.00     0.031 C 
ATOM     39  C   UNL A   1      40.286  25.759  27.973  1.00  0.00     0.029 A 
ATOM     40  C   UNL A   1      41.656  26.102  28.345  1.00  0.00     0.049 A 
ATOM     41  H   UNL A   1      42.331  27.901  29.151  1.00  0.00     0.167 HD
ATOM     42  C   UNL A   1      43.641  31.784  30.723  1.00  0.00     0.037 A 
ATOM     43  C   UNL A   1      42.728  25.294  28.227  1.00  0.00     0.037 A 
ATOM     44  C   UNL A   1      44.844  31.006  30.601  1.00  0.00     0.049 A 
ATOM     45  C   UNL A   1      44.087  25.814  28.615  1.00  0.00     0.074 A 
ATOM     46  C   UNL A   1      46.142  31.365  30.925  1.00  0.00     0.029 A 
ATOM     47  N   UNL A   1      44.895  29.700  30.136  1.00  0.00    -0.354 N 
ATOM     48  N   UNL A   1      44.415  26.989  29.098  1.00  0.00    -0.248 NA
ATOM     49  C   UNL A   1      45.225  24.902  28.431  1.00  0.00     0.031 C 
ATOM     50  C   UNL A   1      46.980  30.283  30.633  1.00  0.00     0.029 A 
ATOM     51  C   UNL A   1      46.201  29.238  30.164  1.00  0.00     0.049 A 
ATOM     52  H   UNL A   1      44.118  29.178  29.830  1.00  0.00     0.167 HD
ATOM     53  C   UNL A   1      45.790  26.948  29.300  1.00  0.00     0.074 A 
ATOM     54  C   UNL A   1      46.231  25.629  28.895  1.00  0.00     0.031 C 
ATOM     55  C   UNL A   1      46.615  27.914  29.775  1.00  0.00     0.037 A 
BRANCH  42  56
ATOM     56  C   UNL A   1      43.741  33.191  31.239  1.00  0.00     0.058 A 
ATOM     57  C   UNL A   1      43.607  33.500  32.601  1.00  0.00     0.135 A 
ATOM     58  C   UNL A   1      43.974  34.251  30.347  1.00  0.00     0.135 A 
ATOM     59  F   UNL A   1      43.360  32.527  33.493  1.00  0.00    -0.206 F 
ATOM     60  C   UNL A   1      43.667  34.814  33.058  1.00  0.00     0.059 A 
ATOM     61  C   UNL A   1      44.063  35.569  30.784  1.00  0.00     0.059 A 
ATOM     62  F   UNL A   1      44.105  34.011  29.032  1.00  0.00    -0.206 F 
ATOM     63  C   UNL A   1      43.889  35.842  32.139  1.00  0.00     0.060 A 
BRANCH  63  64
ATOM     64  S   UNL A   1      43.951  37.544  32.739  1.00  0.00     0.124 S 
ATOM     65  O   UNL A   1      45.314  37.618  33.258  1.00  0.00    -0.237 OA
ATOM     66  O   UNL A   1      43.692  38.316  31.528  1.00  0.00    -0.237 OA
ATOM     67  O   UNL A   1      42.894  37.588  33.744  1.00  0.00    -0.744 OA
ENDBRANCH  63  64
ENDBRANCH  42  56
BRANCH  43  68
ATOM     68  C   UNL A   1      42.568  23.913  27.696  1.00  0.00     0.058 A 
ATOM     69  C   UNL A   1      42.461  22.813  28.560  1.00  0.00     0.135 A 
ATOM     70  C   UNL A   1      42.528  23.664  26.315  1.00  0.00     0.135 A 
ATOM     71  F   UNL A   1      42.508  22.999  29.889  1.00  0.00    -0.206 F 
ATOM     72  C   UNL A   1      42.334  21.515  28.077  1.00  0.00     0.059 A 
ATOM     73  C   UNL A   1      42.375  22.376  25.808  1.00  0.00     0.059 A 
ATOM     74  F   UNL A   1      42.619  24.681  25.445  1.00  0.00    -0.206 F 
ATOM     75  C   UNL A   1      42.291  21.307  26.698  1.00  0.00     0.060 A 
BRANCH  75  76
ATOM     76  S   UNL A   1      42.081  19.624  26.077  1.00  0.00     0.124 S 
ATOM     77  O   UNL A   1      40.662  19.610  25.741  1.00  0.00    -0.237 OA
ATOM     78  O   UNL A   1      43.004  19.593  24.947  1.00  0.00    -0.237 OA
ATOM     79  O   UNL A   1      42.470  18.797  27.215  1.00  0.00    -0.744 OA
ENDBRANCH  75  76
ENDBRANCH  43  68
BRANCH  55  80
ATOM     80  C   UNL A   1      48.067  27.561  29.937  1.00  0.00     0.058 A 
ATOM     81  C   UNL A   1      48.574  27.047  31.140  1.00  0.00     0.135 A 
ATOM     82  C   UNL A   1      48.955  27.710  28.859  1.00  0.00     0.135 A 
ATOM     83  F   UNL A   1      47.766  26.890  32.201  1.00  0.00    -0.206 F 
ATOM     84  C   UNL A   1      49.919  26.721  31.280  1.00  0.00     0.059 A 
ATOM     85  C   UNL A   1      50.298  27.369  28.970  1.00  0.00     0.059 A 
ATOM     86  F   UNL A   1      48.517  28.186  27.683  1.00  0.00    -0.206 F 
ATOM     87  C   UNL A   1      50.775  26.889  30.189  1.00  0.00     0.060 A 
BRANCH  87  88
ATOM     88  S   UNL A   1      52.517  26.451  30.373  1.00  0.00     0.124 S 
ATOM     89  O   UNL A   1      53.075  27.688  30.907  1.00  0.00    -0.237 OA
ATOM     90  O   UNL A   1      52.463  25.326  31.301  1.00  0.00    -0.237 OA
ATOM     91  O   UNL A   1      52.925  26.112  29.012  1.00  0.00    -0.744 OA
ENDBRANCH  87  88
ENDBRANCH  55  80
ENDBRANCH  29  30
ENDBRANCH  22  24
ENDBRANCH  21  22
ENDBRANCH   1  21
TORSDOF 17
ENDMDL
MODEL 2
REMARK VINA RESULT:     -10.1      5.506     11.482
REMARK SMILES CC[C@@](C)([NH2+][C@H]1CC[C@H](C)[C@H](C)C1)C(=O)OCCOC(=O)c1ccc(-c2c3nc(c(-c4c(F)cc(S(=O)(=O)[O-])cc4F)c4ccc([nH]4)c(-c4c(F)cc(S(=O)(=O)[O-])cc4F)c4nc(c(-c5c(F)cc(S(=O)(=O)[O-])cc5F)c5ccc2[nH]5)C=C4)C=C3)cc1
REMARK SMILES IDX 18 1 17 2 16 3 14 4 15 5 3 6 4 7 2 8 1 9 5 10 6 13 7 14
REMARK SMILES IDX 13 15 8 16 11 17 9 18 12 19 10 20 19 21 20 22 21 23 22 24
REMARK SMILES IDX 23 25 87 26 24 27 86 28 25 29 26 30 27 31 80 32 28 33 85 34
REMARK SMILES IDX 79 35 81 36 29 37 84 38 78 39 77 40 30 42 64 43 43 44 63 45
REMARK SMILES IDX 44 46 47 47 62 48 82 49 45 50 46 51 61 53 83 54 48 55 31 56
REMARK SMILES IDX 32 57 41 58 33 59 34 60 40 61 42 62 35 63 36 64 37 65 38 66
REMARK SMILES IDX 39 67 65 68 66 69 75 70 67 71 68 72 74 73 76 74 69 75 70 76
REMARK SMILES IDX 71 77 72 78 73 79 49 80 50 81 59 82 51 83 52 84 58 85 60 86
REMARK SMILES IDX 53 87 54 88 55 89 56 90 57 91
REMARK H PARENT 5 11 5 12 81 41 47 52
REMARK Flexibility Score: inf
ROOT
ATOM      1  C   UNL A   1      40.080  22.016  26.671  1.00  0.00     0.275 C 
ENDROOT
BRANCH   1   2
ATOM      2  C   UNL A   1      40.807  20.724  27.045  1.00  0.00     0.274 C 
BRANCH   2   3
ATOM      3  O   UNL A   1      42.233  20.943  27.024  1.00  0.00    -0.457 OA
BRANCH   3   4
ATOM      4  C   UNL A   1      42.881  20.527  25.892  1.00  0.00     0.367 C 
ATOM      5  O   UNL A   1      42.454  19.631  25.170  1.00  0.00    -0.245 OA
BRANCH   4   6
ATOM      6  C   UNL A   1      44.230  21.295  25.643  1.00  0.00     0.191 C 
ATOM      7  C   UNL A   1      45.250  20.407  24.893  1.00  0.00     0.092 C 
BRANCH   6   8
ATOM      8  C   UNL A   1      43.976  22.549  24.751  1.00  0.00     0.077 C 
ATOM      9  C   UNL A   1      44.992  22.786  23.639  1.00  0.00     0.011 C 
ENDBRANCH   6   8
BRANCH   6  10
ATOM     10  N   UNL A   1      44.762  21.827  26.922  1.00  0.00    -0.330 N 
ATOM     11  H   UNL A   1      45.733  21.520  26.973  1.00  0.00     0.347 HD
ATOM     12  H   UNL A   1      44.083  21.469  27.594  1.00  0.00     0.347 HD
BRANCH  10  13
ATOM     13  C   UNL A   1      44.772  23.258  27.240  1.00  0.00     0.183 C 
ATOM     14  C   UNL A   1      44.260  23.378  28.694  1.00  0.00     0.065 C 
ATOM     15  C   UNL A   1      46.095  24.034  27.095  1.00  0.00     0.068 C 
ATOM     16  C   UNL A   1      44.236  24.812  29.237  1.00  0.00     0.010 C 
ATOM     17  C   UNL A   1      45.970  25.505  27.515  1.00  0.00    -0.006 C 
ATOM     18  C   UNL A   1      45.562  25.548  29.001  1.00  0.00    -0.011 C 
ATOM     19  C   UNL A   1      45.035  26.279  26.577  1.00  0.00     0.008 C 
ATOM     20  C   UNL A   1      45.525  26.971  29.553  1.00  0.00     0.008 C 
ENDBRANCH  10  13
ENDBRANCH   6  10
ENDBRANCH   4   6
ENDBRANCH   3   4
ENDBRANCH   2   3
ENDBRANCH   1   2
BRANCH   1  21
ATOM     21  O   UNL A   1      40.528  23.044  27.568  1.00  0.00    -0.458 OA
BRANCH  21  22
ATOM     22  C   UNL A   1      41.090  24.115  26.965  1.00  0.00     0.338 C 
ATOM     23  O   UNL A   1      41.606  24.174  25.865  1.00  0.00    -0.246 OA
BRANCH  22  24
ATOM     24  C   UNL A   1      40.737  25.292  27.769  1.00  0.00     0.060 A 
ATOM     25  C   UNL A   1      41.638  26.353  27.743  1.00  0.00     0.016 A 
ATOM     26  C   UNL A   1      39.608  25.337  28.577  1.00  0.00     0.016 A 
ATOM     27  C   UNL A   1      41.472  27.444  28.587  1.00  0.00     0.010 A 
ATOM     28  C   UNL A   1      39.415  26.453  29.400  1.00  0.00     0.010 A 
ATOM     29  C   UNL A   1      40.369  27.492  29.445  1.00  0.00    -0.014 A 
BRANCH  29  30
ATOM     30  C   UNL A   1      40.300  28.540  30.497  1.00  0.00     0.031 A 
ATOM     31  C   UNL A   1      41.287  28.489  31.633  1.00  0.00     0.074 A 
ATOM     32  C   UNL A   1      39.417  29.555  30.420  1.00  0.00     0.049 A 
ATOM     33  N   UNL A   1      41.324  29.194  32.734  1.00  0.00    -0.248 NA
ATOM     34  C   UNL A   1      42.373  27.503  31.515  1.00  0.00     0.031 C 
ATOM     35  C   UNL A   1      38.466  29.775  29.331  1.00  0.00     0.029 A 
ATOM     36  N   UNL A   1      39.184  30.600  31.281  1.00  0.00    -0.354 N 
ATOM     37  C   UNL A   1      42.399  28.697  33.464  1.00  0.00     0.074 A 
ATOM     38  C   UNL A   1      42.987  27.632  32.682  1.00  0.00     0.031 C 
ATOM     39  C   UNL A   1      37.764  30.893  29.580  1.00  0.00     0.029 A 
ATOM     40  C   UNL A   1      38.170  31.434  30.875  1.00  0.00     0.049 A 
ATOM     41  H   UNL A   1      39.695  30.738  32.111  1.00  0.00     0.167 HD
ATOM     42  C   UNL A   1      42.851  29.091  34.678  1.00  0.00     0.037 A 
ATOM     43  C   UNL A   1      37.612  32.495  31.492  1.00  0.00     0.037 A 
ATOM     44  C   UNL A   1      42.297  30.188  35.426  1.00  0.00     0.049 A 
ATOM     45  C   UNL A   1      38.117  32.904  32.851  1.00  0.00     0.074 A 
ATOM     46  C   UNL A   1      42.672  30.661  36.671  1.00  0.00     0.029 A 
ATOM     47  N   UNL A   1      41.261  30.999  34.985  1.00  0.00    -0.354 N 
ATOM     48  N   UNL A   1      39.083  32.376  33.566  1.00  0.00    -0.248 NA
ATOM     49  C   UNL A   1      37.449  34.044  33.493  1.00  0.00     0.031 C 
ATOM     50  C   UNL A   1      41.846  31.744  36.994  1.00  0.00     0.029 A 
ATOM     51  C   UNL A   1      40.983  31.969  35.934  1.00  0.00     0.049 A 
ATOM     52  H   UNL A   1      40.791  30.898  34.126  1.00  0.00     0.167 HD
ATOM     53  C   UNL A   1      39.155  33.137  34.728  1.00  0.00     0.074 A 
ATOM     54  C   UNL A   1      38.141  34.165  34.616  1.00  0.00     0.031 C 
ATOM     55  C   UNL A   1      39.983  32.996  35.794  1.00  0.00     0.037 A 
BRANCH  42  56
ATOM     56  C   UNL A   1      43.971  28.296  35.288  1.00  0.00     0.058 A 
ATOM     57  C   UNL A   1      43.739  27.183  36.108  1.00  0.00     0.135 A 
ATOM     58  C   UNL A   1      45.305  28.666  35.045  1.00  0.00     0.135 A 
ATOM     59  F   UNL A   1      42.483  26.801  36.390  1.00  0.00    -0.206 F 
ATOM     60  C   UNL A   1      44.789  26.479  36.693  1.00  0.00     0.059 A 
ATOM     61  C   UNL A   1      46.370  27.963  35.599  1.00  0.00     0.059 A 
ATOM     62  F   UNL A   1      45.583  29.727  34.271  1.00  0.00    -0.206 F 
ATOM     63  C   UNL A   1      46.101  26.883  36.437  1.00  0.00     0.060 A 
BRANCH  63  64
ATOM     64  S   UNL A   1      47.456  25.974  37.212  1.00  0.00     0.124 S 
ATOM     65  O   UNL A   1      46.852  25.582  38.482  1.00  0.00    -0.237 OA
ATOM     66  O   UNL A   1      47.693  24.891  36.263  1.00  0.00    -0.237 OA
ATOM     67  O   UNL A   1      48.522  26.967  37.303  1.00  0.00    -0.744 OA
ENDBRANCH  63  64
ENDBRANCH  42  56
BRANCH  43  68
ATOM     68  C   UNL A   1      36.495  33.235  30.844  1.00  0.00     0.058 A 
ATOM     69  C   UNL A   1      35.174  33.089  31.293  1.00  0.00     0.135 A 
ATOM     70  C   UNL A   1      36.724  34.095  29.759  1.00  0.00     0.135 A 
ATOM     71  F   UNL A   1      34.902  32.267  32.319  1.00  0.00    -0.206 F 
ATOM     72  C   UNL A   1      34.118  33.757  30.683  1.00  0.00     0.059 A 
ATOM     73  C   UNL A   1      35.687  34.795  29.149  1.00  0.00     0.059 A 
ATOM     74  F   UNL A   1      37.970  34.276  29.296  1.00  0.00    -0.206 F 
ATOM     75  C   UNL A   1      34.386  34.610  29.611  1.00  0.00     0.060 A 
BRANCH  75  76
ATOM     76  S   UNL A   1      33.016  35.510  28.851  1.00  0.00     0.124 S 
ATOM     77  O   UNL A   1      32.374  34.462  28.068  1.00  0.00    -0.237 OA
ATOM     78  O   UNL A   1      32.273  35.983  30.015  1.00  0.00    -0.237 OA
ATOM     79  O   UNL A   1      33.688  36.553  28.082  1.00  0.00    -0.744 OA
ENDBRANCH  75  76
ENDBRANCH  43  68
BRANCH  55  80
ATOM     80  C   UNL A   1      39.865  34.012  36.895  1.00  0.00     0.058 A 
ATOM     81  C   UNL A   1      40.480  35.270  36.810  1.00  0.00     0.135 A 
ATOM     82  C   UNL A   1      39.098  33.730  38.038  1.00  0.00     0.135 A 
ATOM     83  F   UNL A   1      41.227  35.586  35.740  1.00  0.00    -0.206 F 
ATOM     84  C   UNL A   1      40.364  36.204  37.834  1.00  0.00     0.059 A 
ATOM     85  C   UNL A   1      38.950  34.658  39.062  1.00  0.00     0.059 A 
ATOM     86  F   UNL A   1      38.480  32.545  38.161  1.00  0.00    -0.206 F 
ATOM     87  C   UNL A   1      39.599  35.888  38.958  1.00  0.00     0.060 A 
BRANCH  87  88
ATOM     88  S   UNL A   1      39.441  37.110  40.278  1.00  0.00     0.124 S 
ATOM     89  O   UNL A   1      40.814  37.200  40.760  1.00  0.00    -0.237 OA
ATOM     90  O   UNL A   1      38.941  38.281  39.564  1.00  0.00    -0.237 OA
ATOM     91  O   UNL A   1      38.489  36.493  41.198  1.00  0.00    -0.744 OA
ENDBRANCH  87  88
ENDBRANCH  55  80
ENDBRANCH  29  30
ENDBRANCH  22  24
ENDBRANCH  21  22
ENDBRANCH   1  21
TORSDOF 17
ENDMDL
MODEL 3
REMARK VINA RESULT:      -9.9      3.221      4.174
REMARK SMILES CC[C@@](C)([NH2+][C@H]1CC[C@H](C)[C@H](C)C1)C(=O)OCCOC(=O)c1ccc(-c2c3nc(c(-c4c(F)cc(S(=O)(=O)[O-])cc4F)c4ccc([nH]4)c(-c4c(F)cc(S(=O)(=O)[O-])cc4F)c4nc(c(-c5c(F)cc(S(=O)(=O)[O-])cc5F)c5ccc2[nH]5)C=C4)C=C3)cc1
REMARK SMILES IDX 18 1 17 2 16 3 14 4 15 5 3 6 4 7 2 8 1 9 5 10 6 13 7 14
REMARK SMILES IDX 13 15 8 16 11 17 9 18 12 19 10 20 19 21 20 22 21 23 22 24
REMARK SMILES IDX 23 25 87 26 24 27 86 28 25 29 26 30 27 31 80 32 28 33 85 34
REMARK SMILES IDX 79 35 81 36 29 37 84 38 78 39 77 40 30 42 64 43 43 44 63 45
REMARK SMILES IDX 44 46 47 47 62 48 82 49 45 50 46 51 61 53 83 54 48 55 31 56
REMARK SMILES IDX 32 57 41 58 33 59 34 60 40 61 42 62 35 63 36 64 37 65 38 66
REMARK SMILES IDX 39 67 65 68 66 69 75 70 67 71 68 72 74 73 76 74 69 75 70 76
REMARK SMILES IDX 71 77 72 78 73 79 49 80 50 81 59 82 51 83 52 84 58 85 60 86
REMARK SMILES IDX 53 87 54 88 55 89 56 90 57 91
REMARK H PARENT 5 11 5 12 81 41 47 52
REMARK Flexibility Score: inf
ROOT
ATOM      1  C   UNL A   1      32.271  30.490  26.923  1.00  0.00     0.275 C 
ENDROOT
BRANCH   1   2
ATOM      2  C   UNL A   1      31.779  29.077  27.238  1.00  0.00     0.274 C 
BRANCH   2   3
ATOM      3  O   UNL A   1      32.080  28.197  26.135  1.00  0.00    -0.457 OA
BRANCH   3   4
ATOM      4  C   UNL A   1      31.171  27.201  25.904  1.00  0.00     0.367 C 
ATOM      5  O   UNL A   1      30.778  26.440  26.783  1.00  0.00    -0.245 OA
BRANCH   4   6
ATOM      6  C   UNL A   1      30.719  27.122  24.400  1.00  0.00     0.191 C 
ATOM      7  C   UNL A   1      29.402  26.325  24.252  1.00  0.00     0.092 C 
BRANCH   6   8
ATOM      8  C   UNL A   1      30.449  28.555  23.846  1.00  0.00     0.077 C 
ATOM      9  C   UNL A   1      29.911  28.624  22.422  1.00  0.00     0.011 C 
ENDBRANCH   6   8
BRANCH   6  10
ATOM     10  N   UNL A   1      31.817  26.579  23.561  1.00  0.00    -0.330 N 
ATOM     11  H   UNL A   1      32.452  27.359  23.389  1.00  0.00     0.347 HD
ATOM     12  H   UNL A   1      31.300  26.167  22.785  1.00  0.00     0.347 HD
BRANCH  10  13
ATOM     13  C   UNL A   1      32.657  25.457  23.990  1.00  0.00     0.183 C 
ATOM     14  C   UNL A   1      32.820  24.546  22.751  1.00  0.00     0.065 C 
ATOM     15  C   UNL A   1      34.043  25.765  24.588  1.00  0.00     0.068 C 
ATOM     16  C   UNL A   1      33.715  23.322  22.983  1.00  0.00     0.010 C 
ATOM     17  C   UNL A   1      34.833  24.496  24.938  1.00  0.00    -0.006 C 
ATOM     18  C   UNL A   1      35.050  23.691  23.641  1.00  0.00    -0.011 C 
ATOM     19  C   UNL A   1      34.159  23.708  26.068  1.00  0.00     0.008 C 
ATOM     20  C   UNL A   1      35.933  22.464  23.858  1.00  0.00     0.008 C 
ENDBRANCH  10  13
ENDBRANCH   6  10
ENDBRANCH   4   6
ENDBRANCH   3   4
ENDBRANCH   2   3
ENDBRANCH   1   2
BRANCH   1  21
ATOM     21  O   UNL A   1      33.707  30.464  26.938  1.00  0.00    -0.458 OA
BRANCH  21  22
ATOM     22  C   UNL A   1      34.283  31.473  27.628  1.00  0.00     0.338 C 
ATOM     23  O   UNL A   1      33.762  32.484  28.059  1.00  0.00    -0.246 OA
BRANCH  22  24
ATOM     24  C   UNL A   1      35.626  31.018  28.009  1.00  0.00     0.060 A 
ATOM     25  C   UNL A   1      35.794  29.645  28.168  1.00  0.00     0.016 A 
ATOM     26  C   UNL A   1      36.669  31.897  28.273  1.00  0.00     0.016 A 
ATOM     27  C   UNL A   1      36.981  29.131  28.675  1.00  0.00     0.010 A 
ATOM     28  C   UNL A   1      37.881  31.379  28.745  1.00  0.00     0.010 A 
ATOM     29  C   UNL A   1      38.029  29.998  28.994  1.00  0.00    -0.014 A 
BRANCH  29  30
ATOM     30  C   UNL A   1      39.212  29.483  29.734  1.00  0.00     0.031 A 
ATOM     31  C   UNL A   1      39.548  30.091  31.070  1.00  0.00     0.074 A 
ATOM     32  C   UNL A   1      39.943  28.455  29.261  1.00  0.00     0.049 A 
ATOM     33  N   UNL A   1      40.605  29.916  31.821  1.00  0.00    -0.248 NA
ATOM     34  C   UNL A   1      38.562  31.030  31.631  1.00  0.00     0.031 C 
ATOM     35  C   UNL A   1      39.675  27.717  28.027  1.00  0.00     0.029 A 
ATOM     36  N   UNL A   1      41.064  27.849  29.775  1.00  0.00    -0.354 N 
ATOM     37  C   UNL A   1      40.439  30.766  32.909  1.00  0.00     0.074 A 
ATOM     38  C   UNL A   1      39.180  31.455  32.722  1.00  0.00     0.031 C 
ATOM     39  C   UNL A   1      40.595  26.748  27.887  1.00  0.00     0.029 A 
ATOM     40  C   UNL A   1      41.553  26.835  28.986  1.00  0.00     0.049 A 
ATOM     41  H   UNL A   1      41.477  28.116  30.628  1.00  0.00     0.167 HD
ATOM     42  C   UNL A   1      41.263  30.957  33.966  1.00  0.00     0.037 A 
ATOM     43  C   UNL A   1      42.664  26.085  29.121  1.00  0.00     0.037 A 
ATOM     44  C   UNL A   1      42.486  30.228  34.175  1.00  0.00     0.049 A 
ATOM     45  C   UNL A   1      43.578  26.327  30.293  1.00  0.00     0.074 A 
ATOM     46  C   UNL A   1      43.401  30.353  35.206  1.00  0.00     0.029 A 
ATOM     47  N   UNL A   1      42.953  29.219  33.345  1.00  0.00    -0.354 N 
ATOM     48  N   UNL A   1      43.450  27.188  31.276  1.00  0.00    -0.248 NA
ATOM     49  C   UNL A   1      44.794  25.505  30.370  1.00  0.00     0.031 C 
ATOM     50  C   UNL A   1      44.435  29.435  34.986  1.00  0.00     0.029 A 
ATOM     51  C   UNL A   1      44.144  28.713  33.840  1.00  0.00     0.049 A 
ATOM     52  H   UNL A   1      42.506  28.909  32.525  1.00  0.00     0.167 HD
ATOM     53  C   UNL A   1      44.553  26.992  32.100  1.00  0.00     0.074 A 
ATOM     54  C   UNL A   1      45.333  25.925  31.505  1.00  0.00     0.031 C 
ATOM     55  C   UNL A   1      44.893  27.637  33.243  1.00  0.00     0.037 A 
BRANCH  42  56
ATOM     56  C   UNL A   1      40.887  32.029  34.950  1.00  0.00     0.058 A 
ATOM     57  C   UNL A   1      41.364  33.343  34.843  1.00  0.00     0.135 A 
ATOM     58  C   UNL A   1      40.032  31.726  36.023  1.00  0.00     0.135 A 
ATOM     59  F   UNL A   1      42.201  33.680  33.849  1.00  0.00    -0.206 F 
ATOM     60  C   UNL A   1      41.033  34.315  35.783  1.00  0.00     0.059 A 
ATOM     61  C   UNL A   1      39.668  32.687  36.961  1.00  0.00     0.059 A 
ATOM     62  F   UNL A   1      39.551  30.482  36.175  1.00  0.00    -0.206 F 
ATOM     63  C   UNL A   1      40.189  33.974  36.843  1.00  0.00     0.060 A 
BRANCH  63  64
ATOM     64  S   UNL A   1      39.777  35.238  38.066  1.00  0.00     0.124 S 
ATOM     65  O   UNL A   1      38.528  34.714  38.612  1.00  0.00    -0.237 OA
ATOM     66  O   UNL A   1      40.928  35.196  38.963  1.00  0.00    -0.237 OA
ATOM     67  O   UNL A   1      39.652  36.454  37.268  1.00  0.00    -0.744 OA
ENDBRANCH  63  64
ENDBRANCH  42  56
BRANCH  43  68
ATOM     68  C   UNL A   1      42.993  25.046  28.107  1.00  0.00     0.058 A 
ATOM     69  C   UNL A   1      43.664  25.379  26.921  1.00  0.00     0.135 A 
ATOM     70  C   UNL A   1      42.634  23.703  28.298  1.00  0.00     0.135 A 
ATOM     71  F   UNL A   1      44.015  26.653  26.685  1.00  0.00    -0.206 F 
ATOM     72  C   UNL A   1      43.957  24.422  25.954  1.00  0.00     0.059 A 
ATOM     73  C   UNL A   1      42.940  22.723  27.357  1.00  0.00     0.059 A 
ATOM     74  F   UNL A   1      41.997  23.330  29.418  1.00  0.00    -0.206 F 
ATOM     75  C   UNL A   1      43.591  23.096  26.183  1.00  0.00     0.060 A 
BRANCH  75  76
ATOM     76  S   UNL A   1      44.014  21.850  24.945  1.00  0.00     0.124 S 
ATOM     77  O   UNL A   1      43.045  20.801  25.241  1.00  0.00    -0.237 OA
ATOM     78  O   UNL A   1      43.808  22.574  23.695  1.00  0.00    -0.237 OA
ATOM     79  O   UNL A   1      45.405  21.531  25.254  1.00  0.00    -0.744 OA
ENDBRANCH  75  76
ENDBRANCH  43  68
BRANCH  55  80
ATOM     80  C   UNL A   1      46.131  27.168  33.956  1.00  0.00     0.058 A 
ATOM     81  C   UNL A   1      47.393  27.717  33.684  1.00  0.00     0.135 A 
ATOM     82  C   UNL A   1      46.043  26.178  34.949  1.00  0.00     0.135 A 
ATOM     83  F   UNL A   1      47.530  28.663  32.741  1.00  0.00    -0.206 F 
ATOM     84  C   UNL A   1      48.533  27.278  34.351  1.00  0.00     0.059 A 
ATOM     85  C   UNL A   1      47.166  25.742  35.643  1.00  0.00     0.059 A 
ATOM     86  F   UNL A   1      44.856  25.632  35.254  1.00  0.00    -0.206 F 
ATOM     87  C   UNL A   1      48.409  26.287  35.326  1.00  0.00     0.060 A 
BRANCH  87  88
ATOM     88  S   UNL A   1      49.890  25.732  36.198  1.00  0.00     0.124 S 
ATOM     89  O   UNL A   1      50.836  25.579  35.099  1.00  0.00    -0.237 OA
ATOM     90  O   UNL A   1      50.152  26.841  37.111  1.00  0.00    -0.237 OA
ATOM     91  O   UNL A   1      49.461  24.492  36.837  1.00  0.00    -0.744 OA
ENDBRANCH  87  88
ENDBRANCH  55  80
ENDBRANCH  29  30
ENDBRANCH  22  24
ENDBRANCH  21  22
ENDBRANCH   1  21
TORSDOF 17
ENDMDL
