MODEL 1
REMARK VINA RESULT:      -9.8      0.000      0.000
REMARK SMILES O=C(CNC(=O)OCc1ccccc1)NCC(=O)OCCOC(=O)c1ccc(-c2c3nc(c(-c4c(F)cc(S(=O)(=O)[O-])cc4F)c4ccc([nH]4)c(-c4c(F)cc(S(=O)(=O)[O-])cc4F)c4nc(c(-c5c(F)cc(S(=O)(=O)[O-])cc5F)c5ccc2[nH]5)C=C4)C=C3)cc1
REMARK SMILES IDX 19 1 17 2 18 3 16 4 15 5 1 6 2 7 3 9 4 10 5 11 6 13 7 14
REMARK SMILES IDX 8 15 9 16 10 17 14 18 11 19 13 20 12 21 20 22 21 23 22 24
REMARK SMILES IDX 23 25 24 26 25 27 26 28 90 29 27 30 89 31 28 32 29 33 30 34
REMARK SMILES IDX 83 35 31 36 88 37 82 38 84 39 32 40 87 41 81 42 80 43 33 45
REMARK SMILES IDX 67 46 46 47 66 48 47 49 50 50 65 51 85 52 48 53 49 54 64 56
REMARK SMILES IDX 86 57 51 58 34 59 35 60 44 61 36 62 37 63 43 64 45 65 38 66
REMARK SMILES IDX 39 67 40 68 41 69 42 70 68 71 69 72 78 73 70 74 71 75 77 76
REMARK SMILES IDX 79 77 72 78 73 79 74 80 75 81 76 82 52 83 53 84 62 85 54 86
REMARK SMILES IDX 55 87 61 88 63 89 56 90 57 91 58 92 59 93 60 94
REMARK H PARENT 15 8 4 12 84 44 50 55
REMARK Flexibility Score: inf
ROOT
ATOM      1  O   UNL A   1      36.853  34.947  33.620  1.00  0.00    -0.461 OA
ENDROOT
BRANCH   1   2
ATOM      2  C   UNL A   1      35.581  34.533  33.871  1.00  0.00     0.325 C 
ATOM      3  O   UNL A   1      35.255  33.794  34.793  1.00  0.00    -0.250 OA
BRANCH   2   4
ATOM      4  C   UNL A   1      34.574  35.086  32.866  1.00  0.00     0.238 C 
BRANCH   4   5
ATOM      5  N   UNL A   1      34.915  34.904  31.466  1.00  0.00    -0.344 N 
ATOM      6  O   UNL A   1      34.175  32.742  31.315  1.00  0.00    -0.273 OA
ATOM      7  C   UNL A   1      34.632  33.748  30.779  1.00  0.00     0.240 C 
ATOM      8  H   UNL A   1      35.367  35.637  30.991  1.00  0.00     0.164 HD
BRANCH   7   9
ATOM      9  C   UNL A   1      35.013  33.782  29.301  1.00  0.00     0.219 C 
BRANCH   9  10
ATOM     10  N   UNL A   1      33.824  33.986  28.495  1.00  0.00    -0.312 N 
ATOM     11  C   UNL A   1      33.061  33.027  27.902  1.00  0.00     0.407 C 
ATOM     12  H   UNL A   1      33.537  34.919  28.364  1.00  0.00     0.167 HD
ATOM     13  O   UNL A   1      32.094  33.321  27.222  1.00  0.00    -0.225 OA
BRANCH  11  14
ATOM     14  O   UNL A   1      33.504  31.772  28.158  1.00  0.00    -0.445 OA
BRANCH  14  15
ATOM     15  C   UNL A   1      33.981  31.061  27.008  1.00  0.00     0.270 C 
BRANCH  15  16
ATOM     16  C   UNL A   1      33.361  29.689  26.915  1.00  0.00    -0.011 A 
ATOM     17  C   UNL A   1      32.023  29.477  27.274  1.00  0.00     0.007 A 
ATOM     18  C   UNL A   1      34.123  28.601  26.467  1.00  0.00     0.007 A 
ATOM     19  C   UNL A   1      31.454  28.207  27.169  1.00  0.00     0.000 A 
ATOM     20  C   UNL A   1      33.555  27.331  26.365  1.00  0.00     0.000 A 
ATOM     21  C   UNL A   1      32.220  27.134  26.715  1.00  0.00     0.000 A 
ENDBRANCH  15  16
ENDBRANCH  14  15
ENDBRANCH  11  14
ENDBRANCH   9  10
ENDBRANCH   7   9
ENDBRANCH   4   5
ENDBRANCH   2   4
ENDBRANCH   1   2
BRANCH   1  22
ATOM     22  C   UNL A   1      37.897  33.980  33.827  1.00  0.00     0.274 C 
BRANCH  22  23
ATOM     23  C   UNL A   1      38.425  33.481  32.479  1.00  0.00     0.275 C 
BRANCH  23  24
ATOM     24  O   UNL A   1      37.462  32.659  31.795  1.00  0.00    -0.458 OA
BRANCH  24  25
ATOM     25  C   UNL A   1      37.576  31.325  31.993  1.00  0.00     0.338 C 
ATOM     26  O   UNL A   1      36.810  30.590  32.597  1.00  0.00    -0.246 OA
BRANCH  25  27
ATOM     27  C   UNL A   1      38.741  30.830  31.245  1.00  0.00     0.060 A 
ATOM     28  C   UNL A   1      39.827  30.322  31.962  1.00  0.00     0.016 A 
ATOM     29  C   UNL A   1      38.787  30.935  29.856  1.00  0.00     0.016 A 
ATOM     30  C   UNL A   1      40.985  29.939  31.291  1.00  0.00     0.010 A 
ATOM     31  C   UNL A   1      39.943  30.535  29.184  1.00  0.00     0.010 A 
ATOM     32  C   UNL A   1      41.054  30.050  29.897  1.00  0.00    -0.014 A 
BRANCH  32  33
ATOM     33  C   UNL A   1      42.298  29.710  29.167  1.00  0.00     0.031 A 
ATOM     34  C   UNL A   1      42.491  28.311  28.658  1.00  0.00     0.074 A 
ATOM     35  C   UNL A   1      43.258  30.638  29.000  1.00  0.00     0.049 A 
ATOM     36  N   UNL A   1      43.570  27.743  28.185  1.00  0.00    -0.248 NA
ATOM     37  C   UNL A   1      41.313  27.429  28.698  1.00  0.00     0.031 C 
ATOM     38  C   UNL A   1      43.155  32.043  29.401  1.00  0.00     0.029 A 
ATOM     39  N   UNL A   1      44.520  30.533  28.473  1.00  0.00    -0.354 N 
ATOM     40  C   UNL A   1      43.211  26.432  27.898  1.00  0.00     0.074 A 
ATOM     41  C   UNL A   1      41.818  26.283  28.265  1.00  0.00     0.031 C 
ATOM     42  C   UNL A   1      44.312  32.664  29.120  1.00  0.00     0.029 A 
ATOM     43  C   UNL A   1      45.256  31.689  28.580  1.00  0.00     0.049 A 
ATOM     44  H   UNL A   1      44.865  29.709  28.059  1.00  0.00     0.167 HD
ATOM     45  C   UNL A   1      43.978  25.446  27.375  1.00  0.00     0.037 A 
ATOM     46  C   UNL A   1      46.557  31.923  28.318  1.00  0.00     0.037 A 
ATOM     47  C   UNL A   1      45.359  25.619  27.006  1.00  0.00     0.049 A 
ATOM     48  C   UNL A   1      47.413  30.792  27.809  1.00  0.00     0.074 A 
ATOM     49  C   UNL A   1      46.231  24.687  26.473  1.00  0.00     0.029 A 
ATOM     50  N   UNL A   1      46.069  26.806  27.132  1.00  0.00    -0.354 N 
ATOM     51  N   UNL A   1      47.073  29.548  27.564  1.00  0.00    -0.248 NA
ATOM     52  C   UNL A   1      48.828  31.090  27.548  1.00  0.00     0.031 C 
ATOM     53  C   UNL A   1      47.480  25.297  26.317  1.00  0.00     0.029 A 
ATOM     54  C   UNL A   1      47.370  26.626  26.697  1.00  0.00     0.049 A 
ATOM     55  H   UNL A   1      45.700  27.650  27.478  1.00  0.00     0.167 HD
ATOM     56  C   UNL A   1      48.219  28.929  27.077  1.00  0.00     0.074 A 
ATOM     57  C   UNL A   1      49.265  29.931  27.071  1.00  0.00     0.031 C 
ATOM     58  C   UNL A   1      48.387  27.649  26.664  1.00  0.00     0.037 A 
BRANCH  45  59
ATOM     59  C   UNL A   1      43.356  24.088  27.199  1.00  0.00     0.058 A 
ATOM     60  C   UNL A   1      42.915  23.631  25.947  1.00  0.00     0.135 A 
ATOM     61  C   UNL A   1      43.232  23.216  28.294  1.00  0.00     0.135 A 
ATOM     62  F   UNL A   1      42.993  24.429  24.870  1.00  0.00    -0.206 F 
ATOM     63  C   UNL A   1      42.351  22.368  25.791  1.00  0.00     0.059 A 
ATOM     64  C   UNL A   1      42.699  21.939  28.156  1.00  0.00     0.059 A 
ATOM     65  F   UNL A   1      43.636  23.602  29.514  1.00  0.00    -0.206 F 
ATOM     66  C   UNL A   1      42.248  21.529  26.902  1.00  0.00     0.060 A 
BRANCH  66  67
ATOM     67  S   UNL A   1      41.515  19.893  26.683  1.00  0.00     0.124 S 
ATOM     68  O   UNL A   1      42.109  19.157  27.796  1.00  0.00    -0.237 OA
ATOM     69  O   UNL A   1      40.087  20.172  26.797  1.00  0.00    -0.237 OA
ATOM     70  O   UNL A   1      41.969  19.492  25.355  1.00  0.00    -0.744 OA
ENDBRANCH  66  67
ENDBRANCH  45  59
BRANCH  46  71
ATOM     71  C   UNL A   1      47.135  33.273  28.552  1.00  0.00     0.058 A 
ATOM     72  C   UNL A   1      47.161  34.233  27.531  1.00  0.00     0.135 A 
ATOM     73  C   UNL A   1      47.664  33.635  29.802  1.00  0.00     0.135 A 
ATOM     74  F   UNL A   1      46.675  33.934  26.317  1.00  0.00    -0.206 F 
ATOM     75  C   UNL A   1      47.709  35.497  27.732  1.00  0.00     0.059 A 
ATOM     76  C   UNL A   1      48.190  34.901  30.036  1.00  0.00     0.059 A 
ATOM     77  F   UNL A   1      47.650  32.758  30.818  1.00  0.00    -0.206 F 
ATOM     78  C   UNL A   1      48.219  35.821  28.990  1.00  0.00     0.060 A 
BRANCH  78  79
ATOM     79  S   UNL A   1      48.896  37.475  29.248  1.00  0.00     0.124 S 
ATOM     80  O   UNL A   1      48.213  37.885  30.470  1.00  0.00    -0.237 OA
ATOM     81  O   UNL A   1      50.325  37.206  29.374  1.00  0.00    -0.237 OA
ATOM     82  O   UNL A   1      48.505  38.190  28.036  1.00  0.00    -0.744 OA
ENDBRANCH  78  79
ENDBRANCH  46  71
BRANCH  58  83
ATOM     83  C   UNL A   1      49.723  27.264  26.095  1.00  0.00     0.058 A 
ATOM     84  C   UNL A   1      50.773  26.806  26.903  1.00  0.00     0.135 A 
ATOM     85  C   UNL A   1      49.911  27.252  24.702  1.00  0.00     0.135 A 
ATOM     86  F   UNL A   1      50.646  26.807  28.240  1.00  0.00    -0.206 F 
ATOM     87  C   UNL A   1      51.964  26.346  26.351  1.00  0.00     0.059 A 
ATOM     88  C   UNL A   1      51.083  26.772  24.128  1.00  0.00     0.059 A 
ATOM     89  F   UNL A   1      48.933  27.674  23.884  1.00  0.00    -0.206 F 
ATOM     90  C   UNL A   1      52.105  26.322  24.961  1.00  0.00     0.060 A 
BRANCH  90  91
ATOM     91  S   UNL A   1      53.620  25.639  24.257  1.00  0.00     0.124 S 
ATOM     92  O   UNL A   1      54.645  26.371  24.994  1.00  0.00    -0.237 OA
ATOM     93  O   UNL A   1      53.501  24.220  24.576  1.00  0.00    -0.237 OA
ATOM     94  O   UNL A   1      53.515  25.967  22.837  1.00  0.00    -0.744 OA
ENDBRANCH  90  91
ENDBRANCH  58  83
ENDBRANCH  32  33
ENDBRANCH  25  27
ENDBRANCH  24  25
ENDBRANCH  23  24
ENDBRANCH  22  23
ENDBRANCH   1  22
TORSDOF 20
ENDMDL
MODEL 2
REMARK VINA RESULT:      -9.7      5.791     13.488
REMARK SMILES O=C(CNC(=O)OCc1ccccc1)NCC(=O)OCCOC(=O)c1ccc(-c2c3nc(c(-c4c(F)cc(S(=O)(=O)[O-])cc4F)c4ccc([nH]4)c(-c4c(F)cc(S(=O)(=O)[O-])cc4F)c4nc(c(-c5c(F)cc(S(=O)(=O)[O-])cc5F)c5ccc2[nH]5)C=C4)C=C3)cc1
REMARK SMILES IDX 19 1 17 2 18 3 16 4 15 5 1 6 2 7 3 9 4 10 5 11 6 13 7 14
REMARK SMILES IDX 8 15 9 16 10 17 14 18 11 19 13 20 12 21 20 22 21 23 22 24
REMARK SMILES IDX 23 25 24 26 25 27 26 28 90 29 27 30 89 31 28 32 29 33 30 34
REMARK SMILES IDX 83 35 31 36 88 37 82 38 84 39 32 40 87 41 81 42 80 43 33 45
REMARK SMILES IDX 67 46 46 47 66 48 47 49 50 50 65 51 85 52 48 53 49 54 64 56
REMARK SMILES IDX 86 57 51 58 34 59 35 60 44 61 36 62 37 63 43 64 45 65 38 66
REMARK SMILES IDX 39 67 40 68 41 69 42 70 68 71 69 72 78 73 70 74 71 75 77 76
REMARK SMILES IDX 79 77 72 78 73 79 74 80 75 81 76 82 52 83 53 84 62 85 54 86
REMARK SMILES IDX 55 87 61 88 63 89 56 90 57 91 58 92 59 93 60 94
REMARK H PARENT 15 8 4 12 84 44 50 55
REMARK Flexibility Score: inf
ROOT
ATOM      1  O   UNL A   1      46.205  24.217  24.299  1.00  0.00    -0.461 OA
ENDROOT
BRANCH   1   2
ATOM      2  C   UNL A   1      45.895  22.897  24.421  1.00  0.00     0.325 C 
ATOM      3  O   UNL A   1      46.637  22.047  24.900  1.00  0.00    -0.250 OA
BRANCH   2   4
ATOM      4  C   UNL A   1      44.505  22.567  23.886  1.00  0.00     0.238 C 
BRANCH   4   5
ATOM      5  N   UNL A   1      43.521  22.179  24.882  1.00  0.00    -0.344 N 
ATOM      6  O   UNL A   1      43.866  19.922  24.698  1.00  0.00    -0.273 OA
ATOM      7  C   UNL A   1      43.319  20.871  25.253  1.00  0.00     0.240 C 
ATOM      8  H   UNL A   1      42.978  22.881  25.308  1.00  0.00     0.164 HD
BRANCH   7   9
ATOM      9  C   UNL A   1      42.287  20.682  26.362  1.00  0.00     0.219 C 
BRANCH   9  10
ATOM     10  N   UNL A   1      42.659  21.477  27.516  1.00  0.00    -0.312 N 
ATOM     11  C   UNL A   1      41.856  22.312  28.230  1.00  0.00     0.407 C 
ATOM     12  H   UNL A   1      43.594  21.405  27.817  1.00  0.00     0.167 HD
ATOM     13  O   UNL A   1      42.289  22.954  29.171  1.00  0.00    -0.225 OA
BRANCH  11  14
ATOM     14  O   UNL A   1      40.579  22.329  27.774  1.00  0.00    -0.445 OA
BRANCH  14  15
ATOM     15  C   UNL A   1      40.364  23.175  26.637  1.00  0.00     0.270 C 
BRANCH  15  16
ATOM     16  C   UNL A   1      40.239  24.623  27.046  1.00  0.00    -0.011 A 
ATOM     17  C   UNL A   1      40.708  25.649  26.215  1.00  0.00     0.007 A 
ATOM     18  C   UNL A   1      39.648  24.958  28.272  1.00  0.00     0.007 A 
ATOM     19  C   UNL A   1      40.572  26.985  26.596  1.00  0.00     0.000 A 
ATOM     20  C   UNL A   1      39.516  26.294  28.652  1.00  0.00     0.000 A 
ATOM     21  C   UNL A   1      39.976  27.307  27.814  1.00  0.00     0.000 A 
ENDBRANCH  15  16
ENDBRANCH  14  15
ENDBRANCH  11  14
ENDBRANCH   9  10
ENDBRANCH   7   9
ENDBRANCH   4   5
ENDBRANCH   2   4
ENDBRANCH   1   2
BRANCH   1  22
ATOM     22  C   UNL A   1      47.132  24.753  25.259  1.00  0.00     0.274 C 
BRANCH  22  23
ATOM     23  C   UNL A   1      46.450  25.837  26.098  1.00  0.00     0.275 C 
BRANCH  23  24
ATOM     24  O   UNL A   1      45.766  25.285  27.238  1.00  0.00    -0.458 OA
BRANCH  24  25
ATOM     25  C   UNL A   1      44.414  25.280  27.170  1.00  0.00     0.338 C 
ATOM     26  O   UNL A   1      43.698  24.502  26.559  1.00  0.00    -0.246 OA
BRANCH  25  27
ATOM     27  C   UNL A   1      43.889  26.315  28.072  1.00  0.00     0.060 A 
ATOM     28  C   UNL A   1      44.031  27.656  27.704  1.00  0.00     0.016 A 
ATOM     29  C   UNL A   1      43.328  25.967  29.300  1.00  0.00     0.016 A 
ATOM     30  C   UNL A   1      43.636  28.663  28.580  1.00  0.00     0.010 A 
ATOM     31  C   UNL A   1      42.917  26.978  30.170  1.00  0.00     0.010 A 
ATOM     32  C   UNL A   1      43.083  28.331  29.822  1.00  0.00    -0.014 A 
BRANCH  32  33
ATOM     33  C   UNL A   1      42.715  29.385  30.798  1.00  0.00     0.031 A 
ATOM     34  C   UNL A   1      43.558  29.575  32.026  1.00  0.00     0.074 A 
ATOM     35  C   UNL A   1      41.614  30.132  30.601  1.00  0.00     0.049 A 
ATOM     36  N   UNL A   1      43.311  30.279  33.099  1.00  0.00    -0.248 NA
ATOM     37  C   UNL A   1      44.847  28.864  32.053  1.00  0.00     0.031 C 
ATOM     38  C   UNL A   1      40.753  30.075  29.418  1.00  0.00     0.029 A 
ATOM     39  N   UNL A   1      41.015  31.069  31.405  1.00  0.00    -0.354 N 
ATOM     40  C   UNL A   1      44.399  30.077  33.941  1.00  0.00     0.074 A 
ATOM     41  C   UNL A   1      45.299  29.170  33.262  1.00  0.00     0.031 C 
ATOM     42  C   UNL A   1      39.728  30.927  29.581  1.00  0.00     0.029 A 
ATOM     43  C   UNL A   1      39.825  31.541  30.902  1.00  0.00     0.049 A 
ATOM     44  H   UNL A   1      41.400  31.373  32.258  1.00  0.00     0.167 HD
ATOM     45  C   UNL A   1      44.619  30.604  35.169  1.00  0.00     0.037 A 
ATOM     46  C   UNL A   1      38.896  32.340  31.464  1.00  0.00     0.037 A 
ATOM     47  C   UNL A   1      43.714  31.514  35.822  1.00  0.00     0.049 A 
ATOM     48  C   UNL A   1      39.125  32.853  32.861  1.00  0.00     0.074 A 
ATOM     49  C   UNL A   1      43.837  32.104  37.068  1.00  0.00     0.029 A 
ATOM     50  N   UNL A   1      42.519  31.967  35.281  1.00  0.00    -0.354 N 
ATOM     51  N   UNL A   1      40.143  32.638  33.661  1.00  0.00    -0.248 NA
ATOM     52  C   UNL A   1      38.081  33.711  33.438  1.00  0.00     0.031 C 
ATOM     53  C   UNL A   1      42.696  32.878  37.297  1.00  0.00     0.029 A 
ATOM     54  C   UNL A   1      41.889  32.819  36.171  1.00  0.00     0.049 A 
ATOM     55  H   UNL A   1      42.171  31.719  34.394  1.00  0.00     0.167 HD
ATOM     56  C   UNL A   1      39.882  33.370  34.815  1.00  0.00     0.074 A 
ATOM     57  C   UNL A   1      38.607  34.026  34.614  1.00  0.00     0.031 C 
ATOM     58  C   UNL A   1      40.636  33.493  35.935  1.00  0.00     0.037 A 
BRANCH  45  59
ATOM     59  C   UNL A   1      45.867  30.189  35.899  1.00  0.00     0.058 A 
ATOM     60  C   UNL A   1      45.893  29.069  36.745  1.00  0.00     0.135 A 
ATOM     61  C   UNL A   1      47.064  30.901  35.720  1.00  0.00     0.135 A 
ATOM     62  F   UNL A   1      44.773  28.362  36.966  1.00  0.00    -0.206 F 
ATOM     63  C   UNL A   1      47.055  28.685  37.407  1.00  0.00     0.059 A 
ATOM     64  C   UNL A   1      48.245  30.518  36.349  1.00  0.00     0.059 A 
ATOM     65  F   UNL A   1      47.097  31.981  34.923  1.00  0.00    -0.206 F 
ATOM     66  C   UNL A   1      48.227  29.416  37.202  1.00  0.00     0.060 A 
BRANCH  66  67
ATOM     67  S   UNL A   1      49.727  28.904  38.067  1.00  0.00     0.124 S 
ATOM     68  O   UNL A   1      49.362  29.158  39.457  1.00  0.00    -0.237 OA
ATOM     69  O   UNL A   1      49.842  27.499  37.688  1.00  0.00    -0.237 OA
ATOM     70  O   UNL A   1      50.754  29.784  37.518  1.00  0.00    -0.744 OA
ENDBRANCH  66  67
ENDBRANCH  45  59
BRANCH  46  71
ATOM     71  C   UNL A   1      37.658  32.684  30.716  1.00  0.00     0.058 A 
ATOM     72  C   UNL A   1      37.619  33.789  29.854  1.00  0.00     0.135 A 
ATOM     73  C   UNL A   1      36.491  31.912  30.841  1.00  0.00     0.135 A 
ATOM     74  F   UNL A   1      38.705  34.562  29.707  1.00  0.00    -0.206 F 
ATOM     75  C   UNL A   1      36.464  34.130  29.157  1.00  0.00     0.059 A 
ATOM     76  C   UNL A   1      35.333  32.215  30.132  1.00  0.00     0.059 A 
ATOM     77  F   UNL A   1      36.478  30.834  31.642  1.00  0.00    -0.206 F 
ATOM     78  C   UNL A   1      35.326  33.334  29.302  1.00  0.00     0.060 A 
BRANCH  78  79
ATOM     79  S   UNL A   1      33.844  33.767  28.366  1.00  0.00     0.124 S 
ATOM     80  O   UNL A   1      33.438  32.468  27.842  1.00  0.00    -0.237 OA
ATOM     81  O   UNL A   1      32.984  34.336  29.398  1.00  0.00    -0.237 OA
ATOM     82  O   UNL A   1      34.338  34.720  27.376  1.00  0.00    -0.744 OA
ENDBRANCH  78  79
ENDBRANCH  46  71
BRANCH  58  83
ATOM     83  C   UNL A   1      40.153  34.429  37.007  1.00  0.00     0.058 A 
ATOM     84  C   UNL A   1      39.354  33.991  38.073  1.00  0.00     0.135 A 
ATOM     85  C   UNL A   1      40.595  35.763  37.020  1.00  0.00     0.135 A 
ATOM     86  F   UNL A   1      38.900  32.728  38.102  1.00  0.00    -0.206 F 
ATOM     87  C   UNL A   1      39.010  34.844  39.117  1.00  0.00     0.059 A 
ATOM     88  C   UNL A   1      40.284  36.624  38.065  1.00  0.00     0.059 A 
ATOM     89  F   UNL A   1      41.367  36.229  36.025  1.00  0.00    -0.206 F 
ATOM     90  C   UNL A   1      39.490  36.155  39.110  1.00  0.00     0.060 A 
BRANCH  90  91
ATOM     91  S   UNL A   1      39.110  37.223  40.516  1.00  0.00     0.124 S 
ATOM     92  O   UNL A   1      40.434  37.717  40.879  1.00  0.00    -0.237 OA
ATOM     93  O   UNL A   1      38.207  38.206  39.925  1.00  0.00    -0.237 OA
ATOM     94  O   UNL A   1      38.493  36.314  41.478  1.00  0.00    -0.744 OA
ENDBRANCH  90  91
ENDBRANCH  58  83
ENDBRANCH  32  33
ENDBRANCH  25  27
ENDBRANCH  24  25
ENDBRANCH  23  24
ENDBRANCH  22  23
ENDBRANCH   1  22
TORSDOF 20
ENDMDL
MODEL 3
REMARK VINA RESULT:      -9.6      1.439      3.752
REMARK SMILES O=C(CNC(=O)OCc1ccccc1)NCC(=O)OCCOC(=O)c1ccc(-c2c3nc(c(-c4c(F)cc(S(=O)(=O)[O-])cc4F)c4ccc([nH]4)c(-c4c(F)cc(S(=O)(=O)[O-])cc4F)c4nc(c(-c5c(F)cc(S(=O)(=O)[O-])cc5F)c5ccc2[nH]5)C=C4)C=C3)cc1
REMARK SMILES IDX 19 1 17 2 18 3 16 4 15 5 1 6 2 7 3 9 4 10 5 11 6 13 7 14
REMARK SMILES IDX 8 15 9 16 10 17 14 18 11 19 13 20 12 21 20 22 21 23 22 24
REMARK SMILES IDX 23 25 24 26 25 27 26 28 90 29 27 30 89 31 28 32 29 33 30 34
REMARK SMILES IDX 83 35 31 36 88 37 82 38 84 39 32 40 87 41 81 42 80 43 33 45
REMARK SMILES IDX 67 46 46 47 66 48 47 49 50 50 65 51 85 52 48 53 49 54 64 56
REMARK SMILES IDX 86 57 51 58 34 59 35 60 44 61 36 62 37 63 43 64 45 65 38 66
REMARK SMILES IDX 39 67 40 68 41 69 42 70 68 71 69 72 78 73 70 74 71 75 77 76
REMARK SMILES IDX 79 77 72 78 73 79 74 80 75 81 76 82 52 83 53 84 62 85 54 86
REMARK SMILES IDX 55 87 61 88 63 89 56 90 57 91 58 92 59 93 60 94
REMARK H PARENT 15 8 4 12 84 44 50 55
REMARK Flexibility Score: inf
ROOT
ATOM      1  O   UNL A   1      35.504  32.301  27.613  1.00  0.00    -0.461 OA
ENDROOT
BRANCH   1   2
ATOM      2  C   UNL A   1      34.924  33.431  28.101  1.00  0.00     0.325 C 
ATOM      3  O   UNL A   1      33.745  33.731  27.955  1.00  0.00    -0.250 OA
BRANCH   2   4
ATOM      4  C   UNL A   1      35.909  34.316  28.861  1.00  0.00     0.238 C 
BRANCH   4   5
ATOM      5  N   UNL A   1      36.657  33.662  29.920  1.00  0.00    -0.344 N 
ATOM      6  O   UNL A   1      38.673  34.631  29.429  1.00  0.00    -0.273 OA
ATOM      7  C   UNL A   1      37.986  33.919  30.156  1.00  0.00     0.240 C 
ATOM      8  H   UNL A   1      36.193  33.007  30.490  1.00  0.00     0.164 HD
BRANCH   7   9
ATOM      9  C   UNL A   1      38.569  33.177  31.357  1.00  0.00     0.219 C 
BRANCH   9  10
ATOM     10  N   UNL A   1      38.559  34.045  32.519  1.00  0.00    -0.312 N 
ATOM     11  C   UNL A   1      37.506  34.295  33.345  1.00  0.00     0.407 C 
ATOM     12  H   UNL A   1      39.403  34.502  32.735  1.00  0.00     0.167 HD
ATOM     13  O   UNL A   1      37.608  35.068  34.281  1.00  0.00    -0.225 OA
BRANCH  11  14
ATOM     14  O   UNL A   1      36.392  33.603  33.000  1.00  0.00    -0.445 OA
BRANCH  14  15
ATOM     15  C   UNL A   1      35.194  34.038  33.656  1.00  0.00     0.270 C 
BRANCH  15  16
ATOM     16  C   UNL A   1      34.472  35.085  32.841  1.00  0.00    -0.011 A 
ATOM     17  C   UNL A   1      33.768  34.735  31.681  1.00  0.00     0.007 A 
ATOM     18  C   UNL A   1      34.501  36.428  33.239  1.00  0.00     0.007 A 
ATOM     19  C   UNL A   1      33.091  35.708  30.944  1.00  0.00     0.000 A 
ATOM     20  C   UNL A   1      33.826  37.400  32.500  1.00  0.00     0.000 A 
ATOM     21  C   UNL A   1      33.120  37.040  31.354  1.00  0.00     0.000 A 
ENDBRANCH  15  16
ENDBRANCH  14  15
ENDBRANCH  11  14
ENDBRANCH   9  10
ENDBRANCH   7   9
ENDBRANCH   4   5
ENDBRANCH   2   4
ENDBRANCH   1   2
BRANCH   1  22
ATOM     22  C   UNL A   1      34.703  31.107  27.630  1.00  0.00     0.274 C 
BRANCH  22  23
ATOM     23  C   UNL A   1      35.224  30.140  28.697  1.00  0.00     0.275 C 
BRANCH  23  24
ATOM     24  O   UNL A   1      36.094  30.796  29.637  1.00  0.00    -0.458 OA
BRANCH  24  25
ATOM     25  C   UNL A   1      36.790  29.982  30.466  1.00  0.00     0.338 C 
ATOM     26  O   UNL A   1      36.370  29.355  31.425  1.00  0.00    -0.246 OA
BRANCH  25  27
ATOM     27  C   UNL A   1      38.164  29.851  29.961  1.00  0.00     0.060 A 
ATOM     28  C   UNL A   1      38.394  30.033  28.594  1.00  0.00     0.016 A 
ATOM     29  C   UNL A   1      39.201  29.481  30.816  1.00  0.00     0.016 A 
ATOM     30  C   UNL A   1      39.664  29.818  28.067  1.00  0.00     0.010 A 
ATOM     31  C   UNL A   1      40.478  29.282  30.288  1.00  0.00     0.010 A 
ATOM     32  C   UNL A   1      40.714  29.434  28.910  1.00  0.00    -0.014 A 
BRANCH  32  33
ATOM     33  C   UNL A   1      42.059  29.136  28.363  1.00  0.00     0.031 A 
ATOM     34  C   UNL A   1      42.381  27.734  27.931  1.00  0.00     0.074 A 
ATOM     35  C   UNL A   1      42.990  30.105  28.295  1.00  0.00     0.049 A 
ATOM     36  N   UNL A   1      43.538  27.208  27.625  1.00  0.00    -0.248 NA
ATOM     37  C   UNL A   1      41.249  26.798  27.843  1.00  0.00     0.031 C 
ATOM     38  C   UNL A   1      42.771  31.513  28.632  1.00  0.00     0.029 A 
ATOM     39  N   UNL A   1      44.314  30.048  27.944  1.00  0.00    -0.354 N 
ATOM     40  C   UNL A   1      43.280  25.873  27.336  1.00  0.00     0.074 A 
ATOM     41  C   UNL A   1      41.859  25.666  27.519  1.00  0.00     0.031 C 
ATOM     42  C   UNL A   1      43.926  32.182  28.487  1.00  0.00     0.029 A 
ATOM     43  C   UNL A   1      44.977  31.241  28.110  1.00  0.00     0.049 A 
ATOM     44  H   UNL A   1      44.749  29.231  27.607  1.00  0.00     0.167 HD
ATOM     45  C   UNL A   1      44.154  24.913  26.952  1.00  0.00     0.037 A 
ATOM     46  C   UNL A   1      46.290  31.531  28.016  1.00  0.00     0.037 A 
ATOM     47  C   UNL A   1      45.563  25.143  26.765  1.00  0.00     0.049 A 
ATOM     48  C   UNL A   1      47.256  30.430  27.663  1.00  0.00     0.074 A 
ATOM     49  C   UNL A   1      46.540  24.241  26.383  1.00  0.00     0.029 A 
ATOM     50  N   UNL A   1      46.196  26.366  26.945  1.00  0.00    -0.354 N 
ATOM     51  N   UNL A   1      47.008  29.165  27.416  1.00  0.00    -0.248 NA
ATOM     52  C   UNL A   1      48.679  30.789  27.582  1.00  0.00     0.031 C 
ATOM     53  C   UNL A   1      47.769  24.907  26.375  1.00  0.00     0.029 A 
ATOM     54  C   UNL A   1      47.550  26.239  26.693  1.00  0.00     0.049 A 
ATOM     55  H   UNL A   1      45.746  27.200  27.211  1.00  0.00     0.167 HD
ATOM     56  C   UNL A   1      48.236  28.590  27.106  1.00  0.00     0.074 A 
ATOM     57  C   UNL A   1      49.227  29.641  27.207  1.00  0.00     0.031 C 
ATOM     58  C   UNL A   1      48.515  27.309  26.762  1.00  0.00     0.037 A 
BRANCH  45  59
ATOM     59  C   UNL A   1      43.623  23.522  26.740  1.00  0.00     0.058 A 
ATOM     60  C   UNL A   1      43.442  22.985  25.455  1.00  0.00     0.135 A 
ATOM     61  C   UNL A   1      43.324  22.700  27.840  1.00  0.00     0.135 A 
ATOM     62  F   UNL A   1      43.695  23.731  24.369  1.00  0.00    -0.206 F 
ATOM     63  C   UNL A   1      42.961  21.692  25.269  1.00  0.00     0.059 A 
ATOM     64  C   UNL A   1      42.870  21.395  27.677  1.00  0.00     0.059 A 
ATOM     65  F   UNL A   1      43.477  23.163  29.091  1.00  0.00    -0.206 F 
ATOM     66  C   UNL A   1      42.678  20.905  26.386  1.00  0.00     0.060 A 
BRANCH  66  67
ATOM     67  S   UNL A   1      42.056  19.229  26.127  1.00  0.00     0.124 S 
ATOM     68  O   UNL A   1      42.835  18.807  24.967  1.00  0.00    -0.237 OA
ATOM     69  O   UNL A   1      42.390  18.574  27.387  1.00  0.00    -0.237 OA
ATOM     70  O   UNL A   1      40.631  19.429  25.886  1.00  0.00    -0.744 OA
ENDBRANCH  66  67
ENDBRANCH  45  59
BRANCH  46  71
ATOM     71  C   UNL A   1      46.769  32.913  28.280  1.00  0.00     0.058 A 
ATOM     72  C   UNL A   1      46.810  33.870  27.256  1.00  0.00     0.135 A 
ATOM     73  C   UNL A   1      47.188  33.309  29.561  1.00  0.00     0.135 A 
ATOM     74  F   UNL A   1      46.428  33.540  26.014  1.00  0.00    -0.206 F 
ATOM     75  C   UNL A   1      47.267  35.165  27.486  1.00  0.00     0.059 A 
ATOM     76  C   UNL A   1      47.622  34.605  29.822  1.00  0.00     0.059 A 
ATOM     77  F   UNL A   1      47.156  32.436  30.580  1.00  0.00    -0.206 F 
ATOM     78  C   UNL A   1      47.669  35.522  28.774  1.00  0.00     0.060 A 
BRANCH  78  79
ATOM     79  S   UNL A   1      48.228  37.214  29.067  1.00  0.00     0.124 S 
ATOM     80  O   UNL A   1      49.676  37.063  28.989  1.00  0.00    -0.237 OA
ATOM     81  O   UNL A   1      47.601  37.940  27.967  1.00  0.00    -0.237 OA
ATOM     82  O   UNL A   1      47.696  37.519  30.393  1.00  0.00    -0.744 OA
ENDBRANCH  78  79
ENDBRANCH  46  71
BRANCH  58  83
ATOM     83  C   UNL A   1      49.932  26.975  26.388  1.00  0.00     0.058 A 
ATOM     84  C   UNL A   1      50.852  26.484  27.324  1.00  0.00     0.135 A 
ATOM     85  C   UNL A   1      50.335  27.046  25.043  1.00  0.00     0.135 A 
ATOM     86  F   UNL A   1      50.519  26.404  28.623  1.00  0.00    -0.206 F 
ATOM     87  C   UNL A   1      52.125  26.071  26.941  1.00  0.00     0.059 A 
ATOM     88  C   UNL A   1      51.591  26.616  24.635  1.00  0.00     0.059 A 
ATOM     89  F   UNL A   1      49.487  27.503  24.108  1.00  0.00    -0.206 F 
ATOM     90  C   UNL A   1      52.480  26.130  25.591  1.00  0.00     0.060 A 
BRANCH  90  91
ATOM     91  S   UNL A   1      54.102  25.509  25.096  1.00  0.00     0.124 S 
ATOM     92  O   UNL A   1      53.846  24.078  24.975  1.00  0.00    -0.237 OA
ATOM     93  O   UNL A   1      54.338  26.219  23.842  1.00  0.00    -0.237 OA
ATOM     94  O   UNL A   1      54.970  25.900  26.203  1.00  0.00    -0.744 OA
ENDBRANCH  90  91
ENDBRANCH  58  83
ENDBRANCH  32  33
ENDBRANCH  25  27
ENDBRANCH  24  25
ENDBRANCH  23  24
ENDBRANCH  22  23
ENDBRANCH   1  22
TORSDOF 20
ENDMDL
