MODEL 1
REMARK VINA RESULT:     -11.7      0.000      0.000
REMARK SMILES CC(=O)NS(=O)(=O)c1ccc(-c2ccn(C(F)F)c(=O)c2)cc1C(=O)OCCOC(=O)c1ccc(-c2c3nc(c(-c4c(F)cc(S(=O)(=O)[O-])cc4F)c4ccc([nH]4)c(-c4c(F)cc(S(=O)(=O)[O-])cc4F)c4nc(c(-c5c(F)cc(S(=O)(=O)[O-])cc5F)c5ccc2[nH]5)C=C4)C=C3)cc1
REMARK SMILES IDX 28 1 27 2 26 3 24 4 25 5 23 6 8 7 9 8 10 9 22 10 11 11 5 12
REMARK SMILES IDX 6 13 7 14 4 15 1 16 2 17 3 18 12 20 13 21 21 22 14 23 19 24
REMARK SMILES IDX 15 25 20 26 16 27 17 28 18 29 29 30 30 31 31 32 32 33 33 34
REMARK SMILES IDX 97 35 34 36 96 37 35 38 36 39 37 40 90 41 38 42 95 43 89 44
REMARK SMILES IDX 91 45 39 46 94 47 88 48 87 49 40 51 74 52 53 53 73 54 54 55
REMARK SMILES IDX 57 56 72 57 92 58 55 59 56 60 71 62 93 63 58 64 41 65 42 66
REMARK SMILES IDX 51 67 43 68 44 69 50 70 52 71 45 72 46 73 47 74 48 75 49 76
REMARK SMILES IDX 75 77 76 78 85 79 77 80 78 81 84 82 86 83 79 84 80 85 81 86
REMARK SMILES IDX 82 87 83 88 59 89 60 90 69 91 61 92 62 93 68 94 70 95 63 96
REMARK SMILES IDX 64 97 65 98 66 99 67 100
REMARK H PARENT 4 19 91 50 57 61
REMARK Flexibility Score: inf
ROOT
ATOM      1  C   UNL A   1      33.993  30.309  27.350  1.00  0.00     0.275 C 
ENDROOT
BRANCH   1   2
ATOM      2  C   UNL A   1      32.775  29.409  27.142  1.00  0.00     0.275 C 
BRANCH   2   3
ATOM      3  O   UNL A   1      33.034  28.476  26.070  1.00  0.00    -0.458 OA
BRANCH   3   4
ATOM      4  C   UNL A   1      32.348  27.312  26.102  1.00  0.00     0.339 C 
ATOM      5  O   UNL A   1      31.404  27.045  26.819  1.00  0.00    -0.246 OA
BRANCH   4   6
ATOM      6  C   UNL A   1      32.771  26.432  24.985  1.00  0.00     0.081 A 
ATOM      7  C   UNL A   1      32.100  26.283  23.770  1.00  0.00     0.102 A 
ATOM      8  C   UNL A   1      32.645  25.457  22.768  1.00  0.00     0.024 A 
ATOM      9  C   UNL A   1      33.786  24.693  23.014  1.00  0.00     0.010 A 
ATOM     10  C   UNL A   1      33.951  25.691  25.203  1.00  0.00     0.025 A 
ATOM     11  C   UNL A   1      34.425  24.779  24.250  1.00  0.00    -0.017 A 
BRANCH   7  12
ATOM     12  S   UNL A   1      30.600  27.135  23.387  1.00  0.00     0.264 S 
ATOM     13  O   UNL A   1      29.501  26.368  23.928  1.00  0.00    -0.201 OA
ATOM     14  O   UNL A   1      30.639  27.457  21.974  1.00  0.00    -0.201 OA
BRANCH  12  15
ATOM     15  N   UNL A   1      30.631  28.566  24.207  1.00  0.00    -0.249 N 
ATOM     16  C   UNL A   1      28.823  29.878  23.081  1.00  0.00     0.115 C 
ATOM     17  C   UNL A   1      30.052  29.810  23.936  1.00  0.00     0.230 C 
ATOM     18  O   UNL A   1      30.521  30.797  24.488  1.00  0.00    -0.274 OA
ATOM     19  H   UNL A   1      31.153  28.538  25.041  1.00  0.00     0.183 HD
ENDBRANCH  12  15
ENDBRANCH   7  12
BRANCH  11  20
ATOM     20  C   UNL A   1      35.527  23.863  24.584  1.00  0.00    -0.011 A 
ATOM     21  C   UNL A   1      35.708  22.596  23.899  1.00  0.00     0.027 A 
ATOM     22  C   UNL A   1      36.377  24.204  25.564  1.00  0.00     0.080 A 
ATOM     23  C   UNL A   1      36.663  21.743  24.288  1.00  0.00     0.095 A 
ATOM     24  C   UNL A   1      37.484  23.288  25.970  1.00  0.00     0.255 A 
ATOM     25  N   UNL A   1      37.521  22.064  25.322  1.00  0.00    -0.258 N 
ATOM     26  O   UNL A   1      38.263  23.676  26.832  1.00  0.00    -0.269 OA
BRANCH  25  27
ATOM     27  C   UNL A   1      38.535  21.125  25.747  1.00  0.00     0.451 C 
ATOM     28  F   UNL A   1      38.457  19.986  25.014  1.00  0.00    -0.185 F 
ATOM     29  F   UNL A   1      39.772  21.648  25.575  1.00  0.00    -0.185 F 
ENDBRANCH  25  27
ENDBRANCH  11  20
ENDBRANCH   4   6
ENDBRANCH   3   4
ENDBRANCH   2   3
ENDBRANCH   1   2
BRANCH   1  30
ATOM     30  O   UNL A   1      35.015  29.573  28.045  1.00  0.00    -0.458 OA
BRANCH  30  31
ATOM     31  C   UNL A   1      35.894  30.320  28.747  1.00  0.00     0.338 C 
ATOM     32  O   UNL A   1      35.658  31.223  29.531  1.00  0.00    -0.246 OA
BRANCH  31  33
ATOM     33  C   UNL A   1      37.240  29.771  28.557  1.00  0.00     0.060 A 
ATOM     34  C   UNL A   1      37.934  29.365  29.693  1.00  0.00     0.016 A 
ATOM     35  C   UNL A   1      37.856  29.764  27.309  1.00  0.00     0.016 A 
ATOM     36  C   UNL A   1      39.275  29.009  29.602  1.00  0.00     0.010 A 
ATOM     37  C   UNL A   1      39.184  29.329  27.209  1.00  0.00     0.010 A 
ATOM     38  C   UNL A   1      39.917  28.971  28.357  1.00  0.00    -0.014 A 
BRANCH  38  39
ATOM     39  C   UNL A   1      41.347  28.566  28.257  1.00  0.00     0.031 A 
ATOM     40  C   UNL A   1      42.442  29.590  28.399  1.00  0.00     0.074 A 
ATOM     41  C   UNL A   1      41.672  27.275  28.034  1.00  0.00     0.049 A 
ATOM     42  N   UNL A   1      43.724  29.466  28.170  1.00  0.00    -0.248 NA
ATOM     43  C   UNL A   1      42.044  30.931  28.856  1.00  0.00     0.031 C 
ATOM     44  C   UNL A   1      40.718  26.170  27.914  1.00  0.00     0.029 A 
ATOM     45  N   UNL A   1      42.894  26.675  27.859  1.00  0.00    -0.354 N 
ATOM     46  C   UNL A   1      44.277  30.724  28.385  1.00  0.00     0.074 A 
ATOM     47  C   UNL A   1      43.190  31.594  28.785  1.00  0.00     0.031 C 
ATOM     48  C   UNL A   1      41.389  25.027  27.712  1.00  0.00     0.029 A 
ATOM     49  C   UNL A   1      42.810  25.328  27.591  1.00  0.00     0.049 A 
ATOM     50  H   UNL A   1      43.749  27.161  27.919  1.00  0.00     0.167 HD
ATOM     51  C   UNL A   1      45.567  31.117  28.252  1.00  0.00     0.037 A 
ATOM     52  C   UNL A   1      43.756  24.438  27.231  1.00  0.00     0.037 A 
ATOM     53  C   UNL A   1      46.649  30.239  27.886  1.00  0.00     0.049 A 
ATOM     54  C   UNL A   1      45.173  24.902  27.062  1.00  0.00     0.074 A 
ATOM     55  C   UNL A   1      47.994  30.539  27.754  1.00  0.00     0.029 A 
ATOM     56  N   UNL A   1      46.513  28.888  27.597  1.00  0.00    -0.354 N 
ATOM     57  N   UNL A   1      45.670  26.105  27.230  1.00  0.00    -0.248 NA
ATOM     58  C   UNL A   1      46.154  23.897  26.632  1.00  0.00     0.031 C 
ATOM     59  C   UNL A   1      48.666  29.377  27.355  1.00  0.00     0.029 A 
ATOM     60  C   UNL A   1      47.747  28.344  27.279  1.00  0.00     0.049 A 
ATOM     61  H   UNL A   1      45.664  28.390  27.616  1.00  0.00     0.167 HD
ATOM     62  C   UNL A   1      47.024  25.999  26.932  1.00  0.00     0.074 A 
ATOM     63  C   UNL A   1      47.271  24.612  26.593  1.00  0.00     0.031 C 
ATOM     64  C   UNL A   1      47.975  26.963  26.937  1.00  0.00     0.037 A 
BRANCH  51  65
ATOM     65  C   UNL A   1      45.880  32.572  28.469  1.00  0.00     0.058 A 
ATOM     66  C   UNL A   1      46.194  33.083  29.739  1.00  0.00     0.135 A 
ATOM     67  C   UNL A   1      45.901  33.461  27.382  1.00  0.00     0.135 A 
ATOM     68  F   UNL A   1      46.170  32.280  30.814  1.00  0.00    -0.206 F 
ATOM     69  C   UNL A   1      46.493  34.429  29.926  1.00  0.00     0.059 A 
ATOM     70  C   UNL A   1      46.220  34.807  27.542  1.00  0.00     0.059 A 
ATOM     71  F   UNL A   1      45.609  33.024  26.147  1.00  0.00    -0.206 F 
ATOM     72  C   UNL A   1      46.499  35.284  28.821  1.00  0.00     0.060 A 
BRANCH  72  73
ATOM     73  S   UNL A   1      46.881  37.030  29.082  1.00  0.00     0.124 S 
ATOM     74  O   UNL A   1      45.566  37.562  29.427  1.00  0.00    -0.237 OA
ATOM     75  O   UNL A   1      47.850  36.981  30.171  1.00  0.00    -0.237 OA
ATOM     76  O   UNL A   1      47.413  37.457  27.792  1.00  0.00    -0.744 OA
ENDBRANCH  72  73
ENDBRANCH  51  65
BRANCH  52  77
ATOM     77  C   UNL A   1      43.373  23.028  26.953  1.00  0.00     0.058 A 
ATOM     78  C   UNL A   1      43.358  22.527  25.646  1.00  0.00     0.135 A 
ATOM     79  C   UNL A   1      43.045  22.147  27.997  1.00  0.00     0.135 A 
ATOM     80  F   UNL A   1      43.646  23.335  24.615  1.00  0.00    -0.206 F 
ATOM     81  C   UNL A   1      43.034  21.199  25.378  1.00  0.00     0.059 A 
ATOM     82  C   UNL A   1      42.744  20.811  27.759  1.00  0.00     0.059 A 
ATOM     83  F   UNL A   1      43.056  22.578  29.269  1.00  0.00    -0.206 F 
ATOM     84  C   UNL A   1      42.735  20.348  26.444  1.00  0.00     0.060 A 
BRANCH  84  85
ATOM     85  S   UNL A   1      42.382  18.611  26.100  1.00  0.00     0.124 S 
ATOM     86  O   UNL A   1      43.301  18.339  24.999  1.00  0.00    -0.237 OA
ATOM     87  O   UNL A   1      42.701  17.971  27.372  1.00  0.00    -0.237 OA
ATOM     88  O   UNL A   1      40.965  18.622  25.751  1.00  0.00    -0.744 OA
ENDBRANCH  84  85
ENDBRANCH  52  77
BRANCH  64  89
ATOM     89  C   UNL A   1      49.375  26.546  26.586  1.00  0.00     0.058 A 
ATOM     90  C   UNL A   1      49.883  26.700  25.287  1.00  0.00     0.135 A 
ATOM     91  C   UNL A   1      50.227  26.016  27.568  1.00  0.00     0.135 A 
ATOM     92  F   UNL A   1      49.105  27.195  24.311  1.00  0.00    -0.206 F 
ATOM     93  C   UNL A   1      51.183  26.322  24.968  1.00  0.00     0.059 A 
ATOM     94  C   UNL A   1      51.536  25.652  27.276  1.00  0.00     0.059 A 
ATOM     95  F   UNL A   1      49.788  25.858  28.827  1.00  0.00    -0.206 F 
ATOM     96  C   UNL A   1      52.002  25.797  25.970  1.00  0.00     0.060 A 
BRANCH  96  97
ATOM     97  S   UNL A   1      53.697  25.335  25.553  1.00  0.00     0.124 S 
ATOM     98  O   UNL A   1      53.491  24.081  24.838  1.00  0.00    -0.237 OA
ATOM     99  O   UNL A   1      54.139  26.464  24.740  1.00  0.00    -0.237 OA
ATOM    100  O   UNL A   1      54.346  25.218  26.855  1.00  0.00    -0.744 OA
ENDBRANCH  96  97
ENDBRANCH  64  89
ENDBRANCH  38  39
ENDBRANCH  31  33
ENDBRANCH  30  31
ENDBRANCH   1  30
TORSDOF 18
ENDMDL
MODEL 2
REMARK VINA RESULT:     -11.6      6.890     12.111
REMARK SMILES CC(=O)NS(=O)(=O)c1ccc(-c2ccn(C(F)F)c(=O)c2)cc1C(=O)OCCOC(=O)c1ccc(-c2c3nc(c(-c4c(F)cc(S(=O)(=O)[O-])cc4F)c4ccc([nH]4)c(-c4c(F)cc(S(=O)(=O)[O-])cc4F)c4nc(c(-c5c(F)cc(S(=O)(=O)[O-])cc5F)c5ccc2[nH]5)C=C4)C=C3)cc1
REMARK SMILES IDX 28 1 27 2 26 3 24 4 25 5 23 6 8 7 9 8 10 9 22 10 11 11 5 12
REMARK SMILES IDX 6 13 7 14 4 15 1 16 2 17 3 18 12 20 13 21 21 22 14 23 19 24
REMARK SMILES IDX 15 25 20 26 16 27 17 28 18 29 29 30 30 31 31 32 32 33 33 34
REMARK SMILES IDX 97 35 34 36 96 37 35 38 36 39 37 40 90 41 38 42 95 43 89 44
REMARK SMILES IDX 91 45 39 46 94 47 88 48 87 49 40 51 74 52 53 53 73 54 54 55
REMARK SMILES IDX 57 56 72 57 92 58 55 59 56 60 71 62 93 63 58 64 41 65 42 66
REMARK SMILES IDX 51 67 43 68 44 69 50 70 52 71 45 72 46 73 47 74 48 75 49 76
REMARK SMILES IDX 75 77 76 78 85 79 77 80 78 81 84 82 86 83 79 84 80 85 81 86
REMARK SMILES IDX 82 87 83 88 59 89 60 90 69 91 61 92 62 93 68 94 70 95 63 96
REMARK SMILES IDX 64 97 65 98 66 99 67 100
REMARK H PARENT 4 19 91 50 57 61
REMARK Flexibility Score: inf
ROOT
ATOM      1  C   UNL A   1      38.813  22.957  25.897  1.00  0.00     0.275 C 
ENDROOT
BRANCH   1   2
ATOM      2  C   UNL A   1      37.357  22.550  25.671  1.00  0.00     0.275 C 
BRANCH   2   3
ATOM      3  O   UNL A   1      36.558  23.722  25.403  1.00  0.00    -0.458 OA
BRANCH   3   4
ATOM      4  C   UNL A   1      35.231  23.616  25.639  1.00  0.00     0.339 C 
ATOM      5  O   UNL A   1      34.688  22.837  26.398  1.00  0.00    -0.246 OA
BRANCH   4   6
ATOM      6  C   UNL A   1      34.499  24.729  24.986  1.00  0.00     0.081 A 
ATOM      7  C   UNL A   1      33.919  24.685  23.717  1.00  0.00     0.102 A 
ATOM      8  C   UNL A   1      33.199  25.797  23.239  1.00  0.00     0.024 A 
ATOM      9  C   UNL A   1      33.155  26.986  23.968  1.00  0.00     0.010 A 
ATOM     10  C   UNL A   1      34.405  25.921  25.733  1.00  0.00     0.025 A 
ATOM     11  C   UNL A   1      33.791  27.065  25.205  1.00  0.00    -0.017 A 
BRANCH   7  12
ATOM     12  S   UNL A   1      33.991  23.260  22.675  1.00  0.00     0.264 S 
ATOM     13  O   UNL A   1      35.373  22.851  22.574  1.00  0.00    -0.201 OA
ATOM     14  O   UNL A   1      33.232  23.567  21.478  1.00  0.00    -0.201 OA
BRANCH  12  15
ATOM     15  N   UNL A   1      33.190  22.048  23.453  1.00  0.00    -0.249 N 
ATOM     16  C   UNL A   1      31.057  23.159  24.143  1.00  0.00     0.115 C 
ATOM     17  C   UNL A   1      32.061  22.054  24.279  1.00  0.00     0.230 C 
ATOM     18  O   UNL A   1      31.886  21.099  25.024  1.00  0.00    -0.274 OA
ATOM     19  H   UNL A   1      33.577  21.154  23.309  1.00  0.00     0.183 HD
ENDBRANCH  12  15
ENDBRANCH   7  12
BRANCH  11  20
ATOM     20  C   UNL A   1      33.894  28.355  25.908  1.00  0.00    -0.011 A 
ATOM     21  C   UNL A   1      35.103  28.756  26.603  1.00  0.00     0.027 A 
ATOM     22  C   UNL A   1      32.830  29.171  25.920  1.00  0.00     0.080 A 
ATOM     23  C   UNL A   1      35.135  29.891  27.312  1.00  0.00     0.095 A 
ATOM     24  C   UNL A   1      32.871  30.468  26.658  1.00  0.00     0.255 A 
ATOM     25  N   UNL A   1      34.034  30.724  27.366  1.00  0.00    -0.258 N 
ATOM     26  O   UNL A   1      31.889  31.200  26.588  1.00  0.00    -0.269 OA
BRANCH  25  27
ATOM     27  C   UNL A   1      34.073  31.937  28.152  1.00  0.00     0.451 C 
ATOM     28  F   UNL A   1      34.431  31.656  29.430  1.00  0.00    -0.185 F 
ATOM     29  F   UNL A   1      34.980  32.805  27.645  1.00  0.00    -0.185 F 
ENDBRANCH  25  27
ENDBRANCH  11  20
ENDBRANCH   4   6
ENDBRANCH   3   4
ENDBRANCH   2   3
ENDBRANCH   1   2
BRANCH   1  30
ATOM     30  O   UNL A   1      38.853  24.154  26.694  1.00  0.00    -0.458 OA
BRANCH  30  31
ATOM     31  C   UNL A   1      40.075  24.707  26.853  1.00  0.00     0.338 C 
ATOM     32  O   UNL A   1      41.096  24.470  26.231  1.00  0.00    -0.246 OA
BRANCH  31  33
ATOM     33  C   UNL A   1      39.976  25.806  27.820  1.00  0.00     0.060 A 
ATOM     34  C   UNL A   1      40.861  26.870  27.674  1.00  0.00     0.016 A 
ATOM     35  C   UNL A   1      39.119  25.740  28.914  1.00  0.00     0.016 A 
ATOM     36  C   UNL A   1      40.942  27.849  28.658  1.00  0.00     0.010 A 
ATOM     37  C   UNL A   1      39.147  26.770  29.862  1.00  0.00     0.010 A 
ATOM     38  C   UNL A   1      40.077  27.823  29.760  1.00  0.00    -0.014 A 
BRANCH  38  39
ATOM     39  C   UNL A   1      40.148  28.886  30.801  1.00  0.00     0.031 A 
ATOM     40  C   UNL A   1      41.139  28.782  31.931  1.00  0.00     0.074 A 
ATOM     41  C   UNL A   1      39.320  29.949  30.741  1.00  0.00     0.049 A 
ATOM     42  N   UNL A   1      41.232  29.506  33.017  1.00  0.00    -0.248 NA
ATOM     43  C   UNL A   1      42.157  27.725  31.828  1.00  0.00     0.031 C 
ATOM     44  C   UNL A   1      38.338  30.200  29.684  1.00  0.00     0.029 A 
ATOM     45  N   UNL A   1      39.166  31.016  31.593  1.00  0.00    -0.354 N 
ATOM     46  C   UNL A   1      42.270  28.952  33.760  1.00  0.00     0.074 A 
ATOM     47  C   UNL A   1      42.789  27.842  32.988  1.00  0.00     0.031 C 
ATOM     48  C   UNL A   1      37.703  31.355  29.935  1.00  0.00     0.029 A 
ATOM     49  C   UNL A   1      38.162  31.878  31.216  1.00  0.00     0.049 A 
ATOM     50  H   UNL A   1      39.720  31.150  32.396  1.00  0.00     0.167 HD
ATOM     51  C   UNL A   1      42.737  29.329  34.975  1.00  0.00     0.037 A 
ATOM     52  C   UNL A   1      37.624  32.938  31.850  1.00  0.00     0.037 A 
ATOM     53  C   UNL A   1      42.238  30.455  35.722  1.00  0.00     0.049 A 
ATOM     54  C   UNL A   1      38.138  33.320  33.207  1.00  0.00     0.074 A 
ATOM     55  C   UNL A   1      42.666  30.932  36.949  1.00  0.00     0.029 A 
ATOM     56  N   UNL A   1      41.201  31.283  35.314  1.00  0.00    -0.354 N 
ATOM     57  N   UNL A   1      39.093  32.759  33.913  1.00  0.00    -0.248 NA
ATOM     58  C   UNL A   1      37.489  34.461  33.866  1.00  0.00     0.031 C 
ATOM     59  C   UNL A   1      41.870  32.029  37.297  1.00  0.00     0.029 A 
ATOM     60  C   UNL A   1      40.972  32.261  36.268  1.00  0.00     0.049 A 
ATOM     61  H   UNL A   1      40.703  31.189  34.471  1.00  0.00     0.167 HD
ATOM     62  C   UNL A   1      39.162  33.485  35.096  1.00  0.00     0.074 A 
ATOM     63  C   UNL A   1      38.168  34.535  35.004  1.00  0.00     0.031 C 
ATOM     64  C   UNL A   1      39.974  33.296  36.164  1.00  0.00     0.037 A 
BRANCH  51  65
ATOM     65  C   UNL A   1      43.825  28.496  35.594  1.00  0.00     0.058 A 
ATOM     66  C   UNL A   1      45.184  28.738  35.338  1.00  0.00     0.135 A 
ATOM     67  C   UNL A   1      43.502  27.461  36.487  1.00  0.00     0.135 A 
ATOM     68  F   UNL A   1      45.547  29.703  34.477  1.00  0.00    -0.206 F 
ATOM     69  C   UNL A   1      46.182  27.967  35.925  1.00  0.00     0.059 A 
ATOM     70  C   UNL A   1      44.484  26.692  37.104  1.00  0.00     0.059 A 
ATOM     71  F   UNL A   1      42.218  27.187  36.768  1.00  0.00    -0.206 F 
ATOM     72  C   UNL A   1      45.822  26.944  36.804  1.00  0.00     0.060 A 
BRANCH  72  73
ATOM     73  S   UNL A   1      47.129  25.946  37.552  1.00  0.00     0.124 S 
ATOM     74  O   UNL A   1      48.077  25.840  36.447  1.00  0.00    -0.237 OA
ATOM     75  O   UNL A   1      47.554  26.776  38.674  1.00  0.00    -0.237 OA
ATOM     76  O   UNL A   1      46.446  24.709  37.915  1.00  0.00    -0.744 OA
ENDBRANCH  72  73
ENDBRANCH  51  65
BRANCH  52  77
ATOM     77  C   UNL A   1      36.497  33.677  31.222  1.00  0.00     0.058 A 
ATOM     78  C   UNL A   1      36.686  34.429  30.055  1.00  0.00     0.135 A 
ATOM     79  C   UNL A   1      35.201  33.616  31.760  1.00  0.00     0.135 A 
ATOM     80  F   UNL A   1      37.909  34.532  29.515  1.00  0.00    -0.206 F 
ATOM     81  C   UNL A   1      35.630  35.096  29.440  1.00  0.00     0.059 A 
ATOM     82  C   UNL A   1      34.125  34.251  31.149  1.00  0.00     0.059 A 
ATOM     83  F   UNL A   1      34.966  32.899  32.870  1.00  0.00    -0.206 F 
ATOM     84  C   UNL A   1      34.351  34.995  29.993  1.00  0.00     0.060 A 
BRANCH  84  85
ATOM     85  S   UNL A   1      32.973  35.805  29.153  1.00  0.00     0.124 S 
ATOM     86  O   UNL A   1      33.662  36.840  28.391  1.00  0.00    -0.237 OA
ATOM     87  O   UNL A   1      32.399  34.713  28.374  1.00  0.00    -0.237 OA
ATOM     88  O   UNL A   1      32.144  36.279  30.257  1.00  0.00    -0.744 OA
ENDBRANCH  84  85
ENDBRANCH  52  77
BRANCH  64  89
ATOM     89  C   UNL A   1      39.836  34.259  37.309  1.00  0.00     0.058 A 
ATOM     90  C   UNL A   1      40.419  35.535  37.269  1.00  0.00     0.135 A 
ATOM     91  C   UNL A   1      39.087  33.912  38.444  1.00  0.00     0.135 A 
ATOM     92  F   UNL A   1      41.151  35.911  36.209  1.00  0.00    -0.206 F 
ATOM     93  C   UNL A   1      40.280  36.428  38.327  1.00  0.00     0.059 A 
ATOM     94  C   UNL A   1      38.917  34.796  39.503  1.00  0.00     0.059 A 
ATOM     95  F   UNL A   1      38.504  32.705  38.524  1.00  0.00    -0.206 F 
ATOM     96  C   UNL A   1      39.528  36.048  39.441  1.00  0.00     0.060 A 
BRANCH  96  97
ATOM     97  S   UNL A   1      39.331  37.225  40.797  1.00  0.00     0.124 S 
ATOM     98  O   UNL A   1      38.422  38.201  40.206  1.00  0.00    -0.237 OA
ATOM     99  O   UNL A   1      38.767  36.392  41.855  1.00  0.00    -0.237 OA
ATOM    100  O   UNL A   1      40.691  37.695  41.037  1.00  0.00    -0.744 OA
ENDBRANCH  96  97
ENDBRANCH  64  89
ENDBRANCH  38  39
ENDBRANCH  31  33
ENDBRANCH  30  31
ENDBRANCH   1  30
TORSDOF 18
ENDMDL
MODEL 3
REMARK VINA RESULT:     -11.5      6.666     11.643
REMARK SMILES CC(=O)NS(=O)(=O)c1ccc(-c2ccn(C(F)F)c(=O)c2)cc1C(=O)OCCOC(=O)c1ccc(-c2c3nc(c(-c4c(F)cc(S(=O)(=O)[O-])cc4F)c4ccc([nH]4)c(-c4c(F)cc(S(=O)(=O)[O-])cc4F)c4nc(c(-c5c(F)cc(S(=O)(=O)[O-])cc5F)c5ccc2[nH]5)C=C4)C=C3)cc1
REMARK SMILES IDX 28 1 27 2 26 3 24 4 25 5 23 6 8 7 9 8 10 9 22 10 11 11 5 12
REMARK SMILES IDX 6 13 7 14 4 15 1 16 2 17 3 18 12 20 13 21 21 22 14 23 19 24
REMARK SMILES IDX 15 25 20 26 16 27 17 28 18 29 29 30 30 31 31 32 32 33 33 34
REMARK SMILES IDX 97 35 34 36 96 37 35 38 36 39 37 40 90 41 38 42 95 43 89 44
REMARK SMILES IDX 91 45 39 46 94 47 88 48 87 49 40 51 74 52 53 53 73 54 54 55
REMARK SMILES IDX 57 56 72 57 92 58 55 59 56 60 71 62 93 63 58 64 41 65 42 66
REMARK SMILES IDX 51 67 43 68 44 69 50 70 52 71 45 72 46 73 47 74 48 75 49 76
REMARK SMILES IDX 75 77 76 78 85 79 77 80 78 81 84 82 86 83 79 84 80 85 81 86
REMARK SMILES IDX 82 87 83 88 59 89 60 90 69 91 61 92 62 93 68 94 70 95 63 96
REMARK SMILES IDX 64 97 65 98 66 99 67 100
REMARK H PARENT 4 19 91 50 57 61
REMARK Flexibility Score: inf
ROOT
ATOM      1  C   UNL A   1      37.586  23.338  25.709  1.00  0.00     0.275 C 
ENDROOT
BRANCH   1   2
ATOM      2  C   UNL A   1      36.513  23.704  24.685  1.00  0.00     0.275 C 
BRANCH   2   3
ATOM      3  O   UNL A   1      35.456  24.448  25.330  1.00  0.00    -0.458 OA
BRANCH   3   4
ATOM      4  C   UNL A   1      34.416  24.820  24.550  1.00  0.00     0.339 C 
ATOM      5  O   UNL A   1      34.449  25.600  23.618  1.00  0.00    -0.246 OA
BRANCH   4   6
ATOM      6  C   UNL A   1      33.222  23.993  24.851  1.00  0.00     0.081 A 
ATOM      7  C   UNL A   1      32.045  24.452  25.444  1.00  0.00     0.102 A 
ATOM      8  C   UNL A   1      30.961  23.570  25.620  1.00  0.00     0.024 A 
ATOM      9  C   UNL A   1      31.088  22.213  25.317  1.00  0.00     0.010 A 
ATOM     10  C   UNL A   1      33.319  22.629  24.505  1.00  0.00     0.025 A 
ATOM     11  C   UNL A   1      32.284  21.729  24.792  1.00  0.00    -0.017 A 
BRANCH   7  12
ATOM     12  S   UNL A   1      31.810  26.129  25.946  1.00  0.00     0.264 S 
ATOM     13  O   UNL A   1      33.043  26.595  26.536  1.00  0.00    -0.201 OA
ATOM     14  O   UNL A   1      30.574  26.181  26.702  1.00  0.00    -0.201 OA
BRANCH  12  15
ATOM     15  N   UNL A   1      31.571  27.017  24.577  1.00  0.00    -0.249 N 
ATOM     16  C   UNL A   1      29.231  26.408  23.934  1.00  0.00     0.115 C 
ATOM     17  C   UNL A   1      30.580  26.966  23.591  1.00  0.00     0.230 C 
ATOM     18  O   UNL A   1      30.823  27.467  22.501  1.00  0.00    -0.274 OA
ATOM     19  H   UNL A   1      32.251  27.713  24.427  1.00  0.00     0.183 HD
ENDBRANCH  12  15
ENDBRANCH   7  12
BRANCH  11  20
ATOM     20  C   UNL A   1      32.491  20.281  24.622  1.00  0.00    -0.011 A 
ATOM     21  C   UNL A   1      32.861  19.423  25.732  1.00  0.00     0.027 A 
ATOM     22  C   UNL A   1      32.351  19.747  23.399  1.00  0.00     0.080 A 
ATOM     23  C   UNL A   1      33.134  18.128  25.529  1.00  0.00     0.095 A 
ATOM     24  C   UNL A   1      32.595  18.293  23.169  1.00  0.00     0.255 A 
ATOM     25  N   UNL A   1      33.031  17.572  24.268  1.00  0.00    -0.258 N 
ATOM     26  O   UNL A   1      32.397  17.849  22.043  1.00  0.00    -0.269 OA
BRANCH  25  27
ATOM     27  C   UNL A   1      33.349  16.178  24.057  1.00  0.00     0.451 C 
ATOM     28  F   UNL A   1      34.640  15.934  24.396  1.00  0.00    -0.185 F 
ATOM     29  F   UNL A   1      32.560  15.387  24.823  1.00  0.00    -0.185 F 
ENDBRANCH  25  27
ENDBRANCH  11  20
ENDBRANCH   4   6
ENDBRANCH   3   4
ENDBRANCH   2   3
ENDBRANCH   1   2
BRANCH   1  30
ATOM     30  O   UNL A   1      38.268  24.533  26.130  1.00  0.00    -0.458 OA
BRANCH  30  31
ATOM     31  C   UNL A   1      39.508  24.348  26.634  1.00  0.00     0.338 C 
ATOM     32  O   UNL A   1      40.366  23.569  26.258  1.00  0.00    -0.246 OA
BRANCH  31  33
ATOM     33  C   UNL A   1      39.763  25.375  27.650  1.00  0.00     0.060 A 
ATOM     34  C   UNL A   1      39.003  25.326  28.815  1.00  0.00     0.016 A 
ATOM     35  C   UNL A   1      40.638  26.431  27.417  1.00  0.00     0.016 A 
ATOM     36  C   UNL A   1      39.065  26.370  29.733  1.00  0.00     0.010 A 
ATOM     37  C   UNL A   1      40.757  27.441  28.380  1.00  0.00     0.010 A 
ATOM     38  C   UNL A   1      39.953  27.436  29.537  1.00  0.00    -0.014 A 
BRANCH  38  39
ATOM     39  C   UNL A   1      40.036  28.542  30.532  1.00  0.00     0.031 A 
ATOM     40  C   UNL A   1      41.034  28.480  31.659  1.00  0.00     0.074 A 
ATOM     41  C   UNL A   1      39.214  29.607  30.432  1.00  0.00     0.049 A 
ATOM     42  N   UNL A   1      41.138  29.248  32.713  1.00  0.00    -0.248 NA
ATOM     43  C   UNL A   1      42.046  27.414  31.595  1.00  0.00     0.031 C 
ATOM     44  C   UNL A   1      38.227  29.819  29.371  1.00  0.00     0.029 A 
ATOM     45  N   UNL A   1      39.071  30.709  31.239  1.00  0.00    -0.354 N 
ATOM     46  C   UNL A   1      42.176  28.721  33.472  1.00  0.00     0.074 A 
ATOM     47  C   UNL A   1      42.685  27.576  32.746  1.00  0.00     0.031 C 
ATOM     48  C   UNL A   1      37.601  30.986  29.577  1.00  0.00     0.029 A 
ATOM     49  C   UNL A   1      38.070  31.560  30.832  1.00  0.00     0.049 A 
ATOM     50  H   UNL A   1      39.631  30.874  32.032  1.00  0.00     0.167 HD
ATOM     51  C   UNL A   1      42.653  29.145  34.668  1.00  0.00     0.037 A 
ATOM     52  C   UNL A   1      37.541  32.650  31.423  1.00  0.00     0.037 A 
ATOM     53  C   UNL A   1      42.164  30.305  35.370  1.00  0.00     0.049 A 
ATOM     54  C   UNL A   1      38.066  33.085  32.760  1.00  0.00     0.074 A 
ATOM     55  C   UNL A   1      42.603  30.831  36.573  1.00  0.00     0.029 A 
ATOM     56  N   UNL A   1      41.130  31.121  34.934  1.00  0.00    -0.354 N 
ATOM     57  N   UNL A   1      39.021  32.549  33.483  1.00  0.00    -0.248 NA
ATOM     58  C   UNL A   1      37.427  34.256  33.375  1.00  0.00     0.031 C 
ATOM     59  C   UNL A   1      41.815  31.946  36.879  1.00  0.00     0.029 A 
ATOM     60  C   UNL A   1      40.912  32.140  35.847  1.00  0.00     0.049 A 
ATOM     61  H   UNL A   1      40.626  30.994  34.098  1.00  0.00     0.167 HD
ATOM     62  C   UNL A   1      39.102  33.323  34.635  1.00  0.00     0.074 A 
ATOM     63  C   UNL A   1      38.113  34.374  34.504  1.00  0.00     0.031 C 
ATOM     64  C   UNL A   1      39.920  33.175  35.705  1.00  0.00     0.037 A 
BRANCH  51  65
ATOM     65  C   UNL A   1      43.740  28.333  35.316  1.00  0.00     0.058 A 
ATOM     66  C   UNL A   1      43.455  27.263  36.178  1.00  0.00     0.135 A 
ATOM     67  C   UNL A   1      45.090  28.610  35.040  1.00  0.00     0.135 A 
ATOM     68  F   UNL A   1      42.183  26.969  36.490  1.00  0.00    -0.206 F 
ATOM     69  C   UNL A   1      44.469  26.511  36.764  1.00  0.00     0.059 A 
ATOM     70  C   UNL A   1      46.120  27.857  35.596  1.00  0.00     0.059 A 
ATOM     71  F   UNL A   1      45.418  29.622  34.222  1.00  0.00    -0.206 F 
ATOM     72  C   UNL A   1      45.799  26.819  36.469  1.00  0.00     0.060 A 
BRANCH  72  73
ATOM     73  S   UNL A   1      47.105  25.840  37.243  1.00  0.00     0.124 S 
ATOM     74  O   UNL A   1      46.368  24.646  37.645  1.00  0.00    -0.237 OA
ATOM     75  O   UNL A   1      48.053  25.661  36.150  1.00  0.00    -0.237 OA
ATOM     76  O   UNL A   1      47.565  26.692  38.336  1.00  0.00    -0.744 OA
ENDBRANCH  72  73
ENDBRANCH  51  65
BRANCH  52  77
ATOM     77  C   UNL A   1      36.414  33.368  30.771  1.00  0.00     0.058 A 
ATOM     78  C   UNL A   1      35.106  33.256  31.259  1.00  0.00     0.135 A 
ATOM     79  C   UNL A   1      36.632  34.206  29.665  1.00  0.00     0.135 A 
ATOM     80  F   UNL A   1      34.847  32.453  32.302  1.00  0.00    -0.206 F 
ATOM     81  C   UNL A   1      34.050  33.951  30.677  1.00  0.00     0.059 A 
ATOM     82  C   UNL A   1      35.599  34.931  29.083  1.00  0.00     0.059 A 
ATOM     83  F   UNL A   1      37.870  34.355  29.167  1.00  0.00    -0.206 F 
ATOM     84  C   UNL A   1      34.309  34.792  29.592  1.00  0.00     0.060 A 
BRANCH  84  85
ATOM     85  S   UNL A   1      32.948  35.744  28.884  1.00  0.00     0.124 S 
ATOM     86  O   UNL A   1      32.181  36.090  30.075  1.00  0.00    -0.237 OA
ATOM     87  O   UNL A   1      33.647  36.846  28.231  1.00  0.00    -0.237 OA
ATOM     88  O   UNL A   1      32.313  34.792  27.977  1.00  0.00    -0.744 OA
ENDBRANCH  84  85
ENDBRANCH  52  77
BRANCH  64  89
ATOM     89  C   UNL A   1      39.794  34.186  36.809  1.00  0.00     0.058 A 
ATOM     90  C   UNL A   1      39.088  33.903  37.988  1.00  0.00     0.135 A 
ATOM     91  C   UNL A   1      40.413  35.441  36.696  1.00  0.00     0.135 A 
ATOM     92  F   UNL A   1      38.473  32.720  38.139  1.00  0.00    -0.206 F 
ATOM     93  C   UNL A   1      38.983  34.840  39.011  1.00  0.00     0.059 A 
ATOM     94  C   UNL A   1      40.338  36.384  37.716  1.00  0.00     0.059 A 
ATOM     95  F   UNL A   1      41.106  35.756  35.590  1.00  0.00    -0.206 F 
ATOM     96  C   UNL A   1      39.610  36.078  38.865  1.00  0.00     0.060 A 
BRANCH  96  97
ATOM     97  S   UNL A   1      39.491  37.276  40.211  1.00  0.00     0.124 S 
ATOM     98  O   UNL A   1      38.845  38.401  39.544  1.00  0.00    -0.237 OA
ATOM     99  O   UNL A   1      38.675  36.567  41.192  1.00  0.00    -0.237 OA
ATOM    100  O   UNL A   1      40.881  37.489  40.599  1.00  0.00    -0.744 OA
ENDBRANCH  96  97
ENDBRANCH  64  89
ENDBRANCH  38  39
ENDBRANCH  31  33
ENDBRANCH  30  31
ENDBRANCH   1  30
TORSDOF 18
ENDMDL
