MODEL 1
REMARK VINA RESULT:     -10.2      0.000      0.000
REMARK SMILES Cc1ccc2c(c1)C=C(C(=O)OCCOC(=O)c1ccc(-c3c4nc(c(-c5c(F)cc(S(=O)(=O)[O-])cc5F)c5ccc([nH]5)c(-c5c(F)cc(S(=O)(=O)[O-])cc5F)c5nc(c(-c6c(F)cc(S(=O)(=O)[O-])cc6F)c6ccc3[nH]6)C=C5)C=C4)cc1)[C@@H](C(F)(F)F)O2
REMARK SMILES IDX 14 1 13 2 12 3 10 4 11 5 9 6 1 7 2 8 3 9 7 10 4 11 6 12 5 13
REMARK SMILES IDX 8 14 89 15 84 16 85 17 86 18 87 19 88 20 15 21 16 22 17 23
REMARK SMILES IDX 18 24 19 25 83 26 20 27 82 28 21 29 22 30 23 31 76 32 24 33
REMARK SMILES IDX 81 34 75 35 77 36 25 37 80 38 74 39 73 40 26 42 60 43 39 44
REMARK SMILES IDX 59 45 40 46 43 47 58 48 78 49 41 50 42 51 57 53 79 54 44 55
REMARK SMILES IDX 27 56 28 57 37 58 29 59 30 60 36 61 38 62 31 63 32 64 33 65
REMARK SMILES IDX 34 66 35 67 61 68 62 69 71 70 63 71 64 72 70 73 72 74 65 75
REMARK SMILES IDX 66 76 67 77 68 78 69 79 45 80 46 81 55 82 47 83 48 84 54 85
REMARK SMILES IDX 56 86 49 87 50 88 51 89 52 90 53 91
REMARK H PARENT 77 41 43 52
REMARK Flexibility Score: inf
ROOT
ATOM      1  C   UNL A   1      40.461  20.142  26.049  1.00  0.00     0.275 C 
ENDROOT
BRANCH   1   2
ATOM      2  C   UNL A   1      41.986  20.079  26.162  1.00  0.00     0.275 C 
BRANCH   2   3
ATOM      3  O   UNL A   1      42.575  21.398  26.203  1.00  0.00    -0.459 OA
BRANCH   3   4
ATOM      4  C   UNL A   1      43.818  21.499  25.677  1.00  0.00     0.338 C 
ATOM      5  O   UNL A   1      44.209  20.988  24.639  1.00  0.00    -0.246 OA
BRANCH   4   6
ATOM      6  C   UNL A   1      44.677  22.351  26.523  1.00  0.00     0.087 C 
ATOM      7  C   UNL A   1      44.573  25.492  31.816  1.00  0.00     0.044 C 
ATOM      8  C   UNL A   1      45.160  25.000  30.526  1.00  0.00    -0.050 A 
ATOM      9  C   UNL A   1      46.365  25.510  30.031  1.00  0.00     0.007 A 
ATOM     10  C   UNL A   1      44.460  24.066  29.758  1.00  0.00     0.015 A 
ATOM     11  C   UNL A   1      46.878  25.063  28.805  1.00  0.00     0.047 A 
ATOM     12  C   UNL A   1      44.964  23.641  28.522  1.00  0.00     0.017 A 
ATOM     13  C   UNL A   1      46.178  24.126  28.048  1.00  0.00     0.128 A 
ATOM     14  C   UNL A   1      44.198  22.718  27.716  1.00  0.00     0.027 C 
ATOM     15  O   UNL A   1      46.740  23.730  26.867  1.00  0.00    -0.475 OA
ATOM     16  C   UNL A   1      45.965  22.883  25.966  1.00  0.00     0.316 C 
BRANCH  16  17
ATOM     17  C   UNL A   1      45.725  23.653  24.656  1.00  0.00     0.430 C 
ATOM     18  F   UNL A   1      46.508  24.758  24.582  1.00  0.00    -0.167 F 
ATOM     19  F   UNL A   1      46.028  22.899  23.572  1.00  0.00    -0.167 F 
ATOM     20  F   UNL A   1      44.442  24.056  24.523  1.00  0.00    -0.167 F 
ENDBRANCH  16  17
ENDBRANCH   4   6
ENDBRANCH   3   4
ENDBRANCH   2   3
ENDBRANCH   1   2
BRANCH   1  21
ATOM     21  O   UNL A   1      39.922  21.090  26.986  1.00  0.00    -0.458 OA
BRANCH  21  22
ATOM     22  C   UNL A   1      39.230  22.112  26.435  1.00  0.00     0.338 C 
ATOM     23  O   UNL A   1      38.297  22.038  25.654  1.00  0.00    -0.246 OA
BRANCH  22  24
ATOM     24  C   UNL A   1      39.692  23.384  27.006  1.00  0.00     0.060 A 
ATOM     25  C   UNL A   1      40.573  23.427  28.080  1.00  0.00     0.016 A 
ATOM     26  C   UNL A   1      39.358  24.553  26.335  1.00  0.00     0.016 A 
ATOM     27  C   UNL A   1      41.108  24.662  28.469  1.00  0.00     0.010 A 
ATOM     28  C   UNL A   1      40.012  25.746  26.618  1.00  0.00     0.010 A 
ATOM     29  C   UNL A   1      40.873  25.833  27.714  1.00  0.00    -0.014 A 
BRANCH  29  30
ATOM     30  C   UNL A   1      41.516  27.134  28.062  1.00  0.00     0.031 A 
ATOM     31  C   UNL A   1      42.939  27.438  27.645  1.00  0.00     0.074 A 
ATOM     32  C   UNL A   1      40.832  28.039  28.794  1.00  0.00     0.049 A 
ATOM     33  N   UNL A   1      43.648  28.520  27.857  1.00  0.00    -0.248 NA
ATOM     34  C   UNL A   1      43.681  26.380  26.937  1.00  0.00     0.031 C 
ATOM     35  C   UNL A   1      39.494  27.836  29.357  1.00  0.00     0.029 A 
ATOM     36  N   UNL A   1      41.154  29.319  29.175  1.00  0.00    -0.354 N 
ATOM     37  C   UNL A   1      44.910  28.261  27.331  1.00  0.00     0.074 A 
ATOM     38  C   UNL A   1      44.900  26.894  26.867  1.00  0.00     0.031 C 
ATOM     39  C   UNL A   1      39.076  28.975  29.929  1.00  0.00     0.029 A 
ATOM     40  C   UNL A   1      40.131  29.977  29.820  1.00  0.00     0.049 A 
ATOM     41  H   UNL A   1      42.033  29.728  29.003  1.00  0.00     0.167 HD
ATOM     42  C   UNL A   1      45.970  29.095  27.197  1.00  0.00     0.037 A 
ATOM     43  C   UNL A   1      40.039  31.249  30.255  1.00  0.00     0.037 A 
ATOM     44  C   UNL A   1      45.957  30.476  27.601  1.00  0.00     0.049 A 
ATOM     45  C   UNL A   1      41.204  32.177  30.046  1.00  0.00     0.074 A 
ATOM     46  C   UNL A   1      46.949  31.429  27.442  1.00  0.00     0.029 A 
ATOM     47  N   UNL A   1      44.893  31.106  28.230  1.00  0.00    -0.354 N 
ATOM     48  N   UNL A   1      42.363  31.929  29.484  1.00  0.00    -0.248 NA
ATOM     49  C   UNL A   1      41.048  33.556  30.526  1.00  0.00     0.031 C 
ATOM     50  C   UNL A   1      46.496  32.627  28.004  1.00  0.00     0.029 A 
ATOM     51  C   UNL A   1      45.206  32.433  28.474  1.00  0.00     0.049 A 
ATOM     52  H   UNL A   1      44.041  30.674  28.467  1.00  0.00     0.167 HD
ATOM     53  C   UNL A   1      43.070  33.125  29.530  1.00  0.00     0.074 A 
ATOM     54  C   UNL A   1      42.200  34.100  30.155  1.00  0.00     0.031 C 
ATOM     55  C   UNL A   1      44.328  33.389  29.097  1.00  0.00     0.037 A 
BRANCH  42  56
ATOM     56  C   UNL A   1      47.215  28.554  26.544  1.00  0.00     0.058 A 
ATOM     57  C   UNL A   1      47.293  28.375  25.153  1.00  0.00     0.135 A 
ATOM     58  C   UNL A   1      48.359  28.256  27.304  1.00  0.00     0.135 A 
ATOM     59  F   UNL A   1      46.227  28.631  24.376  1.00  0.00    -0.206 F 
ATOM     60  C   UNL A   1      48.446  27.891  24.542  1.00  0.00     0.059 A 
ATOM     61  C   UNL A   1      49.533  27.800  26.709  1.00  0.00     0.059 A 
ATOM     62  F   UNL A   1      48.345  28.410  28.636  1.00  0.00    -0.206 F 
ATOM     63  C   UNL A   1      49.562  27.609  25.328  1.00  0.00     0.060 A 
BRANCH  63  64
ATOM     64  S   UNL A   1      51.054  27.002  24.513  1.00  0.00     0.124 S 
ATOM     65  O   UNL A   1      51.348  25.805  25.296  1.00  0.00    -0.237 OA
ATOM     66  O   UNL A   1      50.588  26.766  23.150  1.00  0.00    -0.237 OA
ATOM     67  O   UNL A   1      52.001  28.101  24.668  1.00  0.00    -0.744 OA
ENDBRANCH  63  64
ENDBRANCH  42  56
BRANCH  43  68
ATOM     68  C   UNL A   1      38.772  31.730  30.867  1.00  0.00     0.058 A 
ATOM     69  C   UNL A   1      38.540  31.581  32.244  1.00  0.00     0.135 A 
ATOM     70  C   UNL A   1      37.792  32.389  30.109  1.00  0.00     0.135 A 
ATOM     71  F   UNL A   1      39.444  30.953  33.011  1.00  0.00    -0.206 F 
ATOM     72  C   UNL A   1      37.382  32.063  32.845  1.00  0.00     0.059 A 
ATOM     73  C   UNL A   1      36.637  32.901  30.691  1.00  0.00     0.059 A 
ATOM     74  F   UNL A   1      37.974  32.573  28.792  1.00  0.00    -0.206 F 
ATOM     75  C   UNL A   1      36.439  32.729  32.062  1.00  0.00     0.060 A 
BRANCH  75  76
ATOM     76  S   UNL A   1      34.974  33.412  32.869  1.00  0.00     0.124 S 
ATOM     77  O   UNL A   1      35.076  34.824  32.518  1.00  0.00    -0.237 OA
ATOM     78  O   UNL A   1      33.897  32.669  32.224  1.00  0.00    -0.237 OA
ATOM     79  O   UNL A   1      35.189  33.095  34.278  1.00  0.00    -0.744 OA
ENDBRANCH  75  76
ENDBRANCH  43  68
BRANCH  55  80
ATOM     80  C   UNL A   1      44.840  34.791  29.274  1.00  0.00     0.058 A 
ATOM     81  C   UNL A   1      45.565  35.166  30.415  1.00  0.00     0.135 A 
ATOM     82  C   UNL A   1      44.663  35.747  28.261  1.00  0.00     0.135 A 
ATOM     83  F   UNL A   1      45.757  34.289  31.412  1.00  0.00    -0.206 F 
ATOM     84  C   UNL A   1      46.083  36.449  30.554  1.00  0.00     0.059 A 
ATOM     85  C   UNL A   1      45.194  37.028  28.368  1.00  0.00     0.059 A 
ATOM     86  F   UNL A   1      43.986  35.434  27.145  1.00  0.00    -0.206 F 
ATOM     87  C   UNL A   1      45.895  37.373  29.523  1.00  0.00     0.060 A 
BRANCH  87  88
ATOM     88  S   UNL A   1      46.605  39.022  29.704  1.00  0.00     0.124 S 
ATOM     89  O   UNL A   1      46.928  39.356  28.320  1.00  0.00    -0.237 OA
ATOM     90  O   UNL A   1      45.502  39.772  30.296  1.00  0.00    -0.237 OA
ATOM     91  O   UNL A   1      47.752  38.806  30.581  1.00  0.00    -0.744 OA
ENDBRANCH  87  88
ENDBRANCH  55  80
ENDBRANCH  29  30
ENDBRANCH  22  24
ENDBRANCH  21  22
ENDBRANCH   1  21
TORSDOF 15
ENDMDL
MODEL 2
REMARK VINA RESULT:     -10.1      4.425      9.108
REMARK SMILES Cc1ccc2c(c1)C=C(C(=O)OCCOC(=O)c1ccc(-c3c4nc(c(-c5c(F)cc(S(=O)(=O)[O-])cc5F)c5ccc([nH]5)c(-c5c(F)cc(S(=O)(=O)[O-])cc5F)c5nc(c(-c6c(F)cc(S(=O)(=O)[O-])cc6F)c6ccc3[nH]6)C=C5)C=C4)cc1)[C@@H](C(F)(F)F)O2
REMARK SMILES IDX 14 1 13 2 12 3 10 4 11 5 9 6 1 7 2 8 3 9 7 10 4 11 6 12 5 13
REMARK SMILES IDX 8 14 89 15 84 16 85 17 86 18 87 19 88 20 15 21 16 22 17 23
REMARK SMILES IDX 18 24 19 25 83 26 20 27 82 28 21 29 22 30 23 31 76 32 24 33
REMARK SMILES IDX 81 34 75 35 77 36 25 37 80 38 74 39 73 40 26 42 60 43 39 44
REMARK SMILES IDX 59 45 40 46 43 47 58 48 78 49 41 50 42 51 57 53 79 54 44 55
REMARK SMILES IDX 27 56 28 57 37 58 29 59 30 60 36 61 38 62 31 63 32 64 33 65
REMARK SMILES IDX 34 66 35 67 61 68 62 69 71 70 63 71 64 72 70 73 72 74 65 75
REMARK SMILES IDX 66 76 67 77 68 78 69 79 45 80 46 81 55 82 47 83 48 84 54 85
REMARK SMILES IDX 56 86 49 87 50 88 51 89 52 90 53 91
REMARK H PARENT 77 41 43 52
REMARK Flexibility Score: inf
ROOT
ATOM      1  C   UNL A   1      32.628  28.277  27.272  1.00  0.00     0.275 C 
ENDROOT
BRANCH   1   2
ATOM      2  C   UNL A   1      31.841  28.512  25.981  1.00  0.00     0.275 C 
BRANCH   2   3
ATOM      3  O   UNL A   1      32.397  27.770  24.872  1.00  0.00    -0.459 OA
BRANCH   3   4
ATOM      4  C   UNL A   1      31.809  26.578  24.615  1.00  0.00     0.338 C 
ATOM      5  O   UNL A   1      30.613  26.338  24.652  1.00  0.00    -0.246 OA
BRANCH   4   6
ATOM      6  C   UNL A   1      32.818  25.566  24.244  1.00  0.00     0.087 C 
ATOM      7  C   UNL A   1      38.208  23.266  26.130  1.00  0.00     0.044 C 
ATOM      8  C   UNL A   1      37.029  23.422  25.214  1.00  0.00    -0.050 A 
ATOM      9  C   UNL A   1      37.000  22.816  23.955  1.00  0.00     0.007 A 
ATOM     10  C   UNL A   1      35.966  24.247  25.588  1.00  0.00     0.015 A 
ATOM     11  C   UNL A   1      35.905  23.003  23.098  1.00  0.00     0.047 A 
ATOM     12  C   UNL A   1      34.885  24.452  24.720  1.00  0.00     0.017 A 
ATOM     13  C   UNL A   1      34.845  23.822  23.480  1.00  0.00     0.128 A 
ATOM     14  C   UNL A   1      33.822  25.354  25.100  1.00  0.00     0.027 C 
ATOM     15  O   UNL A   1      33.808  23.955  22.600  1.00  0.00    -0.475 OA
ATOM     16  C   UNL A   1      32.761  24.931  22.885  1.00  0.00     0.316 C 
BRANCH  16  17
ATOM     17  C   UNL A   1      32.771  25.997  21.776  1.00  0.00     0.430 C 
ATOM     18  F   UNL A   1      33.706  26.949  22.016  1.00  0.00    -0.167 F 
ATOM     19  F   UNL A   1      33.076  25.459  20.570  1.00  0.00    -0.167 F 
ATOM     20  F   UNL A   1      31.579  26.621  21.650  1.00  0.00    -0.167 F 
ENDBRANCH  16  17
ENDBRANCH   4   6
ENDBRANCH   3   4
ENDBRANCH   2   3
ENDBRANCH   1   2
BRANCH   1  21
ATOM     21  O   UNL A   1      34.003  28.663  27.105  1.00  0.00    -0.458 OA
BRANCH  21  22
ATOM     22  C   UNL A   1      34.336  29.853  27.651  1.00  0.00     0.338 C 
ATOM     23  O   UNL A   1      33.603  30.804  27.860  1.00  0.00    -0.246 OA
BRANCH  22  24
ATOM     24  C   UNL A   1      35.741  29.820  28.082  1.00  0.00     0.060 A 
ATOM     25  C   UNL A   1      36.108  29.376  29.346  1.00  0.00     0.016 A 
ATOM     26  C   UNL A   1      36.715  30.088  27.129  1.00  0.00     0.016 A 
ATOM     27  C   UNL A   1      37.468  29.209  29.637  1.00  0.00     0.010 A 
ATOM     28  C   UNL A   1      38.046  29.768  27.367  1.00  0.00     0.010 A 
ATOM     29  C   UNL A   1      38.454  29.356  28.638  1.00  0.00    -0.014 A 
BRANCH  29  30
ATOM     30  C   UNL A   1      39.897  29.085  28.912  1.00  0.00     0.031 A 
ATOM     31  C   UNL A   1      40.518  27.747  28.571  1.00  0.00     0.074 A 
ATOM     32  C   UNL A   1      40.650  30.033  29.508  1.00  0.00     0.049 A 
ATOM     33  N   UNL A   1      41.755  27.347  28.734  1.00  0.00    -0.248 NA
ATOM     34  C   UNL A   1      39.634  26.708  28.016  1.00  0.00     0.031 C 
ATOM     35  C   UNL A   1      40.157  31.327  29.991  1.00  0.00     0.029 A 
ATOM     36  N   UNL A   1      41.993  30.070  29.794  1.00  0.00    -0.354 N 
ATOM     37  C   UNL A   1      41.786  26.017  28.325  1.00  0.00     0.074 A 
ATOM     38  C   UNL A   1      40.431  25.651  27.987  1.00  0.00     0.031 C 
ATOM     39  C   UNL A   1      41.192  32.061  30.426  1.00  0.00     0.029 A 
ATOM     40  C   UNL A   1      42.416  31.278  30.302  1.00  0.00     0.049 A 
ATOM     41  H   UNL A   1      42.596  29.306  29.648  1.00  0.00     0.167 HD
ATOM     42  C   UNL A   1      42.848  25.186  28.192  1.00  0.00     0.037 A 
ATOM     43  C   UNL A   1      43.652  31.717  30.612  1.00  0.00     0.037 A 
ATOM     44  C   UNL A   1      44.206  25.573  28.468  1.00  0.00     0.049 A 
ATOM     45  C   UNL A   1      44.825  30.801  30.404  1.00  0.00     0.074 A 
ATOM     46  C   UNL A   1      45.364  24.834  28.294  1.00  0.00     0.029 A 
ATOM     47  N   UNL A   1      44.591  26.812  28.960  1.00  0.00    -0.354 N 
ATOM     48  N   UNL A   1      44.838  29.570  29.951  1.00  0.00    -0.248 NA
ATOM     49  C   UNL A   1      46.152  31.332  30.745  1.00  0.00     0.031 C 
ATOM     50  C   UNL A   1      46.446  25.616  28.711  1.00  0.00     0.029 A 
ATOM     51  C   UNL A   1      45.968  26.856  29.104  1.00  0.00     0.049 A 
ATOM     52  H   UNL A   1      43.977  27.550  29.173  1.00  0.00     0.167 HD
ATOM     53  C   UNL A   1      46.173  29.184  29.938  1.00  0.00     0.074 A 
ATOM     54  C   UNL A   1      46.940  30.319  30.409  1.00  0.00     0.031 C 
ATOM     55  C   UNL A   1      46.714  27.995  29.574  1.00  0.00     0.037 A 
BRANCH  42  56
ATOM     56  C   UNL A   1      42.592  23.792  27.680  1.00  0.00     0.058 A 
ATOM     57  C   UNL A   1      42.471  23.527  26.306  1.00  0.00     0.135 A 
ATOM     58  C   UNL A   1      42.515  22.701  28.563  1.00  0.00     0.135 A 
ATOM     59  F   UNL A   1      42.525  24.531  25.416  1.00  0.00    -0.206 F 
ATOM     60  C   UNL A   1      42.252  22.239  25.827  1.00  0.00     0.059 A 
ATOM     61  C   UNL A   1      42.327  21.400  28.102  1.00  0.00     0.059 A 
ATOM     62  F   UNL A   1      42.627  22.892  29.886  1.00  0.00    -0.206 F 
ATOM     63  C   UNL A   1      42.184  21.182  26.733  1.00  0.00     0.060 A 
BRANCH  63  64
ATOM     64  S   UNL A   1      41.919  19.516  26.088  1.00  0.00     0.124 S 
ATOM     65  O   UNL A   1      40.482  19.530  25.825  1.00  0.00    -0.237 OA
ATOM     66  O   UNL A   1      42.777  19.501  24.907  1.00  0.00    -0.237 OA
ATOM     67  O   UNL A   1      42.347  18.652  27.183  1.00  0.00    -0.744 OA
ENDBRANCH  63  64
ENDBRANCH  42  56
BRANCH  43  68
ATOM     68  C   UNL A   1      43.841  33.114  31.087  1.00  0.00     0.058 A 
ATOM     69  C   UNL A   1      43.899  33.402  32.460  1.00  0.00     0.135 A 
ATOM     70  C   UNL A   1      44.016  34.178  30.189  1.00  0.00     0.135 A 
ATOM     71  F   UNL A   1      43.733  32.419  33.358  1.00  0.00    -0.206 F 
ATOM     72  C   UNL A   1      44.120  34.694  32.925  1.00  0.00     0.059 A 
ATOM     73  C   UNL A   1      44.262  35.475  30.630  1.00  0.00     0.059 A 
ATOM     74  F   UNL A   1      43.987  33.953  28.866  1.00  0.00    -0.206 F 
ATOM     75  C   UNL A   1      44.308  35.724  32.002  1.00  0.00     0.060 A 
BRANCH  75  76
ATOM     76  S   UNL A   1      44.664  37.383  32.622  1.00  0.00     0.124 S 
ATOM     77  O   UNL A   1      45.753  37.122  33.555  1.00  0.00    -0.237 OA
ATOM     78  O   UNL A   1      45.026  38.093  31.400  1.00  0.00    -0.237 OA
ATOM     79  O   UNL A   1      43.400  37.794  33.227  1.00  0.00    -0.744 OA
ENDBRANCH  75  76
ENDBRANCH  43  68
BRANCH  55  80
ATOM     80  C   UNL A   1      48.208  27.859  29.659  1.00  0.00     0.058 A 
ATOM     81  C   UNL A   1      48.830  27.326  30.798  1.00  0.00     0.135 A 
ATOM     82  C   UNL A   1      49.018  28.201  28.564  1.00  0.00     0.135 A 
ATOM     83  F   UNL A   1      48.100  26.987  31.871  1.00  0.00    -0.206 F 
ATOM     84  C   UNL A   1      50.209  27.153  30.855  1.00  0.00     0.059 A 
ATOM     85  C   UNL A   1      50.396  28.013  28.591  1.00  0.00     0.059 A 
ATOM     86  F   UNL A   1      48.470  28.705  27.447  1.00  0.00    -0.206 F 
ATOM     87  C   UNL A   1      50.983  27.496  29.745  1.00  0.00     0.060 A 
BRANCH  87  88
ATOM     88  S   UNL A   1      52.767  27.230  29.823  1.00  0.00     0.124 S 
ATOM     89  O   UNL A   1      52.975  26.303  28.716  1.00  0.00    -0.237 OA
ATOM     90  O   UNL A   1      53.290  28.579  29.627  1.00  0.00    -0.237 OA
ATOM     91  O   UNL A   1      52.971  26.672  31.157  1.00  0.00    -0.744 OA
ENDBRANCH  87  88
ENDBRANCH  55  80
ENDBRANCH  29  30
ENDBRANCH  22  24
ENDBRANCH  21  22
ENDBRANCH   1  21
TORSDOF 15
ENDMDL
MODEL 3
REMARK VINA RESULT:     -10.0      6.261      9.103
REMARK SMILES Cc1ccc2c(c1)C=C(C(=O)OCCOC(=O)c1ccc(-c3c4nc(c(-c5c(F)cc(S(=O)(=O)[O-])cc5F)c5ccc([nH]5)c(-c5c(F)cc(S(=O)(=O)[O-])cc5F)c5nc(c(-c6c(F)cc(S(=O)(=O)[O-])cc6F)c6ccc3[nH]6)C=C5)C=C4)cc1)[C@@H](C(F)(F)F)O2
REMARK SMILES IDX 14 1 13 2 12 3 10 4 11 5 9 6 1 7 2 8 3 9 7 10 4 11 6 12 5 13
REMARK SMILES IDX 8 14 89 15 84 16 85 17 86 18 87 19 88 20 15 21 16 22 17 23
REMARK SMILES IDX 18 24 19 25 83 26 20 27 82 28 21 29 22 30 23 31 76 32 24 33
REMARK SMILES IDX 81 34 75 35 77 36 25 37 80 38 74 39 73 40 26 42 60 43 39 44
REMARK SMILES IDX 59 45 40 46 43 47 58 48 78 49 41 50 42 51 57 53 79 54 44 55
REMARK SMILES IDX 27 56 28 57 37 58 29 59 30 60 36 61 38 62 31 63 32 64 33 65
REMARK SMILES IDX 34 66 35 67 61 68 62 69 71 70 63 71 64 72 70 73 72 74 65 75
REMARK SMILES IDX 66 76 67 77 68 78 69 79 45 80 46 81 55 82 47 83 48 84 54 85
REMARK SMILES IDX 56 86 49 87 50 88 51 89 52 90 53 91
REMARK H PARENT 77 41 43 52
REMARK Flexibility Score: inf
ROOT
ATOM      1  C   UNL A   1      39.596  22.745  26.433  1.00  0.00     0.275 C 
ENDROOT
BRANCH   1   2
ATOM      2  C   UNL A   1      38.349  22.132  25.794  1.00  0.00     0.275 C 
BRANCH   2   3
ATOM      3  O   UNL A   1      37.361  23.138  25.476  1.00  0.00    -0.459 OA
BRANCH   3   4
ATOM      4  C   UNL A   1      36.627  22.904  24.362  1.00  0.00     0.338 C 
ATOM      5  O   UNL A   1      37.041  22.457  23.304  1.00  0.00    -0.246 OA
BRANCH   4   6
ATOM      6  C   UNL A   1      35.208  23.239  24.590  1.00  0.00     0.087 C 
ATOM      7  C   UNL A   1      31.653  27.736  26.834  1.00  0.00     0.044 C 
ATOM      8  C   UNL A   1      31.950  26.388  26.245  1.00  0.00    -0.050 A 
ATOM      9  C   UNL A   1      30.960  25.406  26.136  1.00  0.00     0.007 A 
ATOM     10  C   UNL A   1      33.255  26.072  25.860  1.00  0.00     0.015 A 
ATOM     11  C   UNL A   1      31.265  24.140  25.617  1.00  0.00     0.047 A 
ATOM     12  C   UNL A   1      33.562  24.798  25.365  1.00  0.00     0.017 A 
ATOM     13  C   UNL A   1      32.568  23.833  25.229  1.00  0.00     0.128 A 
ATOM     14  C   UNL A   1      34.928  24.471  25.027  1.00  0.00     0.027 C 
ATOM     15  O   UNL A   1      32.794  22.583  24.725  1.00  0.00    -0.475 OA
ATOM     16  C   UNL A   1      34.167  22.164  24.466  1.00  0.00     0.316 C 
BRANCH  16  17
ATOM     17  C   UNL A   1      34.495  20.970  25.378  1.00  0.00     0.430 C 
ATOM     18  F   UNL A   1      33.387  20.234  25.644  1.00  0.00    -0.167 F 
ATOM     19  F   UNL A   1      35.381  20.126  24.795  1.00  0.00    -0.167 F 
ATOM     20  F   UNL A   1      35.021  21.354  26.562  1.00  0.00    -0.167 F 
ENDBRANCH  16  17
ENDBRANCH   4   6
ENDBRANCH   3   4
ENDBRANCH   2   3
ENDBRANCH   1   2
BRANCH   1  21
ATOM     21  O   UNL A   1      39.606  24.172  26.260  1.00  0.00    -0.458 OA
BRANCH  21  22
ATOM     22  C   UNL A   1      40.728  24.795  26.683  1.00  0.00     0.338 C 
ATOM     23  O   UNL A   1      41.865  24.633  26.273  1.00  0.00    -0.246 OA
BRANCH  22  24
ATOM     24  C   UNL A   1      40.377  25.822  27.674  1.00  0.00     0.060 A 
ATOM     25  C   UNL A   1      39.334  25.644  28.574  1.00  0.00     0.016 A 
ATOM     26  C   UNL A   1      41.227  26.913  27.801  1.00  0.00     0.016 A 
ATOM     27  C   UNL A   1      39.157  26.581  29.600  1.00  0.00     0.010 A 
ATOM     28  C   UNL A   1      41.148  27.747  28.910  1.00  0.00     0.010 A 
ATOM     29  C   UNL A   1      40.090  27.620  29.812  1.00  0.00    -0.014 A 
BRANCH  29  30
ATOM     30  C   UNL A   1      39.965  28.565  30.961  1.00  0.00     0.031 A 
ATOM     31  C   UNL A   1      40.867  28.447  32.171  1.00  0.00     0.074 A 
ATOM     32  C   UNL A   1      39.007  29.516  30.939  1.00  0.00     0.049 A 
ATOM     33  N   UNL A   1      40.899  29.187  33.252  1.00  0.00    -0.248 NA
ATOM     34  C   UNL A   1      41.829  27.331  32.196  1.00  0.00     0.031 C 
ATOM     35  C   UNL A   1      37.997  29.677  29.888  1.00  0.00     0.029 A 
ATOM     36  N   UNL A   1      38.734  30.541  31.812  1.00  0.00    -0.354 N 
ATOM     37  C   UNL A   1      41.860  28.615  34.081  1.00  0.00     0.074 A 
ATOM     38  C   UNL A   1      42.327  27.420  33.420  1.00  0.00     0.031 C 
ATOM     39  C   UNL A   1      37.279  30.783  30.129  1.00  0.00     0.029 A 
ATOM     40  C   UNL A   1      37.739  31.387  31.375  1.00  0.00     0.049 A 
ATOM     41  H   UNL A   1      39.205  30.661  32.667  1.00  0.00     0.167 HD
ATOM     42  C   UNL A   1      42.350  29.066  35.261  1.00  0.00     0.037 A 
ATOM     43  C   UNL A   1      37.265  32.533  31.903  1.00  0.00     0.037 A 
ATOM     44  C   UNL A   1      41.929  30.292  35.887  1.00  0.00     0.049 A 
ATOM     45  C   UNL A   1      37.860  33.047  33.184  1.00  0.00     0.074 A 
ATOM     46  C   UNL A   1      42.414  30.878  37.043  1.00  0.00     0.029 A 
ATOM     47  N   UNL A   1      40.935  31.127  35.400  1.00  0.00    -0.354 N 
ATOM     48  N   UNL A   1      38.816  32.525  33.915  1.00  0.00    -0.248 NA
ATOM     49  C   UNL A   1      37.317  34.306  33.710  1.00  0.00     0.031 C 
ATOM     50  C   UNL A   1      41.691  32.054  37.272  1.00  0.00     0.029 A 
ATOM     51  C   UNL A   1      40.786  32.221  36.236  1.00  0.00     0.049 A 
ATOM     52  H   UNL A   1      40.414  30.967  34.580  1.00  0.00     0.167 HD
ATOM     53  C   UNL A   1      38.998  33.399  34.980  1.00  0.00     0.074 A 
ATOM     54  C   UNL A   1      38.070  34.494  34.786  1.00  0.00     0.031 C 
ATOM     55  C   UNL A   1      39.856  33.301  36.027  1.00  0.00     0.037 A 
BRANCH  42  56
ATOM     56  C   UNL A   1      43.431  28.257  35.930  1.00  0.00     0.058 A 
ATOM     57  C   UNL A   1      44.790  28.563  35.753  1.00  0.00     0.135 A 
ATOM     58  C   UNL A   1      43.110  27.196  36.794  1.00  0.00     0.135 A 
ATOM     59  F   UNL A   1      45.158  29.559  34.930  1.00  0.00    -0.206 F 
ATOM     60  C   UNL A   1      45.792  27.830  36.382  1.00  0.00     0.059 A 
ATOM     61  C   UNL A   1      44.096  26.469  37.457  1.00  0.00     0.059 A 
ATOM     62  F   UNL A   1      41.828  26.859  37.004  1.00  0.00    -0.206 F 
ATOM     63  C   UNL A   1      45.435  26.786  37.234  1.00  0.00     0.060 A 
BRANCH  63  64
ATOM     64  S   UNL A   1      46.750  25.861  38.054  1.00  0.00     0.124 S 
ATOM     65  O   UNL A   1      47.480  25.317  36.913  1.00  0.00    -0.237 OA
ATOM     66  O   UNL A   1      47.440  26.904  38.807  1.00  0.00    -0.237 OA
ATOM     67  O   UNL A   1      46.029  24.883  38.862  1.00  0.00    -0.744 OA
ENDBRANCH  63  64
ENDBRANCH  42  56
BRANCH  43  68
ATOM     68  C   UNL A   1      36.215  33.300  31.179  1.00  0.00     0.058 A 
ATOM     69  C   UNL A   1      34.896  33.335  31.657  1.00  0.00     0.135 A 
ATOM     70  C   UNL A   1      36.513  34.048  30.031  1.00  0.00     0.135 A 
ATOM     71  F   UNL A   1      34.561  32.631  32.750  1.00  0.00    -0.206 F 
ATOM     72  C   UNL A   1      33.909  34.081  31.022  1.00  0.00     0.059 A 
ATOM     73  C   UNL A   1      35.548  34.822  29.391  1.00  0.00     0.059 A 
ATOM     74  F   UNL A   1      37.763  34.063  29.542  1.00  0.00    -0.206 F 
ATOM     75  C   UNL A   1      34.247  34.829  29.893  1.00  0.00     0.060 A 
BRANCH  75  76
ATOM     76  S   UNL A   1      32.972  35.848  29.121  1.00  0.00     0.124 S 
ATOM     77  O   UNL A   1      32.280  34.873  28.286  1.00  0.00    -0.237 OA
ATOM     78  O   UNL A   1      32.231  36.339  30.278  1.00  0.00    -0.237 OA
ATOM     79  O   UNL A   1      33.741  36.860  28.402  1.00  0.00    -0.744 OA
ENDBRANCH  75  76
ENDBRANCH  43  68
BRANCH  55  80
ATOM     80  C   UNL A   1      39.839  34.410  37.041  1.00  0.00     0.058 A 
ATOM     81  C   UNL A   1      40.612  35.568  36.871  1.00  0.00     0.135 A 
ATOM     82  C   UNL A   1      38.990  34.341  38.158  1.00  0.00     0.135 A 
ATOM     83  F   UNL A   1      41.442  35.679  35.823  1.00  0.00    -0.206 F 
ATOM     84  C   UNL A   1      40.557  36.615  37.785  1.00  0.00     0.059 A 
ATOM     85  C   UNL A   1      38.901  35.387  39.070  1.00  0.00     0.059 A 
ATOM     86  F   UNL A   1      38.222  33.258  38.359  1.00  0.00    -0.206 F 
ATOM     87  C   UNL A   1      39.696  36.517  38.879  1.00  0.00     0.060 A 
BRANCH  87  88
ATOM     88  S   UNL A   1      39.610  37.900  40.035  1.00  0.00     0.124 S 
ATOM     89  O   UNL A   1      39.520  37.208  41.316  1.00  0.00    -0.237 OA
ATOM     90  O   UNL A   1      40.866  38.598  39.778  1.00  0.00    -0.237 OA
ATOM     91  O   UNL A   1      38.406  38.616  39.622  1.00  0.00    -0.744 OA
ENDBRANCH  87  88
ENDBRANCH  55  80
ENDBRANCH  29  30
ENDBRANCH  22  24
ENDBRANCH  21  22
ENDBRANCH   1  21
TORSDOF 15
ENDMDL
