MODEL 1
REMARK VINA RESULT:     -10.4      0.000      0.000
REMARK SMILES COc1ccc2c(c1)[C@H]([NH2+][C@H]1CCC[C@H](C(=O)OCCOC(=O)c3ccc(-c4c5nc(c(-c6c(F)cc(S(=O)(=O)[O-])cc6F)c6ccc([nH]6)c(-c6c(F)cc(S(=O)(=O)[O-])cc6F)c6nc(c(-c7c(F)cc(S(=O)(=O)[O-])cc7F)c7ccc4[nH]7)C=C6)C=C5)cc3)C1)CC2
REMARK SMILES IDX 19 1 18 2 16 3 17 4 15 5 11 6 12 7 90 8 13 9 14 10 10 11
REMARK SMILES IDX 9 14 3 15 4 16 8 17 5 18 7 19 6 20 92 21 91 22 2 23 1 24
REMARK SMILES IDX 20 25 21 26 22 27 23 28 24 29 25 30 89 31 26 32 88 33 27 34
REMARK SMILES IDX 28 35 29 36 82 37 30 38 87 39 81 40 83 41 31 42 86 43 80 44
REMARK SMILES IDX 79 45 32 47 66 48 45 49 65 50 46 51 49 52 64 53 84 54 47 55
REMARK SMILES IDX 48 56 63 58 85 59 50 60 33 61 34 62 43 63 35 64 36 65 42 66
REMARK SMILES IDX 44 67 37 68 38 69 39 70 40 71 41 72 67 73 68 74 77 75 69 76
REMARK SMILES IDX 70 77 76 78 78 79 71 80 72 81 73 82 74 83 75 84 51 85 52 86
REMARK SMILES IDX 61 87 53 88 54 89 60 90 62 91 55 92 56 93 57 94 58 95 59 96
REMARK H PARENT 10 12 10 13 83 46 49 57
REMARK Flexibility Score: inf
ROOT
ATOM      1  C   UNL A   1      41.060  19.909  26.878  1.00  0.00     0.274 C 
ENDROOT
BRANCH   1   2
ATOM      2  O   UNL A   1      41.678  19.882  25.578  1.00  0.00    -0.462 OA
BRANCH   2   3
ATOM      3  C   UNL A   1      42.917  19.330  25.528  1.00  0.00     0.309 C 
ATOM      4  O   UNL A   1      43.145  18.126  25.555  1.00  0.00    -0.252 OA
BRANCH   3   5
ATOM      5  C   UNL A   1      44.024  20.365  25.456  1.00  0.00     0.105 C 
ATOM      6  C   UNL A   1      44.532  22.804  24.958  1.00  0.00     0.183 C 
ATOM      7  C   UNL A   1      45.839  22.360  24.279  1.00  0.00     0.065 C 
ATOM      8  C   UNL A   1      43.479  21.683  24.914  1.00  0.00     0.080 C 
ATOM      9  C   UNL A   1      46.351  20.996  24.739  1.00  0.00     0.007 C 
ATOM     10  C   UNL A   1      45.260  19.929  24.666  1.00  0.00     0.016 C 
BRANCH   6  11
ATOM     11  N   UNL A   1      44.733  23.202  26.360  1.00  0.00    -0.338 N 
ATOM     12  H   UNL A   1      43.835  23.492  26.749  1.00  0.00     0.347 HD
ATOM     13  H   UNL A   1      45.117  22.397  26.856  1.00  0.00     0.347 HD
BRANCH  11  14
ATOM     14  C   UNL A   1      45.680  24.302  26.504  1.00  0.00     0.214 C 
ATOM     15  C   UNL A   1      43.797  27.516  25.537  1.00  0.00     0.119 A 
ATOM     16  C   UNL A   1      44.507  28.410  26.352  1.00  0.00     0.047 A 
ATOM     17  C   UNL A   1      44.085  26.152  25.549  1.00  0.00     0.056 A 
ATOM     18  C   UNL A   1      45.518  27.940  27.195  1.00  0.00     0.008 A 
ATOM     19  C   UNL A   1      45.105  25.690  26.365  1.00  0.00     0.016 A 
ATOM     20  C   UNL A   1      45.793  26.581  27.204  1.00  0.00    -0.038 A 
ATOM     21  C   UNL A   1      46.788  25.846  28.051  1.00  0.00     0.042 C 
ATOM     22  C   UNL A   1      46.252  24.409  27.935  1.00  0.00     0.075 C 
BRANCH  15  23
ATOM     23  O   UNL A   1      42.749  27.919  24.755  1.00  0.00    -0.497 OA
ATOM     24  C   UNL A   1      41.899  28.830  25.445  1.00  0.00     0.278 C 
ENDBRANCH  15  23
ENDBRANCH  11  14
ENDBRANCH   6  11
ENDBRANCH   3   5
ENDBRANCH   2   3
ENDBRANCH   1   2
BRANCH   1  25
ATOM     25  C   UNL A   1      40.537  21.307  27.208  1.00  0.00     0.275 C 
BRANCH  25  26
ATOM     26  O   UNL A   1      40.264  22.056  26.011  1.00  0.00    -0.458 OA
BRANCH  26  27
ATOM     27  C   UNL A   1      39.134  22.801  26.036  1.00  0.00     0.338 C 
ATOM     28  O   UNL A   1      38.035  22.499  25.601  1.00  0.00    -0.246 OA
BRANCH  27  29
ATOM     29  C   UNL A   1      39.395  24.060  26.747  1.00  0.00     0.060 A 
ATOM     30  C   UNL A   1      40.348  24.940  26.232  1.00  0.00     0.016 A 
ATOM     31  C   UNL A   1      38.776  24.318  27.970  1.00  0.00     0.016 A 
ATOM     32  C   UNL A   1      40.706  26.079  26.948  1.00  0.00     0.010 A 
ATOM     33  C   UNL A   1      39.120  25.473  28.678  1.00  0.00     0.010 A 
ATOM     34  C   UNL A   1      40.100  26.353  28.181  1.00  0.00    -0.014 A 
BRANCH  34  35
ATOM     35  C   UNL A   1      40.523  27.531  28.976  1.00  0.00     0.031 A 
ATOM     36  C   UNL A   1      41.847  27.517  29.686  1.00  0.00     0.074 A 
ATOM     37  C   UNL A   1      39.722  28.610  29.059  1.00  0.00     0.049 A 
ATOM     38  N   UNL A   1      42.342  28.383  30.531  1.00  0.00    -0.248 NA
ATOM     39  C   UNL A   1      42.731  26.373  29.409  1.00  0.00     0.031 C 
ATOM     40  C   UNL A   1      38.434  28.762  28.382  1.00  0.00     0.029 A 
ATOM     41  N   UNL A   1      39.872  29.781  29.759  1.00  0.00    -0.354 N 
ATOM     42  C   UNL A   1      43.579  27.879  30.912  1.00  0.00     0.074 A 
ATOM     43  C   UNL A   1      43.758  26.626  30.209  1.00  0.00     0.031 C 
ATOM     44  C   UNL A   1      37.909  29.956  28.702  1.00  0.00     0.029 A 
ATOM     45  C   UNL A   1      38.799  30.631  29.642  1.00  0.00     0.049 A 
ATOM     46  H   UNL A   1      40.672  29.992  30.294  1.00  0.00     0.167 HD
ATOM     47  C   UNL A   1      44.480  28.411  31.771  1.00  0.00     0.037 A 
ATOM     48  C   UNL A   1      38.547  31.807  30.248  1.00  0.00     0.037 A 
ATOM     49  C   UNL A   1      44.306  29.667  32.452  1.00  0.00     0.049 A 
ATOM     50  C   UNL A   1      39.546  32.363  31.224  1.00  0.00     0.074 A 
ATOM     51  C   UNL A   1      45.163  30.293  33.341  1.00  0.00     0.029 A 
ATOM     52  N   UNL A   1      43.201  30.494  32.313  1.00  0.00    -0.354 N 
ATOM     53  N   UNL A   1      40.698  31.859  31.599  1.00  0.00    -0.248 NA
ATOM     54  C   UNL A   1      39.209  33.640  31.869  1.00  0.00     0.031 C 
ATOM     55  C   UNL A   1      44.565  31.488  33.759  1.00  0.00     0.029 A 
ATOM     56  C   UNL A   1      43.349  31.621  33.107  1.00  0.00     0.049 A 
ATOM     57  H   UNL A   1      42.426  30.309  31.737  1.00  0.00     0.167 HD
ATOM     58  C   UNL A   1      41.226  32.760  32.515  1.00  0.00     0.074 A 
ATOM     59  C   UNL A   1      40.276  33.849  32.628  1.00  0.00     0.031 C 
ATOM     60  C   UNL A   1      42.392  32.693  33.203  1.00  0.00     0.037 A 
BRANCH  47  61
ATOM     61  C   UNL A   1      45.725  27.617  32.043  1.00  0.00     0.058 A 
ATOM     62  C   UNL A   1      46.871  27.744  31.244  1.00  0.00     0.135 A 
ATOM     63  C   UNL A   1      45.776  26.729  33.129  1.00  0.00     0.135 A 
ATOM     64  F   UNL A   1      46.867  28.567  30.183  1.00  0.00    -0.206 F 
ATOM     65  C   UNL A   1      48.019  26.999  31.496  1.00  0.00     0.059 A 
ATOM     66  C   UNL A   1      46.920  25.987  33.413  1.00  0.00     0.059 A 
ATOM     67  F   UNL A   1      44.706  26.569  33.923  1.00  0.00    -0.206 F 
ATOM     68  C   UNL A   1      48.031  26.118  32.579  1.00  0.00     0.060 A 
BRANCH  68  69
ATOM     69  S   UNL A   1      49.520  25.147  32.894  1.00  0.00     0.124 S 
ATOM     70  O   UNL A   1      50.317  26.086  33.677  1.00  0.00    -0.237 OA
ATOM     71  O   UNL A   1      49.000  23.996  33.626  1.00  0.00    -0.237 OA
ATOM     72  O   UNL A   1      50.025  24.858  31.556  1.00  0.00    -0.744 OA
ENDBRANCH  68  69
ENDBRANCH  47  61
BRANCH  48  73
ATOM     73  C   UNL A   1      37.275  32.522  29.970  1.00  0.00     0.058 A 
ATOM     74  C   UNL A   1      36.088  32.168  30.626  1.00  0.00     0.135 A 
ATOM     75  C   UNL A   1      37.227  33.586  29.057  1.00  0.00     0.135 A 
ATOM     76  F   UNL A   1      36.084  31.149  31.499  1.00  0.00    -0.206 F 
ATOM     77  C   UNL A   1      34.895  32.841  30.385  1.00  0.00     0.059 A 
ATOM     78  C   UNL A   1      36.052  34.288  28.813  1.00  0.00     0.059 A 
ATOM     79  F   UNL A   1      38.340  33.968  28.411  1.00  0.00    -0.206 F 
ATOM     80  C   UNL A   1      34.887  33.902  29.477  1.00  0.00     0.060 A 
BRANCH  80  81
ATOM     81  S   UNL A   1      33.350  34.811  29.208  1.00  0.00     0.124 S 
ATOM     82  O   UNL A   1      32.779  34.824  30.550  1.00  0.00    -0.237 OA
ATOM     83  O   UNL A   1      33.830  36.096  28.707  1.00  0.00    -0.237 OA
ATOM     84  O   UNL A   1      32.646  33.990  28.227  1.00  0.00    -0.744 OA
ENDBRANCH  80  81
ENDBRANCH  48  73
BRANCH  60  85
ATOM     85  C   UNL A   1      42.714  33.835  34.122  1.00  0.00     0.058 A 
ATOM     86  C   UNL A   1      42.441  33.766  35.497  1.00  0.00     0.135 A 
ATOM     87  C   UNL A   1      43.343  34.989  33.632  1.00  0.00     0.135 A 
ATOM     88  F   UNL A   1      41.834  32.684  36.012  1.00  0.00    -0.206 F 
ATOM     89  C   UNL A   1      42.767  34.812  36.354  1.00  0.00     0.059 A 
ATOM     90  C   UNL A   1      43.693  36.040  34.473  1.00  0.00     0.059 A 
ATOM     91  F   UNL A   1      43.630  35.098  32.325  1.00  0.00    -0.206 F 
ATOM     92  C   UNL A   1      43.392  35.946  35.832  1.00  0.00     0.060 A 
BRANCH  92  93
ATOM     93  S   UNL A   1      43.845  37.286  36.955  1.00  0.00     0.124 S 
ATOM     94  O   UNL A   1      45.045  36.745  37.587  1.00  0.00    -0.237 OA
ATOM     95  O   UNL A   1      44.059  38.406  36.045  1.00  0.00    -0.237 OA
ATOM     96  O   UNL A   1      42.678  37.407  37.824  1.00  0.00    -0.744 OA
ENDBRANCH  92  93
ENDBRANCH  60  85
ENDBRANCH  34  35
ENDBRANCH  27  29
ENDBRANCH  26  27
ENDBRANCH  25  26
ENDBRANCH   1  25
TORSDOF 17
ENDMDL
MODEL 2
REMARK VINA RESULT:     -10.4      3.841      6.213
REMARK SMILES COc1ccc2c(c1)[C@H]([NH2+][C@H]1CCC[C@H](C(=O)OCCOC(=O)c3ccc(-c4c5nc(c(-c6c(F)cc(S(=O)(=O)[O-])cc6F)c6ccc([nH]6)c(-c6c(F)cc(S(=O)(=O)[O-])cc6F)c6nc(c(-c7c(F)cc(S(=O)(=O)[O-])cc7F)c7ccc4[nH]7)C=C6)C=C5)cc3)C1)CC2
REMARK SMILES IDX 19 1 18 2 16 3 17 4 15 5 11 6 12 7 90 8 13 9 14 10 10 11
REMARK SMILES IDX 9 14 3 15 4 16 8 17 5 18 7 19 6 20 92 21 91 22 2 23 1 24
REMARK SMILES IDX 20 25 21 26 22 27 23 28 24 29 25 30 89 31 26 32 88 33 27 34
REMARK SMILES IDX 28 35 29 36 82 37 30 38 87 39 81 40 83 41 31 42 86 43 80 44
REMARK SMILES IDX 79 45 32 47 66 48 45 49 65 50 46 51 49 52 64 53 84 54 47 55
REMARK SMILES IDX 48 56 63 58 85 59 50 60 33 61 34 62 43 63 35 64 36 65 42 66
REMARK SMILES IDX 44 67 37 68 38 69 39 70 40 71 41 72 67 73 68 74 77 75 69 76
REMARK SMILES IDX 70 77 76 78 78 79 71 80 72 81 73 82 74 83 75 84 51 85 52 86
REMARK SMILES IDX 61 87 53 88 54 89 60 90 62 91 55 92 56 93 57 94 58 95 59 96
REMARK H PARENT 10 12 10 13 83 46 49 57
REMARK Flexibility Score: inf
ROOT
ATOM      1  C   UNL A   1      38.117  22.027  25.392  1.00  0.00     0.274 C 
ENDROOT
BRANCH   1   2
ATOM      2  O   UNL A   1      37.378  23.211  25.039  1.00  0.00    -0.462 OA
BRANCH   2   3
ATOM      3  C   UNL A   1      36.437  23.050  24.072  1.00  0.00     0.309 C 
ATOM      4  O   UNL A   1      36.676  22.977  22.873  1.00  0.00    -0.252 OA
BRANCH   3   5
ATOM      5  C   UNL A   1      35.026  22.990  24.625  1.00  0.00     0.105 C 
ATOM      6  C   UNL A   1      33.554  23.646  26.589  1.00  0.00     0.183 C 
ATOM      7  C   UNL A   1      32.825  22.298  26.453  1.00  0.00     0.065 C 
ATOM      8  C   UNL A   1      34.989  23.555  26.042  1.00  0.00     0.080 C 
ATOM      9  C   UNL A   1      32.932  21.668  25.065  1.00  0.00     0.007 C 
ATOM     10  C   UNL A   1      34.380  21.603  24.584  1.00  0.00     0.016 C 
BRANCH   6  11
ATOM     11  N   UNL A   1      32.856  24.737  25.892  1.00  0.00    -0.338 N 
ATOM     12  H   UNL A   1      32.583  24.410  24.964  1.00  0.00     0.347 HD
ATOM     13  H   UNL A   1      32.045  24.993  26.455  1.00  0.00     0.347 HD
BRANCH  11  14
ATOM     14  C   UNL A   1      33.683  25.930  25.740  1.00  0.00     0.214 C 
ATOM     15  C   UNL A   1      33.583  26.878  22.011  1.00  0.00     0.119 A 
ATOM     16  C   UNL A   1      33.758  28.261  22.158  1.00  0.00     0.047 A 
ATOM     17  C   UNL A   1      33.507  26.043  23.125  1.00  0.00     0.056 A 
ATOM     18  C   UNL A   1      33.858  28.826  23.433  1.00  0.00     0.008 A 
ATOM     19  C   UNL A   1      33.634  26.599  24.389  1.00  0.00     0.016 A 
ATOM     20  C   UNL A   1      33.777  27.988  24.534  1.00  0.00    -0.038 A 
ATOM     21  C   UNL A   1      33.808  28.365  25.985  1.00  0.00     0.042 C 
ATOM     22  C   UNL A   1      33.197  27.103  26.619  1.00  0.00     0.075 C 
BRANCH  15  23
ATOM     23  O   UNL A   1      33.402  26.292  20.787  1.00  0.00    -0.497 OA
ATOM     24  C   UNL A   1      32.576  25.136  20.876  1.00  0.00     0.278 C 
ENDBRANCH  15  23
ENDBRANCH  11  14
ENDBRANCH   6  11
ENDBRANCH   3   5
ENDBRANCH   2   3
ENDBRANCH   1   2
BRANCH   1  25
ATOM     25  C   UNL A   1      39.371  22.383  26.192  1.00  0.00     0.275 C 
BRANCH  25  26
ATOM     26  O   UNL A   1      39.331  23.749  26.642  1.00  0.00    -0.458 OA
BRANCH  26  27
ATOM     27  C   UNL A   1      40.537  24.342  26.802  1.00  0.00     0.338 C 
ATOM     28  O   UNL A   1      41.591  24.041  26.267  1.00  0.00    -0.246 OA
BRANCH  27  29
ATOM     29  C   UNL A   1      40.398  25.494  27.704  1.00  0.00     0.060 A 
ATOM     30  C   UNL A   1      41.406  26.458  27.726  1.00  0.00     0.016 A 
ATOM     31  C   UNL A   1      39.329  25.562  28.597  1.00  0.00     0.016 A 
ATOM     32  C   UNL A   1      41.363  27.492  28.658  1.00  0.00     0.010 A 
ATOM     33  C   UNL A   1      39.275  26.612  29.519  1.00  0.00     0.010 A 
ATOM     34  C   UNL A   1      40.300  27.575  29.567  1.00  0.00    -0.014 A 
BRANCH  34  35
ATOM     35  C   UNL A   1      40.283  28.638  30.600  1.00  0.00     0.031 A 
ATOM     36  C   UNL A   1      41.232  28.565  31.764  1.00  0.00     0.074 A 
ATOM     37  C   UNL A   1      39.419  29.665  30.496  1.00  0.00     0.049 A 
ATOM     38  N   UNL A   1      41.288  29.314  32.834  1.00  0.00    -0.248 NA
ATOM     39  C   UNL A   1      42.251  27.504  31.715  1.00  0.00     0.031 C 
ATOM     40  C   UNL A   1      38.479  29.871  29.394  1.00  0.00     0.029 A 
ATOM     41  N   UNL A   1      39.187  30.726  31.336  1.00  0.00    -0.354 N 
ATOM     42  C   UNL A   1      42.326  28.802  33.602  1.00  0.00     0.074 A 
ATOM     43  C   UNL A   1      42.870  27.672  32.877  1.00  0.00     0.031 C 
ATOM     44  C   UNL A   1      37.768  30.987  29.627  1.00  0.00     0.029 A 
ATOM     45  C   UNL A   1      38.170  31.547  30.914  1.00  0.00     0.049 A 
ATOM     46  H   UNL A   1      39.701  30.882  32.162  1.00  0.00     0.167 HD
ATOM     47  C   UNL A   1      42.781  29.233  34.802  1.00  0.00     0.037 A 
ATOM     48  C   UNL A   1      37.603  32.612  31.513  1.00  0.00     0.037 A 
ATOM     49  C   UNL A   1      42.251  30.369  35.509  1.00  0.00     0.049 A 
ATOM     50  C   UNL A   1      38.101  33.052  32.861  1.00  0.00     0.074 A 
ATOM     51  C   UNL A   1      42.645  30.886  36.731  1.00  0.00     0.029 A 
ATOM     52  N   UNL A   1      41.215  31.169  35.052  1.00  0.00    -0.354 N 
ATOM     53  N   UNL A   1      39.063  32.538  33.591  1.00  0.00    -0.248 NA
ATOM     54  C   UNL A   1      37.433  34.209  33.473  1.00  0.00     0.031 C 
ATOM     55  C   UNL A   1      41.831  31.986  37.025  1.00  0.00     0.029 A 
ATOM     56  C   UNL A   1      40.949  32.172  35.971  1.00  0.00     0.049 A 
ATOM     57  H   UNL A   1      40.737  31.044  34.201  1.00  0.00     0.167 HD
ATOM     58  C   UNL A   1      39.121  33.313  34.743  1.00  0.00     0.074 A 
ATOM     59  C   UNL A   1      38.107  34.341  34.608  1.00  0.00     0.031 C 
ATOM     60  C   UNL A   1      39.937  33.185  35.817  1.00  0.00     0.037 A 
BRANCH  47  61
ATOM     61  C   UNL A   1      43.893  28.450  35.439  1.00  0.00     0.058 A 
ATOM     62  C   UNL A   1      43.637  27.398  36.332  1.00  0.00     0.135 A 
ATOM     63  C   UNL A   1      45.232  28.746  35.139  1.00  0.00     0.135 A 
ATOM     64  F   UNL A   1      42.375  27.087  36.665  1.00  0.00    -0.206 F 
ATOM     65  C   UNL A   1      44.672  26.682  36.926  1.00  0.00     0.059 A 
ATOM     66  C   UNL A   1      46.283  28.031  35.706  1.00  0.00     0.059 A 
ATOM     67  F   UNL A   1      45.531  29.745  34.294  1.00  0.00    -0.206 F 
ATOM     68  C   UNL A   1      45.992  27.011  36.612  1.00  0.00     0.060 A 
BRANCH  68  69
ATOM     69  S   UNL A   1      47.329  26.083  37.394  1.00  0.00     0.124 S 
ATOM     70  O   UNL A   1      46.604  24.947  37.953  1.00  0.00    -0.237 OA
ATOM     71  O   UNL A   1      48.207  25.781  36.268  1.00  0.00    -0.237 OA
ATOM     72  O   UNL A   1      47.869  27.025  38.370  1.00  0.00    -0.744 OA
ENDBRANCH  68  69
ENDBRANCH  47  61
BRANCH  48  73
ATOM     73  C   UNL A   1      36.475  33.316  30.850  1.00  0.00     0.058 A 
ATOM     74  C   UNL A   1      35.163  33.185  31.323  1.00  0.00     0.135 A 
ATOM     75  C   UNL A   1      36.694  34.150  29.743  1.00  0.00     0.135 A 
ATOM     76  F   UNL A   1      34.905  32.390  32.373  1.00  0.00    -0.206 F 
ATOM     77  C   UNL A   1      34.102  33.854  30.720  1.00  0.00     0.059 A 
ATOM     78  C   UNL A   1      35.653  34.843  29.134  1.00  0.00     0.059 A 
ATOM     79  F   UNL A   1      37.935  34.314  29.259  1.00  0.00    -0.206 F 
ATOM     80  C   UNL A   1      34.358  34.683  29.626  1.00  0.00     0.060 A 
BRANCH  80  81
ATOM     81  S   UNL A   1      32.989  35.593  28.880  1.00  0.00     0.124 S 
ATOM     82  O   UNL A   1      32.340  34.552  28.091  1.00  0.00    -0.237 OA
ATOM     83  O   UNL A   1      32.250  36.061  30.049  1.00  0.00    -0.237 OA
ATOM     84  O   UNL A   1      33.662  36.639  28.116  1.00  0.00    -0.744 OA
ENDBRANCH  80  81
ENDBRANCH  48  73
BRANCH  60  85
ATOM     85  C   UNL A   1      39.782  34.191  36.921  1.00  0.00     0.058 A 
ATOM     86  C   UNL A   1      39.080  33.883  38.096  1.00  0.00     0.135 A 
ATOM     87  C   UNL A   1      40.381  35.456  36.822  1.00  0.00     0.135 A 
ATOM     88  F   UNL A   1      38.484  32.688  38.234  1.00  0.00    -0.206 F 
ATOM     89  C   UNL A   1      38.962  34.805  39.131  1.00  0.00     0.059 A 
ATOM     90  C   UNL A   1      40.291  36.386  37.852  1.00  0.00     0.059 A 
ATOM     91  F   UNL A   1      41.069  35.793  35.720  1.00  0.00    -0.206 F 
ATOM     92  C   UNL A   1      39.570  36.055  38.999  1.00  0.00     0.060 A 
BRANCH  92  93
ATOM     93  S   UNL A   1      39.445  37.233  40.362  1.00  0.00     0.124 S 
ATOM     94  O   UNL A   1      38.873  38.397  39.692  1.00  0.00    -0.237 OA
ATOM     95  O   UNL A   1      38.562  36.544  41.298  1.00  0.00    -0.237 OA
ATOM     96  O   UNL A   1      40.827  37.380  40.809  1.00  0.00    -0.744 OA
ENDBRANCH  92  93
ENDBRANCH  60  85
ENDBRANCH  34  35
ENDBRANCH  27  29
ENDBRANCH  26  27
ENDBRANCH  25  26
ENDBRANCH   1  25
TORSDOF 17
ENDMDL
MODEL 3
REMARK VINA RESULT:     -10.3      5.524     12.169
REMARK SMILES COc1ccc2c(c1)[C@H]([NH2+][C@H]1CCC[C@H](C(=O)OCCOC(=O)c3ccc(-c4c5nc(c(-c6c(F)cc(S(=O)(=O)[O-])cc6F)c6ccc([nH]6)c(-c6c(F)cc(S(=O)(=O)[O-])cc6F)c6nc(c(-c7c(F)cc(S(=O)(=O)[O-])cc7F)c7ccc4[nH]7)C=C6)C=C5)cc3)C1)CC2
REMARK SMILES IDX 19 1 18 2 16 3 17 4 15 5 11 6 12 7 90 8 13 9 14 10 10 11
REMARK SMILES IDX 9 14 3 15 4 16 8 17 5 18 7 19 6 20 92 21 91 22 2 23 1 24
REMARK SMILES IDX 20 25 21 26 22 27 23 28 24 29 25 30 89 31 26 32 88 33 27 34
REMARK SMILES IDX 28 35 29 36 82 37 30 38 87 39 81 40 83 41 31 42 86 43 80 44
REMARK SMILES IDX 79 45 32 47 66 48 45 49 65 50 46 51 49 52 64 53 84 54 47 55
REMARK SMILES IDX 48 56 63 58 85 59 50 60 33 61 34 62 43 63 35 64 36 65 42 66
REMARK SMILES IDX 44 67 37 68 38 69 39 70 40 71 41 72 67 73 68 74 77 75 69 76
REMARK SMILES IDX 70 77 76 78 78 79 71 80 72 81 73 82 74 83 75 84 51 85 52 86
REMARK SMILES IDX 61 87 53 88 54 89 60 90 62 91 55 92 56 93 57 94 58 95 59 96
REMARK H PARENT 10 12 10 13 83 46 49 57
REMARK Flexibility Score: inf
ROOT
ATOM      1  C   UNL A   1      34.827  33.213  30.164  1.00  0.00     0.274 C 
ENDROOT
BRANCH   1   2
ATOM      2  O   UNL A   1      34.105  32.725  29.018  1.00  0.00    -0.462 OA
BRANCH   2   3
ATOM      3  C   UNL A   1      34.870  32.312  27.974  1.00  0.00     0.309 C 
ATOM      4  O   UNL A   1      35.870  32.894  27.570  1.00  0.00    -0.252 OA
BRANCH   3   5
ATOM      5  C   UNL A   1      34.347  31.046  27.322  1.00  0.00     0.105 C 
ATOM      6  C   UNL A   1      32.248  29.708  26.815  1.00  0.00     0.183 C 
ATOM      7  C   UNL A   1      33.041  28.419  27.094  1.00  0.00     0.065 C 
ATOM      8  C   UNL A   1      32.849  30.901  27.577  1.00  0.00     0.080 C 
ATOM      9  C   UNL A   1      34.553  28.569  26.937  1.00  0.00     0.007 C 
ATOM     10  C   UNL A   1      35.086  29.767  27.721  1.00  0.00     0.016 C 
BRANCH   6  11
ATOM     11  N   UNL A   1      32.203  30.042  25.382  1.00  0.00    -0.338 N 
ATOM     12  H   UNL A   1      31.880  31.005  25.282  1.00  0.00     0.347 HD
ATOM     13  H   UNL A   1      33.143  29.918  25.008  1.00  0.00     0.347 HD
BRANCH  11  14
ATOM     14  C   UNL A   1      31.309  29.170  24.628  1.00  0.00     0.214 C 
ATOM     15  C   UNL A   1      28.607  31.430  23.078  1.00  0.00     0.119 A 
ATOM     16  C   UNL A   1      28.339  30.658  21.938  1.00  0.00     0.047 A 
ATOM     17  C   UNL A   1      29.586  31.043  23.991  1.00  0.00     0.056 A 
ATOM     18  C   UNL A   1      29.057  29.483  21.700  1.00  0.00     0.008 A 
ATOM     19  C   UNL A   1      30.280  29.863  23.770  1.00  0.00     0.016 A 
ATOM     20  C   UNL A   1      30.033  29.109  22.612  1.00  0.00    -0.038 A 
ATOM     21  C   UNL A   1      30.955  27.929  22.545  1.00  0.00     0.042 C 
ATOM     22  C   UNL A   1      32.048  28.366  23.535  1.00  0.00     0.075 C 
BRANCH  15  23
ATOM     23  O   UNL A   1      27.984  32.626  23.310  1.00  0.00    -0.497 OA
ATOM     24  C   UNL A   1      28.879  33.723  23.155  1.00  0.00     0.278 C 
ENDBRANCH  15  23
ENDBRANCH  11  14
ENDBRANCH   6  11
ENDBRANCH   3   5
ENDBRANCH   2   3
ENDBRANCH   1   2
BRANCH   1  25
ATOM     25  C   UNL A   1      35.266  32.059  31.066  1.00  0.00     0.275 C 
BRANCH  25  26
ATOM     26  O   UNL A   1      36.668  31.780  30.909  1.00  0.00    -0.458 OA
BRANCH  26  27
ATOM     27  C   UNL A   1      37.009  30.471  30.948  1.00  0.00     0.338 C 
ATOM     28  O   UNL A   1      36.318  29.534  31.312  1.00  0.00    -0.246 OA
BRANCH  27  29
ATOM     29  C   UNL A   1      38.366  30.303  30.410  1.00  0.00     0.060 A 
ATOM     30  C   UNL A   1      38.550  30.318  29.027  1.00  0.00     0.016 A 
ATOM     31  C   UNL A   1      39.431  30.027  31.266  1.00  0.00     0.016 A 
ATOM     32  C   UNL A   1      39.802  30.036  28.486  1.00  0.00     0.010 A 
ATOM     33  C   UNL A   1      40.693  29.766  30.723  1.00  0.00     0.010 A 
ATOM     34  C   UNL A   1      40.883  29.751  29.329  1.00  0.00    -0.014 A 
BRANCH  34  35
ATOM     35  C   UNL A   1      42.202  29.390  28.756  1.00  0.00     0.031 A 
ATOM     36  C   UNL A   1      42.455  27.984  28.290  1.00  0.00     0.074 A 
ATOM     37  C   UNL A   1      43.170  30.320  28.652  1.00  0.00     0.049 A 
ATOM     38  N   UNL A   1      43.570  27.434  27.884  1.00  0.00    -0.248 NA
ATOM     39  C   UNL A   1      41.297  27.075  28.283  1.00  0.00     0.031 C 
ATOM     40  C   UNL A   1      43.033  31.728  29.029  1.00  0.00     0.029 A 
ATOM     41  N   UNL A   1      44.464  30.218  28.207  1.00  0.00    -0.354 N 
ATOM     42  C   UNL A   1      43.260  26.110  27.602  1.00  0.00     0.074 A 
ATOM     43  C   UNL A   1      41.851  25.936  27.888  1.00  0.00     0.031 C 
ATOM     44  C   UNL A   1      44.198  32.357  28.803  1.00  0.00     0.029 A 
ATOM     45  C   UNL A   1      45.174  31.389  28.311  1.00  0.00     0.049 A 
ATOM     46  H   UNL A   1      44.846  29.384  27.848  1.00  0.00     0.167 HD
ATOM     47  C   UNL A   1      44.076  25.130  27.148  1.00  0.00     0.037 A 
ATOM     48  C   UNL A   1      46.474  31.646  28.068  1.00  0.00     0.037 A 
ATOM     49  C   UNL A   1      45.471  25.313  26.845  1.00  0.00     0.049 A 
ATOM     50  C   UNL A   1      47.370  30.534  27.597  1.00  0.00     0.074 A 
ATOM     51  C   UNL A   1      46.382  24.381  26.378  1.00  0.00     0.029 A 
ATOM     52  N   UNL A   1      46.156  26.512  26.972  1.00  0.00    -0.354 N 
ATOM     53  N   UNL A   1      47.070  29.278  27.365  1.00  0.00    -0.248 NA
ATOM     54  C   UNL A   1      48.782  30.869  27.365  1.00  0.00     0.031 C 
ATOM     55  C   UNL A   1      47.625  25.012  26.246  1.00  0.00     0.029 A 
ATOM     56  C   UNL A   1      47.480  26.344  26.601  1.00  0.00     0.049 A 
ATOM     57  H   UNL A   1      45.760  27.358  27.280  1.00  0.00     0.167 HD
ATOM     58  C   UNL A   1      48.252  28.676  26.952  1.00  0.00     0.074 A 
ATOM     59  C   UNL A   1      49.270  29.708  26.951  1.00  0.00     0.031 C 
ATOM     60  C   UNL A   1      48.477  27.384  26.607  1.00  0.00     0.037 A 
BRANCH  47  61
ATOM     61  C   UNL A   1      43.482  23.761  26.980  1.00  0.00     0.058 A 
ATOM     62  C   UNL A   1      43.313  22.891  28.069  1.00  0.00     0.135 A 
ATOM     63  C   UNL A   1      43.061  23.320  25.715  1.00  0.00     0.135 A 
ATOM     64  F   UNL A   1      43.716  23.259  29.295  1.00  0.00    -0.206 F 
ATOM     65  C   UNL A   1      42.770  21.621  27.905  1.00  0.00     0.059 A 
ATOM     66  C   UNL A   1      42.498  22.060  25.532  1.00  0.00     0.059 A 
ATOM     67  F   UNL A   1      43.203  24.112  24.641  1.00  0.00    -0.206 F 
ATOM     68  C   UNL A   1      42.372  21.212  26.631  1.00  0.00     0.060 A 
BRANCH  68  69
ATOM     69  S   UNL A   1      41.677  19.558  26.426  1.00  0.00     0.124 S 
ATOM     70  O   UNL A   1      40.257  19.856  26.279  1.00  0.00    -0.237 OA
ATOM     71  O   UNL A   1      42.350  19.077  25.223  1.00  0.00    -0.237 OA
ATOM     72  O   UNL A   1      42.051  18.878  27.662  1.00  0.00    -0.744 OA
ENDBRANCH  68  69
ENDBRANCH  47  61
BRANCH  48  73
ATOM     73  C   UNL A   1      47.010  33.012  28.297  1.00  0.00     0.058 A 
ATOM     74  C   UNL A   1      47.570  33.370  29.530  1.00  0.00     0.135 A 
ATOM     75  C   UNL A   1      46.991  33.977  27.279  1.00  0.00     0.135 A 
ATOM     76  F   UNL A   1      47.600  32.483  30.537  1.00  0.00    -0.206 F 
ATOM     77  C   UNL A   1      48.091  34.642  29.750  1.00  0.00     0.059 A 
ATOM     78  C   UNL A   1      47.522  35.248  27.468  1.00  0.00     0.059 A 
ATOM     79  F   UNL A   1      46.474  33.677  26.078  1.00  0.00    -0.206 F 
ATOM     80  C   UNL A   1      48.063  35.574  28.711  1.00  0.00     0.060 A 
BRANCH  80  81
ATOM     81  S   UNL A   1      48.791  37.205  28.981  1.00  0.00     0.124 S 
ATOM     82  O   UNL A   1      50.211  36.884  29.052  1.00  0.00    -0.237 OA
ATOM     83  O   UNL A   1      48.361  37.939  27.794  1.00  0.00    -0.237 OA
ATOM     84  O   UNL A   1      48.176  37.640  30.232  1.00  0.00    -0.744 OA
ENDBRANCH  80  81
ENDBRANCH  48  73
BRANCH  60  85
ATOM     85  C   UNL A   1      49.869  27.020  26.180  1.00  0.00     0.058 A 
ATOM     86  C   UNL A   1      50.805  26.517  27.097  1.00  0.00     0.135 A 
ATOM     87  C   UNL A   1      50.255  27.131  24.836  1.00  0.00     0.135 A 
ATOM     88  F   UNL A   1      50.484  26.398  28.395  1.00  0.00    -0.206 F 
ATOM     89  C   UNL A   1      52.085  26.150  26.696  1.00  0.00     0.059 A 
ATOM     90  C   UNL A   1      51.524  26.754  24.410  1.00  0.00     0.059 A 
ATOM     91  F   UNL A   1      49.391  27.600  23.922  1.00  0.00    -0.206 F 
ATOM     92  C   UNL A   1      52.436  26.273  25.350  1.00  0.00     0.060 A 
BRANCH  92  93
ATOM     93  S   UNL A   1      54.088  25.762  24.830  1.00  0.00     0.124 S 
ATOM     94  O   UNL A   1      54.931  26.480  25.781  1.00  0.00    -0.237 OA
ATOM     95  O   UNL A   1      54.040  24.313  24.996  1.00  0.00    -0.237 OA
ATOM     96  O   UNL A   1      54.165  26.225  23.447  1.00  0.00    -0.744 OA
ENDBRANCH  92  93
ENDBRANCH  60  85
ENDBRANCH  34  35
ENDBRANCH  27  29
ENDBRANCH  26  27
ENDBRANCH  25  26
ENDBRANCH   1  25
TORSDOF 17
ENDMDL
