MODEL 1
REMARK VINA RESULT:     -11.4      0.000      0.000
REMARK SMILES CN(C)Nc1ncnc(Nc2ccc(C(=O)OCCOC(=O)c3ccc(-c4c5nc(c(-c6c(F)cc(S(=O)(=O)[O-])cc6F)c6ccc([nH]6)c(-c6c(F)cc(S(=O)(=O)[O-])cc6F)c6nc(c(-c7c(F)cc(S(=O)(=O)[O-])cc7F)c7ccc4[nH]7)C=C6)C=C5)cc3)cc2)c1[N+](=O)[O-]
REMARK SMILES IDX 18 1 17 2 15 3 16 4 14 5 11 6 12 7 90 8 13 9 89 10 10 11
REMARK SMILES IDX 9 13 5 14 6 15 91 16 7 17 8 18 4 19 2 21 1 22 3 23 92 24
REMARK SMILES IDX 93 25 94 26 19 27 20 28 21 29 22 30 23 31 24 32 88 33 25 34
REMARK SMILES IDX 87 35 26 36 27 37 28 38 81 39 29 40 86 41 80 42 82 43 30 44
REMARK SMILES IDX 85 45 79 46 78 47 31 49 65 50 44 51 64 52 45 53 48 54 63 55
REMARK SMILES IDX 83 56 46 57 47 58 62 60 84 61 49 62 32 63 33 64 42 65 34 66
REMARK SMILES IDX 35 67 41 68 43 69 36 70 37 71 38 72 39 73 40 74 66 75 67 76
REMARK SMILES IDX 76 77 68 78 69 79 75 80 77 81 70 82 71 83 72 84 73 85 74 86
REMARK SMILES IDX 50 87 51 88 60 89 52 90 53 91 59 92 61 93 54 94 55 95 56 96
REMARK SMILES IDX 57 97 58 98
REMARK H PARENT 10 12 4 20 82 48 48 59
REMARK Flexibility Score: inf
ROOT
ATOM      1  C   UNL A   1      39.881  20.877  26.156  1.00  0.00     0.275 C 
ENDROOT
BRANCH   1   2
ATOM      2  O   UNL A   1      38.763  21.586  25.586  1.00  0.00    -0.458 OA
BRANCH   2   3
ATOM      3  C   UNL A   1      37.841  20.792  24.985  1.00  0.00     0.338 C 
ATOM      4  O   UNL A   1      37.904  19.585  24.832  1.00  0.00    -0.246 OA
BRANCH   3   5
ATOM      5  C   UNL A   1      36.660  21.579  24.579  1.00  0.00     0.060 A 
ATOM      6  C   UNL A   1      34.348  22.821  23.583  1.00  0.00     0.040 A 
ATOM      7  C   UNL A   1      34.245  21.707  24.414  1.00  0.00     0.027 A 
ATOM      8  C   UNL A   1      35.625  23.335  23.297  1.00  0.00     0.027 A 
ATOM      9  C   UNL A   1      35.392  21.073  24.879  1.00  0.00     0.018 A 
ATOM     10  C   UNL A   1      36.781  22.734  23.809  1.00  0.00     0.018 A 
BRANCH   6  11
ATOM     11  N   UNL A   1      33.185  23.271  22.937  1.00  0.00    -0.334 N 
ATOM     12  H   UNL A   1      32.963  22.837  22.081  1.00  0.00     0.168 HD
BRANCH  11  13
ATOM     13  C   UNL A   1      32.302  24.271  23.379  1.00  0.00     0.215 A 
ATOM     14  C   UNL A   1      31.073  26.280  23.078  1.00  0.00     0.225 A 
ATOM     15  N   UNL A   1      30.366  26.037  24.203  1.00  0.00    -0.212 NA
ATOM     16  C   UNL A   1      32.118  25.462  22.698  1.00  0.00     0.354 A 
ATOM     17  C   UNL A   1      30.666  24.920  24.867  1.00  0.00     0.227 A 
ATOM     18  N   UNL A   1      31.557  24.009  24.478  1.00  0.00    -0.212 NA
BRANCH  14  19
ATOM     19  N   UNL A   1      30.527  27.320  22.318  1.00  0.00    -0.298 N 
ATOM     20  H   UNL A   1      30.439  27.178  21.348  1.00  0.00     0.184 HD
BRANCH  19  21
ATOM     21  N   UNL A   1      30.092  28.560  22.844  1.00  0.00    -0.228 NA
ATOM     22  C   UNL A   1      30.587  29.696  22.044  1.00  0.00     0.130 C 
ATOM     23  C   UNL A   1      28.621  28.563  22.786  1.00  0.00     0.130 C 
ENDBRANCH  19  21
ENDBRANCH  14  19
BRANCH  16  24
ATOM     24  N   UNL A   1      33.062  25.892  21.707  1.00  0.00     0.070 N 
ATOM     25  O   UNL A   1      33.615  26.989  21.884  1.00  0.00    -0.258 OA
ATOM     26  O   UNL A   1      33.172  25.199  20.686  1.00  0.00    -0.258 OA
ENDBRANCH  16  24
ENDBRANCH  11  13
ENDBRANCH   6  11
ENDBRANCH   3   5
ENDBRANCH   2   3
ENDBRANCH   1   2
BRANCH   1  27
ATOM     27  C   UNL A   1      40.878  21.850  26.785  1.00  0.00     0.275 C 
BRANCH  27  28
ATOM     28  O   UNL A   1      40.420  23.203  26.613  1.00  0.00    -0.458 OA
BRANCH  28  29
ATOM     29  C   UNL A   1      41.387  24.133  26.429  1.00  0.00     0.338 C 
ATOM     30  O   UNL A   1      42.343  24.049  25.677  1.00  0.00    -0.246 OA
BRANCH  29  31
ATOM     31  C   UNL A   1      41.142  25.317  27.284  1.00  0.00     0.060 A 
ATOM     32  C   UNL A   1      41.943  26.451  27.189  1.00  0.00     0.016 A 
ATOM     33  C   UNL A   1      40.170  25.247  28.281  1.00  0.00     0.016 A 
ATOM     34  C   UNL A   1      41.874  27.449  28.167  1.00  0.00     0.010 A 
ATOM     35  C   UNL A   1      40.014  26.309  29.180  1.00  0.00     0.010 A 
ATOM     36  C   UNL A   1      40.898  27.404  29.173  1.00  0.00    -0.014 A 
BRANCH  36  37
ATOM     37  C   UNL A   1      40.814  28.454  30.238  1.00  0.00     0.031 A 
ATOM     38  C   UNL A   1      41.785  28.434  31.399  1.00  0.00     0.074 A 
ATOM     39  C   UNL A   1      39.878  29.427  30.199  1.00  0.00     0.049 A 
ATOM     40  N   UNL A   1      41.722  29.064  32.546  1.00  0.00    -0.248 NA
ATOM     41  C   UNL A   1      42.971  27.571  31.261  1.00  0.00     0.031 C 
ATOM     42  C   UNL A   1      38.889  29.621  29.137  1.00  0.00     0.029 A 
ATOM     43  N   UNL A   1      39.604  30.443  31.087  1.00  0.00    -0.354 N 
ATOM     44  C   UNL A   1      42.802  28.607  33.294  1.00  0.00     0.074 A 
ATOM     45  C   UNL A   1      43.518  27.661  32.465  1.00  0.00     0.031 C 
ATOM     46  C   UNL A   1      38.154  30.710  29.407  1.00  0.00     0.029 A 
ATOM     47  C   UNL A   1      38.547  31.237  30.709  1.00  0.00     0.049 A 
ATOM     48  H   UNL A   1      40.118  30.588  31.913  1.00  0.00     0.167 HD
ATOM     49  C   UNL A   1      43.159  28.938  34.559  1.00  0.00     0.037 A 
ATOM     50  C   UNL A   1      37.922  32.244  31.351  1.00  0.00     0.037 A 
ATOM     51  C   UNL A   1      42.506  29.949  35.349  1.00  0.00     0.049 A 
ATOM     52  C   UNL A   1      38.355  32.622  32.739  1.00  0.00     0.074 A 
ATOM     53  C   UNL A   1      42.804  30.362  36.638  1.00  0.00     0.029 A 
ATOM     54  N   UNL A   1      41.451  30.734  34.915  1.00  0.00    -0.354 N 
ATOM     55  N   UNL A   1      39.312  32.105  33.470  1.00  0.00    -0.248 NA
ATOM     56  C   UNL A   1      37.604  33.698  33.401  1.00  0.00     0.031 C 
ATOM     57  C   UNL A   1      41.921  31.390  36.985  1.00  0.00     0.029 A 
ATOM     58  C   UNL A   1      41.091  31.634  35.904  1.00  0.00     0.049 A 
ATOM     59  H   UNL A   1      41.020  30.663  34.031  1.00  0.00     0.167 HD
ATOM     60  C   UNL A   1      39.278  32.793  34.678  1.00  0.00     0.074 A 
ATOM     61  C   UNL A   1      38.221  33.778  34.572  1.00  0.00     0.031 C 
ATOM     62  C   UNL A   1      40.045  32.615  35.780  1.00  0.00     0.037 A 
BRANCH  49  63
ATOM     63  C   UNL A   1      44.294  28.180  35.190  1.00  0.00     0.058 A 
ATOM     64  C   UNL A   1      45.612  28.657  35.172  1.00  0.00     0.135 A 
ATOM     65  C   UNL A   1      44.040  26.979  35.873  1.00  0.00     0.135 A 
ATOM     66  F   UNL A   1      45.911  29.790  34.519  1.00  0.00    -0.206 F 
ATOM     67  C   UNL A   1      46.644  27.960  35.795  1.00  0.00     0.059 A 
ATOM     68  C   UNL A   1      45.053  26.276  36.520  1.00  0.00     0.059 A 
ATOM     69  F   UNL A   1      42.795  26.478  35.922  1.00  0.00    -0.206 F 
ATOM     70  C   UNL A   1      46.355  26.769  36.465  1.00  0.00     0.060 A 
BRANCH  70  71
ATOM     71  S   UNL A   1      47.697  25.881  37.285  1.00  0.00     0.124 S 
ATOM     72  O   UNL A   1      48.229  25.081  36.185  1.00  0.00    -0.237 OA
ATOM     73  O   UNL A   1      48.556  26.964  37.751  1.00  0.00    -0.237 OA
ATOM     74  O   UNL A   1      47.015  25.131  38.334  1.00  0.00    -0.744 OA
ENDBRANCH  70  71
ENDBRANCH  49  63
BRANCH  50  75
ATOM     75  C   UNL A   1      36.777  32.937  30.702  1.00  0.00     0.058 A 
ATOM     76  C   UNL A   1      35.456  32.654  31.079  1.00  0.00     0.135 A 
ATOM     77  C   UNL A   1      36.982  33.905  29.707  1.00  0.00     0.135 A 
ATOM     78  F   UNL A   1      35.211  31.726  32.016  1.00  0.00    -0.206 F 
ATOM     79  C   UNL A   1      34.376  33.305  30.490  1.00  0.00     0.059 A 
ATOM     80  C   UNL A   1      35.920  34.586  29.121  1.00  0.00     0.059 A 
ATOM     81  F   UNL A   1      38.228  34.218  29.319  1.00  0.00    -0.206 F 
ATOM     82  C   UNL A   1      34.619  34.272  29.513  1.00  0.00     0.060 A 
BRANCH  82  83
ATOM     83  S   UNL A   1      33.223  35.166  28.795  1.00  0.00     0.124 S 
ATOM     84  O   UNL A   1      32.466  35.531  29.987  1.00  0.00    -0.237 OA
ATOM     85  O   UNL A   1      33.881  36.265  28.095  1.00  0.00    -0.237 OA
ATOM     86  O   UNL A   1      32.602  34.167  27.929  1.00  0.00    -0.744 OA
ENDBRANCH  82  83
ENDBRANCH  50  75
BRANCH  62  87
ATOM     87  C   UNL A   1      39.790  33.521  36.949  1.00  0.00     0.058 A 
ATOM     88  C   UNL A   1      38.894  33.164  37.967  1.00  0.00     0.135 A 
ATOM     89  C   UNL A   1      40.480  34.736  37.071  1.00  0.00     0.135 A 
ATOM     90  F   UNL A   1      38.205  32.015  37.890  1.00  0.00    -0.206 F 
ATOM     91  C   UNL A   1      38.676  33.993  39.063  1.00  0.00     0.059 A 
ATOM     92  C   UNL A   1      40.290  35.573  38.167  1.00  0.00     0.059 A 
ATOM     93  F   UNL A   1      41.353  35.116  36.125  1.00  0.00    -0.206 F 
ATOM     94  C   UNL A   1      39.378  35.197  39.153  1.00  0.00     0.060 A 
BRANCH  94  95
ATOM     95  S   UNL A   1      39.115  36.253  40.593  1.00  0.00     0.124 S 
ATOM     96  O   UNL A   1      38.132  35.481  41.348  1.00  0.00    -0.237 OA
ATOM     97  O   UNL A   1      40.449  36.328  41.182  1.00  0.00    -0.237 OA
ATOM     98  O   UNL A   1      38.625  37.499  40.013  1.00  0.00    -0.744 OA
ENDBRANCH  94  95
ENDBRANCH  62  87
ENDBRANCH  36  37
ENDBRANCH  29  31
ENDBRANCH  28  29
ENDBRANCH  27  28
ENDBRANCH   1  27
TORSDOF 19
ENDMDL
MODEL 2
REMARK VINA RESULT:     -11.2      1.343      2.329
REMARK SMILES CN(C)Nc1ncnc(Nc2ccc(C(=O)OCCOC(=O)c3ccc(-c4c5nc(c(-c6c(F)cc(S(=O)(=O)[O-])cc6F)c6ccc([nH]6)c(-c6c(F)cc(S(=O)(=O)[O-])cc6F)c6nc(c(-c7c(F)cc(S(=O)(=O)[O-])cc7F)c7ccc4[nH]7)C=C6)C=C5)cc3)cc2)c1[N+](=O)[O-]
REMARK SMILES IDX 18 1 17 2 15 3 16 4 14 5 11 6 12 7 90 8 13 9 89 10 10 11
REMARK SMILES IDX 9 13 5 14 6 15 91 16 7 17 8 18 4 19 2 21 1 22 3 23 92 24
REMARK SMILES IDX 93 25 94 26 19 27 20 28 21 29 22 30 23 31 24 32 88 33 25 34
REMARK SMILES IDX 87 35 26 36 27 37 28 38 81 39 29 40 86 41 80 42 82 43 30 44
REMARK SMILES IDX 85 45 79 46 78 47 31 49 65 50 44 51 64 52 45 53 48 54 63 55
REMARK SMILES IDX 83 56 46 57 47 58 62 60 84 61 49 62 32 63 33 64 42 65 34 66
REMARK SMILES IDX 35 67 41 68 43 69 36 70 37 71 38 72 39 73 40 74 66 75 67 76
REMARK SMILES IDX 76 77 68 78 69 79 75 80 77 81 70 82 71 83 72 84 73 85 74 86
REMARK SMILES IDX 50 87 51 88 60 89 52 90 53 91 59 92 61 93 54 94 55 95 56 96
REMARK SMILES IDX 57 97 58 98
REMARK H PARENT 10 12 4 20 82 48 48 59
REMARK Flexibility Score: inf
ROOT
ATOM      1  C   UNL A   1      37.787  22.024  25.051  1.00  0.00     0.275 C 
ENDROOT
BRANCH   1   2
ATOM      2  O   UNL A   1      37.272  23.342  24.776  1.00  0.00    -0.458 OA
BRANCH   2   3
ATOM      3  C   UNL A   1      36.319  23.384  23.812  1.00  0.00     0.338 C 
ATOM      4  O   UNL A   1      36.389  22.908  22.693  1.00  0.00    -0.246 OA
BRANCH   3   5
ATOM      5  C   UNL A   1      35.097  24.042  24.315  1.00  0.00     0.060 A 
ATOM      6  C   UNL A   1      32.925  25.591  25.188  1.00  0.00     0.040 A 
ATOM      7  C   UNL A   1      33.175  25.438  23.825  1.00  0.00     0.027 A 
ATOM      8  C   UNL A   1      33.748  24.919  26.108  1.00  0.00     0.027 A 
ATOM      9  C   UNL A   1      34.271  24.697  23.396  1.00  0.00     0.018 A 
ATOM     10  C   UNL A   1      34.819  24.126  25.678  1.00  0.00     0.018 A 
BRANCH   6  11
ATOM     11  N   UNL A   1      31.970  26.545  25.578  1.00  0.00    -0.334 N 
ATOM     12  H   UNL A   1      32.137  27.009  26.430  1.00  0.00     0.168 HD
BRANCH  11  13
ATOM     13  C   UNL A   1      30.802  26.909  24.885  1.00  0.00     0.215 A 
ATOM     14  C   UNL A   1      29.588  28.286  23.380  1.00  0.00     0.225 A 
ATOM     15  N   UNL A   1      28.571  27.398  23.360  1.00  0.00    -0.212 NA
ATOM     16  C   UNL A   1      30.674  28.113  24.215  1.00  0.00     0.354 A 
ATOM     17  C   UNL A   1      28.717  26.305  24.111  1.00  0.00     0.227 A 
ATOM     18  N   UNL A   1      29.802  26.000  24.823  1.00  0.00    -0.212 NA
BRANCH  14  19
ATOM     19  N   UNL A   1      29.467  29.259  22.383  1.00  0.00    -0.298 N 
ATOM     20  H   UNL A   1      30.160  29.285  21.685  1.00  0.00     0.184 HD
BRANCH  19  21
ATOM     21  N   UNL A   1      28.421  30.210  22.307  1.00  0.00    -0.228 NA
ATOM     22  C   UNL A   1      28.496  31.194  23.402  1.00  0.00     0.130 C 
ATOM     23  C   UNL A   1      28.580  30.928  21.031  1.00  0.00     0.130 C 
ENDBRANCH  19  21
ENDBRANCH  14  19
BRANCH  16  24
ATOM     24  N   UNL A   1      31.577  29.196  24.476  1.00  0.00     0.070 N 
ATOM     25  O   UNL A   1      32.546  29.328  23.712  1.00  0.00    -0.258 OA
ATOM     26  O   UNL A   1      31.397  29.852  25.511  1.00  0.00    -0.258 OA
ENDBRANCH  16  24
ENDBRANCH  11  13
ENDBRANCH   6  11
ENDBRANCH   3   5
ENDBRANCH   2   3
ENDBRANCH   1   2
BRANCH   1  27
ATOM     27  C   UNL A   1      38.960  22.092  26.028  1.00  0.00     0.275 C 
BRANCH  27  28
ATOM     28  O   UNL A   1      39.000  23.384  26.660  1.00  0.00    -0.458 OA
BRANCH  28  29
ATOM     29  C   UNL A   1      40.235  23.903  26.862  1.00  0.00     0.338 C 
ATOM     30  O   UNL A   1      41.293  23.437  26.474  1.00  0.00    -0.246 OA
BRANCH  29  31
ATOM     31  C   UNL A   1      40.152  25.157  27.646  1.00  0.00     0.060 A 
ATOM     32  C   UNL A   1      41.117  26.151  27.516  1.00  0.00     0.016 A 
ATOM     33  C   UNL A   1      39.159  25.289  28.615  1.00  0.00     0.016 A 
ATOM     34  C   UNL A   1      41.177  27.202  28.436  1.00  0.00     0.010 A 
ATOM     35  C   UNL A   1      39.145  26.412  29.452  1.00  0.00     0.010 A 
ATOM     36  C   UNL A   1      40.183  27.361  29.413  1.00  0.00    -0.014 A 
BRANCH  36  37
ATOM     37  C   UNL A   1      40.235  28.470  30.418  1.00  0.00     0.031 A 
ATOM     38  C   UNL A   1      41.264  28.439  31.528  1.00  0.00     0.074 A 
ATOM     39  C   UNL A   1      39.370  29.507  30.371  1.00  0.00     0.049 A 
ATOM     40  N   UNL A   1      41.309  29.134  32.637  1.00  0.00    -0.248 NA
ATOM     41  C   UNL A   1      42.375  27.483  31.380  1.00  0.00     0.031 C 
ATOM     42  C   UNL A   1      38.341  29.718  29.351  1.00  0.00     0.029 A 
ATOM     43  N   UNL A   1      39.221  30.588  31.210  1.00  0.00    -0.354 N 
ATOM     44  C   UNL A   1      42.393  28.638  33.355  1.00  0.00     0.074 A 
ATOM     45  C   UNL A   1      42.992  27.597  32.548  1.00  0.00     0.031 C 
ATOM     46  C   UNL A   1      37.703  30.872  29.594  1.00  0.00     0.029 A 
ATOM     47  C   UNL A   1      38.205  31.439  30.841  1.00  0.00     0.049 A 
ATOM     48  H   UNL A   1      39.788  30.738  32.000  1.00  0.00     0.167 HD
ATOM     49  C   UNL A   1      42.842  29.009  34.579  1.00  0.00     0.037 A 
ATOM     50  C   UNL A   1      37.691  32.523  31.455  1.00  0.00     0.037 A 
ATOM     51  C   UNL A   1      42.309  30.108  35.342  1.00  0.00     0.049 A 
ATOM     52  C   UNL A   1      38.226  32.942  32.794  1.00  0.00     0.074 A 
ATOM     53  C   UNL A   1      42.707  30.567  36.588  1.00  0.00     0.029 A 
ATOM     54  N   UNL A   1      41.291  30.946  34.916  1.00  0.00    -0.354 N 
ATOM     55  N   UNL A   1      39.182  32.395  33.505  1.00  0.00    -0.248 NA
ATOM     56  C   UNL A   1      37.592  34.106  33.430  1.00  0.00     0.031 C 
ATOM     57  C   UNL A   1      41.921  31.676  36.918  1.00  0.00     0.029 A 
ATOM     58  C   UNL A   1      41.053  31.923  35.868  1.00  0.00     0.049 A 
ATOM     59  H   UNL A   1      40.809  30.860  34.062  1.00  0.00     0.167 HD
ATOM     60  C   UNL A   1      39.264  33.148  34.671  1.00  0.00     0.074 A 
ATOM     61  C   UNL A   1      38.278  34.202  34.562  1.00  0.00     0.031 C 
ATOM     62  C   UNL A   1      40.076  32.972  35.741  1.00  0.00     0.037 A 
BRANCH  49  63
ATOM     63  C   UNL A   1      43.952  28.202  35.195  1.00  0.00     0.058 A 
ATOM     64  C   UNL A   1      45.302  28.541  35.028  1.00  0.00     0.135 A 
ATOM     65  C   UNL A   1      43.648  27.102  36.013  1.00  0.00     0.135 A 
ATOM     66  F   UNL A   1      45.648  29.573  34.244  1.00  0.00    -0.206 F 
ATOM     67  C   UNL A   1      46.315  27.805  35.637  1.00  0.00     0.059 A 
ATOM     68  C   UNL A   1      44.643  26.364  36.648  1.00  0.00     0.059 A 
ATOM     69  F   UNL A   1      42.371  26.736  36.207  1.00  0.00    -0.206 F 
ATOM     70  C   UNL A   1      45.976  26.716  36.444  1.00  0.00     0.060 A 
BRANCH  70  71
ATOM     71  S   UNL A   1      47.295  25.778  37.244  1.00  0.00     0.124 S 
ATOM     72  O   UNL A   1      48.428  26.687  37.095  1.00  0.00    -0.237 OA
ATOM     73  O   UNL A   1      46.790  25.615  38.603  1.00  0.00    -0.237 OA
ATOM     74  O   UNL A   1      47.365  24.552  36.455  1.00  0.00    -0.744 OA
ENDBRANCH  70  71
ENDBRANCH  49  63
BRANCH  50  75
ATOM     75  C   UNL A   1      36.565  33.264  30.826  1.00  0.00     0.058 A 
ATOM     76  C   UNL A   1      36.794  34.173  29.782  1.00  0.00     0.135 A 
ATOM     77  C   UNL A   1      35.240  33.066  31.243  1.00  0.00     0.135 A 
ATOM     78  F   UNL A   1      38.046  34.405  29.359  1.00  0.00    -0.206 F 
ATOM     79  C   UNL A   1      35.749  34.863  29.175  1.00  0.00     0.059 A 
ATOM     80  C   UNL A   1      34.177  33.726  30.636  1.00  0.00     0.059 A 
ATOM     81  F   UNL A   1      34.968  32.200  32.231  1.00  0.00    -0.206 F 
ATOM     82  C   UNL A   1      34.442  34.630  29.608  1.00  0.00     0.060 A 
BRANCH  82  83
ATOM     83  S   UNL A   1      33.079  35.474  28.777  1.00  0.00     0.124 S 
ATOM     84  O   UNL A   1      32.465  34.378  28.036  1.00  0.00    -0.237 OA
ATOM     85  O   UNL A   1      32.304  35.998  29.899  1.00  0.00    -0.237 OA
ATOM     86  O   UNL A   1      33.757  36.484  27.971  1.00  0.00    -0.744 OA
ENDBRANCH  82  83
ENDBRANCH  50  75
BRANCH  62  87
ATOM     87  C   UNL A   1      39.952  33.957  36.867  1.00  0.00     0.058 A 
ATOM     88  C   UNL A   1      40.764  35.098  36.930  1.00  0.00     0.135 A 
ATOM     89  C   UNL A   1      38.983  33.778  37.865  1.00  0.00     0.135 A 
ATOM     90  F   UNL A   1      41.709  35.308  36.001  1.00  0.00    -0.206 F 
ATOM     91  C   UNL A   1      40.631  36.024  37.960  1.00  0.00     0.059 A 
ATOM     92  C   UNL A   1      38.822  34.700  38.895  1.00  0.00     0.059 A 
ATOM     93  F   UNL A   1      38.178  32.705  37.842  1.00  0.00    -0.206 F 
ATOM     94  C   UNL A   1      39.658  35.815  38.940  1.00  0.00     0.060 A 
BRANCH  94  95
ATOM     95  S   UNL A   1      39.471  37.037  40.255  1.00  0.00     0.124 S 
ATOM     96  O   UNL A   1      40.835  37.538  40.387  1.00  0.00    -0.237 OA
ATOM     97  O   UNL A   1      38.505  37.972  39.686  1.00  0.00    -0.237 OA
ATOM     98  O   UNL A   1      38.979  36.248  41.380  1.00  0.00    -0.744 OA
ENDBRANCH  94  95
ENDBRANCH  62  87
ENDBRANCH  36  37
ENDBRANCH  29  31
ENDBRANCH  28  29
ENDBRANCH  27  28
ENDBRANCH   1  27
TORSDOF 19
ENDMDL
MODEL 3
REMARK VINA RESULT:     -11.1      1.656      8.404
REMARK SMILES CN(C)Nc1ncnc(Nc2ccc(C(=O)OCCOC(=O)c3ccc(-c4c5nc(c(-c6c(F)cc(S(=O)(=O)[O-])cc6F)c6ccc([nH]6)c(-c6c(F)cc(S(=O)(=O)[O-])cc6F)c6nc(c(-c7c(F)cc(S(=O)(=O)[O-])cc7F)c7ccc4[nH]7)C=C6)C=C5)cc3)cc2)c1[N+](=O)[O-]
REMARK SMILES IDX 18 1 17 2 15 3 16 4 14 5 11 6 12 7 90 8 13 9 89 10 10 11
REMARK SMILES IDX 9 13 5 14 6 15 91 16 7 17 8 18 4 19 2 21 1 22 3 23 92 24
REMARK SMILES IDX 93 25 94 26 19 27 20 28 21 29 22 30 23 31 24 32 88 33 25 34
REMARK SMILES IDX 87 35 26 36 27 37 28 38 81 39 29 40 86 41 80 42 82 43 30 44
REMARK SMILES IDX 85 45 79 46 78 47 31 49 65 50 44 51 64 52 45 53 48 54 63 55
REMARK SMILES IDX 83 56 46 57 47 58 62 60 84 61 49 62 32 63 33 64 42 65 34 66
REMARK SMILES IDX 35 67 41 68 43 69 36 70 37 71 38 72 39 73 40 74 66 75 67 76
REMARK SMILES IDX 76 77 68 78 69 79 75 80 77 81 70 82 71 83 72 84 73 85 74 86
REMARK SMILES IDX 50 87 51 88 60 89 52 90 53 91 59 92 61 93 54 94 55 95 56 96
REMARK SMILES IDX 57 97 58 98
REMARK H PARENT 10 12 4 20 82 48 48 59
REMARK Flexibility Score: inf
ROOT
ATOM      1  C   UNL A   1      40.299  22.261  26.416  1.00  0.00     0.275 C 
ENDROOT
BRANCH   1   2
ATOM      2  O   UNL A   1      38.901  22.614  26.402  1.00  0.00    -0.458 OA
BRANCH   2   3
ATOM      3  C   UNL A   1      38.150  21.902  25.525  1.00  0.00     0.338 C 
ATOM      4  O   UNL A   1      38.282  20.726  25.236  1.00  0.00    -0.246 OA
BRANCH   3   5
ATOM      5  C   UNL A   1      37.054  22.729  24.984  1.00  0.00     0.060 A 
ATOM      6  C   UNL A   1      34.757  24.104  24.139  1.00  0.00     0.040 A 
ATOM      7  C   UNL A   1      35.238  24.271  25.436  1.00  0.00     0.027 A 
ATOM      8  C   UNL A   1      35.470  23.277  23.254  1.00  0.00     0.027 A 
ATOM      9  C   UNL A   1      36.357  23.563  25.863  1.00  0.00     0.018 A 
ATOM     10  C   UNL A   1      36.630  22.607  23.662  1.00  0.00     0.018 A 
BRANCH   6  11
ATOM     11  N   UNL A   1      33.494  24.635  23.832  1.00  0.00    -0.334 N 
ATOM     12  H   UNL A   1      32.772  23.985  23.673  1.00  0.00     0.168 HD
BRANCH  11  13
ATOM     13  C   UNL A   1      33.146  25.993  23.729  1.00  0.00     0.215 A 
ATOM     14  C   UNL A   1      32.328  28.033  24.626  1.00  0.00     0.225 A 
ATOM     15  N   UNL A   1      32.747  28.703  23.531  1.00  0.00    -0.212 NA
ATOM     16  C   UNL A   1      32.426  26.659  24.706  1.00  0.00     0.354 A 
ATOM     17  C   UNL A   1      33.343  27.982  22.581  1.00  0.00     0.227 A 
ATOM     18  N   UNL A   1      33.606  26.678  22.656  1.00  0.00    -0.212 NA
BRANCH  14  19
ATOM     19  N   UNL A   1      31.954  28.890  25.666  1.00  0.00    -0.298 N 
ATOM     20  H   UNL A   1      31.169  28.638  26.204  1.00  0.00     0.184 HD
BRANCH  19  21
ATOM     21  N   UNL A   1      32.623  30.092  26.001  1.00  0.00    -0.228 NA
ATOM     22  C   UNL A   1      31.684  31.124  26.479  1.00  0.00     0.130 C 
ATOM     23  C   UNL A   1      33.557  29.778  27.095  1.00  0.00     0.130 C 
ENDBRANCH  19  21
ENDBRANCH  14  19
BRANCH  16  24
ATOM     24  N   UNL A   1      31.698  25.929  25.703  1.00  0.00     0.070 N 
ATOM     25  O   UNL A   1      31.049  24.940  25.328  1.00  0.00    -0.258 OA
ATOM     26  O   UNL A   1      31.669  26.402  26.848  1.00  0.00    -0.258 OA
ENDBRANCH  16  24
ENDBRANCH  11  13
ENDBRANCH   6  11
ENDBRANCH   3   5
ENDBRANCH   2   3
ENDBRANCH   1   2
BRANCH   1  27
ATOM     27  C   UNL A   1      41.175  23.512  26.363  1.00  0.00     0.275 C 
BRANCH  27  28
ATOM     28  O   UNL A   1      40.363  24.672  26.115  1.00  0.00    -0.458 OA
BRANCH  28  29
ATOM     29  C   UNL A   1      41.018  25.858  26.100  1.00  0.00     0.338 C 
ATOM     30  O   UNL A   1      41.560  26.378  25.140  1.00  0.00    -0.246 OA
BRANCH  29  31
ATOM     31  C   UNL A   1      41.002  26.479  27.445  1.00  0.00     0.060 A 
ATOM     32  C   UNL A   1      40.126  26.036  28.431  1.00  0.00     0.016 A 
ATOM     33  C   UNL A   1      41.791  27.602  27.685  1.00  0.00     0.016 A 
ATOM     34  C   UNL A   1      39.934  26.786  29.595  1.00  0.00     0.010 A 
ATOM     35  C   UNL A   1      41.692  28.277  28.908  1.00  0.00     0.010 A 
ATOM     36  C   UNL A   1      40.724  27.914  29.863  1.00  0.00    -0.014 A 
BRANCH  36  37
ATOM     37  C   UNL A   1      40.526  28.741  31.096  1.00  0.00     0.031 A 
ATOM     38  C   UNL A   1      39.418  29.771  31.147  1.00  0.00     0.074 A 
ATOM     39  C   UNL A   1      41.326  28.602  32.176  1.00  0.00     0.049 A 
ATOM     40  N   UNL A   1      39.244  30.762  31.986  1.00  0.00    -0.248 NA
ATOM     41  C   UNL A   1      38.383  29.688  30.102  1.00  0.00     0.031 C 
ATOM     42  C   UNL A   1      42.417  27.635  32.314  1.00  0.00     0.029 A 
ATOM     43  N   UNL A   1      41.343  29.284  33.371  1.00  0.00    -0.354 N 
ATOM     44  C   UNL A   1      38.140  31.469  31.519  1.00  0.00     0.074 A 
ATOM     45  C   UNL A   1      37.671  30.783  30.334  1.00  0.00     0.031 C 
ATOM     46  C   UNL A   1      42.961  27.750  33.534  1.00  0.00     0.029 A 
ATOM     47  C   UNL A   1      42.331  28.865  34.233  1.00  0.00     0.049 A 
ATOM     48  H   UNL A   1      40.708  30.003  33.590  1.00  0.00     0.167 HD
ATOM     49  C   UNL A   1      37.576  32.592  32.024  1.00  0.00     0.037 A 
ATOM     50  C   UNL A   1      42.728  29.347  35.427  1.00  0.00     0.037 A 
ATOM     51  C   UNL A   1      37.979  33.221  33.256  1.00  0.00     0.049 A 
ATOM     52  C   UNL A   1      42.065  30.572  35.990  1.00  0.00     0.074 A 
ATOM     53  C   UNL A   1      37.459  34.357  33.855  1.00  0.00     0.029 A 
ATOM     54  N   UNL A   1      38.973  32.749  34.097  1.00  0.00    -0.354 N 
ATOM     55  N   UNL A   1      41.093  31.288  35.481  1.00  0.00    -0.248 NA
ATOM     56  C   UNL A   1      42.575  31.073  37.275  1.00  0.00     0.031 C 
ATOM     57  C   UNL A   1      38.147  34.576  35.053  1.00  0.00     0.029 A 
ATOM     58  C   UNL A   1      39.077  33.563  35.212  1.00  0.00     0.049 A 
ATOM     59  H   UNL A   1      39.525  31.950  33.926  1.00  0.00     0.167 HD
ATOM     60  C   UNL A   1      40.874  32.324  36.382  1.00  0.00     0.074 A 
ATOM     61  C   UNL A   1      41.799  32.130  37.479  1.00  0.00     0.031 C 
ATOM     62  C   UNL A   1      39.994  33.351  36.301  1.00  0.00     0.037 A 
BRANCH  49  63
ATOM     63  C   UNL A   1      36.473  33.242  31.235  1.00  0.00     0.058 A 
ATOM     64  C   UNL A   1      35.132  33.190  31.642  1.00  0.00     0.135 A 
ATOM     65  C   UNL A   1      36.779  33.977  30.078  1.00  0.00     0.135 A 
ATOM     66  F   UNL A   1      34.784  32.487  32.731  1.00  0.00    -0.206 F 
ATOM     67  C   UNL A   1      34.129  33.829  30.918  1.00  0.00     0.059 A 
ATOM     68  C   UNL A   1      35.796  34.642  29.350  1.00  0.00     0.059 A 
ATOM     69  F   UNL A   1      38.048  34.060  29.645  1.00  0.00    -0.206 F 
ATOM     70  C   UNL A   1      34.471  34.551  29.772  1.00  0.00     0.060 A 
BRANCH  70  71
ATOM     71  S   UNL A   1      33.166  35.393  28.850  1.00  0.00     0.124 S 
ATOM     72  O   UNL A   1      33.940  36.344  28.058  1.00  0.00    -0.237 OA
ATOM     73  O   UNL A   1      32.551  34.301  28.102  1.00  0.00    -0.237 OA
ATOM     74  O   UNL A   1      32.334  35.977  29.896  1.00  0.00    -0.744 OA
ENDBRANCH  70  71
ENDBRANCH  49  63
BRANCH  50  75
ATOM     75  C   UNL A   1      43.851  28.695  36.152  1.00  0.00     0.058 A 
ATOM     76  C   UNL A   1      43.633  27.563  36.951  1.00  0.00     0.135 A 
ATOM     77  C   UNL A   1      45.164  29.179  36.046  1.00  0.00     0.135 A 
ATOM     78  F   UNL A   1      42.392  27.073  37.093  1.00  0.00    -0.206 F 
ATOM     79  C   UNL A   1      44.676  26.935  37.623  1.00  0.00     0.059 A 
ATOM     80  C   UNL A   1      46.227  28.554  36.688  1.00  0.00     0.059 A 
ATOM     81  F   UNL A   1      45.425  30.253  35.285  1.00  0.00    -0.206 F 
ATOM     82  C   UNL A   1      45.971  27.437  37.483  1.00  0.00     0.060 A 
BRANCH  82  83
ATOM     83  S   UNL A   1      47.337  26.583  38.301  1.00  0.00     0.124 S 
ATOM     84  O   UNL A   1      48.269  26.397  37.195  1.00  0.00    -0.237 OA
ATOM     85  O   UNL A   1      47.742  27.545  39.322  1.00  0.00    -0.237 OA
ATOM     86  O   UNL A   1      46.709  25.369  38.812  1.00  0.00    -0.744 OA
ENDBRANCH  82  83
ENDBRANCH  50  75
BRANCH  62  87
ATOM     87  C   UNL A   1      39.970  34.327  37.441  1.00  0.00     0.058 A 
ATOM     88  C   UNL A   1      40.725  35.507  37.406  1.00  0.00     0.135 A 
ATOM     89  C   UNL A   1      39.151  34.097  38.556  1.00  0.00     0.135 A 
ATOM     90  F   UNL A   1      41.528  35.767  36.363  1.00  0.00    -0.206 F 
ATOM     91  C   UNL A   1      40.682  36.424  38.452  1.00  0.00     0.059 A 
ATOM     92  C   UNL A   1      39.080  35.008  39.606  1.00  0.00     0.059 A 
ATOM     93  F   UNL A   1      38.405  32.984  38.630  1.00  0.00    -0.206 F 
ATOM     94  C   UNL A   1      39.858  36.165  39.549  1.00  0.00     0.060 A 
BRANCH  94  95
ATOM     95  S   UNL A   1      39.784  37.373  40.888  1.00  0.00     0.124 S 
ATOM     96  O   UNL A   1      41.175  37.807  40.970  1.00  0.00    -0.237 OA
ATOM     97  O   UNL A   1      38.842  38.362  40.372  1.00  0.00    -0.237 OA
ATOM     98  O   UNL A   1      39.300  36.591  42.021  1.00  0.00    -0.744 OA
ENDBRANCH  94  95
ENDBRANCH  62  87
ENDBRANCH  36  37
ENDBRANCH  29  31
ENDBRANCH  28  29
ENDBRANCH  27  28
ENDBRANCH   1  27
TORSDOF 19
ENDMDL
