MODEL 1
REMARK VINA RESULT:     -10.4      0.000      0.000
REMARK SMILES C[C@@]([NH3+])(Cc1ccccc1Br)C(=O)OCCOC(=O)c1ccc(-c2c3nc(c(-c4c(F)cc(S(=O)(=O)[O-])cc4F)c4ccc([nH]4)c(-c4c(F)cc(S(=O)(=O)[O-])cc4F)c4nc(c(-c5c(F)cc(S(=O)(=O)[O-])cc5F)c5ccc2[nH]5)C=C4)C=C3)cc1
REMARK SMILES IDX 16 1 15 2 14 3 12 4 13 5 2 6 1 7 3 8 4 12 5 13 6 14 10 15
REMARK SMILES IDX 7 16 9 17 11 18 8 19 17 20 18 21 19 22 20 23 21 24 85 25
REMARK SMILES IDX 22 26 84 27 23 28 24 29 25 30 78 31 26 32 83 33 77 34 79 35
REMARK SMILES IDX 27 36 82 37 76 38 75 39 28 41 62 42 41 43 61 44 42 45 45 46
REMARK SMILES IDX 60 47 80 48 43 49 44 50 59 52 81 53 46 54 29 55 30 56 39 57
REMARK SMILES IDX 31 58 32 59 38 60 40 61 33 62 34 63 35 64 36 65 37 66 63 67
REMARK SMILES IDX 64 68 73 69 65 70 66 71 72 72 74 73 67 74 68 75 69 76 70 77
REMARK SMILES IDX 71 78 47 79 48 80 57 81 49 82 50 83 56 84 58 85 51 86 52 87
REMARK SMILES IDX 53 88 54 89 55 90
REMARK H PARENT 3 9 3 10 3 11 79 40 45 51
REMARK Flexibility Score: inf
ROOT
ATOM      1  C   UNL A   1      33.333  29.343  26.143  1.00  0.00     0.275 C 
ENDROOT
BRANCH   1   2
ATOM      2  C   UNL A   1      33.197  27.917  25.612  1.00  0.00     0.274 C 
BRANCH   2   3
ATOM      3  O   UNL A   1      31.832  27.611  25.255  1.00  0.00    -0.457 OA
BRANCH   3   4
ATOM      4  C   UNL A   1      31.190  26.781  26.127  1.00  0.00     0.368 C 
ATOM      5  O   UNL A   1      31.401  26.774  27.337  1.00  0.00    -0.245 OA
BRANCH   4   6
ATOM      6  C   UNL A   1      30.337  25.692  25.422  1.00  0.00     0.194 C 
ATOM      7  C   UNL A   1      29.490  26.369  24.336  1.00  0.00     0.092 C 
BRANCH   6   8
ATOM      8  N   UNL A   1      29.361  25.198  26.450  1.00  0.00    -0.343 N 
ATOM      9  H   UNL A   1      29.536  24.210  26.640  1.00  0.00     0.345 HD
ATOM     10  H   UNL A   1      28.410  25.313  26.100  1.00  0.00     0.345 HD
ATOM     11  H   UNL A   1      29.472  25.734  27.312  1.00  0.00     0.345 HD
ENDBRANCH   6   8
BRANCH   6  12
ATOM     12  C   UNL A   1      31.106  24.453  24.880  1.00  0.00     0.117 C 
BRANCH  12  13
ATOM     13  C   UNL A   1      32.549  24.206  25.289  1.00  0.00    -0.027 A 
ATOM     14  C   UNL A   1      32.780  23.491  26.482  1.00  0.00     0.005 A 
ATOM     15  C   UNL A   1      33.676  24.544  24.513  1.00  0.00     0.021 A 
ATOM     16  C   UNL A   1      34.071  23.159  26.901  1.00  0.00     0.000 A 
ATOM     17  C   UNL A   1      34.972  24.241  24.957  1.00  0.00     0.016 A 
ATOM     18  Br  UNL A   1      33.564  25.306  22.776  1.00  0.00    -0.051 Br
ATOM     19  C   UNL A   1      35.169  23.550  26.148  1.00  0.00     0.001 A 
ENDBRANCH  12  13
ENDBRANCH   6  12
ENDBRANCH   4   6
ENDBRANCH   3   4
ENDBRANCH   2   3
ENDBRANCH   1   2
BRANCH   1  20
ATOM     20  O   UNL A   1      33.617  29.315  27.548  1.00  0.00    -0.458 OA
BRANCH  20  21
ATOM     21  C   UNL A   1      34.333  30.363  28.020  1.00  0.00     0.338 C 
ATOM     22  O   UNL A   1      33.918  31.497  28.193  1.00  0.00    -0.246 OA
BRANCH  21  23
ATOM     23  C   UNL A   1      35.734  29.955  28.281  1.00  0.00     0.060 A 
ATOM     24  C   UNL A   1      36.154  29.493  29.532  1.00  0.00     0.016 A 
ATOM     25  C   UNL A   1      36.664  30.084  27.248  1.00  0.00     0.016 A 
ATOM     26  C   UNL A   1      37.503  29.215  29.767  1.00  0.00     0.010 A 
ATOM     27  C   UNL A   1      38.000  29.731  27.462  1.00  0.00     0.010 A 
ATOM     28  C   UNL A   1      38.441  29.313  28.728  1.00  0.00    -0.014 A 
BRANCH  28  29
ATOM     29  C   UNL A   1      39.877  28.980  28.939  1.00  0.00     0.031 A 
ATOM     30  C   UNL A   1      40.833  30.037  29.425  1.00  0.00     0.074 A 
ATOM     31  C   UNL A   1      40.340  27.749  28.644  1.00  0.00     0.049 A 
ATOM     32  N   UNL A   1      42.140  30.024  29.452  1.00  0.00    -0.248 NA
ATOM     33  C   UNL A   1      40.236  31.284  29.932  1.00  0.00     0.031 C 
ATOM     34  C   UNL A   1      39.524  26.621  28.189  1.00  0.00     0.029 A 
ATOM     35  N   UNL A   1      41.617  27.242  28.671  1.00  0.00    -0.354 N 
ATOM     36  C   UNL A   1      42.527  31.272  29.929  1.00  0.00     0.074 A 
ATOM     37  C   UNL A   1      41.312  32.019  30.180  1.00  0.00     0.031 C 
ATOM     38  C   UNL A   1      40.314  25.553  27.996  1.00  0.00     0.029 A 
ATOM     39  C   UNL A   1      41.701  25.939  28.237  1.00  0.00     0.049 A 
ATOM     40  H   UNL A   1      42.397  27.762  28.970  1.00  0.00     0.167 HD
ATOM     41  C   UNL A   1      43.779  31.749  30.132  1.00  0.00     0.037 A 
ATOM     42  C   UNL A   1      42.772  25.154  28.015  1.00  0.00     0.037 A 
ATOM     43  C   UNL A   1      44.982  30.985  29.920  1.00  0.00     0.049 A 
ATOM     44  C   UNL A   1      44.150  25.708  28.232  1.00  0.00     0.074 A 
ATOM     45  C   UNL A   1      46.296  31.376  30.113  1.00  0.00     0.029 A 
ATOM     46  N   UNL A   1      45.018  29.669  29.481  1.00  0.00    -0.354 N 
ATOM     47  N   UNL A   1      44.500  26.907  28.632  1.00  0.00    -0.248 NA
ATOM     48  C   UNL A   1      45.280  24.813  27.947  1.00  0.00     0.031 C 
ATOM     49  C   UNL A   1      47.128  30.305  29.766  1.00  0.00     0.029 A 
ATOM     50  C   UNL A   1      46.331  29.236  29.389  1.00  0.00     0.049 A 
ATOM     51  H   UNL A   1      44.227  29.124  29.267  1.00  0.00     0.167 HD
ATOM     52  C   UNL A   1      45.890  26.909  28.651  1.00  0.00     0.074 A 
ATOM     53  C   UNL A   1      46.316  25.587  28.239  1.00  0.00     0.031 C 
ATOM     54  C   UNL A   1      46.736  27.918  28.973  1.00  0.00     0.037 A 
BRANCH  41  55
ATOM     55  C   UNL A   1      43.917  33.178  30.582  1.00  0.00     0.058 A 
ATOM     56  C   UNL A   1      44.009  33.522  31.938  1.00  0.00     0.135 A 
ATOM     57  C   UNL A   1      44.001  34.212  29.635  1.00  0.00     0.135 A 
ATOM     58  F   UNL A   1      43.918  32.574  32.885  1.00  0.00    -0.206 F 
ATOM     59  C   UNL A   1      44.157  34.846  32.344  1.00  0.00     0.059 A 
ATOM     60  C   UNL A   1      44.170  35.540  30.017  1.00  0.00     0.059 A 
ATOM     61  F   UNL A   1      43.918  33.937  28.324  1.00  0.00    -0.206 F 
ATOM     62  C   UNL A   1      44.233  35.849  31.375  1.00  0.00     0.060 A 
BRANCH  62  63
ATOM     63  S   UNL A   1      44.428  37.562  31.911  1.00  0.00     0.124 S 
ATOM     64  O   UNL A   1      43.847  38.286  30.783  1.00  0.00    -0.237 OA
ATOM     65  O   UNL A   1      43.655  37.596  33.148  1.00  0.00    -0.237 OA
ATOM     66  O   UNL A   1      45.871  37.706  32.072  1.00  0.00    -0.744 OA
ENDBRANCH  62  63
ENDBRANCH  41  55
BRANCH  42  67
ATOM     67  C   UNL A   1      42.574  23.766  27.522  1.00  0.00     0.058 A 
ATOM     68  C   UNL A   1      42.617  23.476  26.151  1.00  0.00     0.135 A 
ATOM     69  C   UNL A   1      42.381  22.698  28.413  1.00  0.00     0.135 A 
ATOM     70  F   UNL A   1      42.787  24.466  25.261  1.00  0.00    -0.206 F 
ATOM     71  C   UNL A   1      42.477  22.175  25.678  1.00  0.00     0.059 A 
ATOM     72  C   UNL A   1      42.262  21.386  27.964  1.00  0.00     0.059 A 
ATOM     73  F   UNL A   1      42.344  22.924  29.735  1.00  0.00    -0.206 F 
ATOM     74  C   UNL A   1      42.307  21.135  26.594  1.00  0.00     0.060 A 
BRANCH  74  75
ATOM     75  S   UNL A   1      42.206  19.439  25.982  1.00  0.00     0.124 S 
ATOM     76  O   UNL A   1      43.074  19.497  24.813  1.00  0.00    -0.237 OA
ATOM     77  O   UNL A   1      42.712  18.668  27.115  1.00  0.00    -0.237 OA
ATOM     78  O   UNL A   1      40.782  19.268  25.708  1.00  0.00    -0.744 OA
ENDBRANCH  74  75
ENDBRANCH  42  67
BRANCH  54  79
ATOM     79  C   UNL A   1      48.206  27.621  28.908  1.00  0.00     0.058 A 
ATOM     80  C   UNL A   1      48.896  27.091  30.010  1.00  0.00     0.135 A 
ATOM     81  C   UNL A   1      48.926  27.842  27.724  1.00  0.00     0.135 A 
ATOM     82  F   UNL A   1      48.252  26.870  31.167  1.00  0.00    -0.206 F 
ATOM     83  C   UNL A   1      50.256  26.810  29.946  1.00  0.00     0.059 A 
ATOM     84  C   UNL A   1      50.284  27.551  27.633  1.00  0.00     0.059 A 
ATOM     85  F   UNL A   1      48.310  28.342  26.641  1.00  0.00    -0.206 F 
ATOM     86  C   UNL A   1      50.943  27.047  28.754  1.00  0.00     0.060 A 
BRANCH  86  87
ATOM     87  S   UNL A   1      52.704  26.660  28.674  1.00  0.00     0.124 S 
ATOM     88  O   UNL A   1      53.285  27.981  28.454  1.00  0.00    -0.237 OA
ATOM     89  O   UNL A   1      52.958  26.067  29.983  1.00  0.00    -0.237 OA
ATOM     90  O   UNL A   1      52.797  25.737  27.546  1.00  0.00    -0.744 OA
ENDBRANCH  86  87
ENDBRANCH  54  79
ENDBRANCH  28  29
ENDBRANCH  21  23
ENDBRANCH  20  21
ENDBRANCH   1  20
TORSDOF 17
ENDMDL
MODEL 2
REMARK VINA RESULT:     -10.1      3.122      5.392
REMARK SMILES C[C@@]([NH3+])(Cc1ccccc1Br)C(=O)OCCOC(=O)c1ccc(-c2c3nc(c(-c4c(F)cc(S(=O)(=O)[O-])cc4F)c4ccc([nH]4)c(-c4c(F)cc(S(=O)(=O)[O-])cc4F)c4nc(c(-c5c(F)cc(S(=O)(=O)[O-])cc5F)c5ccc2[nH]5)C=C4)C=C3)cc1
REMARK SMILES IDX 16 1 15 2 14 3 12 4 13 5 2 6 1 7 3 8 4 12 5 13 6 14 10 15
REMARK SMILES IDX 7 16 9 17 11 18 8 19 17 20 18 21 19 22 20 23 21 24 85 25
REMARK SMILES IDX 22 26 84 27 23 28 24 29 25 30 78 31 26 32 83 33 77 34 79 35
REMARK SMILES IDX 27 36 82 37 76 38 75 39 28 41 62 42 41 43 61 44 42 45 45 46
REMARK SMILES IDX 60 47 80 48 43 49 44 50 59 52 81 53 46 54 29 55 30 56 39 57
REMARK SMILES IDX 31 58 32 59 38 60 40 61 33 62 34 63 35 64 36 65 37 66 63 67
REMARK SMILES IDX 64 68 73 69 65 70 66 71 72 72 74 73 67 74 68 75 69 76 70 77
REMARK SMILES IDX 71 78 47 79 48 80 57 81 49 82 50 83 56 84 58 85 51 86 52 87
REMARK SMILES IDX 53 88 54 89 55 90
REMARK H PARENT 3 9 3 10 3 11 79 40 45 51
REMARK Flexibility Score: inf
ROOT
ATOM      1  C   UNL A   1      33.910  32.460  28.749  1.00  0.00     0.275 C 
ENDROOT
BRANCH   1   2
ATOM      2  C   UNL A   1      34.998  33.383  29.296  1.00  0.00     0.274 C 
BRANCH   2   3
ATOM      3  O   UNL A   1      34.565  34.062  30.494  1.00  0.00    -0.457 OA
BRANCH   3   4
ATOM      4  C   UNL A   1      34.768  33.363  31.648  1.00  0.00     0.368 C 
ATOM      5  O   UNL A   1      33.944  32.586  32.124  1.00  0.00    -0.245 OA
BRANCH   4   6
ATOM      6  C   UNL A   1      36.039  33.808  32.420  1.00  0.00     0.194 C 
ATOM      7  C   UNL A   1      35.832  33.497  33.910  1.00  0.00     0.092 C 
BRANCH   6   8
ATOM      8  N   UNL A   1      36.084  35.305  32.320  1.00  0.00    -0.343 N 
ATOM      9  H   UNL A   1      36.005  35.711  33.253  1.00  0.00     0.345 HD
ATOM     10  H   UNL A   1      35.311  35.631  31.741  1.00  0.00     0.345 HD
ATOM     11  H   UNL A   1      36.969  35.591  31.899  1.00  0.00     0.345 HD
ENDBRANCH   6   8
BRANCH   6  12
ATOM     12  C   UNL A   1      37.397  33.266  31.890  1.00  0.00     0.117 C 
BRANCH  12  13
ATOM     13  C   UNL A   1      38.618  33.238  32.795  1.00  0.00    -0.027 A 
ATOM     14  C   UNL A   1      39.284  34.456  33.037  1.00  0.00     0.005 A 
ATOM     15  C   UNL A   1      39.076  32.104  33.495  1.00  0.00     0.021 A 
ATOM     16  C   UNL A   1      40.374  34.538  33.907  1.00  0.00     0.000 A 
ATOM     17  C   UNL A   1      40.194  32.184  34.340  1.00  0.00     0.016 A 
ATOM     18  Br  UNL A   1      38.182  30.428  33.478  1.00  0.00    -0.051 Br
ATOM     19  C   UNL A   1      40.841  33.398  34.545  1.00  0.00     0.001 A 
ENDBRANCH  12  13
ENDBRANCH   6  12
ENDBRANCH   4   6
ENDBRANCH   3   4
ENDBRANCH   2   3
ENDBRANCH   1   2
BRANCH   1  20
ATOM     20  O   UNL A   1      34.410  31.731  27.621  1.00  0.00    -0.458 OA
BRANCH  20  21
ATOM     21  C   UNL A   1      34.479  30.388  27.777  1.00  0.00     0.338 C 
ATOM     22  O   UNL A   1      33.550  29.604  27.675  1.00  0.00    -0.246 OA
BRANCH  21  23
ATOM     23  C   UNL A   1      35.861  29.979  28.126  1.00  0.00     0.060 A 
ATOM     24  C   UNL A   1      36.208  29.556  29.412  1.00  0.00     0.016 A 
ATOM     25  C   UNL A   1      36.847  30.069  27.142  1.00  0.00     0.016 A 
ATOM     26  C   UNL A   1      37.541  29.276  29.729  1.00  0.00     0.010 A 
ATOM     27  C   UNL A   1      38.166  29.715  27.440  1.00  0.00     0.010 A 
ATOM     28  C   UNL A   1      38.534  29.335  28.741  1.00  0.00    -0.014 A 
BRANCH  28  29
ATOM     29  C   UNL A   1      39.954  29.000  29.040  1.00  0.00     0.031 A 
ATOM     30  C   UNL A   1      40.872  30.048  29.611  1.00  0.00     0.074 A 
ATOM     31  C   UNL A   1      40.439  27.776  28.751  1.00  0.00     0.049 A 
ATOM     32  N   UNL A   1      42.175  30.036  29.725  1.00  0.00    -0.248 NA
ATOM     33  C   UNL A   1      40.239  31.283  30.104  1.00  0.00     0.031 C 
ATOM     34  C   UNL A   1      39.659  26.657  28.219  1.00  0.00     0.029 A 
ATOM     35  N   UNL A   1      41.713  27.270  28.852  1.00  0.00    -0.354 N 
ATOM     36  C   UNL A   1      42.525  31.274  30.253  1.00  0.00     0.074 A 
ATOM     37  C   UNL A   1      41.294  32.014  30.438  1.00  0.00     0.031 C 
ATOM     38  C   UNL A   1      40.464  25.595  28.056  1.00  0.00     0.029 A 
ATOM     39  C   UNL A   1      41.829  25.977  28.398  1.00  0.00     0.049 A 
ATOM     40  H   UNL A   1      42.470  27.786  29.213  1.00  0.00     0.167 HD
ATOM     41  C   UNL A   1      43.759  31.749  30.550  1.00  0.00     0.037 A 
ATOM     42  C   UNL A   1      42.916  25.199  28.231  1.00  0.00     0.037 A 
ATOM     43  C   UNL A   1      44.976  30.991  30.402  1.00  0.00     0.049 A 
ATOM     44  C   UNL A   1      44.275  25.751  28.551  1.00  0.00     0.074 A 
ATOM     45  C   UNL A   1      46.273  31.380  30.691  1.00  0.00     0.029 A 
ATOM     46  N   UNL A   1      45.045  29.685  29.940  1.00  0.00    -0.354 N 
ATOM     47  N   UNL A   1      44.594  26.941  28.999  1.00  0.00    -0.248 NA
ATOM     48  C   UNL A   1      45.424  24.864  28.323  1.00  0.00     0.031 C 
ATOM     49  C   UNL A   1      47.129  30.318  30.378  1.00  0.00     0.029 A 
ATOM     50  C   UNL A   1      46.362  29.257  29.926  1.00  0.00     0.049 A 
ATOM     51  H   UNL A   1      44.271  29.143  29.661  1.00  0.00     0.167 HD
ATOM     52  C   UNL A   1      45.979  26.945  29.111  1.00  0.00     0.074 A 
ATOM     53  C   UNL A   1      46.435  25.632  28.701  1.00  0.00     0.031 C 
ATOM     54  C   UNL A   1      46.798  27.948  29.511  1.00  0.00     0.037 A 
BRANCH  41  55
ATOM     55  C   UNL A   1      43.862  33.168  31.038  1.00  0.00     0.058 A 
ATOM     56  C   UNL A   1      43.871  33.483  32.404  1.00  0.00     0.135 A 
ATOM     57  C   UNL A   1      43.998  34.223  30.121  1.00  0.00     0.135 A 
ATOM     58  F   UNL A   1      43.729  32.514  33.323  1.00  0.00    -0.206 F 
ATOM     59  C   UNL A   1      43.988  34.798  32.847  1.00  0.00     0.059 A 
ATOM     60  C   UNL A   1      44.137  35.543  30.541  1.00  0.00     0.059 A 
ATOM     61  F   UNL A   1      43.996  33.976  28.802  1.00  0.00    -0.206 F 
ATOM     62  C   UNL A   1      44.117  35.823  31.906  1.00  0.00     0.060 A 
BRANCH  62  63
ATOM     63  S   UNL A   1      44.270  37.524  32.490  1.00  0.00     0.124 S 
ATOM     64  O   UNL A   1      43.913  38.275  31.289  1.00  0.00    -0.237 OA
ATOM     65  O   UNL A   1      43.299  37.574  33.577  1.00  0.00    -0.237 OA
ATOM     66  O   UNL A   1      45.668  37.619  32.897  1.00  0.00    -0.744 OA
ENDBRANCH  62  63
ENDBRANCH  41  55
BRANCH  42  67
ATOM     67  C   UNL A   1      42.756  23.821  27.697  1.00  0.00     0.058 A 
ATOM     68  C   UNL A   1      42.635  22.723  28.560  1.00  0.00     0.135 A 
ATOM     69  C   UNL A   1      42.679  23.580  26.315  1.00  0.00     0.135 A 
ATOM     70  F   UNL A   1      42.714  22.903  29.888  1.00  0.00    -0.206 F 
ATOM     71  C   UNL A   1      42.441  21.434  28.075  1.00  0.00     0.059 A 
ATOM     72  C   UNL A   1      42.462  22.304  25.808  1.00  0.00     0.059 A 
ATOM     73  F   UNL A   1      42.778  24.601  25.449  1.00  0.00    -0.206 F 
ATOM     74  C   UNL A   1      42.349  21.235  26.696  1.00  0.00     0.060 A 
BRANCH  74  75
ATOM     75  S   UNL A   1      42.018  19.573  26.073  1.00  0.00     0.124 S 
ATOM     76  O   UNL A   1      42.422  18.749  27.205  1.00  0.00    -0.237 OA
ATOM     77  O   UNL A   1      40.584  19.623  25.800  1.00  0.00    -0.237 OA
ATOM     78  O   UNL A   1      42.867  19.486  24.889  1.00  0.00    -0.744 OA
ENDBRANCH  74  75
ENDBRANCH  42  67
BRANCH  54  79
ATOM     79  C   UNL A   1      48.271  27.655  29.538  1.00  0.00     0.058 A 
ATOM     80  C   UNL A   1      49.100  27.970  28.450  1.00  0.00     0.135 A 
ATOM     81  C   UNL A   1      48.863  27.081  30.674  1.00  0.00     0.135 A 
ATOM     82  F   UNL A   1      48.579  28.513  27.339  1.00  0.00    -0.206 F 
ATOM     83  C   UNL A   1      50.465  27.705  28.479  1.00  0.00     0.059 A 
ATOM     84  C   UNL A   1      50.229  26.825  30.731  1.00  0.00     0.059 A 
ATOM     85  F   UNL A   1      48.113  26.768  31.742  1.00  0.00    -0.206 F 
ATOM     86  C   UNL A   1      51.020  27.128  29.623  1.00  0.00     0.060 A 
BRANCH  86  87
ATOM     87  S   UNL A   1      52.796  26.806  29.659  1.00  0.00     0.124 S 
ATOM     88  O   UNL A   1      53.007  26.177  28.359  1.00  0.00    -0.237 OA
ATOM     89  O   UNL A   1      53.357  28.144  29.814  1.00  0.00    -0.237 OA
ATOM     90  O   UNL A   1      52.956  25.929  30.815  1.00  0.00    -0.744 OA
ENDBRANCH  86  87
ENDBRANCH  54  79
ENDBRANCH  28  29
ENDBRANCH  21  23
ENDBRANCH  20  21
ENDBRANCH   1  20
TORSDOF 17
ENDMDL
MODEL 3
REMARK VINA RESULT:     -10.1      2.063      2.760
REMARK SMILES C[C@@]([NH3+])(Cc1ccccc1Br)C(=O)OCCOC(=O)c1ccc(-c2c3nc(c(-c4c(F)cc(S(=O)(=O)[O-])cc4F)c4ccc([nH]4)c(-c4c(F)cc(S(=O)(=O)[O-])cc4F)c4nc(c(-c5c(F)cc(S(=O)(=O)[O-])cc5F)c5ccc2[nH]5)C=C4)C=C3)cc1
REMARK SMILES IDX 16 1 15 2 14 3 12 4 13 5 2 6 1 7 3 8 4 12 5 13 6 14 10 15
REMARK SMILES IDX 7 16 9 17 11 18 8 19 17 20 18 21 19 22 20 23 21 24 85 25
REMARK SMILES IDX 22 26 84 27 23 28 24 29 25 30 78 31 26 32 83 33 77 34 79 35
REMARK SMILES IDX 27 36 82 37 76 38 75 39 28 41 62 42 41 43 61 44 42 45 45 46
REMARK SMILES IDX 60 47 80 48 43 49 44 50 59 52 81 53 46 54 29 55 30 56 39 57
REMARK SMILES IDX 31 58 32 59 38 60 40 61 33 62 34 63 35 64 36 65 37 66 63 67
REMARK SMILES IDX 64 68 73 69 65 70 66 71 72 72 74 73 67 74 68 75 69 76 70 77
REMARK SMILES IDX 71 78 47 79 48 80 57 81 49 82 50 83 56 84 58 85 51 86 52 87
REMARK SMILES IDX 53 88 54 89 55 90
REMARK H PARENT 3 9 3 10 3 11 79 40 45 51
REMARK Flexibility Score: inf
ROOT
ATOM      1  C   UNL A   1      34.262  30.696  27.417  1.00  0.00     0.275 C 
ENDROOT
BRANCH   1   2
ATOM      2  C   UNL A   1      32.966  29.915  27.206  1.00  0.00     0.274 C 
BRANCH   2   3
ATOM      3  O   UNL A   1      33.192  28.490  27.249  1.00  0.00    -0.457 OA
BRANCH   3   4
ATOM      4  C   UNL A   1      32.063  27.733  27.130  1.00  0.00     0.368 C 
ATOM      5  O   UNL A   1      31.121  27.791  27.917  1.00  0.00    -0.245 OA
BRANCH   4   6
ATOM      6  C   UNL A   1      32.174  26.633  26.040  1.00  0.00     0.194 C 
ATOM      7  C   UNL A   1      33.615  26.619  25.512  1.00  0.00     0.092 C 
BRANCH   6   8
ATOM      8  N   UNL A   1      31.324  27.096  24.892  1.00  0.00    -0.343 N 
ATOM      9  H   UNL A   1      31.528  26.531  24.068  1.00  0.00     0.345 HD
ATOM     10  H   UNL A   1      31.527  28.075  24.692  1.00  0.00     0.345 HD
ATOM     11  H   UNL A   1      30.338  26.997  25.136  1.00  0.00     0.345 HD
ENDBRANCH   6   8
BRANCH   6  12
ATOM     12  C   UNL A   1      31.680  25.213  26.439  1.00  0.00     0.117 C 
BRANCH  12  13
ATOM     13  C   UNL A   1      32.399  23.977  25.921  1.00  0.00    -0.027 A 
ATOM     14  C   UNL A   1      33.274  23.310  26.803  1.00  0.00     0.005 A 
ATOM     15  C   UNL A   1      32.179  23.385  24.662  1.00  0.00     0.021 A 
ATOM     16  C   UNL A   1      33.926  22.129  26.437  1.00  0.00     0.000 A 
ATOM     17  C   UNL A   1      32.864  22.219  24.286  1.00  0.00     0.016 A 
ATOM     18  Br  UNL A   1      30.877  24.003  23.424  1.00  0.00    -0.051 Br
ATOM     19  C   UNL A   1      33.735  21.593  25.171  1.00  0.00     0.001 A 
ENDBRANCH  12  13
ENDBRANCH   6  12
ENDBRANCH   4   6
ENDBRANCH   3   4
ENDBRANCH   2   3
ENDBRANCH   1   2
BRANCH   1  20
ATOM     20  O   UNL A   1      35.223  29.874  28.094  1.00  0.00    -0.458 OA
BRANCH  20  21
ATOM     21  C   UNL A   1      36.010  30.513  28.991  1.00  0.00     0.338 C 
ATOM     22  O   UNL A   1      35.660  31.403  29.748  1.00  0.00    -0.246 OA
BRANCH  21  23
ATOM     23  C   UNL A   1      37.399  30.000  28.914  1.00  0.00     0.060 A 
ATOM     24  C   UNL A   1      38.153  29.722  30.059  1.00  0.00     0.016 A 
ATOM     25  C   UNL A   1      37.978  29.838  27.654  1.00  0.00     0.016 A 
ATOM     26  C   UNL A   1      39.492  29.338  29.947  1.00  0.00     0.010 A 
ATOM     27  C   UNL A   1      39.293  29.380  27.543  1.00  0.00     0.010 A 
ATOM     28  C   UNL A   1      40.074  29.144  28.686  1.00  0.00    -0.014 A 
BRANCH  28  29
ATOM     29  C   UNL A   1      41.485  28.692  28.538  1.00  0.00     0.031 A 
ATOM     30  C   UNL A   1      42.610  29.688  28.640  1.00  0.00     0.074 A 
ATOM     31  C   UNL A   1      41.760  27.403  28.259  1.00  0.00     0.049 A 
ATOM     32  N   UNL A   1      43.870  29.551  28.317  1.00  0.00    -0.248 NA
ATOM     33  C   UNL A   1      42.266  31.023  29.157  1.00  0.00     0.031 C 
ATOM     34  C   UNL A   1      40.774  26.326  28.157  1.00  0.00     0.029 A 
ATOM     35  N   UNL A   1      42.957  26.779  27.995  1.00  0.00    -0.354 N 
ATOM     36  C   UNL A   1      44.460  30.790  28.542  1.00  0.00     0.074 A 
ATOM     37  C   UNL A   1      43.418  31.669  29.031  1.00  0.00     0.031 C 
ATOM     38  C   UNL A   1      41.403  25.175  27.871  1.00  0.00     0.029 A 
ATOM     39  C   UNL A   1      42.825  25.444  27.691  1.00  0.00     0.049 A 
ATOM     40  H   UNL A   1      43.823  27.244  28.019  1.00  0.00     0.167 HD
ATOM     41  C   UNL A   1      45.751  31.159  28.354  1.00  0.00     0.037 A 
ATOM     42  C   UNL A   1      43.736  24.544  27.272  1.00  0.00     0.037 A 
ATOM     43  C   UNL A   1      46.792  30.269  27.907  1.00  0.00     0.049 A 
ATOM     44  C   UNL A   1      45.156  24.979  27.055  1.00  0.00     0.074 A 
ATOM     45  C   UNL A   1      48.133  30.546  27.701  1.00  0.00     0.029 A 
ATOM     46  N   UNL A   1      46.613  28.925  27.613  1.00  0.00    -0.354 N 
ATOM     47  N   UNL A   1      45.687  26.166  27.222  1.00  0.00    -0.248 NA
ATOM     48  C   UNL A   1      46.098  23.960  26.571  1.00  0.00     0.031 C 
ATOM     49  C   UNL A   1      48.759  29.376  27.256  1.00  0.00     0.029 A 
ATOM     50  C   UNL A   1      47.815  28.362  27.218  1.00  0.00     0.049 A 
ATOM     51  H   UNL A   1      45.756  28.443  27.675  1.00  0.00     0.167 HD
ATOM     52  C   UNL A   1      47.025  26.037  26.867  1.00  0.00     0.074 A 
ATOM     53  C   UNL A   1      47.226  24.651  26.495  1.00  0.00     0.031 C 
ATOM     54  C   UNL A   1      47.996  26.982  26.847  1.00  0.00     0.037 A 
BRANCH  41  55
ATOM     55  C   UNL A   1      46.108  32.600  28.601  1.00  0.00     0.058 A 
ATOM     56  C   UNL A   1      46.574  33.045  29.846  1.00  0.00     0.135 A 
ATOM     57  C   UNL A   1      46.022  33.539  27.559  1.00  0.00     0.135 A 
ATOM     58  F   UNL A   1      46.661  32.192  30.880  1.00  0.00    -0.206 F 
ATOM     59  C   UNL A   1      46.922  34.376  30.060  1.00  0.00     0.059 A 
ATOM     60  C   UNL A   1      46.384  34.870  27.744  1.00  0.00     0.059 A 
ATOM     61  F   UNL A   1      45.582  33.165  26.348  1.00  0.00    -0.206 F 
ATOM     62  C   UNL A   1      46.820  35.283  29.001  1.00  0.00     0.060 A 
BRANCH  62  63
ATOM     63  S   UNL A   1      47.275  37.006  29.287  1.00  0.00     0.124 S 
ATOM     64  O   UNL A   1      46.252  37.707  28.516  1.00  0.00    -0.237 OA
ATOM     65  O   UNL A   1      47.165  37.126  30.738  1.00  0.00    -0.237 OA
ATOM     66  O   UNL A   1      48.631  37.092  28.755  1.00  0.00    -0.744 OA
ENDBRANCH  62  63
ENDBRANCH  41  55
BRANCH  42  67
ATOM     67  C   UNL A   1      43.312  23.147  26.996  1.00  0.00     0.058 A 
ATOM     68  C   UNL A   1      43.219  22.669  25.680  1.00  0.00     0.135 A 
ATOM     69  C   UNL A   1      43.033  22.250  28.040  1.00  0.00     0.135 A 
ATOM     70  F   UNL A   1      43.466  23.492  24.649  1.00  0.00    -0.206 F 
ATOM     71  C   UNL A   1      42.867  21.352  25.408  1.00  0.00     0.059 A 
ATOM     72  C   UNL A   1      42.701  20.923  27.792  1.00  0.00     0.059 A 
ATOM     73  F   UNL A   1      43.119  22.658  29.316  1.00  0.00    -0.206 F 
ATOM     74  C   UNL A   1      42.616  20.483  26.473  1.00  0.00     0.060 A 
BRANCH  74  75
ATOM     75  S   UNL A   1      42.237  18.753  26.118  1.00  0.00     0.124 S 
ATOM     76  O   UNL A   1      42.500  18.125  27.406  1.00  0.00    -0.237 OA
ATOM     77  O   UNL A   1      40.835  18.818  25.713  1.00  0.00    -0.237 OA
ATOM     78  O   UNL A   1      43.172  18.421  25.047  1.00  0.00    -0.744 OA
ENDBRANCH  74  75
ENDBRANCH  42  67
BRANCH  54  79
ATOM     79  C   UNL A   1      49.367  26.541  26.422  1.00  0.00     0.058 A 
ATOM     80  C   UNL A   1      49.814  26.711  25.102  1.00  0.00     0.135 A 
ATOM     81  C   UNL A   1      50.252  25.971  27.350  1.00  0.00     0.135 A 
ATOM     82  F   UNL A   1      49.001  27.244  24.177  1.00  0.00    -0.206 F 
ATOM     83  C   UNL A   1      51.086  26.308  24.711  1.00  0.00     0.059 A 
ATOM     84  C   UNL A   1      51.536  25.579  26.984  1.00  0.00     0.059 A 
ATOM     85  F   UNL A   1      49.873  25.795  28.625  1.00  0.00    -0.206 F 
ATOM     86  C   UNL A   1      51.939  25.740  25.659  1.00  0.00     0.060 A 
BRANCH  86  87
ATOM     87  S   UNL A   1      53.597  25.239  25.147  1.00  0.00     0.124 S 
ATOM     88  O   UNL A   1      53.531  23.791  25.316  1.00  0.00    -0.237 OA
ATOM     89  O   UNL A   1      53.659  25.714  23.768  1.00  0.00    -0.237 OA
ATOM     90  O   UNL A   1      54.467  25.942  26.085  1.00  0.00    -0.744 OA
ENDBRANCH  86  87
ENDBRANCH  54  79
ENDBRANCH  28  29
ENDBRANCH  21  23
ENDBRANCH  20  21
ENDBRANCH   1  20
TORSDOF 17
ENDMDL
