MODEL 1
REMARK VINA RESULT:     -10.2      0.000      0.000
REMARK SMILES C/C=C/C[C@@H](C(=O)OCCOC(=O)c1ccc(-c2c3nc(c(-c4c(F)cc(S(=O)(=O)[O-])cc4F)c4ccc([nH]4)c(-c4c(F)cc(S(=O)(=O)[O-])cc4F)c4nc(c(-c5c(F)cc(S(=O)(=O)[O-])cc5F)c5ccc2[nH]5)C=C4)C=C3)cc1)c1cccc(Cl)c1
REMARK SMILES IDX 10 1 9 2 8 3 6 4 7 5 5 6 4 7 3 8 1 9 2 10 80 11 81 12 86 13
REMARK SMILES IDX 82 14 84 15 83 16 85 17 11 18 12 19 13 20 14 21 15 22 79 23
REMARK SMILES IDX 16 24 78 25 17 26 18 27 19 28 72 29 20 30 77 31 71 32 73 33
REMARK SMILES IDX 21 34 76 35 70 36 69 37 22 39 56 40 35 41 55 42 36 43 39 44
REMARK SMILES IDX 54 45 74 46 37 47 38 48 53 50 75 51 40 52 23 53 24 54 33 55
REMARK SMILES IDX 25 56 26 57 32 58 34 59 27 60 28 61 29 62 30 63 31 64 57 65
REMARK SMILES IDX 58 66 67 67 59 68 60 69 66 70 68 71 61 72 62 73 63 74 64 75
REMARK SMILES IDX 65 76 41 77 42 78 51 79 43 80 44 81 50 82 52 83 45 84 46 85
REMARK SMILES IDX 47 86 48 87 49 88
REMARK H PARENT 73 38 39 49
REMARK Flexibility Score: inf
ROOT
ATOM      1  C   UNL A   1      44.562  24.323  25.118  1.00  0.00     0.275 C 
ENDROOT
BRANCH   1   2
ATOM      2  C   UNL A   1      44.214  22.858  24.827  1.00  0.00     0.274 C 
BRANCH   2   3
ATOM      3  O   UNL A   1      42.792  22.620  24.782  1.00  0.00    -0.462 OA
BRANCH   3   4
ATOM      4  C   UNL A   1      42.276  21.836  25.771  1.00  0.00     0.313 C 
ATOM      5  O   UNL A   1      42.433  20.622  25.770  1.00  0.00    -0.252 OA
BRANCH   4   6
ATOM      6  C   UNL A   1      41.420  22.639  26.795  1.00  0.00     0.133 C 
BRANCH   6   7
ATOM      7  C   UNL A   1      41.681  22.161  28.258  1.00  0.00     0.047 C 
BRANCH   7   8
ATOM      8  C   UNL A   1      42.402  23.100  29.195  1.00  0.00    -0.030 C 
ATOM      9  C   UNL A   1      44.421  24.007  30.354  1.00  0.00     0.035 C 
ATOM     10  C   UNL A   1      43.714  23.033  29.471  1.00  0.00    -0.035 C 
ENDBRANCH   7   8
ENDBRANCH   6   7
BRANCH   6  11
ATOM     11  C   UNL A   1      39.901  22.643  26.428  1.00  0.00    -0.032 A 
ATOM     12  C   UNL A   1      39.120  23.806  26.592  1.00  0.00     0.005 A 
ATOM     13  C   UNL A   1      39.225  21.511  25.929  1.00  0.00     0.025 A 
ATOM     14  C   UNL A   1      37.788  23.876  26.161  1.00  0.00     0.002 A 
ATOM     15  C   UNL A   1      37.882  21.571  25.532  1.00  0.00     0.041 A 
ATOM     16  C   UNL A   1      37.169  22.758  25.618  1.00  0.00     0.020 A 
ATOM     17  Cl  UNL A   1      37.122  20.163  24.897  1.00  0.00    -0.084 Cl
ENDBRANCH   6  11
ENDBRANCH   4   6
ENDBRANCH   3   4
ENDBRANCH   2   3
ENDBRANCH   1   2
BRANCH   1  18
ATOM     18  O   UNL A   1      43.764  24.871  26.185  1.00  0.00    -0.458 OA
BRANCH  18  19
ATOM     19  C   UNL A   1      42.856  25.801  25.800  1.00  0.00     0.338 C 
ATOM     20  O   UNL A   1      42.375  25.918  24.680  1.00  0.00    -0.246 OA
BRANCH  19  21
ATOM     21  C   UNL A   1      42.353  26.556  26.965  1.00  0.00     0.060 A 
ATOM     22  C   UNL A   1      42.876  27.838  27.154  1.00  0.00     0.016 A 
ATOM     23  C   UNL A   1      41.429  26.041  27.876  1.00  0.00     0.016 A 
ATOM     24  C   UNL A   1      42.456  28.626  28.221  1.00  0.00     0.010 A 
ATOM     25  C   UNL A   1      41.032  26.822  28.975  1.00  0.00     0.010 A 
ATOM     26  C   UNL A   1      41.542  28.121  29.147  1.00  0.00    -0.014 A 
BRANCH  26  27
ATOM     27  C   UNL A   1      41.233  28.947  30.339  1.00  0.00     0.031 A 
ATOM     28  C   UNL A   1      42.112  28.834  31.551  1.00  0.00     0.074 A 
ATOM     29  C   UNL A   1      40.248  29.864  30.302  1.00  0.00     0.049 A 
ATOM     30  N   UNL A   1      42.044  29.481  32.686  1.00  0.00    -0.248 NA
ATOM     31  C   UNL A   1      43.226  27.877  31.466  1.00  0.00     0.031 C 
ATOM     32  C   UNL A   1      39.384  30.128  29.151  1.00  0.00     0.029 A 
ATOM     33  N   UNL A   1      39.817  30.751  31.257  1.00  0.00    -0.354 N 
ATOM     34  C   UNL A   1      43.102  29.009  33.452  1.00  0.00     0.074 A 
ATOM     35  C   UNL A   1      43.793  28.017  32.656  1.00  0.00     0.031 C 
ATOM     36  C   UNL A   1      38.516  31.103  29.475  1.00  0.00     0.029 A 
ATOM     37  C   UNL A   1      38.740  31.509  30.862  1.00  0.00     0.049 A 
ATOM     38  H   UNL A   1      40.238  30.835  32.143  1.00  0.00     0.167 HD
ATOM     39  C   UNL A   1      43.461  29.365  34.708  1.00  0.00     0.037 A 
ATOM     40  C   UNL A   1      38.006  32.408  31.550  1.00  0.00     0.037 A 
ATOM     41  C   UNL A   1      42.760  30.338  35.506  1.00  0.00     0.049 A 
ATOM     42  C   UNL A   1      38.375  32.725  32.979  1.00  0.00     0.074 A 
ATOM     43  C   UNL A   1      43.034  30.747  36.800  1.00  0.00     0.029 A 
ATOM     44  N   UNL A   1      41.643  31.049  35.093  1.00  0.00    -0.354 N 
ATOM     45  N   UNL A   1      39.372  32.264  33.698  1.00  0.00    -0.248 NA
ATOM     46  C   UNL A   1      37.519  33.684  33.692  1.00  0.00     0.031 C 
ATOM     47  C   UNL A   1      42.050  31.661  37.189  1.00  0.00     0.029 A 
ATOM     48  C   UNL A   1      41.200  31.873  36.116  1.00  0.00     0.049 A 
ATOM     49  H   UNL A   1      41.225  30.978  34.204  1.00  0.00     0.167 HD
ATOM     50  C   UNL A   1      39.280  32.900  34.934  1.00  0.00     0.074 A 
ATOM     51  C   UNL A   1      38.139  33.788  34.859  1.00  0.00     0.031 C 
ATOM     52  C   UNL A   1      40.068  32.763  36.030  1.00  0.00     0.037 A 
BRANCH  39  53
ATOM     53  C   UNL A   1      44.628  28.649  35.325  1.00  0.00     0.058 A 
ATOM     54  C   UNL A   1      45.937  29.151  35.244  1.00  0.00     0.135 A 
ATOM     55  C   UNL A   1      44.426  27.455  36.036  1.00  0.00     0.135 A 
ATOM     56  F   UNL A   1      46.189  30.276  34.557  1.00  0.00    -0.206 F 
ATOM     57  C   UNL A   1      47.007  28.483  35.833  1.00  0.00     0.059 A 
ATOM     58  C   UNL A   1      45.476  26.785  36.653  1.00  0.00     0.059 A 
ATOM     59  F   UNL A   1      43.195  26.929  36.135  1.00  0.00    -0.206 F 
ATOM     60  C   UNL A   1      46.765  27.301  36.537  1.00  0.00     0.060 A 
BRANCH  60  61
ATOM     61  S   UNL A   1      48.161  26.451  37.304  1.00  0.00     0.124 S 
ATOM     62  O   UNL A   1      47.981  25.090  36.809  1.00  0.00    -0.237 OA
ATOM     63  O   UNL A   1      49.305  27.177  36.762  1.00  0.00    -0.237 OA
ATOM     64  O   UNL A   1      47.926  26.633  38.734  1.00  0.00    -0.744 OA
ENDBRANCH  60  61
ENDBRANCH  39  53
BRANCH  40  65
ATOM     65  C   UNL A   1      36.817  33.048  30.921  1.00  0.00     0.058 A 
ATOM     66  C   UNL A   1      36.951  34.075  29.974  1.00  0.00     0.135 A 
ATOM     67  C   UNL A   1      35.516  32.672  31.294  1.00  0.00     0.135 A 
ATOM     68  F   UNL A   1      38.171  34.483  29.593  1.00  0.00    -0.206 F 
ATOM     69  C   UNL A   1      35.841  34.725  29.440  1.00  0.00     0.059 A 
ATOM     70  C   UNL A   1      34.391  33.285  30.751  1.00  0.00     0.059 A 
ATOM     71  F   UNL A   1      35.329  31.692  32.191  1.00  0.00    -0.206 F 
ATOM     72  C   UNL A   1      34.563  34.323  29.837  1.00  0.00     0.060 A 
BRANCH  72  73
ATOM     73  S   UNL A   1      33.128  35.154  29.124  1.00  0.00     0.124 S 
ATOM     74  O   UNL A   1      32.282  35.339  30.298  1.00  0.00    -0.237 OA
ATOM     75  O   UNL A   1      33.721  36.366  28.567  1.00  0.00    -0.237 OA
ATOM     76  O   UNL A   1      32.640  34.194  28.138  1.00  0.00    -0.744 OA
ENDBRANCH  72  73
ENDBRANCH  40  65
BRANCH  52  77
ATOM     77  C   UNL A   1      39.759  33.625  37.225  1.00  0.00     0.058 A 
ATOM     78  C   UNL A   1      38.836  33.235  38.210  1.00  0.00     0.135 A 
ATOM     79  C   UNL A   1      40.427  34.848  37.407  1.00  0.00     0.135 A 
ATOM     80  F   UNL A   1      38.169  32.077  38.087  1.00  0.00    -0.206 F 
ATOM     81  C   UNL A   1      38.559  34.041  39.310  1.00  0.00     0.059 A 
ATOM     82  C   UNL A   1      40.189  35.655  38.516  1.00  0.00     0.059 A 
ATOM     83  F   UNL A   1      41.331  35.266  36.507  1.00  0.00    -0.206 F 
ATOM     84  C   UNL A   1      39.239  35.252  39.453  1.00  0.00     0.060 A 
BRANCH  84  85
ATOM     85  S   UNL A   1      38.879  36.285  40.889  1.00  0.00     0.124 S 
ATOM     86  O   UNL A   1      38.469  37.536  40.256  1.00  0.00    -0.237 OA
ATOM     87  O   UNL A   1      37.821  35.536  41.558  1.00  0.00    -0.237 OA
ATOM     88  O   UNL A   1      40.152  36.333  41.603  1.00  0.00    -0.744 OA
ENDBRANCH  84  85
ENDBRANCH  52  77
ENDBRANCH  26  27
ENDBRANCH  19  21
ENDBRANCH  18  19
ENDBRANCH   1  18
TORSDOF 17
ENDMDL
MODEL 2
REMARK VINA RESULT:     -10.2      3.632     11.100
REMARK SMILES C/C=C/C[C@@H](C(=O)OCCOC(=O)c1ccc(-c2c3nc(c(-c4c(F)cc(S(=O)(=O)[O-])cc4F)c4ccc([nH]4)c(-c4c(F)cc(S(=O)(=O)[O-])cc4F)c4nc(c(-c5c(F)cc(S(=O)(=O)[O-])cc5F)c5ccc2[nH]5)C=C4)C=C3)cc1)c1cccc(Cl)c1
REMARK SMILES IDX 10 1 9 2 8 3 6 4 7 5 5 6 4 7 3 8 1 9 2 10 80 11 81 12 86 13
REMARK SMILES IDX 82 14 84 15 83 16 85 17 11 18 12 19 13 20 14 21 15 22 79 23
REMARK SMILES IDX 16 24 78 25 17 26 18 27 19 28 72 29 20 30 77 31 71 32 73 33
REMARK SMILES IDX 21 34 76 35 70 36 69 37 22 39 56 40 35 41 55 42 36 43 39 44
REMARK SMILES IDX 54 45 74 46 37 47 38 48 53 50 75 51 40 52 23 53 24 54 33 55
REMARK SMILES IDX 25 56 26 57 32 58 34 59 27 60 28 61 29 62 30 63 31 64 57 65
REMARK SMILES IDX 58 66 67 67 59 68 60 69 66 70 68 71 61 72 62 73 63 74 64 75
REMARK SMILES IDX 65 76 41 77 42 78 51 79 43 80 44 81 50 82 52 83 45 84 46 85
REMARK SMILES IDX 47 86 48 87 49 88
REMARK H PARENT 73 38 39 49
REMARK Flexibility Score: inf
ROOT
ATOM      1  C   UNL A   1      32.882  32.078  27.423  1.00  0.00     0.275 C 
ENDROOT
BRANCH   1   2
ATOM      2  C   UNL A   1      32.802  33.579  27.727  1.00  0.00     0.274 C 
BRANCH   2   3
ATOM      3  O   UNL A   1      34.071  34.136  28.126  1.00  0.00    -0.462 OA
BRANCH   3   4
ATOM      4  C   UNL A   1      34.253  34.335  29.463  1.00  0.00     0.313 C 
ATOM      5  O   UNL A   1      33.314  34.603  30.201  1.00  0.00    -0.252 OA
BRANCH   4   6
ATOM      6  C   UNL A   1      35.751  34.277  29.885  1.00  0.00     0.133 C 
BRANCH   6   7
ATOM      7  C   UNL A   1      36.643  33.685  28.748  1.00  0.00     0.047 C 
BRANCH   7   8
ATOM      8  C   UNL A   1      38.118  33.509  29.020  1.00  0.00    -0.030 C 
ATOM      9  C   UNL A   1      40.368  34.272  29.792  1.00  0.00     0.035 C 
ATOM     10  C   UNL A   1      38.925  34.481  29.472  1.00  0.00    -0.035 C 
ENDBRANCH   7   8
ENDBRANCH   6   7
BRANCH   6  11
ATOM     11  C   UNL A   1      35.957  33.545  31.250  1.00  0.00    -0.032 A 
ATOM     12  C   UNL A   1      35.564  32.201  31.418  1.00  0.00     0.005 A 
ATOM     13  C   UNL A   1      36.526  34.166  32.381  1.00  0.00     0.025 A 
ATOM     14  C   UNL A   1      35.843  31.482  32.589  1.00  0.00     0.002 A 
ATOM     15  C   UNL A   1      36.772  33.457  33.565  1.00  0.00     0.041 A 
ATOM     16  C   UNL A   1      36.460  32.109  33.663  1.00  0.00     0.020 A 
ATOM     17  Cl  UNL A   1      37.503  34.263  34.899  1.00  0.00    -0.084 Cl
ENDBRANCH   6  11
ENDBRANCH   4   6
ENDBRANCH   3   4
ENDBRANCH   2   3
ENDBRANCH   1   2
BRANCH   1  18
ATOM     18  O   UNL A   1      33.966  31.437  28.123  1.00  0.00    -0.458 OA
BRANCH  18  19
ATOM     19  C   UNL A   1      34.386  30.269  27.579  1.00  0.00     0.338 C 
ATOM     20  O   UNL A   1      33.798  29.619  26.725  1.00  0.00    -0.246 OA
BRANCH  19  21
ATOM     21  C   UNL A   1      35.766  29.959  28.005  1.00  0.00     0.060 A 
ATOM     22  C   UNL A   1      35.919  29.396  29.274  1.00  0.00     0.016 A 
ATOM     23  C   UNL A   1      36.892  30.232  27.224  1.00  0.00     0.016 A 
ATOM     24  C   UNL A   1      37.181  29.066  29.757  1.00  0.00     0.010 A 
ATOM     25  C   UNL A   1      38.170  29.931  27.726  1.00  0.00     0.010 A 
ATOM     26  C   UNL A   1      38.318  29.342  28.994  1.00  0.00    -0.014 A 
BRANCH  26  27
ATOM     27  C   UNL A   1      39.644  29.097  29.609  1.00  0.00     0.031 A 
ATOM     28  C   UNL A   1      40.067  29.932  30.784  1.00  0.00     0.074 A 
ATOM     29  C   UNL A   1      40.414  28.073  29.197  1.00  0.00     0.049 A 
ATOM     30  N   UNL A   1      41.165  29.869  31.491  1.00  0.00    -0.248 NA
ATOM     31  C   UNL A   1      39.118  30.964  31.230  1.00  0.00     0.031 C 
ATOM     32  C   UNL A   1      40.070  27.138  28.125  1.00  0.00     0.029 A 
ATOM     33  N   UNL A   1      41.640  27.642  29.639  1.00  0.00    -0.354 N 
ATOM     34  C   UNL A   1      41.043  30.853  32.464  1.00  0.00     0.074 A 
ATOM     35  C   UNL A   1      39.767  31.503  32.253  1.00  0.00     0.031 C 
ATOM     36  C   UNL A   1      41.072  26.251  27.985  1.00  0.00     0.029 A 
ATOM     37  C   UNL A   1      42.139  26.574  28.932  1.00  0.00     0.049 A 
ATOM     38  H   UNL A   1      42.118  28.060  30.392  1.00  0.00     0.167 HD
ATOM     39  C   UNL A   1      41.919  31.189  33.441  1.00  0.00     0.037 A 
ATOM     40  C   UNL A   1      43.330  25.947  29.023  1.00  0.00     0.037 A 
ATOM     41  C   UNL A   1      43.196  30.554  33.637  1.00  0.00     0.049 A 
ATOM     42  C   UNL A   1      44.325  26.397  30.066  1.00  0.00     0.074 A 
ATOM     43  C   UNL A   1      44.163  30.843  34.585  1.00  0.00     0.029 A 
ATOM     44  N   UNL A   1      43.692  29.510  32.870  1.00  0.00    -0.354 N 
ATOM     45  N   UNL A   1      44.202  27.336  30.975  1.00  0.00    -0.248 NA
ATOM     46  C   UNL A   1      45.620  25.703  30.096  1.00  0.00     0.031 C 
ATOM     47  C   UNL A   1      45.265  30.014  34.354  1.00  0.00     0.029 A 
ATOM     48  C   UNL A   1      44.961  29.162  33.306  1.00  0.00     0.049 A 
ATOM     49  H   UNL A   1      43.213  29.080  32.125  1.00  0.00     0.167 HD
ATOM     50  C   UNL A   1      45.391  27.322  31.701  1.00  0.00     0.074 A 
ATOM     51  C   UNL A   1      46.212  26.273  31.136  1.00  0.00     0.031 C 
ATOM     52  C   UNL A   1      45.767  28.107  32.743  1.00  0.00     0.037 A 
BRANCH  39  53
ATOM     53  C   UNL A   1      41.553  32.340  34.334  1.00  0.00     0.058 A 
ATOM     54  C   UNL A   1      41.719  33.675  33.933  1.00  0.00     0.135 A 
ATOM     55  C   UNL A   1      40.997  32.099  35.600  1.00  0.00     0.135 A 
ATOM     56  F   UNL A   1      42.267  33.961  32.741  1.00  0.00    -0.206 F 
ATOM     57  C   UNL A   1      41.363  34.732  34.766  1.00  0.00     0.059 A 
ATOM     58  C   UNL A   1      40.610  33.139  36.438  1.00  0.00     0.059 A 
ATOM     59  F   UNL A   1      40.825  30.840  36.033  1.00  0.00    -0.206 F 
ATOM     60  C   UNL A   1      40.807  34.453  36.016  1.00  0.00     0.060 A 
BRANCH  60  61
ATOM     61  S   UNL A   1      40.339  35.832  37.082  1.00  0.00     0.124 S 
ATOM     62  O   UNL A   1      41.612  36.153  37.720  1.00  0.00    -0.237 OA
ATOM     63  O   UNL A   1      39.845  36.815  36.123  1.00  0.00    -0.237 OA
ATOM     64  O   UNL A   1      39.326  35.255  37.961  1.00  0.00    -0.744 OA
ENDBRANCH  60  61
ENDBRANCH  39  53
BRANCH  40  65
ATOM     65  C   UNL A   1      43.678  24.851  28.076  1.00  0.00     0.058 A 
ATOM     66  C   UNL A   1      44.353  25.107  26.872  1.00  0.00     0.135 A 
ATOM     67  C   UNL A   1      43.297  23.525  28.338  1.00  0.00     0.135 A 
ATOM     68  F   UNL A   1      44.725  26.359  26.565  1.00  0.00    -0.206 F 
ATOM     69  C   UNL A   1      44.613  24.096  25.951  1.00  0.00     0.059 A 
ATOM     70  C   UNL A   1      43.574  22.492  27.448  1.00  0.00     0.059 A 
ATOM     71  F   UNL A   1      42.654  23.221  29.476  1.00  0.00    -0.206 F 
ATOM     72  C   UNL A   1      44.218  22.789  26.249  1.00  0.00     0.060 A 
BRANCH  72  73
ATOM     73  S   UNL A   1      44.579  21.479  25.061  1.00  0.00     0.124 S 
ATOM     74  O   UNL A   1      43.512  20.525  25.342  1.00  0.00    -0.237 OA
ATOM     75  O   UNL A   1      44.486  22.185  23.787  1.00  0.00    -0.237 OA
ATOM     76  O   UNL A   1      45.925  21.050  25.434  1.00  0.00    -0.744 OA
ENDBRANCH  72  73
ENDBRANCH  40  65
BRANCH  52  77
ATOM     77  C   UNL A   1      47.107  27.833  33.375  1.00  0.00     0.058 A 
ATOM     78  C   UNL A   1      47.262  26.919  34.430  1.00  0.00     0.135 A 
ATOM     79  C   UNL A   1      48.262  28.469  32.890  1.00  0.00     0.135 A 
ATOM     80  F   UNL A   1      46.193  26.282  34.934  1.00  0.00    -0.206 F 
ATOM     81  C   UNL A   1      48.506  26.674  35.006  1.00  0.00     0.059 A 
ATOM     82  C   UNL A   1      49.520  28.216  33.430  1.00  0.00     0.059 A 
ATOM     83  F   UNL A   1      48.178  29.341  31.873  1.00  0.00    -0.206 F 
ATOM     84  C   UNL A   1      49.629  27.330  34.500  1.00  0.00     0.060 A 
BRANCH  84  85
ATOM     85  S   UNL A   1      51.239  26.998  35.248  1.00  0.00     0.124 S 
ATOM     86  O   UNL A   1      50.855  26.526  36.575  1.00  0.00    -0.237 OA
ATOM     87  O   UNL A   1      51.798  25.990  34.354  1.00  0.00    -0.237 OA
ATOM     88  O   UNL A   1      51.905  28.296  35.213  1.00  0.00    -0.744 OA
ENDBRANCH  84  85
ENDBRANCH  52  77
ENDBRANCH  26  27
ENDBRANCH  19  21
ENDBRANCH  18  19
ENDBRANCH   1  18
TORSDOF 17
ENDMDL
MODEL 3
REMARK VINA RESULT:     -10.0      4.974     10.770
REMARK SMILES C/C=C/C[C@@H](C(=O)OCCOC(=O)c1ccc(-c2c3nc(c(-c4c(F)cc(S(=O)(=O)[O-])cc4F)c4ccc([nH]4)c(-c4c(F)cc(S(=O)(=O)[O-])cc4F)c4nc(c(-c5c(F)cc(S(=O)(=O)[O-])cc5F)c5ccc2[nH]5)C=C4)C=C3)cc1)c1cccc(Cl)c1
REMARK SMILES IDX 10 1 9 2 8 3 6 4 7 5 5 6 4 7 3 8 1 9 2 10 80 11 81 12 86 13
REMARK SMILES IDX 82 14 84 15 83 16 85 17 11 18 12 19 13 20 14 21 15 22 79 23
REMARK SMILES IDX 16 24 78 25 17 26 18 27 19 28 72 29 20 30 77 31 71 32 73 33
REMARK SMILES IDX 21 34 76 35 70 36 69 37 22 39 56 40 35 41 55 42 36 43 39 44
REMARK SMILES IDX 54 45 74 46 37 47 38 48 53 50 75 51 40 52 23 53 24 54 33 55
REMARK SMILES IDX 25 56 26 57 32 58 34 59 27 60 28 61 29 62 30 63 31 64 57 65
REMARK SMILES IDX 58 66 67 67 59 68 60 69 66 70 68 71 61 72 62 73 63 74 64 75
REMARK SMILES IDX 65 76 41 77 42 78 51 79 43 80 44 81 50 82 52 83 45 84 46 85
REMARK SMILES IDX 47 86 48 87 49 88
REMARK H PARENT 73 38 39 49
REMARK Flexibility Score: inf
ROOT
ATOM      1  C   UNL A   1      33.836  28.530  26.072  1.00  0.00     0.275 C 
ENDROOT
BRANCH   1   2
ATOM      2  C   UNL A   1      33.103  27.217  25.771  1.00  0.00     0.274 C 
BRANCH   2   3
ATOM      3  O   UNL A   1      33.990  26.081  25.719  1.00  0.00    -0.462 OA
BRANCH   3   4
ATOM      4  C   UNL A   1      33.448  24.872  26.037  1.00  0.00     0.313 C 
ATOM      5  O   UNL A   1      32.285  24.772  26.410  1.00  0.00    -0.252 OA
BRANCH   4   6
ATOM      6  C   UNL A   1      34.479  23.706  25.962  1.00  0.00     0.133 C 
BRANCH   6   7
ATOM      7  C   UNL A   1      35.772  24.136  25.200  1.00  0.00     0.047 C 
BRANCH   7   8
ATOM      8  C   UNL A   1      37.005  23.277  25.352  1.00  0.00    -0.030 C 
ATOM      9  C   UNL A   1      39.204  22.660  26.366  1.00  0.00     0.035 C 
ATOM     10  C   UNL A   1      38.020  23.553  26.185  1.00  0.00    -0.035 C 
ENDBRANCH   7   8
ENDBRANCH   6   7
BRANCH   6  11
ATOM     11  C   UNL A   1      33.853  22.394  25.388  1.00  0.00    -0.032 A 
ATOM     12  C   UNL A   1      33.861  21.200  26.139  1.00  0.00     0.005 A 
ATOM     13  C   UNL A   1      33.264  22.315  24.110  1.00  0.00     0.025 A 
ATOM     14  C   UNL A   1      33.204  20.041  25.703  1.00  0.00     0.002 A 
ATOM     15  C   UNL A   1      32.638  21.144  23.659  1.00  0.00     0.041 A 
ATOM     16  C   UNL A   1      32.580  20.015  24.463  1.00  0.00     0.020 A 
ATOM     17  Cl  UNL A   1      31.904  21.122  22.102  1.00  0.00    -0.084 Cl
ENDBRANCH   6  11
ENDBRANCH   4   6
ENDBRANCH   3   4
ENDBRANCH   2   3
ENDBRANCH   1   2
BRANCH   1  18
ATOM     18  O   UNL A   1      33.918  28.796  27.486  1.00  0.00    -0.458 OA
BRANCH  18  19
ATOM     19  C   UNL A   1      34.519  29.966  27.813  1.00  0.00     0.338 C 
ATOM     20  O   UNL A   1      33.967  31.053  27.928  1.00  0.00    -0.246 OA
BRANCH  19  21
ATOM     21  C   UNL A   1      35.921  29.739  28.218  1.00  0.00     0.060 A 
ATOM     22  C   UNL A   1      36.893  29.893  27.226  1.00  0.00     0.016 A 
ATOM     23  C   UNL A   1      36.298  29.354  29.507  1.00  0.00     0.016 A 
ATOM     24  C   UNL A   1      38.240  29.707  27.517  1.00  0.00     0.010 A 
ATOM     25  C   UNL A   1      37.656  29.129  29.791  1.00  0.00     0.010 A 
ATOM     26  C   UNL A   1      38.633  29.310  28.797  1.00  0.00    -0.014 A 
BRANCH  26  27
ATOM     27  C   UNL A   1      40.063  28.991  29.018  1.00  0.00     0.031 A 
ATOM     28  C   UNL A   1      40.945  30.014  29.672  1.00  0.00     0.074 A 
ATOM     29  C   UNL A   1      40.543  27.765  28.738  1.00  0.00     0.049 A 
ATOM     30  N   UNL A   1      42.212  29.935  29.987  1.00  0.00    -0.248 NA
ATOM     31  C   UNL A   1      40.311  31.292  30.034  1.00  0.00     0.031 C 
ATOM     32  C   UNL A   1      39.763  26.660  28.184  1.00  0.00     0.029 A 
ATOM     33  N   UNL A   1      41.803  27.242  28.894  1.00  0.00    -0.354 N 
ATOM     34  C   UNL A   1      42.529  31.150  30.582  1.00  0.00     0.074 A 
ATOM     35  C   UNL A   1      41.324  31.952  30.578  1.00  0.00     0.031 C 
ATOM     36  C   UNL A   1      40.567  25.592  28.032  1.00  0.00     0.029 A 
ATOM     37  C   UNL A   1      41.924  25.947  28.448  1.00  0.00     0.049 A 
ATOM     38  H   UNL A   1      42.551  27.748  29.287  1.00  0.00     0.167 HD
ATOM     39  C   UNL A   1      43.719  31.562  31.079  1.00  0.00     0.037 A 
ATOM     40  C   UNL A   1      43.009  25.151  28.363  1.00  0.00     0.037 A 
ATOM     41  C   UNL A   1      44.922  30.771  31.064  1.00  0.00     0.049 A 
ATOM     42  C   UNL A   1      44.344  25.667  28.846  1.00  0.00     0.074 A 
ATOM     43  C   UNL A   1      46.183  31.114  31.522  1.00  0.00     0.029 A 
ATOM     44  N   UNL A   1      45.020  29.484  30.558  1.00  0.00    -0.354 N 
ATOM     45  N   UNL A   1      44.634  26.822  29.398  1.00  0.00    -0.248 NA
ATOM     46  C   UNL A   1      45.499  24.770  28.696  1.00  0.00     0.031 C 
ATOM     47  C   UNL A   1      47.054  30.057  31.241  1.00  0.00     0.029 A 
ATOM     48  C   UNL A   1      46.325  29.028  30.668  1.00  0.00     0.049 A 
ATOM     49  H   UNL A   1      44.273  28.968  30.176  1.00  0.00     0.167 HD
ATOM     50  C   UNL A   1      45.996  26.776  29.686  1.00  0.00     0.074 A 
ATOM     51  C   UNL A   1      46.468  25.475  29.263  1.00  0.00     0.031 C 
ATOM     52  C   UNL A   1      46.784  27.726  30.252  1.00  0.00     0.037 A 
BRANCH  39  53
ATOM     53  C   UNL A   1      43.796  32.961  31.623  1.00  0.00     0.058 A 
ATOM     54  C   UNL A   1      44.125  34.058  30.813  1.00  0.00     0.135 A 
ATOM     55  C   UNL A   1      43.503  33.207  32.974  1.00  0.00     0.135 A 
ATOM     56  F   UNL A   1      44.436  33.875  29.520  1.00  0.00    -0.206 F 
ATOM     57  C   UNL A   1      44.179  35.350  31.328  1.00  0.00     0.059 A 
ATOM     58  C   UNL A   1      43.526  34.491  33.504  1.00  0.00     0.059 A 
ATOM     59  F   UNL A   1      43.191  32.190  33.793  1.00  0.00    -0.206 F 
ATOM     60  C   UNL A   1      43.875  35.556  32.676  1.00  0.00     0.060 A 
BRANCH  60  61
ATOM     61  S   UNL A   1      43.938  37.238  33.329  1.00  0.00     0.124 S 
ATOM     62  O   UNL A   1      43.805  38.029  32.110  1.00  0.00    -0.237 OA
ATOM     63  O   UNL A   1      42.791  37.265  34.230  1.00  0.00    -0.237 OA
ATOM     64  O   UNL A   1      45.244  37.302  33.979  1.00  0.00    -0.744 OA
ENDBRANCH  60  61
ENDBRANCH  39  53
BRANCH  40  65
ATOM     65  C   UNL A   1      42.902  23.794  27.758  1.00  0.00     0.058 A 
ATOM     66  C   UNL A   1      43.056  23.591  26.378  1.00  0.00     0.135 A 
ATOM     67  C   UNL A   1      42.594  22.675  28.549  1.00  0.00     0.135 A 
ATOM     68  F   UNL A   1      43.335  24.628  25.574  1.00  0.00    -0.206 F 
ATOM     69  C   UNL A   1      42.883  22.336  25.800  1.00  0.00     0.059 A 
ATOM     70  C   UNL A   1      42.448  21.406  28.000  1.00  0.00     0.059 A 
ATOM     71  F   UNL A   1      42.441  22.810  29.875  1.00  0.00    -0.206 F 
ATOM     72  C   UNL A   1      42.577  21.248  26.621  1.00  0.00     0.060 A 
BRANCH  72  73
ATOM     73  S   UNL A   1      42.377  19.619  25.869  1.00  0.00     0.124 S 
ATOM     74  O   UNL A   1      40.976  19.653  25.464  1.00  0.00    -0.237 OA
ATOM     75  O   UNL A   1      43.355  19.658  24.787  1.00  0.00    -0.237 OA
ATOM     76  O   UNL A   1      42.697  18.704  26.961  1.00  0.00    -0.744 OA
ENDBRANCH  72  73
ENDBRANCH  40  65
BRANCH  52  77
ATOM     77  C   UNL A   1      48.230  27.380  30.494  1.00  0.00     0.058 A 
ATOM     78  C   UNL A   1      49.241  27.714  29.578  1.00  0.00     0.135 A 
ATOM     79  C   UNL A   1      48.615  26.735  31.682  1.00  0.00     0.135 A 
ATOM     80  F   UNL A   1      48.932  28.330  28.426  1.00  0.00    -0.206 F 
ATOM     81  C   UNL A   1      50.574  27.388  29.813  1.00  0.00     0.059 A 
ATOM     82  C   UNL A   1      49.946  26.429  31.951  1.00  0.00     0.059 A 
ATOM     83  F   UNL A   1      47.694  26.405  32.601  1.00  0.00    -0.206 F 
ATOM     84  C   UNL A   1      50.917  26.743  31.002  1.00  0.00     0.060 A 
BRANCH  84  85
ATOM     85  S   UNL A   1      52.650  26.334  31.301  1.00  0.00     0.124 S 
ATOM     86  O   UNL A   1      53.166  26.229  29.939  1.00  0.00    -0.237 OA
ATOM     87  O   UNL A   1      53.116  27.484  32.069  1.00  0.00    -0.237 OA
ATOM     88  O   UNL A   1      52.581  25.079  32.044  1.00  0.00    -0.744 OA
ENDBRANCH  84  85
ENDBRANCH  52  77
ENDBRANCH  26  27
ENDBRANCH  19  21
ENDBRANCH  18  19
ENDBRANCH   1  18
TORSDOF 17
ENDMDL
