MODEL 1
REMARK VINA RESULT:      -9.8      0.000      0.000
REMARK SMILES CC[NH2+]CCC(=O)NC1(CC(=O)OCCOC(=O)c2ccc(-c3c4nc(c(-c5c(F)cc(S(=O)(=O)[O-])cc5F)c5ccc([nH]5)c(-c5c(F)cc(S(=O)(=O)[O-])cc5F)c5nc(c(-c6c(F)cc(S(=O)(=O)[O-])cc6F)c6ccc3[nH]6)C=C5)C=C4)cc2)CCC1
REMARK SMILES IDX 13 1 11 2 12 3 10 4 9 5 85 6 87 7 86 8 8 9 6 10 7 11 5 13
REMARK SMILES IDX 4 14 3 15 2 18 1 19 14 20 15 21 16 22 17 23 18 24 19 25
REMARK SMILES IDX 20 26 84 27 21 28 83 29 22 30 23 31 24 32 77 33 25 34 82 35
REMARK SMILES IDX 76 36 78 37 26 38 81 39 75 40 74 41 27 43 61 44 40 45 60 46
REMARK SMILES IDX 41 47 44 48 59 49 79 50 42 51 43 52 58 54 80 55 45 56 28 57
REMARK SMILES IDX 29 58 38 59 30 60 31 61 37 62 39 63 32 64 33 65 34 66 35 67
REMARK SMILES IDX 36 68 62 69 63 70 72 71 64 72 65 73 71 74 73 75 66 76 67 77
REMARK SMILES IDX 68 78 69 79 70 80 46 81 47 82 56 83 48 84 49 85 55 86 57 87
REMARK SMILES IDX 50 88 51 89 52 90 53 91 54 92
REMARK H PARENT 8 12 3 16 3 17 78 42 44 53
REMARK Flexibility Score: inf
ROOT
ATOM      1  O   UNL A   1      33.215  28.397  27.102  1.00  0.00    -0.462 OA
ENDROOT
BRANCH   1   2
ATOM      2  C   UNL A   1      31.994  28.506  26.527  1.00  0.00     0.308 C 
ATOM      3  O   UNL A   1      31.559  29.530  26.012  1.00  0.00    -0.252 OA
BRANCH   2   4
ATOM      4  C   UNL A   1      31.142  27.285  26.667  1.00  0.00     0.151 C 
BRANCH   4   5
ATOM      5  C   UNL A   1      31.029  26.244  25.540  1.00  0.00     0.050 C 
ATOM      6  C   UNL A   1      31.264  24.882  26.225  1.00  0.00     0.029 C 
ATOM      7  C   UNL A   1      32.275  25.920  24.654  1.00  0.00     0.029 C 
ATOM      8  C   UNL A   1      32.709  24.887  25.698  1.00  0.00     0.005 C 
BRANCH   5   9
ATOM      9  N   UNL A   1      29.837  26.453  24.674  1.00  0.00    -0.350 N 
ATOM     10  C   UNL A   1      29.492  27.294  23.653  1.00  0.00     0.226 C 
ATOM     11  O   UNL A   1      28.293  27.370  23.362  1.00  0.00    -0.275 OA
ATOM     12  H   UNL A   1      29.110  25.826  24.893  1.00  0.00     0.164 HD
BRANCH  10  13
ATOM     13  C   UNL A   1      30.486  28.106  22.853  1.00  0.00     0.161 C 
BRANCH  13  14
ATOM     14  C   UNL A   1      30.069  29.578  22.661  1.00  0.00     0.270 C 
BRANCH  14  15
ATOM     15  N   UNL A   1      28.859  29.853  21.867  1.00  0.00    -0.346 N 
ATOM     16  H   UNL A   1      29.122  29.877  20.882  1.00  0.00     0.346 HD
ATOM     17  H   UNL A   1      28.194  29.110  22.082  1.00  0.00     0.346 HD
BRANCH  15  18
ATOM     18  C   UNL A   1      28.199  31.116  22.197  1.00  0.00     0.257 C 
ATOM     19  C   UNL A   1      27.617  31.080  23.608  1.00  0.00     0.071 C 
ENDBRANCH  15  18
ENDBRANCH  14  15
ENDBRANCH  13  14
ENDBRANCH  10  13
ENDBRANCH   5   9
ENDBRANCH   4   5
ENDBRANCH   2   4
ENDBRANCH   1   2
BRANCH   1  20
ATOM     20  C   UNL A   1      34.232  29.248  26.538  1.00  0.00     0.274 C 
BRANCH  20  21
ATOM     21  C   UNL A   1      34.689  30.340  27.510  1.00  0.00     0.275 C 
BRANCH  21  22
ATOM     22  O   UNL A   1      35.354  29.817  28.676  1.00  0.00    -0.458 OA
BRANCH  22  23
ATOM     23  C   UNL A   1      36.307  30.633  29.187  1.00  0.00     0.338 C 
ATOM     24  O   UNL A   1      36.119  31.629  29.865  1.00  0.00    -0.246 OA
BRANCH  23  25
ATOM     25  C   UNL A   1      37.648  30.070  28.968  1.00  0.00     0.060 A 
ATOM     26  C   UNL A   1      38.498  29.950  30.070  1.00  0.00     0.016 A 
ATOM     27  C   UNL A   1      38.109  29.774  27.687  1.00  0.00     0.016 A 
ATOM     28  C   UNL A   1      39.814  29.535  29.904  1.00  0.00     0.010 A 
ATOM     29  C   UNL A   1      39.430  29.336  27.523  1.00  0.00     0.010 A 
ATOM     30  C   UNL A   1      40.291  29.217  28.629  1.00  0.00    -0.014 A 
BRANCH  30  31
ATOM     31  C   UNL A   1      41.695  28.772  28.456  1.00  0.00     0.031 A 
ATOM     32  C   UNL A   1      42.817  29.763  28.562  1.00  0.00     0.074 A 
ATOM     33  C   UNL A   1      41.960  27.473  28.210  1.00  0.00     0.049 A 
ATOM     34  N   UNL A   1      44.082  29.611  28.269  1.00  0.00    -0.248 NA
ATOM     35  C   UNL A   1      42.468  31.104  29.058  1.00  0.00     0.031 C 
ATOM     36  C   UNL A   1      40.963  26.404  28.148  1.00  0.00     0.029 A 
ATOM     37  N   UNL A   1      43.148  26.836  27.958  1.00  0.00    -0.354 N 
ATOM     38  C   UNL A   1      44.676  30.846  28.499  1.00  0.00     0.074 A 
ATOM     39  C   UNL A   1      43.631  31.735  28.966  1.00  0.00     0.031 C 
ATOM     40  C   UNL A   1      41.580  25.243  27.877  1.00  0.00     0.029 A 
ATOM     41  C   UNL A   1      43.003  25.498  27.680  1.00  0.00     0.049 A 
ATOM     42  H   UNL A   1      44.020  27.292  27.976  1.00  0.00     0.167 HD
ATOM     43  C   UNL A   1      45.971  31.201  28.330  1.00  0.00     0.037 A 
ATOM     44  C   UNL A   1      43.905  24.588  27.266  1.00  0.00     0.037 A 
ATOM     45  C   UNL A   1      47.007  30.299  27.897  1.00  0.00     0.049 A 
ATOM     46  C   UNL A   1      45.330  25.015  27.045  1.00  0.00     0.074 A 
ATOM     47  C   UNL A   1      48.352  30.562  27.695  1.00  0.00     0.029 A 
ATOM     48  N   UNL A   1      46.817  28.955  27.609  1.00  0.00    -0.354 N 
ATOM     49  N   UNL A   1      45.869  26.199  27.214  1.00  0.00    -0.248 NA
ATOM     50  C   UNL A   1      46.264  23.989  26.562  1.00  0.00     0.031 C 
ATOM     51  C   UNL A   1      48.968  29.384  27.259  1.00  0.00     0.029 A 
ATOM     52  C   UNL A   1      48.015  28.378  27.222  1.00  0.00     0.049 A 
ATOM     53  H   UNL A   1      45.956  28.481  27.669  1.00  0.00     0.167 HD
ATOM     54  C   UNL A   1      47.207  26.058  26.868  1.00  0.00     0.074 A 
ATOM     55  C   UNL A   1      47.399  24.672  26.494  1.00  0.00     0.031 C 
ATOM     56  C   UNL A   1      48.187  26.995  26.858  1.00  0.00     0.037 A 
BRANCH  43  57
ATOM     57  C   UNL A   1      46.334  32.639  28.572  1.00  0.00     0.058 A 
ATOM     58  C   UNL A   1      46.284  33.601  27.552  1.00  0.00     0.135 A 
ATOM     59  C   UNL A   1      46.710  33.065  29.857  1.00  0.00     0.135 A 
ATOM     60  F   UNL A   1      45.946  33.244  26.303  1.00  0.00    -0.206 F 
ATOM     61  C   UNL A   1      46.617  34.931  27.792  1.00  0.00     0.059 A 
ATOM     62  C   UNL A   1      47.025  34.393  30.124  1.00  0.00     0.059 A 
ATOM     63  F   UNL A   1      46.774  32.184  30.869  1.00  0.00    -0.206 F 
ATOM     64  C   UNL A   1      46.990  35.316  29.081  1.00  0.00     0.060 A 
BRANCH  64  65
ATOM     65  S   UNL A   1      47.416  37.046  29.383  1.00  0.00     0.124 S 
ATOM     66  O   UNL A   1      46.923  37.234  30.743  1.00  0.00    -0.237 OA
ATOM     67  O   UNL A   1      48.867  37.045  29.229  1.00  0.00    -0.237 OA
ATOM     68  O   UNL A   1      46.681  37.761  28.344  1.00  0.00    -0.744 OA
ENDBRANCH  64  65
ENDBRANCH  43  57
BRANCH  44  69
ATOM     69  C   UNL A   1      43.473  23.193  26.993  1.00  0.00     0.058 A 
ATOM     70  C   UNL A   1      43.383  22.708  25.680  1.00  0.00     0.135 A 
ATOM     71  C   UNL A   1      43.171  22.310  28.040  1.00  0.00     0.135 A 
ATOM     72  F   UNL A   1      43.652  23.520  24.646  1.00  0.00    -0.206 F 
ATOM     73  C   UNL A   1      43.003  21.397  25.414  1.00  0.00     0.059 A 
ATOM     74  C   UNL A   1      42.813  20.987  27.801  1.00  0.00     0.059 A 
ATOM     75  F   UNL A   1      43.254  22.723  29.314  1.00  0.00    -0.206 F 
ATOM     76  C   UNL A   1      42.725  20.542  26.482  1.00  0.00     0.060 A 
BRANCH  76  77
ATOM     77  S   UNL A   1      42.299  18.822  26.134  1.00  0.00     0.124 S 
ATOM     78  O   UNL A   1      40.902  18.941  25.733  1.00  0.00    -0.237 OA
ATOM     79  O   UNL A   1      43.240  18.478  25.072  1.00  0.00    -0.237 OA
ATOM     80  O   UNL A   1      42.536  18.155  27.411  1.00  0.00    -0.744 OA
ENDBRANCH  76  77
ENDBRANCH  44  69
BRANCH  56  81
ATOM     81  C   UNL A   1      49.562  26.541  26.459  1.00  0.00     0.058 A 
ATOM     82  C   UNL A   1      50.428  25.930  27.378  1.00  0.00     0.135 A 
ATOM     83  C   UNL A   1      49.999  26.683  25.133  1.00  0.00     0.135 A 
ATOM     84  F   UNL A   1      50.059  25.780  28.659  1.00  0.00    -0.206 F 
ATOM     85  C   UNL A   1      51.693  25.489  26.998  1.00  0.00     0.059 A 
ATOM     86  C   UNL A   1      51.251  26.232  24.727  1.00  0.00     0.059 A 
ATOM     87  F   UNL A   1      49.204  27.256  24.216  1.00  0.00    -0.206 F 
ATOM     88  C   UNL A   1      52.096  25.645  25.670  1.00  0.00     0.060 A 
BRANCH  88  89
ATOM     89  S   UNL A   1      53.724  25.041  25.178  1.00  0.00     0.124 S 
ATOM     90  O   UNL A   1      53.923  25.734  23.910  1.00  0.00    -0.237 OA
ATOM     91  O   UNL A   1      54.572  25.482  26.282  1.00  0.00    -0.237 OA
ATOM     92  O   UNL A   1      53.535  23.596  25.083  1.00  0.00    -0.744 OA
ENDBRANCH  88  89
ENDBRANCH  56  81
ENDBRANCH  30  31
ENDBRANCH  23  25
ENDBRANCH  22  23
ENDBRANCH  21  22
ENDBRANCH  20  21
ENDBRANCH   1  20
TORSDOF 20
ENDMDL
MODEL 2
REMARK VINA RESULT:      -9.8      2.983      4.358
REMARK SMILES CC[NH2+]CCC(=O)NC1(CC(=O)OCCOC(=O)c2ccc(-c3c4nc(c(-c5c(F)cc(S(=O)(=O)[O-])cc5F)c5ccc([nH]5)c(-c5c(F)cc(S(=O)(=O)[O-])cc5F)c5nc(c(-c6c(F)cc(S(=O)(=O)[O-])cc6F)c6ccc3[nH]6)C=C5)C=C4)cc2)CCC1
REMARK SMILES IDX 13 1 11 2 12 3 10 4 9 5 85 6 87 7 86 8 8 9 6 10 7 11 5 13
REMARK SMILES IDX 4 14 3 15 2 18 1 19 14 20 15 21 16 22 17 23 18 24 19 25
REMARK SMILES IDX 20 26 84 27 21 28 83 29 22 30 23 31 24 32 77 33 25 34 82 35
REMARK SMILES IDX 76 36 78 37 26 38 81 39 75 40 74 41 27 43 61 44 40 45 60 46
REMARK SMILES IDX 41 47 44 48 59 49 79 50 42 51 43 52 58 54 80 55 45 56 28 57
REMARK SMILES IDX 29 58 38 59 30 60 31 61 37 62 39 63 32 64 33 65 34 66 35 67
REMARK SMILES IDX 36 68 62 69 63 70 72 71 64 72 65 73 71 74 73 75 66 76 67 77
REMARK SMILES IDX 68 78 69 79 70 80 46 81 47 82 56 83 48 84 49 85 55 86 57 87
REMARK SMILES IDX 50 88 51 89 52 90 53 91 54 92
REMARK H PARENT 8 12 3 16 3 17 78 42 44 53
REMARK Flexibility Score: inf
ROOT
ATOM      1  O   UNL A   1      31.459  26.700  26.680  1.00  0.00    -0.462 OA
ENDROOT
BRANCH   1   2
ATOM      2  C   UNL A   1      31.597  25.515  26.041  1.00  0.00     0.308 C 
ATOM      3  O   UNL A   1      30.681  24.911  25.494  1.00  0.00    -0.252 OA
BRANCH   2   4
ATOM      4  C   UNL A   1      32.965  24.920  26.148  1.00  0.00     0.151 C 
BRANCH   4   5
ATOM      5  C   UNL A   1      33.210  23.415  25.945  1.00  0.00     0.050 C 
ATOM      6  C   UNL A   1      32.668  22.743  27.223  1.00  0.00     0.029 C 
ATOM      7  C   UNL A   1      34.600  22.799  26.309  1.00  0.00     0.029 C 
ATOM      8  C   UNL A   1      34.108  22.624  27.750  1.00  0.00     0.005 C 
BRANCH   5   9
ATOM      9  N   UNL A   1      32.782  22.932  24.603  1.00  0.00    -0.350 N 
ATOM     10  C   UNL A   1      32.484  21.725  24.035  1.00  0.00     0.226 C 
ATOM     11  O   UNL A   1      32.445  21.674  22.801  1.00  0.00    -0.275 OA
ATOM     12  H   UNL A   1      32.691  23.673  23.960  1.00  0.00     0.164 HD
BRANCH  10  13
ATOM     13  C   UNL A   1      32.179  20.472  24.823  1.00  0.00     0.161 C 
BRANCH  13  14
ATOM     14  C   UNL A   1      32.697  19.181  24.158  1.00  0.00     0.270 C 
BRANCH  14  15
ATOM     15  N   UNL A   1      32.755  17.959  24.979  1.00  0.00    -0.346 N 
ATOM     16  H   UNL A   1      32.794  18.234  25.959  1.00  0.00     0.346 HD
ATOM     17  H   UNL A   1      31.922  17.416  24.751  1.00  0.00     0.346 HD
BRANCH  15  18
ATOM     18  C   UNL A   1      33.905  17.101  24.696  1.00  0.00     0.257 C 
ATOM     19  C   UNL A   1      34.094  16.909  23.193  1.00  0.00     0.071 C 
ENDBRANCH  15  18
ENDBRANCH  14  15
ENDBRANCH  13  14
ENDBRANCH  10  13
ENDBRANCH   5   9
ENDBRANCH   4   5
ENDBRANCH   2   4
ENDBRANCH   1   2
BRANCH   1  20
ATOM     20  C   UNL A   1      32.323  27.752  26.208  1.00  0.00     0.274 C 
BRANCH  20  21
ATOM     21  C   UNL A   1      32.426  28.916  27.200  1.00  0.00     0.275 C 
BRANCH  21  22
ATOM     22  O   UNL A   1      33.649  28.903  27.961  1.00  0.00    -0.458 OA
BRANCH  22  23
ATOM     23  C   UNL A   1      34.307  30.087  27.977  1.00  0.00     0.338 C 
ATOM     24  O   UNL A   1      33.804  31.195  27.893  1.00  0.00    -0.246 OA
BRANCH  23  25
ATOM     25  C   UNL A   1      35.731  29.889  28.289  1.00  0.00     0.060 A 
ATOM     26  C   UNL A   1      36.653  30.004  27.246  1.00  0.00     0.016 A 
ATOM     27  C   UNL A   1      36.146  29.482  29.555  1.00  0.00     0.016 A 
ATOM     28  C   UNL A   1      37.995  29.714  27.457  1.00  0.00     0.010 A 
ATOM     29  C   UNL A   1      37.502  29.209  29.772  1.00  0.00     0.010 A 
ATOM     30  C   UNL A   1      38.435  29.320  28.724  1.00  0.00    -0.014 A 
BRANCH  30  31
ATOM     31  C   UNL A   1      39.869  29.013  28.946  1.00  0.00     0.031 A 
ATOM     32  C   UNL A   1      40.792  30.072  29.476  1.00  0.00     0.074 A 
ATOM     33  C   UNL A   1      40.339  27.779  28.677  1.00  0.00     0.049 A 
ATOM     34  N   UNL A   1      42.096  30.058  29.568  1.00  0.00    -0.248 NA
ATOM     35  C   UNL A   1      40.165  31.311  29.960  1.00  0.00     0.031 C 
ATOM     36  C   UNL A   1      39.530  26.648  28.219  1.00  0.00     0.029 A 
ATOM     37  N   UNL A   1      41.612  27.273  28.742  1.00  0.00    -0.354 N 
ATOM     38  C   UNL A   1      42.453  31.300  30.078  1.00  0.00     0.074 A 
ATOM     39  C   UNL A   1      41.225  32.041  30.283  1.00  0.00     0.031 C 
ATOM     40  C   UNL A   1      40.325  25.581  28.046  1.00  0.00     0.029 A 
ATOM     41  C   UNL A   1      41.706  25.971  28.314  1.00  0.00     0.049 A 
ATOM     42  H   UNL A   1      42.383  27.793  29.064  1.00  0.00     0.167 HD
ATOM     43  C   UNL A   1      43.693  31.776  30.342  1.00  0.00     0.037 A 
ATOM     44  C   UNL A   1      42.786  25.192  28.114  1.00  0.00     0.037 A 
ATOM     45  C   UNL A   1      44.905  31.018  30.166  1.00  0.00     0.049 A 
ATOM     46  C   UNL A   1      44.155  25.755  28.375  1.00  0.00     0.074 A 
ATOM     47  C   UNL A   1      46.211  31.409  30.406  1.00  0.00     0.029 A 
ATOM     48  N   UNL A   1      44.960  29.706  29.714  1.00  0.00    -0.354 N 
ATOM     49  N   UNL A   1      44.484  26.950  28.805  1.00  0.00    -0.248 NA
ATOM     50  C   UNL A   1      45.299  24.872  28.108  1.00  0.00     0.031 C 
ATOM     51  C   UNL A   1      47.056  30.345  30.074  1.00  0.00     0.029 A 
ATOM     52  C   UNL A   1      46.276  29.277  29.660  1.00  0.00     0.049 A 
ATOM     53  H   UNL A   1      44.178  29.161  29.468  1.00  0.00     0.167 HD
ATOM     54  C   UNL A   1      45.872  26.959  28.870  1.00  0.00     0.074 A 
ATOM     55  C   UNL A   1      46.320  25.647  28.450  1.00  0.00     0.031 C 
ATOM     56  C   UNL A   1      46.701  27.966  29.243  1.00  0.00     0.037 A 
BRANCH  43  57
ATOM     57  C   UNL A   1      43.805  33.199  30.811  1.00  0.00     0.058 A 
ATOM     58  C   UNL A   1      43.847  34.277  29.914  1.00  0.00     0.135 A 
ATOM     59  C   UNL A   1      43.842  33.488  32.186  1.00  0.00     0.135 A 
ATOM     60  F   UNL A   1      43.831  34.054  28.590  1.00  0.00    -0.206 F 
ATOM     61  C   UNL A   1      43.944  35.591  30.362  1.00  0.00     0.059 A 
ATOM     62  C   UNL A   1      43.917  34.795  32.656  1.00  0.00     0.059 A 
ATOM     63  F   UNL A   1      43.805  32.493  33.086  1.00  0.00    -0.206 F 
ATOM     64  C   UNL A   1      43.982  35.839  31.735  1.00  0.00     0.060 A 
BRANCH  64  65
ATOM     65  S   UNL A   1      44.105  37.549  32.306  1.00  0.00     0.124 S 
ATOM     66  O   UNL A   1      43.110  37.572  33.373  1.00  0.00    -0.237 OA
ATOM     67  O   UNL A   1      45.497  37.639  32.737  1.00  0.00    -0.237 OA
ATOM     68  O   UNL A   1      43.770  38.327  31.118  1.00  0.00    -0.744 OA
ENDBRANCH  64  65
ENDBRANCH  43  57
BRANCH  44  69
ATOM     69  C   UNL A   1      42.612  23.809  27.599  1.00  0.00     0.058 A 
ATOM     70  C   UNL A   1      42.605  23.547  26.222  1.00  0.00     0.135 A 
ATOM     71  C   UNL A   1      42.480  22.721  28.474  1.00  0.00     0.135 A 
ATOM     72  F   UNL A   1      42.719  24.557  25.346  1.00  0.00    -0.206 F 
ATOM     73  C   UNL A   1      42.469  22.254  25.728  1.00  0.00     0.059 A 
ATOM     74  C   UNL A   1      42.366  21.416  28.006  1.00  0.00     0.059 A 
ATOM     75  F   UNL A   1      42.492  22.920  29.801  1.00  0.00    -0.206 F 
ATOM     76  C   UNL A   1      42.354  21.193  26.630  1.00  0.00     0.060 A 
BRANCH  76  77
ATOM     77  S   UNL A   1      42.245  19.509  25.987  1.00  0.00     0.124 S 
ATOM     78  O   UNL A   1      40.825  19.408  25.670  1.00  0.00    -0.237 OA
ATOM     79  O   UNL A   1      43.151  19.555  24.843  1.00  0.00    -0.237 OA
ATOM     80  O   UNL A   1      42.704  18.694  27.107  1.00  0.00    -0.744 OA
ENDBRANCH  76  77
ENDBRANCH  44  69
BRANCH  56  81
ATOM     81  C   UNL A   1      48.174  27.675  29.241  1.00  0.00     0.058 A 
ATOM     82  C   UNL A   1      48.816  27.134  30.365  1.00  0.00     0.135 A 
ATOM     83  C   UNL A   1      48.941  27.900  28.088  1.00  0.00     0.135 A 
ATOM     84  F   UNL A   1      48.127  26.909  31.494  1.00  0.00    -0.206 F 
ATOM     85  C   UNL A   1      50.177  26.843  30.352  1.00  0.00     0.059 A 
ATOM     86  C   UNL A   1      50.298  27.598  28.046  1.00  0.00     0.059 A 
ATOM     87  F   UNL A   1      48.370  28.410  26.985  1.00  0.00    -0.206 F 
ATOM     88  C   UNL A   1      50.910  27.080  29.187  1.00  0.00     0.060 A 
BRANCH  88  89
ATOM     89  S   UNL A   1      52.668  26.669  29.167  1.00  0.00     0.124 S 
ATOM     90  O   UNL A   1      52.772  25.885  27.941  1.00  0.00    -0.237 OA
ATOM     91  O   UNL A   1      53.300  27.985  29.133  1.00  0.00    -0.237 OA
ATOM     92  O   UNL A   1      52.856  25.924  30.408  1.00  0.00    -0.744 OA
ENDBRANCH  88  89
ENDBRANCH  56  81
ENDBRANCH  30  31
ENDBRANCH  23  25
ENDBRANCH  22  23
ENDBRANCH  21  22
ENDBRANCH  20  21
ENDBRANCH   1  20
TORSDOF 20
ENDMDL
MODEL 3
REMARK VINA RESULT:      -9.7      3.699      5.745
REMARK SMILES CC[NH2+]CCC(=O)NC1(CC(=O)OCCOC(=O)c2ccc(-c3c4nc(c(-c5c(F)cc(S(=O)(=O)[O-])cc5F)c5ccc([nH]5)c(-c5c(F)cc(S(=O)(=O)[O-])cc5F)c5nc(c(-c6c(F)cc(S(=O)(=O)[O-])cc6F)c6ccc3[nH]6)C=C5)C=C4)cc2)CCC1
REMARK SMILES IDX 13 1 11 2 12 3 10 4 9 5 85 6 87 7 86 8 8 9 6 10 7 11 5 13
REMARK SMILES IDX 4 14 3 15 2 18 1 19 14 20 15 21 16 22 17 23 18 24 19 25
REMARK SMILES IDX 20 26 84 27 21 28 83 29 22 30 23 31 24 32 77 33 25 34 82 35
REMARK SMILES IDX 76 36 78 37 26 38 81 39 75 40 74 41 27 43 61 44 40 45 60 46
REMARK SMILES IDX 41 47 44 48 59 49 79 50 42 51 43 52 58 54 80 55 45 56 28 57
REMARK SMILES IDX 29 58 38 59 30 60 31 61 37 62 39 63 32 64 33 65 34 66 35 67
REMARK SMILES IDX 36 68 62 69 63 70 72 71 64 72 65 73 71 74 73 75 66 76 67 77
REMARK SMILES IDX 68 78 69 79 70 80 46 81 47 82 56 83 48 84 49 85 55 86 57 87
REMARK SMILES IDX 50 88 51 89 52 90 53 91 54 92
REMARK H PARENT 8 12 3 16 3 17 78 42 44 53
REMARK Flexibility Score: inf
ROOT
ATOM      1  O   UNL A   1      35.788  33.286  29.978  1.00  0.00    -0.462 OA
ENDROOT
BRANCH   1   2
ATOM      2  C   UNL A   1      37.103  32.969  30.020  1.00  0.00     0.308 C 
ATOM      3  O   UNL A   1      37.863  33.037  29.061  1.00  0.00    -0.252 OA
BRANCH   2   4
ATOM      4  C   UNL A   1      37.554  32.407  31.330  1.00  0.00     0.151 C 
BRANCH   4   5
ATOM      5  C   UNL A   1      38.031  33.313  32.479  1.00  0.00     0.050 C 
ATOM      6  C   UNL A   1      38.287  34.687  31.827  1.00  0.00     0.029 C 
ATOM      7  C   UNL A   1      39.539  33.318  32.889  1.00  0.00     0.029 C 
ATOM      8  C   UNL A   1      39.793  34.380  31.814  1.00  0.00     0.005 C 
BRANCH   5   9
ATOM      9  N   UNL A   1      37.179  33.205  33.695  1.00  0.00    -0.350 N 
ATOM     10  C   UNL A   1      35.876  33.464  34.016  1.00  0.00     0.226 C 
ATOM     11  O   UNL A   1      35.589  33.527  35.216  1.00  0.00    -0.275 OA
ATOM     12  H   UNL A   1      37.684  32.859  34.466  1.00  0.00     0.164 HD
BRANCH  10  13
ATOM     13  C   UNL A   1      34.775  33.652  32.997  1.00  0.00     0.161 C 
BRANCH  13  14
ATOM     14  C   UNL A   1      34.564  35.120  32.577  1.00  0.00     0.270 C 
BRANCH  14  15
ATOM     15  N   UNL A   1      33.936  36.031  33.549  1.00  0.00    -0.346 N 
ATOM     16  H   UNL A   1      33.564  35.472  34.316  1.00  0.00     0.346 HD
ATOM     17  H   UNL A   1      34.662  36.683  33.848  1.00  0.00     0.346 HD
BRANCH  15  18
ATOM     18  C   UNL A   1      32.848  36.839  32.999  1.00  0.00     0.257 C 
ATOM     19  C   UNL A   1      31.661  35.966  32.599  1.00  0.00     0.071 C 
ENDBRANCH  15  18
ENDBRANCH  14  15
ENDBRANCH  13  14
ENDBRANCH  10  13
ENDBRANCH   5   9
ENDBRANCH   4   5
ENDBRANCH   2   4
ENDBRANCH   1   2
BRANCH   1  20
ATOM     20  C   UNL A   1      35.288  33.644  28.675  1.00  0.00     0.274 C 
BRANCH  20  21
ATOM     21  C   UNL A   1      34.422  32.543  28.056  1.00  0.00     0.275 C 
BRANCH  21  22
ATOM     22  O   UNL A   1      34.316  31.372  28.889  1.00  0.00    -0.458 OA
BRANCH  22  23
ATOM     23  C   UNL A   1      34.520  30.203  28.236  1.00  0.00     0.338 C 
ATOM     24  O   UNL A   1      33.707  29.607  27.549  1.00  0.00    -0.246 OA
BRANCH  23  25
ATOM     25  C   UNL A   1      35.933  29.802  28.312  1.00  0.00     0.060 A 
ATOM     26  C   UNL A   1      36.415  29.328  29.534  1.00  0.00     0.016 A 
ATOM     27  C   UNL A   1      36.800  29.995  27.239  1.00  0.00     0.016 A 
ATOM     28  C   UNL A   1      37.766  29.044  29.696  1.00  0.00     0.010 A 
ATOM     29  C   UNL A   1      38.158  29.691  27.397  1.00  0.00     0.010 A 
ATOM     30  C   UNL A   1      38.650  29.216  28.627  1.00  0.00    -0.014 A 
BRANCH  30  31
ATOM     31  C   UNL A   1      40.091  28.911  28.803  1.00  0.00     0.031 A 
ATOM     32  C   UNL A   1      41.032  29.975  29.285  1.00  0.00     0.074 A 
ATOM     33  C   UNL A   1      40.550  27.672  28.535  1.00  0.00     0.049 A 
ATOM     34  N   UNL A   1      42.339  29.961  29.332  1.00  0.00    -0.248 NA
ATOM     35  C   UNL A   1      40.423  31.222  29.774  1.00  0.00     0.031 C 
ATOM     36  C   UNL A   1      39.725  26.535  28.122  1.00  0.00     0.029 A 
ATOM     37  N   UNL A   1      41.824  27.166  28.563  1.00  0.00    -0.354 N 
ATOM     38  C   UNL A   1      42.715  31.210  29.811  1.00  0.00     0.074 A 
ATOM     39  C   UNL A   1      41.495  31.955  30.048  1.00  0.00     0.031 C 
ATOM     40  C   UNL A   1      40.513  25.465  27.937  1.00  0.00     0.029 A 
ATOM     41  C   UNL A   1      41.902  25.857  28.150  1.00  0.00     0.049 A 
ATOM     42  H   UNL A   1      42.607  27.689  28.850  1.00  0.00     0.167 HD
ATOM     43  C   UNL A   1      43.963  31.688  30.025  1.00  0.00     0.037 A 
ATOM     44  C   UNL A   1      42.975  25.074  27.923  1.00  0.00     0.037 A 
ATOM     45  C   UNL A   1      45.168  30.927  29.817  1.00  0.00     0.049 A 
ATOM     46  C   UNL A   1      44.353  25.640  28.128  1.00  0.00     0.074 A 
ATOM     47  C   UNL A   1      46.481  31.320  30.006  1.00  0.00     0.029 A 
ATOM     48  N   UNL A   1      45.206  29.609  29.383  1.00  0.00    -0.354 N 
ATOM     49  N   UNL A   1      44.697  26.840  28.529  1.00  0.00    -0.248 NA
ATOM     50  C   UNL A   1      45.485  24.752  27.834  1.00  0.00     0.031 C 
ATOM     51  C   UNL A   1      47.314  30.250  29.660  1.00  0.00     0.029 A 
ATOM     52  C   UNL A   1      46.519  29.178  29.288  1.00  0.00     0.049 A 
ATOM     53  H   UNL A   1      44.415  29.061  29.172  1.00  0.00     0.167 HD
ATOM     54  C   UNL A   1      46.087  26.849  28.546  1.00  0.00     0.074 A 
ATOM     55  C   UNL A   1      46.518  25.531  28.129  1.00  0.00     0.031 C 
ATOM     56  C   UNL A   1      46.928  27.860  28.875  1.00  0.00     0.037 A 
BRANCH  43  57
ATOM     57  C   UNL A   1      44.092  33.118  30.470  1.00  0.00     0.058 A 
ATOM     58  C   UNL A   1      44.056  33.482  31.824  1.00  0.00     0.135 A 
ATOM     59  C   UNL A   1      44.282  34.137  29.521  1.00  0.00     0.135 A 
ATOM     60  F   UNL A   1      43.860  32.549  32.769  1.00  0.00    -0.206 F 
ATOM     61  C   UNL A   1      44.183  34.810  32.222  1.00  0.00     0.059 A 
ATOM     62  C   UNL A   1      44.433  35.467  29.898  1.00  0.00     0.059 A 
ATOM     63  F   UNL A   1      44.323  33.842  28.212  1.00  0.00    -0.206 F 
ATOM     64  C   UNL A   1      44.367  35.796  31.250  1.00  0.00     0.060 A 
BRANCH  64  65
ATOM     65  S   UNL A   1      44.534  37.515  31.778  1.00  0.00     0.124 S 
ATOM     66  O   UNL A   1      43.831  37.497  33.057  1.00  0.00    -0.237 OA
ATOM     67  O   UNL A   1      45.981  37.685  31.852  1.00  0.00    -0.237 OA
ATOM     68  O   UNL A   1      43.874  38.262  30.711  1.00  0.00    -0.744 OA
ENDBRANCH  64  65
ENDBRANCH  43  57
BRANCH  44  69
ATOM     69  C   UNL A   1      42.782  23.685  27.434  1.00  0.00     0.058 A 
ATOM     70  C   UNL A   1      42.897  23.376  26.072  1.00  0.00     0.135 A 
ATOM     71  C   UNL A   1      42.509  22.635  28.324  1.00  0.00     0.135 A 
ATOM     72  F   UNL A   1      43.147  24.350  25.182  1.00  0.00    -0.206 F 
ATOM     73  C   UNL A   1      42.744  22.075  25.605  1.00  0.00     0.059 A 
ATOM     74  C   UNL A   1      42.375  21.322  27.885  1.00  0.00     0.059 A 
ATOM     75  F   UNL A   1      42.401  22.878  29.639  1.00  0.00    -0.206 F 
ATOM     76  C   UNL A   1      42.487  21.053  26.522  1.00  0.00     0.060 A 
BRANCH  76  77
ATOM     77  S   UNL A   1      42.356  19.355  25.920  1.00  0.00     0.124 S 
ATOM     78  O   UNL A   1      42.926  18.605  27.033  1.00  0.00    -0.237 OA
ATOM     79  O   UNL A   1      40.917  19.206  25.722  1.00  0.00    -0.237 OA
ATOM     80  O   UNL A   1      43.151  19.373  24.696  1.00  0.00    -0.744 OA
ENDBRANCH  76  77
ENDBRANCH  44  69
BRANCH  56  81
ATOM     81  C   UNL A   1      48.400  27.567  28.826  1.00  0.00     0.058 A 
ATOM     82  C   UNL A   1      49.089  27.082  29.947  1.00  0.00     0.135 A 
ATOM     83  C   UNL A   1      49.118  27.736  27.632  1.00  0.00     0.135 A 
ATOM     84  F   UNL A   1      48.448  26.912  31.114  1.00  0.00    -0.206 F 
ATOM     85  C   UNL A   1      50.449  26.788  29.891  1.00  0.00     0.059 A 
ATOM     86  C   UNL A   1      50.473  27.430  27.548  1.00  0.00     0.059 A 
ATOM     87  F   UNL A   1      48.502  28.192  26.531  1.00  0.00    -0.206 F 
ATOM     88  C   UNL A   1      51.132  26.967  28.687  1.00  0.00     0.060 A 
BRANCH  88  89
ATOM     89  S   UNL A   1      52.888  26.554  28.613  1.00  0.00     0.124 S 
ATOM     90  O   UNL A   1      53.487  27.861  28.368  1.00  0.00    -0.237 OA
ATOM     91  O   UNL A   1      53.134  25.981  29.933  1.00  0.00    -0.237 OA
ATOM     92  O   UNL A   1      52.967  25.607  27.503  1.00  0.00    -0.744 OA
ENDBRANCH  88  89
ENDBRANCH  56  81
ENDBRANCH  30  31
ENDBRANCH  23  25
ENDBRANCH  22  23
ENDBRANCH  21  22
ENDBRANCH  20  21
ENDBRANCH   1  20
TORSDOF 20
ENDMDL
