MODEL 1
REMARK VINA RESULT:      -9.9      0.000      0.000
REMARK SMILES C[C@@H]1CC(=O)N(CC(C)(C)C(=O)OCCOC(=O)c2ccc(-c3c4nc(c(-c5c(F)cc(S(=O)(=O)[O-])cc5F)c5ccc([nH]5)c(-c5c(F)cc(S(=O)(=O)[O-])cc5F)c5nc(c(-c6c(F)cc(S(=O)(=O)[O-])cc6F)c6ccc3[nH]6)C=C5)C=C4)cc2)C1
REMARK SMILES IDX 15 1 14 2 13 3 11 4 12 5 8 6 9 7 10 8 7 9 6 10 1 11 2 12
REMARK SMILES IDX 3 13 85 14 4 15 5 16 16 17 17 18 18 19 19 20 20 21 84 22
REMARK SMILES IDX 21 23 83 24 22 25 23 26 24 27 77 28 25 29 82 30 76 31 78 32
REMARK SMILES IDX 26 33 81 34 75 35 74 36 27 38 61 39 40 40 60 41 41 42 44 43
REMARK SMILES IDX 59 44 79 45 42 46 43 47 58 49 80 50 45 51 28 52 29 53 38 54
REMARK SMILES IDX 30 55 31 56 37 57 39 58 32 59 33 60 34 61 35 62 36 63 62 64
REMARK SMILES IDX 63 65 72 66 64 67 65 68 71 69 73 70 66 71 67 72 68 73 69 74
REMARK SMILES IDX 70 75 46 76 47 77 56 78 48 79 49 80 55 81 57 82 50 83 51 84
REMARK SMILES IDX 52 85 53 86 54 87
REMARK H PARENT 78 37 44 48
REMARK Flexibility Score: inf
ROOT
ATOM      1  C   UNL A   1      33.295  33.373  28.077  1.00  0.00     0.275 C 
ENDROOT
BRANCH   1   2
ATOM      2  C   UNL A   1      33.538  34.752  28.693  1.00  0.00     0.274 C 
BRANCH   2   3
ATOM      3  O   UNL A   1      32.677  34.968  29.827  1.00  0.00    -0.462 OA
BRANCH   3   4
ATOM      4  C   UNL A   1      32.902  36.108  30.535  1.00  0.00     0.313 C 
ATOM      5  O   UNL A   1      33.206  37.177  30.011  1.00  0.00    -0.252 OA
BRANCH   4   6
ATOM      6  C   UNL A   1      32.904  35.887  32.056  1.00  0.00     0.080 C 
ATOM      7  C   UNL A   1      31.440  36.052  32.501  1.00  0.00     0.025 C 
ATOM      8  C   UNL A   1      33.728  36.951  32.810  1.00  0.00     0.025 C 
BRANCH   6   9
ATOM      9  C   UNL A   1      33.448  34.484  32.455  1.00  0.00     0.137 C 
BRANCH   9  10
ATOM     10  N   UNL A   1      34.806  34.438  32.964  1.00  0.00    -0.341 N 
ATOM     11  C   UNL A   1      37.276  33.811  35.622  1.00  0.00     0.010 C 
ATOM     12  C   UNL A   1      36.424  33.633  34.385  1.00  0.00     0.015 C 
ATOM     13  C   UNL A   1      37.113  34.057  33.087  1.00  0.00     0.105 C 
ATOM     14  C   UNL A   1      35.151  34.466  34.364  1.00  0.00     0.123 C 
ATOM     15  C   UNL A   1      35.929  34.227  32.172  1.00  0.00     0.222 C 
ATOM     16  O   UNL A   1      35.963  34.170  30.953  1.00  0.00    -0.275 OA
ENDBRANCH   9  10
ENDBRANCH   6   9
ENDBRANCH   4   6
ENDBRANCH   3   4
ENDBRANCH   2   3
ENDBRANCH   1   2
BRANCH   1  17
ATOM     17  O   UNL A   1      34.518  32.796  27.584  1.00  0.00    -0.458 OA
BRANCH  17  18
ATOM     18  C   UNL A   1      34.588  31.445  27.694  1.00  0.00     0.338 C 
ATOM     19  O   UNL A   1      33.778  30.638  27.262  1.00  0.00    -0.246 OA
BRANCH  18  20
ATOM     20  C   UNL A   1      35.882  31.041  28.280  1.00  0.00     0.060 A 
ATOM     21  C   UNL A   1      35.950  29.763  28.843  1.00  0.00     0.016 A 
ATOM     22  C   UNL A   1      37.007  31.869  28.289  1.00  0.00     0.016 A 
ATOM     23  C   UNL A   1      37.156  29.269  29.331  1.00  0.00     0.010 A 
ATOM     24  C   UNL A   1      38.210  31.391  28.835  1.00  0.00     0.010 A 
ATOM     25  C   UNL A   1      38.295  30.082  29.336  1.00  0.00    -0.014 A 
BRANCH  25  26
ATOM     26  C   UNL A   1      39.525  29.562  29.981  1.00  0.00     0.031 A 
ATOM     27  C   UNL A   1      39.957  30.158  31.288  1.00  0.00     0.074 A 
ATOM     28  C   UNL A   1      40.194  28.515  29.463  1.00  0.00     0.049 A 
ATOM     29  N   UNL A   1      40.970  29.839  32.049  1.00  0.00    -0.248 NA
ATOM     30  C   UNL A   1      39.127  31.255  31.812  1.00  0.00     0.031 C 
ATOM     31  C   UNL A   1      39.830  27.806  28.238  1.00  0.00     0.029 A 
ATOM     32  N   UNL A   1      41.315  27.858  29.909  1.00  0.00    -0.354 N 
ATOM     33  C   UNL A   1      40.897  30.686  33.147  1.00  0.00     0.074 A 
ATOM     34  C   UNL A   1      39.750  31.546  32.943  1.00  0.00     0.031 C 
ATOM     35  C   UNL A   1      40.713  26.814  28.027  1.00  0.00     0.029 A 
ATOM     36  C   UNL A   1      41.726  26.839  29.083  1.00  0.00     0.049 A 
ATOM     37  H   UNL A   1      41.780  28.096  30.743  1.00  0.00     0.167 HD
ATOM     38  C   UNL A   1      41.713  30.744  34.226  1.00  0.00     0.037 A 
ATOM     39  C   UNL A   1      42.807  26.035  29.159  1.00  0.00     0.037 A 
ATOM     40  C   UNL A   1      42.873  29.910  34.409  1.00  0.00     0.049 A 
ATOM     41  C   UNL A   1      43.759  26.191  30.320  1.00  0.00     0.074 A 
ATOM     42  C   UNL A   1      43.777  29.915  35.457  1.00  0.00     0.029 A 
ATOM     43  N   UNL A   1      43.300  28.936  33.518  1.00  0.00    -0.354 N 
ATOM     44  N   UNL A   1      43.680  26.996  31.355  1.00  0.00    -0.248 NA
ATOM     45  C   UNL A   1      44.952  25.331  30.324  1.00  0.00     0.031 C 
ATOM     46  C   UNL A   1      44.780  28.981  35.174  1.00  0.00     0.029 A 
ATOM     47  C   UNL A   1      44.469  28.352  33.979  1.00  0.00     0.049 A 
ATOM     48  H   UNL A   1      42.841  28.696  32.682  1.00  0.00     0.167 HD
ATOM     49  C   UNL A   1      44.796  26.720  32.141  1.00  0.00     0.074 A 
ATOM     50  C   UNL A   1      45.523  25.661  31.474  1.00  0.00     0.031 C 
ATOM     51  C   UNL A   1      45.186  27.295  33.306  1.00  0.00     0.037 A 
BRANCH  38  52
ATOM     52  C   UNL A   1      41.401  31.781  35.266  1.00  0.00     0.058 A 
ATOM     53  C   UNL A   1      42.057  33.021  35.295  1.00  0.00     0.135 A 
ATOM     54  C   UNL A   1      40.422  31.534  36.242  1.00  0.00     0.135 A 
ATOM     55  F   UNL A   1      43.020  33.298  34.400  1.00  0.00    -0.206 F 
ATOM     56  C   UNL A   1      41.768  33.973  36.267  1.00  0.00     0.059 A 
ATOM     57  C   UNL A   1      40.097  32.481  37.207  1.00  0.00     0.059 A 
ATOM     58  F   UNL A   1      39.771  30.360  36.264  1.00  0.00    -0.206 F 
ATOM     59  C   UNL A   1      40.785  33.693  37.218  1.00  0.00     0.060 A 
BRANCH  59  60
ATOM     60  S   UNL A   1      40.415  34.942  38.467  1.00  0.00     0.124 S 
ATOM     61  O   UNL A   1      39.987  34.113  39.591  1.00  0.00    -0.237 OA
ATOM     62  O   UNL A   1      41.702  35.611  38.629  1.00  0.00    -0.237 OA
ATOM     63  O   UNL A   1      39.367  35.745  37.847  1.00  0.00    -0.744 OA
ENDBRANCH  59  60
ENDBRANCH  38  52
BRANCH  39  64
ATOM     64  C   UNL A   1      43.083  25.031  28.092  1.00  0.00     0.058 A 
ATOM     65  C   UNL A   1      42.726  23.683  28.245  1.00  0.00     0.135 A 
ATOM     66  C   UNL A   1      43.755  25.394  26.913  1.00  0.00     0.135 A 
ATOM     67  F   UNL A   1      42.097  23.278  29.359  1.00  0.00    -0.206 F 
ATOM     68  C   UNL A   1      43.042  22.728  27.283  1.00  0.00     0.059 A 
ATOM     69  C   UNL A   1      44.057  24.463  25.923  1.00  0.00     0.059 A 
ATOM     70  F   UNL A   1      44.122  26.669  26.713  1.00  0.00    -0.206 F 
ATOM     71  C   UNL A   1      43.707  23.129  26.123  1.00  0.00     0.060 A 
BRANCH  71  72
ATOM     72  S   UNL A   1      44.083  21.890  24.864  1.00  0.00     0.124 S 
ATOM     73  O   UNL A   1      45.497  21.634  25.113  1.00  0.00    -0.237 OA
ATOM     74  O   UNL A   1      43.167  20.809  25.216  1.00  0.00    -0.237 OA
ATOM     75  O   UNL A   1      43.777  22.578  23.613  1.00  0.00    -0.744 OA
ENDBRANCH  71  72
ENDBRANCH  39  64
BRANCH  51  76
ATOM     76  C   UNL A   1      46.438  26.767  33.956  1.00  0.00     0.058 A 
ATOM     77  C   UNL A   1      47.701  27.328  33.701  1.00  0.00     0.135 A 
ATOM     78  C   UNL A   1      46.373  25.699  34.867  1.00  0.00     0.135 A 
ATOM     79  F   UNL A   1      47.825  28.349  32.839  1.00  0.00    -0.206 F 
ATOM     80  C   UNL A   1      48.856  26.824  34.294  1.00  0.00     0.059 A 
ATOM     81  C   UNL A   1      47.510  25.200  35.495  1.00  0.00     0.059 A 
ATOM     82  F   UNL A   1      45.191  25.132  35.160  1.00  0.00    -0.206 F 
ATOM     83  C   UNL A   1      48.750  25.757  35.188  1.00  0.00     0.060 A 
BRANCH  83  84
ATOM     84  S   UNL A   1      50.254  25.113  35.951  1.00  0.00     0.124 S 
ATOM     85  O   UNL A   1      49.731  24.517  37.176  1.00  0.00    -0.237 OA
ATOM     86  O   UNL A   1      50.738  24.172  34.944  1.00  0.00    -0.237 OA
ATOM     87  O   UNL A   1      51.079  26.303  36.135  1.00  0.00    -0.744 OA
ENDBRANCH  83  84
ENDBRANCH  51  76
ENDBRANCH  25  26
ENDBRANCH  18  20
ENDBRANCH  17  18
ENDBRANCH   1  17
TORSDOF 16
ENDMDL
MODEL 2
REMARK VINA RESULT:      -9.8      5.454      7.544
REMARK SMILES C[C@@H]1CC(=O)N(CC(C)(C)C(=O)OCCOC(=O)c2ccc(-c3c4nc(c(-c5c(F)cc(S(=O)(=O)[O-])cc5F)c5ccc([nH]5)c(-c5c(F)cc(S(=O)(=O)[O-])cc5F)c5nc(c(-c6c(F)cc(S(=O)(=O)[O-])cc6F)c6ccc3[nH]6)C=C5)C=C4)cc2)C1
REMARK SMILES IDX 15 1 14 2 13 3 11 4 12 5 8 6 9 7 10 8 7 9 6 10 1 11 2 12
REMARK SMILES IDX 3 13 85 14 4 15 5 16 16 17 17 18 18 19 19 20 20 21 84 22
REMARK SMILES IDX 21 23 83 24 22 25 23 26 24 27 77 28 25 29 82 30 76 31 78 32
REMARK SMILES IDX 26 33 81 34 75 35 74 36 27 38 61 39 40 40 60 41 41 42 44 43
REMARK SMILES IDX 59 44 79 45 42 46 43 47 58 49 80 50 45 51 28 52 29 53 38 54
REMARK SMILES IDX 30 55 31 56 37 57 39 58 32 59 33 60 34 61 35 62 36 63 62 64
REMARK SMILES IDX 63 65 72 66 64 67 65 68 71 69 73 70 66 71 67 72 68 73 69 74
REMARK SMILES IDX 70 75 46 76 47 77 56 78 48 79 49 80 55 81 57 82 50 83 51 84
REMARK SMILES IDX 52 85 53 86 54 87
REMARK H PARENT 78 37 44 48
REMARK Flexibility Score: inf
ROOT
ATOM      1  C   UNL A   1      34.911  32.308  29.694  1.00  0.00     0.275 C 
ENDROOT
BRANCH   1   2
ATOM      2  C   UNL A   1      34.899  32.348  28.165  1.00  0.00     0.274 C 
BRANCH   2   3
ATOM      3  O   UNL A   1      33.679  31.786  27.645  1.00  0.00    -0.462 OA
BRANCH   3   4
ATOM      4  C   UNL A   1      33.754  30.496  27.219  1.00  0.00     0.313 C 
ATOM      5  O   UNL A   1      34.783  29.827  27.275  1.00  0.00    -0.252 OA
BRANCH   4   6
ATOM      6  C   UNL A   1      32.477  30.016  26.511  1.00  0.00     0.080 C 
ATOM      7  C   UNL A   1      31.527  31.226  26.504  1.00  0.00     0.025 C 
ATOM      8  C   UNL A   1      31.762  28.884  27.277  1.00  0.00     0.025 C 
BRANCH   6   9
ATOM      9  C   UNL A   1      32.748  29.519  25.061  1.00  0.00     0.137 C 
BRANCH   9  10
ATOM     10  N   UNL A   1      31.845  28.508  24.544  1.00  0.00    -0.341 N 
ATOM     11  C   UNL A   1      30.491  25.085  24.441  1.00  0.00     0.010 C 
ATOM     12  C   UNL A   1      30.639  26.561  24.739  1.00  0.00     0.015 C 
ATOM     13  C   UNL A   1      29.897  27.472  23.760  1.00  0.00     0.105 C 
ATOM     14  C   UNL A   1      32.063  27.088  24.656  1.00  0.00     0.123 C 
ATOM     15  C   UNL A   1      30.596  28.785  23.998  1.00  0.00     0.222 C 
ATOM     16  O   UNL A   1      30.129  29.887  23.763  1.00  0.00    -0.275 OA
ENDBRANCH   9  10
ENDBRANCH   6   9
ENDBRANCH   4   6
ENDBRANCH   3   4
ENDBRANCH   2   3
ENDBRANCH   1   2
BRANCH   1  17
ATOM     17  O   UNL A   1      36.253  32.350  30.209  1.00  0.00    -0.458 OA
BRANCH  17  18
ATOM     18  C   UNL A   1      36.652  31.214  30.837  1.00  0.00     0.338 C 
ATOM     19  O   UNL A   1      36.021  30.587  31.673  1.00  0.00    -0.246 OA
BRANCH  18  20
ATOM     20  C   UNL A   1      37.919  30.722  30.257  1.00  0.00     0.060 A 
ATOM     21  C   UNL A   1      38.952  30.430  31.151  1.00  0.00     0.016 A 
ATOM     22  C   UNL A   1      38.110  30.543  28.885  1.00  0.00     0.016 A 
ATOM     23  C   UNL A   1      40.144  29.873  30.697  1.00  0.00     0.010 A 
ATOM     24  C   UNL A   1      39.334  30.035  28.421  1.00  0.00     0.010 A 
ATOM     25  C   UNL A   1      40.347  29.676  29.326  1.00  0.00    -0.014 A 
BRANCH  25  26
ATOM     26  C   UNL A   1      41.676  29.200  28.875  1.00  0.00     0.031 A 
ATOM     27  C   UNL A   1      42.827  30.161  28.891  1.00  0.00     0.074 A 
ATOM     28  C   UNL A   1      41.880  27.910  28.547  1.00  0.00     0.049 A 
ATOM     29  N   UNL A   1      44.080  29.959  28.581  1.00  0.00    -0.248 NA
ATOM     30  C   UNL A   1      42.525  31.534  29.329  1.00  0.00     0.031 C 
ATOM     31  C   UNL A   1      40.857  26.866  28.562  1.00  0.00     0.029 A 
ATOM     32  N   UNL A   1      43.020  27.256  28.147  1.00  0.00    -0.354 N 
ATOM     33  C   UNL A   1      44.721  31.174  28.793  1.00  0.00     0.074 A 
ATOM     34  C   UNL A   1      43.713  32.112  29.241  1.00  0.00     0.031 C 
ATOM     35  C   UNL A   1      41.415  25.702  28.184  1.00  0.00     0.029 A 
ATOM     36  C   UNL A   1      42.826  25.924  27.867  1.00  0.00     0.049 A 
ATOM     37  H   UNL A   1      43.894  27.701  28.068  1.00  0.00     0.167 HD
ATOM     38  C   UNL A   1      46.029  31.479  28.627  1.00  0.00     0.037 A 
ATOM     39  C   UNL A   1      43.682  24.998  27.388  1.00  0.00     0.037 A 
ATOM     40  C   UNL A   1      47.022  30.553  28.148  1.00  0.00     0.049 A 
ATOM     41  C   UNL A   1      45.113  25.393  27.112  1.00  0.00     0.074 A 
ATOM     42  C   UNL A   1      48.369  30.779  27.920  1.00  0.00     0.029 A 
ATOM     43  N   UNL A   1      46.776  29.231  27.806  1.00  0.00    -0.354 N 
ATOM     44  N   UNL A   1      45.710  26.546  27.317  1.00  0.00    -0.248 NA
ATOM     45  C   UNL A   1      45.990  24.363  26.536  1.00  0.00     0.031 C 
ATOM     46  C   UNL A   1      48.926  29.610  27.391  1.00  0.00     0.029 A 
ATOM     47  C   UNL A   1      47.941  28.636  27.345  1.00  0.00     0.049 A 
ATOM     48  H   UNL A   1      45.904  28.782  27.880  1.00  0.00     0.167 HD
ATOM     49  C   UNL A   1      47.032  26.369  26.919  1.00  0.00     0.074 A 
ATOM     50  C   UNL A   1      47.154  24.994  26.481  1.00  0.00     0.031 C 
ATOM     51  C   UNL A   1      48.052  27.264  26.912  1.00  0.00     0.037 A 
BRANCH  38  52
ATOM     52  C   UNL A   1      46.446  32.892  28.920  1.00  0.00     0.058 A 
ATOM     53  C   UNL A   1      46.412  33.893  27.937  1.00  0.00     0.135 A 
ATOM     54  C   UNL A   1      46.872  33.251  30.209  1.00  0.00     0.135 A 
ATOM     55  F   UNL A   1      46.036  33.596  26.682  1.00  0.00    -0.206 F 
ATOM     56  C   UNL A   1      46.807  35.197  28.215  1.00  0.00     0.059 A 
ATOM     57  C   UNL A   1      47.246  34.555  30.517  1.00  0.00     0.059 A 
ATOM     58  F   UNL A   1      46.931  32.330  31.183  1.00  0.00    -0.206 F 
ATOM     59  C   UNL A   1      47.221  35.518  29.509  1.00  0.00     0.060 A 
BRANCH  59  60
ATOM     60  S   UNL A   1      47.723  37.217  29.857  1.00  0.00     0.124 S 
ATOM     61  O   UNL A   1      47.148  37.929  28.719  1.00  0.00    -0.237 OA
ATOM     62  O   UNL A   1      47.090  37.469  31.147  1.00  0.00    -0.237 OA
ATOM     63  O   UNL A   1      49.180  37.144  29.879  1.00  0.00    -0.744 OA
ENDBRANCH  59  60
ENDBRANCH  38  52
BRANCH  39  64
ATOM     64  C   UNL A   1      43.217  23.612  27.097  1.00  0.00     0.058 A 
ATOM     65  C   UNL A   1      43.084  22.655  28.114  1.00  0.00     0.135 A 
ATOM     66  C   UNL A   1      42.942  23.203  25.781  1.00  0.00     0.135 A 
ATOM     67  F   UNL A   1      43.352  22.988  29.386  1.00  0.00    -0.206 F 
ATOM     68  C   UNL A   1      42.717  21.341  27.840  1.00  0.00     0.059 A 
ATOM     69  C   UNL A   1      42.545  21.902  25.485  1.00  0.00     0.059 A 
ATOM     70  F   UNL A   1      43.053  24.074  24.767  1.00  0.00    -0.206 F 
ATOM     71  C   UNL A   1      42.448  20.974  26.520  1.00  0.00     0.060 A 
BRANCH  71  72
ATOM     72  S   UNL A   1      41.938  19.275  26.177  1.00  0.00     0.124 S 
ATOM     73  O   UNL A   1      42.758  18.949  25.016  1.00  0.00    -0.237 OA
ATOM     74  O   UNL A   1      42.291  18.594  27.419  1.00  0.00    -0.237 OA
ATOM     75  O   UNL A   1      40.506  19.398  25.924  1.00  0.00    -0.744 OA
ENDBRANCH  71  72
ENDBRANCH  39  64
BRANCH  51  76
ATOM     76  C   UNL A   1      49.400  26.777  26.449  1.00  0.00     0.058 A 
ATOM     77  C   UNL A   1      49.843  26.962  25.129  1.00  0.00     0.135 A 
ATOM     78  C   UNL A   1      50.273  26.137  27.345  1.00  0.00     0.135 A 
ATOM     79  F   UNL A   1      49.052  27.566  24.228  1.00  0.00    -0.206 F 
ATOM     80  C   UNL A   1      51.085  26.496  24.705  1.00  0.00     0.059 A 
ATOM     81  C   UNL A   1      51.531  25.691  26.951  1.00  0.00     0.059 A 
ATOM     82  F   UNL A   1      49.908  25.945  28.623  1.00  0.00    -0.206 F 
ATOM     83  C   UNL A   1      51.921  25.858  25.623  1.00  0.00     0.060 A 
BRANCH  83  84
ATOM     84  S   UNL A   1      53.528  25.258  25.062  1.00  0.00     0.124 S 
ATOM     85  O   UNL A   1      53.421  23.829  25.336  1.00  0.00    -0.237 OA
ATOM     86  O   UNL A   1      53.529  25.635  23.652  1.00  0.00    -0.237 OA
ATOM     87  O   UNL A   1      54.476  25.988  25.899  1.00  0.00    -0.744 OA
ENDBRANCH  83  84
ENDBRANCH  51  76
ENDBRANCH  25  26
ENDBRANCH  18  20
ENDBRANCH  17  18
ENDBRANCH   1  17
TORSDOF 16
ENDMDL
MODEL 3
REMARK VINA RESULT:      -9.8      4.369     11.639
REMARK SMILES C[C@@H]1CC(=O)N(CC(C)(C)C(=O)OCCOC(=O)c2ccc(-c3c4nc(c(-c5c(F)cc(S(=O)(=O)[O-])cc5F)c5ccc([nH]5)c(-c5c(F)cc(S(=O)(=O)[O-])cc5F)c5nc(c(-c6c(F)cc(S(=O)(=O)[O-])cc6F)c6ccc3[nH]6)C=C5)C=C4)cc2)C1
REMARK SMILES IDX 15 1 14 2 13 3 11 4 12 5 8 6 9 7 10 8 7 9 6 10 1 11 2 12
REMARK SMILES IDX 3 13 85 14 4 15 5 16 16 17 17 18 18 19 19 20 20 21 84 22
REMARK SMILES IDX 21 23 83 24 22 25 23 26 24 27 77 28 25 29 82 30 76 31 78 32
REMARK SMILES IDX 26 33 81 34 75 35 74 36 27 38 61 39 40 40 60 41 41 42 44 43
REMARK SMILES IDX 59 44 79 45 42 46 43 47 58 49 80 50 45 51 28 52 29 53 38 54
REMARK SMILES IDX 30 55 31 56 37 57 39 58 32 59 33 60 34 61 35 62 36 63 62 64
REMARK SMILES IDX 63 65 72 66 64 67 65 68 71 69 73 70 66 71 67 72 68 73 69 74
REMARK SMILES IDX 70 75 46 76 47 77 56 78 48 79 49 80 55 81 57 82 50 83 51 84
REMARK SMILES IDX 52 85 53 86 54 87
REMARK H PARENT 78 37 44 48
REMARK Flexibility Score: inf
ROOT
ATOM      1  C   UNL A   1      41.212  22.286  26.158  1.00  0.00     0.275 C 
ENDROOT
BRANCH   1   2
ATOM      2  C   UNL A   1      39.768  21.906  26.486  1.00  0.00     0.274 C 
BRANCH   2   3
ATOM      3  O   UNL A   1      38.881  22.282  25.414  1.00  0.00    -0.462 OA
BRANCH   3   4
ATOM      4  C   UNL A   1      37.776  21.502  25.257  1.00  0.00     0.313 C 
ATOM      5  O   UNL A   1      37.830  20.299  25.018  1.00  0.00    -0.252 OA
BRANCH   4   6
ATOM      6  C   UNL A   1      36.465  22.306  25.242  1.00  0.00     0.080 C 
ATOM      7  C   UNL A   1      36.163  22.579  23.758  1.00  0.00     0.025 C 
ATOM      8  C   UNL A   1      36.601  23.677  25.936  1.00  0.00     0.025 C 
BRANCH   6   9
ATOM      9  C   UNL A   1      35.288  21.540  25.914  1.00  0.00     0.137 C 
BRANCH   9  10
ATOM     10  N   UNL A   1      34.396  20.818  25.026  1.00  0.00    -0.341 N 
ATOM     11  C   UNL A   1      32.969  17.717  23.646  1.00  0.00     0.010 C 
ATOM     12  C   UNL A   1      33.133  18.984  24.455  1.00  0.00     0.015 C 
ATOM     13  C   UNL A   1      32.479  20.215  23.825  1.00  0.00     0.105 C 
ATOM     14  C   UNL A   1      34.572  19.441  24.639  1.00  0.00     0.123 C 
ATOM     15  C   UNL A   1      33.192  21.326  24.548  1.00  0.00     0.222 C 
ATOM     16  O   UNL A   1      32.768  22.461  24.695  1.00  0.00    -0.275 OA
ENDBRANCH   9  10
ENDBRANCH   6   9
ENDBRANCH   4   6
ENDBRANCH   3   4
ENDBRANCH   2   3
ENDBRANCH   1   2
BRANCH   1  17
ATOM     17  O   UNL A   1      41.723  23.257  27.089  1.00  0.00    -0.458 OA
BRANCH  17  18
ATOM     18  C   UNL A   1      41.762  24.528  26.615  1.00  0.00     0.338 C 
ATOM     19  O   UNL A   1      41.917  24.864  25.451  1.00  0.00    -0.246 OA
BRANCH  18  20
ATOM     20  C   UNL A   1      41.428  25.489  27.686  1.00  0.00     0.060 A 
ATOM     21  C   UNL A   1      42.395  26.449  27.998  1.00  0.00     0.016 A 
ATOM     22  C   UNL A   1      40.214  25.471  28.376  1.00  0.00     0.016 A 
ATOM     23  C   UNL A   1      42.124  27.449  28.927  1.00  0.00     0.010 A 
ATOM     24  C   UNL A   1      39.963  26.445  29.356  1.00  0.00     0.010 A 
ATOM     25  C   UNL A   1      40.907  27.452  29.619  1.00  0.00    -0.014 A 
BRANCH  25  26
ATOM     26  C   UNL A   1      40.711  28.458  30.690  1.00  0.00     0.031 A 
ATOM     27  C   UNL A   1      41.609  28.413  31.890  1.00  0.00     0.074 A 
ATOM     28  C   UNL A   1      39.813  29.452  30.556  1.00  0.00     0.049 A 
ATOM     29  N   UNL A   1      41.648  29.209  32.926  1.00  0.00    -0.248 NA
ATOM     30  C   UNL A   1      42.606  27.330  31.920  1.00  0.00     0.031 C 
ATOM     31  C   UNL A   1      38.934  29.643  29.403  1.00  0.00     0.029 A 
ATOM     32  N   UNL A   1      39.500  30.495  31.392  1.00  0.00    -0.354 N 
ATOM     33  C   UNL A   1      42.677  28.732  33.728  1.00  0.00     0.074 A 
ATOM     34  C   UNL A   1      43.224  27.567  33.067  1.00  0.00     0.031 C 
ATOM     35  C   UNL A   1      38.178  30.736  29.607  1.00  0.00     0.029 A 
ATOM     36  C   UNL A   1      38.493  31.303  30.918  1.00  0.00     0.049 A 
ATOM     37  H   UNL A   1      39.955  30.651  32.251  1.00  0.00     0.167 HD
ATOM     38  C   UNL A   1      43.123  29.221  34.909  1.00  0.00     0.037 A 
ATOM     39  C   UNL A   1      37.881  32.362  31.488  1.00  0.00     0.037 A 
ATOM     40  C   UNL A   1      42.554  30.361  35.580  1.00  0.00     0.049 A 
ATOM     41  C   UNL A   1      38.330  32.823  32.854  1.00  0.00     0.074 A 
ATOM     42  C   UNL A   1      42.921  30.914  36.795  1.00  0.00     0.029 A 
ATOM     43  N   UNL A   1      41.488  31.112  35.106  1.00  0.00    -0.354 N 
ATOM     44  N   UNL A   1      39.306  32.365  33.605  1.00  0.00    -0.248 NA
ATOM     45  C   UNL A   1      37.592  33.943  33.455  1.00  0.00     0.031 C 
ATOM     46  C   UNL A   1      42.044  31.966  37.081  1.00  0.00     0.029 A 
ATOM     47  C   UNL A   1      41.168  32.107  36.016  1.00  0.00     0.049 A 
ATOM     48  H   UNL A   1      41.028  30.960  34.250  1.00  0.00     0.167 HD
ATOM     49  C   UNL A   1      39.312  33.157  34.750  1.00  0.00     0.074 A 
ATOM     50  C   UNL A   1      38.258  34.135  34.585  1.00  0.00     0.031 C 
ATOM     51  C   UNL A   1      40.115  33.079  35.841  1.00  0.00     0.037 A 
BRANCH  38  52
ATOM     52  C   UNL A   1      44.255  28.488  35.570  1.00  0.00     0.058 A 
ATOM     53  C   UNL A   1      44.028  27.434  36.469  1.00  0.00     0.135 A 
ATOM     54  C   UNL A   1      45.585  28.837  35.290  1.00  0.00     0.135 A 
ATOM     55  F   UNL A   1      42.774  27.078  36.792  1.00  0.00    -0.206 F 
ATOM     56  C   UNL A   1      45.081  26.766  37.084  1.00  0.00     0.059 A 
ATOM     57  C   UNL A   1      46.655  28.164  35.872  1.00  0.00     0.059 A 
ATOM     58  F   UNL A   1      45.856  29.843  34.444  1.00  0.00    -0.206 F 
ATOM     59  C   UNL A   1      46.391  27.138  36.777  1.00  0.00     0.060 A 
BRANCH  59  60
ATOM     60  S   UNL A   1      47.748  26.255  37.576  1.00  0.00     0.124 S 
ATOM     61  O   UNL A   1      48.624  25.977  36.441  1.00  0.00    -0.237 OA
ATOM     62  O   UNL A   1      48.242  27.242  38.530  1.00  0.00    -0.237 OA
ATOM     63  O   UNL A   1      47.096  25.089  38.164  1.00  0.00    -0.744 OA
ENDBRANCH  59  60
ENDBRANCH  38  52
BRANCH  39  64
ATOM     64  C   UNL A   1      36.751  33.047  30.798  1.00  0.00     0.058 A 
ATOM     65  C   UNL A   1      36.970  33.905  29.710  1.00  0.00     0.135 A 
ATOM     66  C   UNL A   1      35.429  32.895  31.249  1.00  0.00     0.135 A 
ATOM     67  F   UNL A   1      38.215  34.101  29.250  1.00  0.00    -0.206 F 
ATOM     68  C   UNL A   1      35.927  34.602  29.106  1.00  0.00     0.059 A 
ATOM     69  C   UNL A   1      34.366  33.557  30.643  1.00  0.00     0.059 A 
ATOM     70  F   UNL A   1      35.160  32.088  32.287  1.00  0.00    -0.206 F 
ATOM     71  C   UNL A   1      34.627  34.419  29.580  1.00  0.00     0.060 A 
BRANCH  71  72
ATOM     72  S   UNL A   1      33.274  35.301  28.768  1.00  0.00     0.124 S 
ATOM     73  O   UNL A   1      33.997  36.293  27.982  1.00  0.00    -0.237 OA
ATOM     74  O   UNL A   1      32.626  34.234  28.011  1.00  0.00    -0.237 OA
ATOM     75  O   UNL A   1      32.496  35.826  29.886  1.00  0.00    -0.744 OA
ENDBRANCH  71  72
ENDBRANCH  39  64
BRANCH  51  76
ATOM     76  C   UNL A   1      39.909  34.101  36.929  1.00  0.00     0.058 A 
ATOM     77  C   UNL A   1      40.511  35.369  36.880  1.00  0.00     0.135 A 
ATOM     78  C   UNL A   1      39.079  33.816  38.026  1.00  0.00     0.135 A 
ATOM     79  F   UNL A   1      41.316  35.697  35.857  1.00  0.00    -0.206 F 
ATOM     80  C   UNL A   1      40.328  36.302  37.897  1.00  0.00     0.059 A 
ATOM     81  C   UNL A   1      38.856  34.745  39.038  1.00  0.00     0.059 A 
ATOM     82  F   UNL A   1      38.466  32.625  38.119  1.00  0.00    -0.206 F 
ATOM     83  C   UNL A   1      39.501  35.979  38.975  1.00  0.00     0.060 A 
BRANCH  83  84
ATOM     84  S   UNL A   1      39.271  37.197  40.287  1.00  0.00     0.124 S 
ATOM     85  O   UNL A   1      40.650  37.541  40.614  1.00  0.00    -0.237 OA
ATOM     86  O   UNL A   1      38.499  38.240  39.615  1.00  0.00    -0.237 OA
ATOM     87  O   UNL A   1      38.547  36.457  41.316  1.00  0.00    -0.744 OA
ENDBRANCH  83  84
ENDBRANCH  51  76
ENDBRANCH  25  26
ENDBRANCH  18  20
ENDBRANCH  17  18
ENDBRANCH   1  17
TORSDOF 16
ENDMDL
