MODEL 1
REMARK VINA RESULT:     -10.4      0.000      0.000
REMARK SMILES CCCCCCNC(=O)Oc1cccc(-c2ccc([C@@H](C)C(=O)OCCOC(=O)c3ccc(-c4c5nc(c(-c6c(F)cc(S(=O)(=O)[O-])cc6F)c6ccc([nH]6)c(-c6c(F)cc(S(=O)(=O)[O-])cc6F)c6nc(c(-c7c(F)cc(S(=O)(=O)[O-])cc7F)c7ccc4[nH]7)C=C6)C=C5)cc3)cc2N)c1
REMARK SMILES IDX 20 1 21 2 19 3 16 4 17 5 97 6 18 7 96 8 15 9 11 10 12 11
REMARK SMILES IDX 99 12 13 13 14 14 10 15 8 16 7 17 9 19 6 20 5 21 4 22 3 23
REMARK SMILES IDX 2 24 1 25 98 26 22 29 23 30 24 31 25 32 26 33 27 34 28 35
REMARK SMILES IDX 29 36 30 37 31 38 95 39 32 40 94 41 33 42 34 43 35 44 88 45
REMARK SMILES IDX 36 46 93 47 87 48 89 49 37 50 92 51 86 52 85 53 38 55 72 56
REMARK SMILES IDX 51 57 71 58 52 59 55 60 70 61 90 62 53 63 54 64 69 66 91 67
REMARK SMILES IDX 56 68 39 69 40 70 49 71 41 72 42 73 48 74 50 75 43 76 44 77
REMARK SMILES IDX 45 78 46 79 47 80 73 81 74 82 83 83 75 84 76 85 82 86 84 87
REMARK SMILES IDX 77 88 78 89 79 90 80 91 81 92 57 93 58 94 67 95 59 96 60 97
REMARK SMILES IDX 66 98 68 99 61 100 62 101 63 102 64 103 65 104
REMARK H PARENT 7 18 98 27 98 28 89 54 55 65
REMARK Flexibility Score: inf
ROOT
ATOM      1  C   UNL A   1      34.441  34.344  29.004  1.00  0.00     0.126 C 
ATOM      2  C   UNL A   1      33.736  35.613  28.527  1.00  0.00     0.025 C 
ENDROOT
BRANCH   1   3
ATOM      3  C   UNL A   1      33.922  33.097  28.307  1.00  0.00    -0.032 A 
ATOM      4  C   UNL A   1      33.047  30.755  26.946  1.00  0.00     0.005 A 
ATOM      5  C   UNL A   1      32.205  31.873  27.108  1.00  0.00     0.011 A 
ATOM      6  C   UNL A   1      34.341  30.803  27.510  1.00  0.00     0.040 A 
ATOM      7  C   UNL A   1      32.634  33.025  27.770  1.00  0.00     0.005 A 
ATOM      8  C   UNL A   1      34.761  31.979  28.157  1.00  0.00     0.030 A 
BRANCH   4   9
ATOM      9  C   UNL A   1      32.544  29.594  26.182  1.00  0.00    -0.013 A 
ATOM     10  C   UNL A   1      31.336  27.496  26.039  1.00  0.00     0.133 A 
ATOM     11  C   UNL A   1      31.659  27.369  24.690  1.00  0.00     0.047 A 
ATOM     12  C   UNL A   1      31.767  28.593  26.787  1.00  0.00     0.056 A 
ATOM     13  C   UNL A   1      32.408  28.364  24.072  1.00  0.00     0.004 A 
ATOM     14  C   UNL A   1      32.850  29.462  24.814  1.00  0.00     0.009 A 
BRANCH  10  15
ATOM     15  O   UNL A   1      30.693  26.401  26.640  1.00  0.00    -0.410 OA
BRANCH  15  16
ATOM     16  C   UNL A   1      29.968  25.537  25.832  1.00  0.00     0.412 C 
ATOM     17  N   UNL A   1      30.411  24.244  25.902  1.00  0.00    -0.321 N 
ATOM     18  H   UNL A   1      29.922  23.583  25.361  1.00  0.00     0.167 HD
ATOM     19  O   UNL A   1      29.040  25.847  25.097  1.00  0.00    -0.224 OA
BRANCH  17  20
ATOM     20  C   UNL A   1      31.522  23.742  26.687  1.00  0.00     0.119 C 
BRANCH  20  21
ATOM     21  C   UNL A   1      32.692  23.285  25.818  1.00  0.00     0.021 C 
BRANCH  21  22
ATOM     22  C   UNL A   1      33.935  24.181  25.877  1.00  0.00     0.002 C 
BRANCH  22  23
ATOM     23  C   UNL A   1      34.374  24.800  24.545  1.00  0.00    -0.000 C 
BRANCH  23  24
ATOM     24  C   UNL A   1      34.673  23.804  23.421  1.00  0.00    -0.003 C 
ATOM     25  C   UNL A   1      36.027  23.127  23.560  1.00  0.00     0.004 C 
ENDBRANCH  23  24
ENDBRANCH  22  23
ENDBRANCH  21  22
ENDBRANCH  20  21
ENDBRANCH  17  20
ENDBRANCH  15  16
ENDBRANCH  10  15
ENDBRANCH   4   9
BRANCH   6  26
ATOM     26  N   UNL A   1      35.288  29.798  27.305  1.00  0.00    -0.398 N 
ATOM     27  H   UNL A   1      35.000  28.901  27.017  1.00  0.00     0.156 HD
ATOM     28  H   UNL A   1      36.244  29.985  27.448  1.00  0.00     0.156 HD
ENDBRANCH   6  26
ENDBRANCH   1   3
BRANCH   1  29
ATOM     29  C   UNL A   1      34.460  34.306  30.528  1.00  0.00     0.313 C 
ATOM     30  O   UNL A   1      33.523  34.728  31.201  1.00  0.00    -0.252 OA
BRANCH  29  31
ATOM     31  O   UNL A   1      35.567  33.719  31.051  1.00  0.00    -0.462 OA
BRANCH  31  32
ATOM     32  C   UNL A   1      35.352  32.667  32.011  1.00  0.00     0.274 C 
BRANCH  32  33
ATOM     33  C   UNL A   1      36.674  32.030  32.444  1.00  0.00     0.275 C 
BRANCH  33  34
ATOM     34  O   UNL A   1      36.577  30.595  32.475  1.00  0.00    -0.458 OA
BRANCH  34  35
ATOM     35  C   UNL A   1      36.602  29.997  31.260  1.00  0.00     0.338 C 
ATOM     36  O   UNL A   1      35.650  29.722  30.552  1.00  0.00    -0.246 OA
BRANCH  35  37
ATOM     37  C   UNL A   1      37.994  29.811  30.832  1.00  0.00     0.060 A 
ATOM     38  C   UNL A   1      38.322  30.118  29.510  1.00  0.00     0.016 A 
ATOM     39  C   UNL A   1      38.943  29.251  31.688  1.00  0.00     0.016 A 
ATOM     40  C   UNL A   1      39.598  29.850  29.026  1.00  0.00     0.010 A 
ATOM     41  C   UNL A   1      40.229  28.990  31.204  1.00  0.00     0.010 A 
ATOM     42  C   UNL A   1      40.558  29.271  29.866  1.00  0.00    -0.014 A 
BRANCH  42  43
ATOM     43  C   UNL A   1      41.889  28.913  29.318  1.00  0.00     0.031 A 
ATOM     44  C   UNL A   1      42.987  29.938  29.292  1.00  0.00     0.074 A 
ATOM     45  C   UNL A   1      42.116  27.662  28.876  1.00  0.00     0.049 A 
ATOM     46  N   UNL A   1      44.198  29.841  28.809  1.00  0.00    -0.248 NA
ATOM     47  C   UNL A   1      42.681  31.248  29.891  1.00  0.00     0.031 C 
ATOM     48  C   UNL A   1      41.138  26.574  28.886  1.00  0.00     0.029 A 
ATOM     49  N   UNL A   1      43.241  27.097  28.332  1.00  0.00    -0.354 N 
ATOM     50  C   UNL A   1      44.794  31.076  29.026  1.00  0.00     0.074 A 
ATOM     51  C   UNL A   1      43.806  31.914  29.672  1.00  0.00     0.031 C 
ATOM     52  C   UNL A   1      41.707  25.470  28.374  1.00  0.00     0.029 A 
ATOM     53  C   UNL A   1      43.074  25.783  27.965  1.00  0.00     0.049 A 
ATOM     54  H   UNL A   1      44.087  27.586  28.215  1.00  0.00     0.167 HD
ATOM     55  C   UNL A   1      46.052  31.473  28.717  1.00  0.00     0.037 A 
ATOM     56  C   UNL A   1      43.919  24.935  27.349  1.00  0.00     0.037 A 
ATOM     57  C   UNL A   1      47.034  30.631  28.085  1.00  0.00     0.049 A 
ATOM     58  C   UNL A   1      45.298  25.411  26.982  1.00  0.00     0.074 A 
ATOM     59  C   UNL A   1      48.337  30.939  27.733  1.00  0.00     0.029 A 
ATOM     60  N   UNL A   1      46.821  29.311  27.712  1.00  0.00    -0.354 N 
ATOM     61  N   UNL A   1      45.845  26.587  27.184  1.00  0.00    -0.248 NA
ATOM     62  C   UNL A   1      46.175  24.448  26.302  1.00  0.00     0.031 C 
ATOM     63  C   UNL A   1      48.903  29.815  27.119  1.00  0.00     0.029 A 
ATOM     64  C   UNL A   1      47.964  28.796  27.123  1.00  0.00     0.049 A 
ATOM     65  H   UNL A   1      45.982  28.815  27.845  1.00  0.00     0.167 HD
ATOM     66  C   UNL A   1      47.133  26.500  26.670  1.00  0.00     0.074 A 
ATOM     67  C   UNL A   1      47.290  25.153  26.161  1.00  0.00     0.031 C 
ATOM     68  C   UNL A   1      48.101  27.450  26.624  1.00  0.00     0.037 A 
BRANCH  55  69
ATOM     69  C   UNL A   1      46.427  32.893  29.036  1.00  0.00     0.058 A 
ATOM     70  C   UNL A   1      46.232  33.933  28.114  1.00  0.00     0.135 A 
ATOM     71  C   UNL A   1      46.972  33.221  30.288  1.00  0.00     0.135 A 
ATOM     72  F   UNL A   1      45.732  33.672  26.896  1.00  0.00    -0.206 F 
ATOM     73  C   UNL A   1      46.590  35.244  28.411  1.00  0.00     0.059 A 
ATOM     74  C   UNL A   1      47.316  34.529  30.616  1.00  0.00     0.059 A 
ATOM     75  F   UNL A   1      47.180  32.264  31.206  1.00  0.00    -0.206 F 
ATOM     76  C   UNL A   1      47.136  35.532  29.664  1.00  0.00     0.060 A 
BRANCH  76  77
ATOM     77  S   UNL A   1      47.607  37.236  30.032  1.00  0.00     0.124 S 
ATOM     78  O   UNL A   1      47.376  37.887  28.746  1.00  0.00    -0.237 OA
ATOM     79  O   UNL A   1      46.678  37.596  31.099  1.00  0.00    -0.237 OA
ATOM     80  O   UNL A   1      49.006  37.122  30.436  1.00  0.00    -0.744 OA
ENDBRANCH  76  77
ENDBRANCH  55  69
BRANCH  56  81
ATOM     81  C   UNL A   1      43.477  23.553  27.028  1.00  0.00     0.058 A 
ATOM     82  C   UNL A   1      43.212  23.167  25.707  1.00  0.00     0.135 A 
ATOM     83  C   UNL A   1      43.327  22.589  28.037  1.00  0.00     0.135 A 
ATOM     84  F   UNL A   1      43.331  24.057  24.711  1.00  0.00    -0.206 F 
ATOM     85  C   UNL A   1      42.805  21.874  25.396  1.00  0.00     0.059 A 
ATOM     86  C   UNL A   1      42.944  21.283  27.748  1.00  0.00     0.059 A 
ATOM     87  F   UNL A   1      43.580  22.908  29.316  1.00  0.00    -0.206 F 
ATOM     88  C   UNL A   1      42.676  20.938  26.424  1.00  0.00     0.060 A 
BRANCH  88  89
ATOM     89  S   UNL A   1      42.202  19.246  26.007  1.00  0.00     0.124 S 
ATOM     90  O   UNL A   1      42.983  19.012  24.798  1.00  0.00    -0.237 OA
ATOM     91  O   UNL A   1      42.622  18.505  27.192  1.00  0.00    -0.237 OA
ATOM     92  O   UNL A   1      40.757  19.340  25.818  1.00  0.00    -0.744 OA
ENDBRANCH  88  89
ENDBRANCH  56  81
BRANCH  68  93
ATOM     93  C   UNL A   1      49.420  27.055  26.025  1.00  0.00     0.058 A 
ATOM     94  C   UNL A   1      50.440  26.486  26.802  1.00  0.00     0.135 A 
ATOM     95  C   UNL A   1      49.653  27.216  24.649  1.00  0.00     0.135 A 
ATOM     96  F   UNL A   1      50.269  26.318  28.123  1.00  0.00    -0.206 F 
ATOM     97  C   UNL A   1      51.655  26.108  26.240  1.00  0.00     0.059 A 
ATOM     98  C   UNL A   1      50.852  26.825  24.062  1.00  0.00     0.059 A 
ATOM     99  F   UNL A   1      48.705  27.747  23.862  1.00  0.00    -0.206 F 
ATOM    100  C   UNL A   1      51.852  26.284  24.869  1.00  0.00     0.060 A 
BRANCH 100 101
ATOM    101  S   UNL A   1      53.423  25.768  24.143  1.00  0.00     0.124 S 
ATOM    102  O   UNL A   1      54.341  26.763  24.690  1.00  0.00    -0.237 OA
ATOM    103  O   UNL A   1      53.580  24.412  24.659  1.00  0.00    -0.237 OA
ATOM    104  O   UNL A   1      53.178  25.860  22.708  1.00  0.00    -0.744 OA
ENDBRANCH 100 101
ENDBRANCH  68  93
ENDBRANCH  42  43
ENDBRANCH  35  37
ENDBRANCH  34  35
ENDBRANCH  33  34
ENDBRANCH  32  33
ENDBRANCH  31  32
ENDBRANCH  29  31
ENDBRANCH   1  29
TORSDOF 24
ENDMDL
MODEL 2
REMARK VINA RESULT:     -10.4      5.934     12.561
REMARK SMILES CCCCCCNC(=O)Oc1cccc(-c2ccc([C@@H](C)C(=O)OCCOC(=O)c3ccc(-c4c5nc(c(-c6c(F)cc(S(=O)(=O)[O-])cc6F)c6ccc([nH]6)c(-c6c(F)cc(S(=O)(=O)[O-])cc6F)c6nc(c(-c7c(F)cc(S(=O)(=O)[O-])cc7F)c7ccc4[nH]7)C=C6)C=C5)cc3)cc2N)c1
REMARK SMILES IDX 20 1 21 2 19 3 16 4 17 5 97 6 18 7 96 8 15 9 11 10 12 11
REMARK SMILES IDX 99 12 13 13 14 14 10 15 8 16 7 17 9 19 6 20 5 21 4 22 3 23
REMARK SMILES IDX 2 24 1 25 98 26 22 29 23 30 24 31 25 32 26 33 27 34 28 35
REMARK SMILES IDX 29 36 30 37 31 38 95 39 32 40 94 41 33 42 34 43 35 44 88 45
REMARK SMILES IDX 36 46 93 47 87 48 89 49 37 50 92 51 86 52 85 53 38 55 72 56
REMARK SMILES IDX 51 57 71 58 52 59 55 60 70 61 90 62 53 63 54 64 69 66 91 67
REMARK SMILES IDX 56 68 39 69 40 70 49 71 41 72 42 73 48 74 50 75 43 76 44 77
REMARK SMILES IDX 45 78 46 79 47 80 73 81 74 82 83 83 75 84 76 85 82 86 84 87
REMARK SMILES IDX 77 88 78 89 79 90 80 91 81 92 57 93 58 94 67 95 59 96 60 97
REMARK SMILES IDX 66 98 68 99 61 100 62 101 63 102 64 103 65 104
REMARK H PARENT 7 18 98 27 98 28 89 54 55 65
REMARK Flexibility Score: inf
ROOT
ATOM      1  C   UNL A   1      41.677  20.651  26.861  1.00  0.00     0.126 C 
ATOM      2  C   UNL A   1      41.804  19.233  27.417  1.00  0.00     0.025 C 
ENDROOT
BRANCH   1   3
ATOM      3  C   UNL A   1      40.298  20.924  26.282  1.00  0.00    -0.032 A 
ATOM      4  C   UNL A   1      37.687  21.481  25.296  1.00  0.00     0.005 A 
ATOM      5  C   UNL A   1      38.318  20.244  25.058  1.00  0.00     0.011 A 
ATOM      6  C   UNL A   1      38.397  22.468  26.014  1.00  0.00     0.040 A 
ATOM      7  C   UNL A   1      39.597  19.966  25.545  1.00  0.00     0.005 A 
ATOM      8  C   UNL A   1      39.677  22.163  26.512  1.00  0.00     0.030 A 
BRANCH   4   9
ATOM      9  C   UNL A   1      36.309  21.681  24.801  1.00  0.00    -0.013 A 
ATOM     10  C   UNL A   1      34.647  22.955  23.578  1.00  0.00     0.133 A 
ATOM     11  C   UNL A   1      33.650  22.047  23.929  1.00  0.00     0.047 A 
ATOM     12  C   UNL A   1      35.966  22.783  24.000  1.00  0.00     0.056 A 
ATOM     13  C   UNL A   1      33.980  20.938  24.701  1.00  0.00     0.004 A 
ATOM     14  C   UNL A   1      35.296  20.762  25.136  1.00  0.00     0.009 A 
BRANCH  10  15
ATOM     15  O   UNL A   1      34.232  24.120  22.911  1.00  0.00    -0.410 OA
BRANCH  15  16
ATOM     16  C   UNL A   1      33.289  24.002  21.900  1.00  0.00     0.412 C 
ATOM     17  N   UNL A   1      32.293  24.936  21.989  1.00  0.00    -0.321 N 
ATOM     18  H   UNL A   1      31.603  24.910  21.287  1.00  0.00     0.167 HD
ATOM     19  O   UNL A   1      33.285  23.157  21.015  1.00  0.00    -0.224 OA
BRANCH  17  20
ATOM     20  C   UNL A   1      32.142  25.960  23.005  1.00  0.00     0.119 C 
BRANCH  20  21
ATOM     21  C   UNL A   1      30.879  25.772  23.842  1.00  0.00     0.021 C 
BRANCH  21  22
ATOM     22  C   UNL A   1      29.828  26.878  23.692  1.00  0.00     0.002 C 
BRANCH  22  23
ATOM     23  C   UNL A   1      30.332  28.200  23.101  1.00  0.00    -0.000 C 
BRANCH  23  24
ATOM     24  C   UNL A   1      29.336  29.362  23.138  1.00  0.00    -0.003 C 
ATOM     25  C   UNL A   1      27.923  28.958  22.749  1.00  0.00     0.004 C 
ENDBRANCH  23  24
ENDBRANCH  22  23
ENDBRANCH  21  22
ENDBRANCH  20  21
ENDBRANCH  17  20
ENDBRANCH  15  16
ENDBRANCH  10  15
ENDBRANCH   4   9
BRANCH   6  26
ATOM     26  N   UNL A   1      37.818  23.678  26.401  1.00  0.00    -0.398 N 
ATOM     27  H   UNL A   1      38.363  24.497  26.435  1.00  0.00     0.156 HD
ATOM     28  H   UNL A   1      36.863  23.712  26.640  1.00  0.00     0.156 HD
ENDBRANCH   6  26
ENDBRANCH   1   3
BRANCH   1  29
ATOM     29  C   UNL A   1      42.863  20.956  25.952  1.00  0.00     0.313 C 
ATOM     30  O   UNL A   1      43.227  20.178  25.075  1.00  0.00    -0.252 OA
BRANCH  29  31
ATOM     31  O   UNL A   1      43.424  22.174  26.169  1.00  0.00    -0.462 OA
BRANCH  31  32
ATOM     32  C   UNL A   1      43.978  22.846  25.023  1.00  0.00     0.274 C 
BRANCH  32  33
ATOM     33  C   UNL A   1      44.017  24.362  25.232  1.00  0.00     0.275 C 
BRANCH  33  34
ATOM     34  O   UNL A   1      43.190  24.758  26.340  1.00  0.00    -0.458 OA
BRANCH  34  35
ATOM     35  C   UNL A   1      42.046  25.396  25.996  1.00  0.00     0.338 C 
ATOM     36  O   UNL A   1      41.368  25.214  25.001  1.00  0.00    -0.246 OA
BRANCH  35  37
ATOM     37  C   UNL A   1      41.645  26.304  27.079  1.00  0.00     0.060 A 
ATOM     38  C   UNL A   1      42.273  27.548  27.158  1.00  0.00     0.016 A 
ATOM     39  C   UNL A   1      40.736  25.902  28.058  1.00  0.00     0.016 A 
ATOM     40  C   UNL A   1      42.013  28.395  28.231  1.00  0.00     0.010 A 
ATOM     41  C   UNL A   1      40.468  26.757  29.132  1.00  0.00     0.010 A 
ATOM     42  C   UNL A   1      41.117  28.001  29.233  1.00  0.00    -0.014 A 
BRANCH  42  43
ATOM     43  C   UNL A   1      40.909  28.874  30.413  1.00  0.00     0.031 A 
ATOM     44  C   UNL A   1      41.798  28.729  31.616  1.00  0.00     0.074 A 
ATOM     45  C   UNL A   1      39.947  29.814  30.389  1.00  0.00     0.049 A 
ATOM     46  N   UNL A   1      41.747  29.356  32.762  1.00  0.00    -0.248 NA
ATOM     47  C   UNL A   1      42.890  27.747  31.515  1.00  0.00     0.031 C 
ATOM     48  C   UNL A   1      39.048  30.073  29.263  1.00  0.00     0.029 A 
ATOM     49  N   UNL A   1      39.564  30.726  31.339  1.00  0.00    -0.354 N 
ATOM     50  C   UNL A   1      42.783  28.835  33.526  1.00  0.00     0.074 A 
ATOM     51  C   UNL A   1      43.439  27.828  32.719  1.00  0.00     0.031 C 
ATOM     52  C   UNL A   1      38.220  31.079  29.587  1.00  0.00     0.029 A 
ATOM     53  C   UNL A   1      38.502  31.508  30.954  1.00  0.00     0.049 A 
ATOM     54  H   UNL A   1      40.007  30.811  32.215  1.00  0.00     0.167 HD
ATOM     55  C   UNL A   1      43.155  29.169  34.786  1.00  0.00     0.037 A 
ATOM     56  C   UNL A   1      37.820  32.450  31.634  1.00  0.00     0.037 A 
ATOM     57  C   UNL A   1      42.506  30.180  35.579  1.00  0.00     0.049 A 
ATOM     58  C   UNL A   1      38.228  32.777  33.044  1.00  0.00     0.074 A 
ATOM     59  C   UNL A   1      42.809  30.594  36.865  1.00  0.00     0.029 A 
ATOM     60  N   UNL A   1      41.422  30.938  35.161  1.00  0.00    -0.354 N 
ATOM     61  N   UNL A   1      39.204  32.268  33.759  1.00  0.00    -0.248 NA
ATOM     62  C   UNL A   1      37.442  33.803  33.743  1.00  0.00     0.031 C 
ATOM     63  C   UNL A   1      41.890  31.582  37.236  1.00  0.00     0.029 A 
ATOM     64  C   UNL A   1      41.037  31.809  36.168  1.00  0.00     0.049 A 
ATOM     65  H   UNL A   1      40.990  30.868  34.280  1.00  0.00     0.167 HD
ATOM     66  C   UNL A   1      39.159  32.922  34.984  1.00  0.00     0.074 A 
ATOM     67  C   UNL A   1      38.069  33.873  34.909  1.00  0.00     0.031 C 
ATOM     68  C   UNL A   1      39.950  32.751  36.073  1.00  0.00     0.037 A 
BRANCH  55  69
ATOM     69  C   UNL A   1      44.304  28.412  35.391  1.00  0.00     0.058 A 
ATOM     70  C   UNL A   1      45.628  28.858  35.270  1.00  0.00     0.135 A 
ATOM     71  C   UNL A   1      44.073  27.232  36.117  1.00  0.00     0.135 A 
ATOM     72  F   UNL A   1      45.906  29.971  34.571  1.00  0.00    -0.206 F 
ATOM     73  C   UNL A   1      46.689  28.148  35.825  1.00  0.00     0.059 A 
ATOM     74  C   UNL A   1      45.116  26.517  36.699  1.00  0.00     0.059 A 
ATOM     75  F   UNL A   1      42.826  26.760  36.261  1.00  0.00    -0.206 F 
ATOM     76  C   UNL A   1      46.423  26.975  36.533  1.00  0.00     0.060 A 
BRANCH  76  77
ATOM     77  S   UNL A   1      47.809  26.056  37.237  1.00  0.00     0.124 S 
ATOM     78  O   UNL A   1      47.678  24.769  36.560  1.00  0.00    -0.237 OA
ATOM     79  O   UNL A   1      48.957  26.864  36.841  1.00  0.00    -0.237 OA
ATOM     80  O   UNL A   1      47.517  26.045  38.668  1.00  0.00    -0.744 OA
ENDBRANCH  76  77
ENDBRANCH  55  69
BRANCH  56  81
ATOM     81  C   UNL A   1      36.670  33.139  30.992  1.00  0.00     0.058 A 
ATOM     82  C   UNL A   1      36.865  34.044  29.940  1.00  0.00     0.135 A 
ATOM     83  C   UNL A   1      35.353  32.891  31.410  1.00  0.00     0.135 A 
ATOM     84  F   UNL A   1      38.105  34.320  29.513  1.00  0.00    -0.206 F 
ATOM     85  C   UNL A   1      35.794  34.688  29.328  1.00  0.00     0.059 A 
ATOM     86  C   UNL A   1      34.265  33.505  30.798  1.00  0.00     0.059 A 
ATOM     87  F   UNL A   1      35.116  32.024  32.407  1.00  0.00    -0.206 F 
ATOM     88  C   UNL A   1      34.497  34.410  29.763  1.00  0.00     0.060 A 
BRANCH  88  89
ATOM     89  S   UNL A   1      33.108  35.206  28.927  1.00  0.00     0.124 S 
ATOM     90  O   UNL A   1      32.731  34.188  27.953  1.00  0.00    -0.237 OA
ATOM     91  O   UNL A   1      32.168  35.420  30.023  1.00  0.00    -0.237 OA
ATOM     92  O   UNL A   1      33.701  36.421  28.376  1.00  0.00    -0.744 OA
ENDBRANCH  88  89
ENDBRANCH  56  81
BRANCH  68  93
ATOM     93  C   UNL A   1      39.678  33.630  37.261  1.00  0.00     0.058 A 
ATOM     94  C   UNL A   1      38.797  33.236  38.279  1.00  0.00     0.135 A 
ATOM     95  C   UNL A   1      40.336  34.863  37.399  1.00  0.00     0.135 A 
ATOM     96  F   UNL A   1      38.139  32.070  38.191  1.00  0.00    -0.206 F 
ATOM     97  C   UNL A   1      38.560  34.045  39.386  1.00  0.00     0.059 A 
ATOM     98  C   UNL A   1      40.130  35.678  38.507  1.00  0.00     0.059 A 
ATOM     99  F   UNL A   1      41.195  35.279  36.456  1.00  0.00    -0.206 F 
ATOM    100  C   UNL A   1      39.230  35.266  39.489  1.00  0.00     0.060 A 
BRANCH 100 101
ATOM    101  S   UNL A   1      38.935  36.300  40.940  1.00  0.00     0.124 S 
ATOM    102  O   UNL A   1      40.249  36.292  41.577  1.00  0.00    -0.237 OA
ATOM    103  O   UNL A   1      38.527  37.570  40.347  1.00  0.00    -0.237 OA
ATOM    104  O   UNL A   1      37.885  35.585  41.657  1.00  0.00    -0.744 OA
ENDBRANCH 100 101
ENDBRANCH  68  93
ENDBRANCH  42  43
ENDBRANCH  35  37
ENDBRANCH  34  35
ENDBRANCH  33  34
ENDBRANCH  32  33
ENDBRANCH  31  32
ENDBRANCH  29  31
ENDBRANCH   1  29
TORSDOF 24
ENDMDL
MODEL 3
REMARK VINA RESULT:     -10.3      5.908     12.371
REMARK SMILES CCCCCCNC(=O)Oc1cccc(-c2ccc([C@@H](C)C(=O)OCCOC(=O)c3ccc(-c4c5nc(c(-c6c(F)cc(S(=O)(=O)[O-])cc6F)c6ccc([nH]6)c(-c6c(F)cc(S(=O)(=O)[O-])cc6F)c6nc(c(-c7c(F)cc(S(=O)(=O)[O-])cc7F)c7ccc4[nH]7)C=C6)C=C5)cc3)cc2N)c1
REMARK SMILES IDX 20 1 21 2 19 3 16 4 17 5 97 6 18 7 96 8 15 9 11 10 12 11
REMARK SMILES IDX 99 12 13 13 14 14 10 15 8 16 7 17 9 19 6 20 5 21 4 22 3 23
REMARK SMILES IDX 2 24 1 25 98 26 22 29 23 30 24 31 25 32 26 33 27 34 28 35
REMARK SMILES IDX 29 36 30 37 31 38 95 39 32 40 94 41 33 42 34 43 35 44 88 45
REMARK SMILES IDX 36 46 93 47 87 48 89 49 37 50 92 51 86 52 85 53 38 55 72 56
REMARK SMILES IDX 51 57 71 58 52 59 55 60 70 61 90 62 53 63 54 64 69 66 91 67
REMARK SMILES IDX 56 68 39 69 40 70 49 71 41 72 42 73 48 74 50 75 43 76 44 77
REMARK SMILES IDX 45 78 46 79 47 80 73 81 74 82 83 83 75 84 76 85 82 86 84 87
REMARK SMILES IDX 77 88 78 89 79 90 80 91 81 92 57 93 58 94 67 95 59 96 60 97
REMARK SMILES IDX 66 98 68 99 61 100 62 101 63 102 64 103 65 104
REMARK H PARENT 7 18 98 27 98 28 89 54 55 65
REMARK Flexibility Score: inf
ROOT
ATOM      1  C   UNL A   1      41.799  20.506  26.846  1.00  0.00     0.126 C 
ATOM      2  C   UNL A   1      41.695  18.994  27.036  1.00  0.00     0.025 C 
ENDROOT
BRANCH   1   3
ATOM      3  C   UNL A   1      40.486  21.124  26.392  1.00  0.00    -0.032 A 
ATOM      4  C   UNL A   1      38.018  22.329  25.644  1.00  0.00     0.005 A 
ATOM      5  C   UNL A   1      38.308  20.985  25.336  1.00  0.00     0.011 A 
ATOM      6  C   UNL A   1      39.003  23.090  26.312  1.00  0.00     0.040 A 
ATOM      7  C   UNL A   1      39.516  20.390  25.706  1.00  0.00     0.005 A 
ATOM      8  C   UNL A   1      40.205  22.468  26.693  1.00  0.00     0.030 A 
BRANCH   4   9
ATOM      9  C   UNL A   1      36.695  22.872  25.273  1.00  0.00    -0.013 A 
ATOM     10  C   UNL A   1      34.924  23.258  23.661  1.00  0.00     0.133 A 
ATOM     11  C   UNL A   1      34.189  23.980  24.598  1.00  0.00     0.047 A 
ATOM     12  C   UNL A   1      36.164  22.703  23.984  1.00  0.00     0.056 A 
ATOM     13  C   UNL A   1      34.691  24.134  25.886  1.00  0.00     0.004 A 
ATOM     14  C   UNL A   1      35.934  23.590  26.216  1.00  0.00     0.009 A 
BRANCH  10  15
ATOM     15  O   UNL A   1      34.431  23.247  22.345  1.00  0.00    -0.410 OA
BRANCH  15  16
ATOM     16  C   UNL A   1      33.163  23.756  22.111  1.00  0.00     0.412 C 
ATOM     17  N   UNL A   1      32.182  22.805  22.197  1.00  0.00    -0.321 N 
ATOM     18  H   UNL A   1      31.258  23.113  22.056  1.00  0.00     0.167 HD
ATOM     19  O   UNL A   1      32.893  24.916  21.830  1.00  0.00    -0.224 OA
BRANCH  17  20
ATOM     20  C   UNL A   1      32.357  21.392  22.472  1.00  0.00     0.119 C 
BRANCH  20  21
ATOM     21  C   UNL A   1      32.158  21.055  23.949  1.00  0.00     0.021 C 
BRANCH  21  22
ATOM     22  C   UNL A   1      33.131  20.013  24.515  1.00  0.00     0.002 C 
BRANCH  22  23
ATOM     23  C   UNL A   1      32.672  18.553  24.421  1.00  0.00    -0.000 C 
BRANCH  23  24
ATOM     24  C   UNL A   1      33.789  17.507  24.457  1.00  0.00    -0.003 C 
ATOM     25  C   UNL A   1      34.075  16.884  23.099  1.00  0.00     0.004 C 
ENDBRANCH  23  24
ENDBRANCH  22  23
ENDBRANCH  21  22
ENDBRANCH  20  21
ENDBRANCH  17  20
ENDBRANCH  15  16
ENDBRANCH  10  15
ENDBRANCH   4   9
BRANCH   6  26
ATOM     26  N   UNL A   1      38.768  24.390  26.765  1.00  0.00    -0.398 N 
ATOM     27  H   UNL A   1      39.505  24.918  27.148  1.00  0.00     0.156 HD
ATOM     28  H   UNL A   1      37.866  24.778  26.701  1.00  0.00     0.156 HD
ENDBRANCH   6  26
ENDBRANCH   1   3
BRANCH   1  29
ATOM     29  C   UNL A   1      43.026  20.837  26.004  1.00  0.00     0.313 C 
ATOM     30  O   UNL A   1      43.378  20.132  25.062  1.00  0.00    -0.252 OA
BRANCH  29  31
ATOM     31  O   UNL A   1      43.640  21.996  26.357  1.00  0.00    -0.462 OA
BRANCH  31  32
ATOM     32  C   UNL A   1      44.624  22.514  25.442  1.00  0.00     0.274 C 
BRANCH  32  33
ATOM     33  C   UNL A   1      44.724  24.038  25.536  1.00  0.00     0.275 C 
BRANCH  33  34
ATOM     34  O   UNL A   1      43.767  24.567  26.470  1.00  0.00    -0.458 OA
BRANCH  34  35
ATOM     35  C   UNL A   1      42.961  25.535  25.972  1.00  0.00     0.338 C 
ATOM     36  O   UNL A   1      42.593  25.670  24.820  1.00  0.00    -0.246 OA
BRANCH  35  37
ATOM     37  C   UNL A   1      42.474  26.382  27.069  1.00  0.00     0.060 A 
ATOM     38  C   UNL A   1      42.885  27.715  27.102  1.00  0.00     0.016 A 
ATOM     39  C   UNL A   1      41.703  25.850  28.103  1.00  0.00     0.016 A 
ATOM     40  C   UNL A   1      42.546  28.525  28.180  1.00  0.00     0.010 A 
ATOM     41  C   UNL A   1      41.354  26.667  29.183  1.00  0.00     0.010 A 
ATOM     42  C   UNL A   1      41.788  28.004  29.237  1.00  0.00    -0.014 A 
BRANCH  42  43
ATOM     43  C   UNL A   1      41.501  28.850  30.420  1.00  0.00     0.031 A 
ATOM     44  C   UNL A   1      42.363  28.738  31.645  1.00  0.00     0.074 A 
ATOM     45  C   UNL A   1      40.491  29.738  30.379  1.00  0.00     0.049 A 
ATOM     46  N   UNL A   1      42.248  29.347  32.796  1.00  0.00    -0.248 NA
ATOM     47  C   UNL A   1      43.508  27.816  31.564  1.00  0.00     0.031 C 
ATOM     48  C   UNL A   1      39.611  29.962  29.231  1.00  0.00     0.029 A 
ATOM     49  N   UNL A   1      40.034  30.617  31.328  1.00  0.00    -0.354 N 
ATOM     50  C   UNL A   1      43.290  28.873  33.583  1.00  0.00     0.074 A 
ATOM     51  C   UNL A   1      44.019  27.912  32.784  1.00  0.00     0.031 C 
ATOM     52  C   UNL A   1      38.721  30.919  29.542  1.00  0.00     0.029 A 
ATOM     53  C   UNL A   1      38.943  31.346  30.921  1.00  0.00     0.049 A 
ATOM     54  H   UNL A   1      40.448  30.715  32.216  1.00  0.00     0.167 HD
ATOM     55  C   UNL A   1      43.609  29.211  34.856  1.00  0.00     0.037 A 
ATOM     56  C   UNL A   1      38.193  32.242  31.592  1.00  0.00     0.037 A 
ATOM     57  C   UNL A   1      42.885  30.176  35.642  1.00  0.00     0.049 A 
ATOM     58  C   UNL A   1      38.545  32.573  33.017  1.00  0.00     0.074 A 
ATOM     59  C   UNL A   1      43.131  30.591  36.940  1.00  0.00     0.029 A 
ATOM     60  N   UNL A   1      41.773  30.881  35.202  1.00  0.00    -0.354 N 
ATOM     61  N   UNL A   1      39.526  32.108  33.753  1.00  0.00    -0.248 NA
ATOM     62  C   UNL A   1      37.687  33.547  33.705  1.00  0.00     0.031 C 
ATOM     63  C   UNL A   1      42.150  31.524  37.296  1.00  0.00     0.029 A 
ATOM     64  C   UNL A   1      41.316  31.718  36.206  1.00  0.00     0.049 A 
ATOM     65  H   UNL A   1      41.370  30.798  34.309  1.00  0.00     0.167 HD
ATOM     66  C   UNL A   1      39.414  32.744  34.983  1.00  0.00     0.074 A 
ATOM     67  C   UNL A   1      38.277  33.637  34.888  1.00  0.00     0.031 C 
ATOM     68  C   UNL A   1      40.183  32.602  36.091  1.00  0.00     0.037 A 
BRANCH  55  69
ATOM     69  C   UNL A   1      44.779  28.509  35.485  1.00  0.00     0.058 A 
ATOM     70  C   UNL A   1      46.079  29.032  35.415  1.00  0.00     0.135 A 
ATOM     71  C   UNL A   1      44.594  27.304  36.182  1.00  0.00     0.135 A 
ATOM     72  F   UNL A   1      46.314  30.172  34.746  1.00  0.00    -0.206 F 
ATOM     73  C   UNL A   1      47.160  28.373  35.991  1.00  0.00     0.059 A 
ATOM     74  C   UNL A   1      45.657  26.638  36.785  1.00  0.00     0.059 A 
ATOM     75  F   UNL A   1      43.372  26.759  36.277  1.00  0.00    -0.206 F 
ATOM     76  C   UNL A   1      46.940  27.172  36.670  1.00  0.00     0.060 A 
BRANCH  76  77
ATOM     77  S   UNL A   1      48.354  26.320  37.402  1.00  0.00     0.124 S 
ATOM     78  O   UNL A   1      49.421  27.294  37.194  1.00  0.00    -0.237 OA
ATOM     79  O   UNL A   1      47.928  26.136  38.786  1.00  0.00    -0.237 OA
ATOM     80  O   UNL A   1      48.458  25.096  36.613  1.00  0.00    -0.744 OA
ENDBRANCH  76  77
ENDBRANCH  55  69
BRANCH  56  81
ATOM     81  C   UNL A   1      37.026  32.876  30.926  1.00  0.00     0.058 A 
ATOM     82  C   UNL A   1      37.198  33.916  30.001  1.00  0.00     0.135 A 
ATOM     83  C   UNL A   1      35.718  32.443  31.191  1.00  0.00     0.135 A 
ATOM     84  F   UNL A   1      38.428  34.371  29.724  1.00  0.00    -0.206 F 
ATOM     85  C   UNL A   1      36.112  34.511  29.367  1.00  0.00     0.059 A 
ATOM     86  C   UNL A   1      34.618  33.006  30.551  1.00  0.00     0.059 A 
ATOM     87  F   UNL A   1      35.504  31.442  32.060  1.00  0.00    -0.206 F 
ATOM     88  C   UNL A   1      34.825  34.047  29.648  1.00  0.00     0.060 A 
BRANCH  88  89
ATOM     89  S   UNL A   1      33.424  34.785  28.779  1.00  0.00     0.124 S 
ATOM     90  O   UNL A   1      34.028  35.988  28.219  1.00  0.00    -0.237 OA
ATOM     91  O   UNL A   1      33.069  33.743  27.821  1.00  0.00    -0.237 OA
ATOM     92  O   UNL A   1      32.448  35.003  29.844  1.00  0.00    -0.744 OA
ENDBRANCH  88  89
ENDBRANCH  56  81
BRANCH  68  93
ATOM     93  C   UNL A   1      39.833  33.451  37.281  1.00  0.00     0.058 A 
ATOM     94  C   UNL A   1      38.844  33.059  38.197  1.00  0.00     0.135 A 
ATOM     95  C   UNL A   1      40.519  34.651  37.526  1.00  0.00     0.135 A 
ATOM     96  F   UNL A   1      38.155  31.924  38.003  1.00  0.00    -0.206 F 
ATOM     97  C   UNL A   1      38.534  33.840  39.306  1.00  0.00     0.059 A 
ATOM     98  C   UNL A   1      40.240  35.436  38.639  1.00  0.00     0.059 A 
ATOM     99  F   UNL A   1      41.480  35.063  36.683  1.00  0.00    -0.206 F 
ATOM    100  C   UNL A   1      39.235  35.029  39.516  1.00  0.00     0.060 A 
BRANCH 100 101
ATOM    101  S   UNL A   1      38.843  36.024  40.971  1.00  0.00     0.124 S 
ATOM    102  O   UNL A   1      37.730  35.276  41.548  1.00  0.00    -0.237 OA
ATOM    103  O   UNL A   1      40.091  35.984  41.727  1.00  0.00    -0.237 OA
ATOM    104  O   UNL A   1      38.501  37.326  40.408  1.00  0.00    -0.744 OA
ENDBRANCH 100 101
ENDBRANCH  68  93
ENDBRANCH  42  43
ENDBRANCH  35  37
ENDBRANCH  34  35
ENDBRANCH  33  34
ENDBRANCH  32  33
ENDBRANCH  31  32
ENDBRANCH  29  31
ENDBRANCH   1  29
TORSDOF 24
ENDMDL
