MODEL 1
REMARK VINA RESULT:     -10.8      0.000      0.000
REMARK SMILES [NH3+][C@@H](CCC1=c2ccccc2=[NH+]C1)C(=O)OCCOC(=O)c1ccc(-c2c3nc(c(-c4c(F)cc(S(=O)(=O)[O-])cc4F)c4ccc([nH]4)c(-c4c(F)cc(S(=O)(=O)[O-])cc4F)c4nc(c(-c5c(F)cc(S(=O)(=O)[O-])cc5F)c5ccc2[nH]5)C=C4)C=C3)cc1
REMARK SMILES IDX 17 1 16 2 14 3 15 4 2 5 1 6 3 10 4 11 5 12 6 13 13 14 7 15
REMARK SMILES IDX 11 16 12 17 8 18 10 19 9 21 18 22 19 23 20 24 21 25 22 26
REMARK SMILES IDX 23 27 87 28 24 29 86 30 25 31 26 32 27 33 80 34 28 35 85 36
REMARK SMILES IDX 79 37 81 38 29 39 84 40 78 41 77 42 30 44 64 45 43 46 63 47
REMARK SMILES IDX 44 48 47 49 62 50 82 51 45 52 46 53 61 55 83 56 48 57 31 58
REMARK SMILES IDX 32 59 41 60 33 61 34 62 40 63 42 64 35 65 36 66 37 67 38 68
REMARK SMILES IDX 39 69 65 70 66 71 75 72 67 73 68 74 74 75 76 76 69 77 70 78
REMARK SMILES IDX 71 79 72 80 73 81 49 82 50 83 59 84 51 85 52 86 58 87 60 88
REMARK SMILES IDX 53 89 54 90 55 91 56 92 57 93
REMARK H PARENT 1 7 1 8 1 9 12 20 81 43 47 54
REMARK Flexibility Score: inf
ROOT
ATOM      1  C   UNL A   1      39.048  21.893  26.182  1.00  0.00     0.274 C 
ENDROOT
BRANCH   1   2
ATOM      2  O   UNL A   1      37.885  22.740  26.107  1.00  0.00    -0.458 OA
BRANCH   2   3
ATOM      3  C   UNL A   1      36.979  22.458  25.128  1.00  0.00     0.364 C 
ATOM      4  O   UNL A   1      37.258  22.266  23.949  1.00  0.00    -0.245 OA
BRANCH   3   5
ATOM      5  C   UNL A   1      35.529  22.470  25.646  1.00  0.00     0.292 C 
BRANCH   5   6
ATOM      6  N   UNL A   1      35.215  21.324  26.518  1.00  0.00    -0.346 N 
ATOM      7  H   UNL A   1      35.717  21.420  27.400  1.00  0.00     0.345 HD
ATOM      8  H   UNL A   1      35.498  20.458  26.059  1.00  0.00     0.345 HD
ATOM      9  H   UNL A   1      34.211  21.300  26.699  1.00  0.00     0.345 HD
ENDBRANCH   5   6
BRANCH   5  10
ATOM     10  C   UNL A   1      35.154  23.825  26.267  1.00  0.00     0.082 C 
BRANCH  10  11
ATOM     11  C   UNL A   1      34.502  24.865  25.343  1.00  0.00     0.045 C 
BRANCH  11  12
ATOM     12  C   UNL A   1      33.359  25.627  25.928  1.00  0.00     0.008 C 
ATOM     13  C   UNL A   1      33.327  26.906  26.299  1.00  0.00     0.051 A 
ATOM     14  C   UNL A   1      32.032  24.971  26.190  1.00  0.00     0.381 C 
ATOM     15  C   UNL A   1      34.251  27.994  26.279  1.00  0.00     0.015 A 
ATOM     16  C   UNL A   1      31.945  27.075  26.775  1.00  0.00     0.206 A 
ATOM     17  N   UNL A   1      31.168  26.037  26.757  1.00  0.00    -0.237 N 
ATOM     18  C   UNL A   1      33.831  29.204  26.684  1.00  0.00     0.001 A 
ATOM     19  C   UNL A   1      31.558  28.434  27.211  1.00  0.00     0.079 A 
ATOM     20  H   UNL A   1      30.229  25.971  27.048  1.00  0.00     0.446 HD
ATOM     21  C   UNL A   1      32.469  29.420  27.146  1.00  0.00     0.007 A 
ENDBRANCH  11  12
ENDBRANCH  10  11
ENDBRANCH   5  10
ENDBRANCH   3   5
ENDBRANCH   2   3
ENDBRANCH   1   2
BRANCH   1  22
ATOM     22  C   UNL A   1      40.301  22.713  26.478  1.00  0.00     0.275 C 
BRANCH  22  23
ATOM     23  O   UNL A   1      39.998  24.110  26.421  1.00  0.00    -0.458 OA
BRANCH  23  24
ATOM     24  C   UNL A   1      41.070  24.940  26.470  1.00  0.00     0.338 C 
ATOM     25  O   UNL A   1      41.961  25.046  25.654  1.00  0.00    -0.246 OA
BRANCH  24  26
ATOM     26  C   UNL A   1      40.868  25.836  27.620  1.00  0.00     0.060 A 
ATOM     27  C   UNL A   1      39.786  25.650  28.483  1.00  0.00     0.016 A 
ATOM     28  C   UNL A   1      41.757  26.901  27.800  1.00  0.00     0.016 A 
ATOM     29  C   UNL A   1      39.582  26.549  29.523  1.00  0.00     0.010 A 
ATOM     30  C   UNL A   1      41.548  27.806  28.838  1.00  0.00     0.010 A 
ATOM     31  C   UNL A   1      40.459  27.633  29.702  1.00  0.00    -0.014 A 
BRANCH  31  32
ATOM     32  C   UNL A   1      40.277  28.518  30.869  1.00  0.00     0.031 A 
ATOM     33  C   UNL A   1      41.189  28.431  32.050  1.00  0.00     0.074 A 
ATOM     34  C   UNL A   1      39.298  29.436  30.808  1.00  0.00     0.049 A 
ATOM     35  N   UNL A   1      41.267  29.225  33.084  1.00  0.00    -0.248 NA
ATOM     36  C   UNL A   1      42.139  27.309  32.073  1.00  0.00     0.031 C 
ATOM     37  C   UNL A   1      38.357  29.580  29.694  1.00  0.00     0.029 A 
ATOM     38  N   UNL A   1      38.950  30.435  31.675  1.00  0.00    -0.354 N 
ATOM     39  C   UNL A   1      42.296  28.724  33.870  1.00  0.00     0.074 A 
ATOM     40  C   UNL A   1      42.775  27.523  33.218  1.00  0.00     0.031 C 
ATOM     41  C   UNL A   1      37.571  30.642  29.923  1.00  0.00     0.029 A 
ATOM     42  C   UNL A   1      37.942  31.238  31.203  1.00  0.00     0.049 A 
ATOM     43  H   UNL A   1      39.381  30.566  32.551  1.00  0.00     0.167 HD
ATOM     44  C   UNL A   1      42.801  29.237  35.018  1.00  0.00     0.037 A 
ATOM     45  C   UNL A   1      37.397  32.348  31.732  1.00  0.00     0.037 A 
ATOM     46  C   UNL A   1      42.278  30.413  35.668  1.00  0.00     0.049 A 
ATOM     47  C   UNL A   1      37.940  32.868  33.030  1.00  0.00     0.074 A 
ATOM     48  C   UNL A   1      42.698  31.014  36.842  1.00  0.00     0.029 A 
ATOM     49  N   UNL A   1      41.205  31.163  35.201  1.00  0.00    -0.354 N 
ATOM     50  N   UNL A   1      38.932  32.402  33.752  1.00  0.00    -0.248 NA
ATOM     51  C   UNL A   1      37.296  34.065  33.583  1.00  0.00     0.031 C 
ATOM     52  C   UNL A   1      41.858  32.105  37.102  1.00  0.00     0.029 A 
ATOM     53  C   UNL A   1      40.938  32.209  36.070  1.00  0.00     0.049 A 
ATOM     54  H   UNL A   1      40.707  30.979  34.372  1.00  0.00     0.167 HD
ATOM     55  C   UNL A   1      39.038  33.252  34.845  1.00  0.00     0.074 A 
ATOM     56  C   UNL A   1      38.019  34.271  34.676  1.00  0.00     0.031 C 
ATOM     57  C   UNL A   1      39.897  33.194  35.893  1.00  0.00     0.037 A 
BRANCH  44  58
ATOM     58  C   UNL A   1      43.972  28.521  35.633  1.00  0.00     0.058 A 
ATOM     59  C   UNL A   1      43.786  27.510  36.592  1.00  0.00     0.135 A 
ATOM     60  C   UNL A   1      45.290  28.838  35.268  1.00  0.00     0.135 A 
ATOM     61  F   UNL A   1      42.547  27.174  36.987  1.00  0.00    -0.206 F 
ATOM     62  C   UNL A   1      44.863  26.867  37.193  1.00  0.00     0.059 A 
ATOM     63  C   UNL A   1      46.383  28.191  35.841  1.00  0.00     0.059 A 
ATOM     64  F   UNL A   1      45.528  29.793  34.356  1.00  0.00    -0.206 F 
ATOM     65  C   UNL A   1      46.160  27.220  36.816  1.00  0.00     0.060 A 
BRANCH  65  66
ATOM     66  S   UNL A   1      47.549  26.395  37.623  1.00  0.00     0.124 S 
ATOM     67  O   UNL A   1      46.891  25.762  38.762  1.00  0.00    -0.237 OA
ATOM     68  O   UNL A   1      48.023  25.488  36.583  1.00  0.00    -0.237 OA
ATOM     69  O   UNL A   1      48.452  27.493  37.952  1.00  0.00    -0.744 OA
ENDBRANCH  65  66
ENDBRANCH  44  58
BRANCH  45  70
ATOM     70  C   UNL A   1      36.333  33.059  30.982  1.00  0.00     0.058 A 
ATOM     71  C   UNL A   1      35.016  33.083  31.460  1.00  0.00     0.135 A 
ATOM     72  C   UNL A   1      36.630  33.810  29.833  1.00  0.00     0.135 A 
ATOM     73  F   UNL A   1      34.688  32.379  32.554  1.00  0.00    -0.206 F 
ATOM     74  C   UNL A   1      34.030  33.835  30.834  1.00  0.00     0.059 A 
ATOM     75  C   UNL A   1      35.664  34.586  29.200  1.00  0.00     0.059 A 
ATOM     76  F   UNL A   1      37.881  33.833  29.350  1.00  0.00    -0.206 F 
ATOM     77  C   UNL A   1      34.365  34.593  29.711  1.00  0.00     0.060 A 
BRANCH  77  78
ATOM     78  S   UNL A   1      33.099  35.647  28.970  1.00  0.00     0.124 S 
ATOM     79  O   UNL A   1      32.431  34.714  28.070  1.00  0.00    -0.237 OA
ATOM     80  O   UNL A   1      32.332  36.069  30.138  1.00  0.00    -0.237 OA
ATOM     81  O   UNL A   1      33.874  36.702  28.324  1.00  0.00    -0.744 OA
ENDBRANCH  77  78
ENDBRANCH  45  70
BRANCH  57  82
ATOM     82  C   UNL A   1      39.755  34.262  36.940  1.00  0.00     0.058 A 
ATOM     83  C   UNL A   1      39.062  34.022  38.136  1.00  0.00     0.135 A 
ATOM     84  C   UNL A   1      40.334  35.528  36.755  1.00  0.00     0.135 A 
ATOM     85  F   UNL A   1      38.484  32.831  38.356  1.00  0.00    -0.206 F 
ATOM     86  C   UNL A   1      38.924  35.011  39.105  1.00  0.00     0.059 A 
ATOM     87  C   UNL A   1      40.227  36.524  37.721  1.00  0.00     0.059 A 
ATOM     88  F   UNL A   1      41.012  35.804  35.631  1.00  0.00    -0.206 F 
ATOM     89  C   UNL A   1      39.508  36.259  38.886  1.00  0.00     0.060 A 
BRANCH  89  90
ATOM     90  S   UNL A   1      39.333  37.529  40.157  1.00  0.00     0.124 S 
ATOM     91  O   UNL A   1      38.727  36.772  41.248  1.00  0.00    -0.237 OA
ATOM     92  O   UNL A   1      40.714  37.952  40.370  1.00  0.00    -0.237 OA
ATOM     93  O   UNL A   1      38.470  38.523  39.527  1.00  0.00    -0.744 OA
ENDBRANCH  89  90
ENDBRANCH  57  82
ENDBRANCH  31  32
ENDBRANCH  24  26
ENDBRANCH  23  24
ENDBRANCH  22  23
ENDBRANCH   1  22
TORSDOF 18
ENDMDL
MODEL 2
REMARK VINA RESULT:     -10.8      4.628     11.443
REMARK SMILES [NH3+][C@@H](CCC1=c2ccccc2=[NH+]C1)C(=O)OCCOC(=O)c1ccc(-c2c3nc(c(-c4c(F)cc(S(=O)(=O)[O-])cc4F)c4ccc([nH]4)c(-c4c(F)cc(S(=O)(=O)[O-])cc4F)c4nc(c(-c5c(F)cc(S(=O)(=O)[O-])cc5F)c5ccc2[nH]5)C=C4)C=C3)cc1
REMARK SMILES IDX 17 1 16 2 14 3 15 4 2 5 1 6 3 10 4 11 5 12 6 13 13 14 7 15
REMARK SMILES IDX 11 16 12 17 8 18 10 19 9 21 18 22 19 23 20 24 21 25 22 26
REMARK SMILES IDX 23 27 87 28 24 29 86 30 25 31 26 32 27 33 80 34 28 35 85 36
REMARK SMILES IDX 79 37 81 38 29 39 84 40 78 41 77 42 30 44 64 45 43 46 63 47
REMARK SMILES IDX 44 48 47 49 62 50 82 51 45 52 46 53 61 55 83 56 48 57 31 58
REMARK SMILES IDX 32 59 41 60 33 61 34 62 40 63 42 64 35 65 36 66 37 67 38 68
REMARK SMILES IDX 39 69 65 70 66 71 75 72 67 73 68 74 74 75 76 76 69 77 70 78
REMARK SMILES IDX 71 79 72 80 73 81 49 82 50 83 59 84 51 85 52 86 58 87 60 88
REMARK SMILES IDX 53 89 54 90 55 91 56 92 57 93
REMARK H PARENT 1 7 1 8 1 9 12 20 81 43 47 54
REMARK Flexibility Score: inf
ROOT
ATOM      1  C   UNL A   1      34.011  34.001  28.835  1.00  0.00     0.274 C 
ENDROOT
BRANCH   1   2
ATOM      2  O   UNL A   1      33.889  33.696  30.238  1.00  0.00    -0.458 OA
BRANCH   2   3
ATOM      3  C   UNL A   1      33.668  34.747  31.080  1.00  0.00     0.364 C 
ATOM      4  O   UNL A   1      32.989  35.732  30.809  1.00  0.00    -0.245 OA
BRANCH   3   5
ATOM      5  C   UNL A   1      34.427  34.604  32.412  1.00  0.00     0.292 C 
BRANCH   5   6
ATOM      6  N   UNL A   1      33.991  35.573  33.434  1.00  0.00    -0.346 N 
ATOM      7  H   UNL A   1      32.974  35.560  33.503  1.00  0.00     0.345 HD
ATOM      8  H   UNL A   1      34.303  36.508  33.173  1.00  0.00     0.345 HD
ATOM      9  H   UNL A   1      34.396  35.320  34.337  1.00  0.00     0.345 HD
ENDBRANCH   5   6
BRANCH   5  10
ATOM     10  C   UNL A   1      34.431  33.152  32.917  1.00  0.00     0.082 C 
BRANCH  10  11
ATOM     11  C   UNL A   1      35.753  32.377  32.811  1.00  0.00     0.045 C 
BRANCH  11  12
ATOM     12  C   UNL A   1      36.969  33.201  32.541  1.00  0.00     0.008 C 
ATOM     13  C   UNL A   1      37.529  33.478  31.365  1.00  0.00     0.051 A 
ATOM     14  C   UNL A   1      37.748  33.837  33.656  1.00  0.00     0.381 C 
ATOM     15  C   UNL A   1      37.238  33.170  30.001  1.00  0.00     0.015 A 
ATOM     16  C   UNL A   1      38.667  34.333  31.737  1.00  0.00     0.206 A 
ATOM     17  N   UNL A   1      38.861  34.567  32.997  1.00  0.00    -0.237 N 
ATOM     18  C   UNL A   1      38.013  33.699  29.040  1.00  0.00     0.001 A 
ATOM     19  C   UNL A   1      39.479  34.873  30.625  1.00  0.00     0.079 A 
ATOM     20  H   UNL A   1      39.574  35.101  33.417  1.00  0.00     0.446 HD
ATOM     21  C   UNL A   1      39.137  34.564  29.362  1.00  0.00     0.007 A 
ENDBRANCH  11  12
ENDBRANCH  10  11
ENDBRANCH   5  10
ENDBRANCH   3   5
ENDBRANCH   2   3
ENDBRANCH   1   2
BRANCH   1  22
ATOM     22  C   UNL A   1      34.140  32.724  28.010  1.00  0.00     0.275 C 
BRANCH  22  23
ATOM     23  O   UNL A   1      34.414  31.611  28.867  1.00  0.00    -0.458 OA
BRANCH  23  24
ATOM     24  C   UNL A   1      34.647  30.434  28.235  1.00  0.00     0.338 C 
ATOM     25  O   UNL A   1      33.894  29.825  27.504  1.00  0.00    -0.246 OA
BRANCH  24  26
ATOM     26  C   UNL A   1      36.065  30.104  28.449  1.00  0.00     0.060 A 
ATOM     27  C   UNL A   1      36.990  30.243  27.412  1.00  0.00     0.016 A 
ATOM     28  C   UNL A   1      36.454  29.608  29.698  1.00  0.00     0.016 A 
ATOM     29  C   UNL A   1      38.310  29.863  27.621  1.00  0.00     0.010 A 
ATOM     30  C   UNL A   1      37.776  29.222  29.905  1.00  0.00     0.010 A 
ATOM     31  C   UNL A   1      38.707  29.347  28.867  1.00  0.00    -0.014 A 
BRANCH  31  32
ATOM     32  C   UNL A   1      40.133  29.041  29.094  1.00  0.00     0.031 A 
ATOM     33  C   UNL A   1      41.011  29.984  29.852  1.00  0.00     0.074 A 
ATOM     34  C   UNL A   1      40.597  27.863  28.643  1.00  0.00     0.049 A 
ATOM     35  N   UNL A   1      42.235  29.805  30.272  1.00  0.00    -0.248 NA
ATOM     36  C   UNL A   1      40.441  31.298  30.185  1.00  0.00     0.031 C 
ATOM     37  C   UNL A   1      39.807  26.890  27.886  1.00  0.00     0.029 A 
ATOM     38  N   UNL A   1      41.823  27.271  28.780  1.00  0.00    -0.354 N 
ATOM     39  C   UNL A   1      42.577  30.968  30.948  1.00  0.00     0.074 A 
ATOM     40  C   UNL A   1      41.448  31.868  30.834  1.00  0.00     0.031 C 
ATOM     41  C   UNL A   1      40.554  25.798  27.668  1.00  0.00     0.029 A 
ATOM     42  C   UNL A   1      41.875  26.003  28.255  1.00  0.00     0.049 A 
ATOM     43  H   UNL A   1      42.591  27.710  29.212  1.00  0.00     0.167 HD
ATOM     44  C   UNL A   1      43.722  31.243  31.618  1.00  0.00     0.037 A 
ATOM     45  C   UNL A   1      42.870  25.098  28.271  1.00  0.00     0.037 A 
ATOM     46  C   UNL A   1      44.849  30.344  31.682  1.00  0.00     0.049 A 
ATOM     47  C   UNL A   1      44.148  25.446  28.976  1.00  0.00     0.074 A 
ATOM     48  C   UNL A   1      46.066  30.523  32.316  1.00  0.00     0.029 A 
ATOM     49  N   UNL A   1      44.897  29.094  31.076  1.00  0.00    -0.354 N 
ATOM     50  N   UNL A   1      44.452  26.538  29.636  1.00  0.00    -0.248 NA
ATOM     51  C   UNL A   1      45.215  24.439  28.942  1.00  0.00     0.031 C 
ATOM     52  C   UNL A   1      46.862  29.398  32.063  1.00  0.00     0.029 A 
ATOM     53  C   UNL A   1      46.127  28.498  31.305  1.00  0.00     0.049 A 
ATOM     54  H   UNL A   1      44.164  28.690  30.558  1.00  0.00     0.167 HD
ATOM     55  C   UNL A   1      45.746  26.351  30.105  1.00  0.00     0.074 A 
ATOM     56  C   UNL A   1      46.156  25.030  29.666  1.00  0.00     0.031 C 
ATOM     57  C   UNL A   1      46.522  27.193  30.831  1.00  0.00     0.037 A 
BRANCH  44  58
ATOM     58  C   UNL A   1      43.804  32.568  32.325  1.00  0.00     0.058 A 
ATOM     59  C   UNL A   1      43.402  32.705  33.665  1.00  0.00     0.135 A 
ATOM     60  C   UNL A   1      44.286  33.711  31.669  1.00  0.00     0.135 A 
ATOM     61  F   UNL A   1      42.922  31.646  34.338  1.00  0.00    -0.206 F 
ATOM     62  C   UNL A   1      43.440  33.933  34.317  1.00  0.00     0.059 A 
ATOM     63  C   UNL A   1      44.354  34.947  32.310  1.00  0.00     0.059 A 
ATOM     64  F   UNL A   1      44.685  33.639  30.390  1.00  0.00    -0.206 F 
ATOM     65  C   UNL A   1      43.911  35.052  33.628  1.00  0.00     0.060 A 
BRANCH  65  66
ATOM     66  S   UNL A   1      43.930  36.645  34.477  1.00  0.00     0.124 S 
ATOM     67  O   UNL A   1      43.038  37.436  33.636  1.00  0.00    -0.237 OA
ATOM     68  O   UNL A   1      43.414  36.302  35.799  1.00  0.00    -0.237 OA
ATOM     69  O   UNL A   1      45.336  37.034  34.439  1.00  0.00    -0.744 OA
ENDBRANCH  65  66
ENDBRANCH  44  58
BRANCH  45  70
ATOM     70  C   UNL A   1      42.645  23.767  27.658  1.00  0.00     0.058 A 
ATOM     71  C   UNL A   1      42.878  23.561  26.292  1.00  0.00     0.135 A 
ATOM     72  C   UNL A   1      42.293  22.655  28.441  1.00  0.00     0.135 A 
ATOM     73  F   UNL A   1      43.215  24.595  25.506  1.00  0.00    -0.206 F 
ATOM     74  C   UNL A   1      42.782  22.297  25.721  1.00  0.00     0.059 A 
ATOM     75  C   UNL A   1      42.210  21.378  27.896  1.00  0.00     0.059 A 
ATOM     76  F   UNL A   1      42.080  22.801  29.757  1.00  0.00    -0.206 F 
ATOM     77  C   UNL A   1      42.459  21.209  26.534  1.00  0.00     0.060 A 
BRANCH  77  78
ATOM     78  S   UNL A   1      42.439  19.559  25.800  1.00  0.00     0.124 S 
ATOM     79  O   UNL A   1      41.063  19.463  25.328  1.00  0.00    -0.237 OA
ATOM     80  O   UNL A   1      43.463  19.673  24.766  1.00  0.00    -0.237 OA
ATOM     81  O   UNL A   1      42.785  18.688  26.920  1.00  0.00    -0.744 OA
ENDBRANCH  77  78
ENDBRANCH  45  70
BRANCH  57  82
ATOM     82  C   UNL A   1      47.900  26.707  31.179  1.00  0.00     0.058 A 
ATOM     83  C   UNL A   1      48.110  25.807  32.236  1.00  0.00     0.135 A 
ATOM     84  C   UNL A   1      49.016  27.126  30.438  1.00  0.00     0.135 A 
ATOM     85  F   UNL A   1      47.076  25.384  32.979  1.00  0.00    -0.206 F 
ATOM     86  C   UNL A   1      49.385  25.360  32.564  1.00  0.00     0.059 A 
ATOM     87  C   UNL A   1      50.298  26.673  30.735  1.00  0.00     0.059 A 
ATOM     88  F   UNL A   1      48.867  27.980  29.414  1.00  0.00    -0.206 F 
ATOM     89  C   UNL A   1      50.473  25.800  31.809  1.00  0.00     0.060 A 
BRANCH  89  90
ATOM     90  S   UNL A   1      52.122  25.201  32.237  1.00  0.00     0.124 S 
ATOM     91  O   UNL A   1      52.428  26.003  33.417  1.00  0.00    -0.237 OA
ATOM     92  O   UNL A   1      51.885  23.781  32.481  1.00  0.00    -0.237 OA
ATOM     93  O   UNL A   1      52.912  25.502  31.048  1.00  0.00    -0.744 OA
ENDBRANCH  89  90
ENDBRANCH  57  82
ENDBRANCH  31  32
ENDBRANCH  24  26
ENDBRANCH  23  24
ENDBRANCH  22  23
ENDBRANCH   1  22
TORSDOF 18
ENDMDL
MODEL 3
REMARK VINA RESULT:     -10.7      6.639     12.521
REMARK SMILES [NH3+][C@@H](CCC1=c2ccccc2=[NH+]C1)C(=O)OCCOC(=O)c1ccc(-c2c3nc(c(-c4c(F)cc(S(=O)(=O)[O-])cc4F)c4ccc([nH]4)c(-c4c(F)cc(S(=O)(=O)[O-])cc4F)c4nc(c(-c5c(F)cc(S(=O)(=O)[O-])cc5F)c5ccc2[nH]5)C=C4)C=C3)cc1
REMARK SMILES IDX 17 1 16 2 14 3 15 4 2 5 1 6 3 10 4 11 5 12 6 13 13 14 7 15
REMARK SMILES IDX 11 16 12 17 8 18 10 19 9 21 18 22 19 23 20 24 21 25 22 26
REMARK SMILES IDX 23 27 87 28 24 29 86 30 25 31 26 32 27 33 80 34 28 35 85 36
REMARK SMILES IDX 79 37 81 38 29 39 84 40 78 41 77 42 30 44 64 45 43 46 63 47
REMARK SMILES IDX 44 48 47 49 62 50 82 51 45 52 46 53 61 55 83 56 48 57 31 58
REMARK SMILES IDX 32 59 41 60 33 61 34 62 40 63 42 64 35 65 36 66 37 67 38 68
REMARK SMILES IDX 39 69 65 70 66 71 75 72 67 73 68 74 74 75 76 76 69 77 70 78
REMARK SMILES IDX 71 79 72 80 73 81 49 82 50 83 59 84 51 85 52 86 58 87 60 88
REMARK SMILES IDX 53 89 54 90 55 91 56 92 57 93
REMARK H PARENT 1 7 1 8 1 9 12 20 81 43 47 54
REMARK Flexibility Score: inf
ROOT
ATOM      1  C   UNL A   1      35.020  33.689  31.865  1.00  0.00     0.274 C 
ENDROOT
BRANCH   1   2
ATOM      2  O   UNL A   1      35.174  34.159  30.512  1.00  0.00    -0.458 OA
BRANCH   2   3
ATOM      3  C   UNL A   1      34.030  34.402  29.810  1.00  0.00     0.364 C 
ATOM      4  O   UNL A   1      32.964  34.753  30.306  1.00  0.00    -0.245 OA
BRANCH   3   5
ATOM      5  C   UNL A   1      34.191  34.121  28.305  1.00  0.00     0.292 C 
BRANCH   5   6
ATOM      6  N   UNL A   1      34.666  35.291  27.545  1.00  0.00    -0.346 N 
ATOM      7  H   UNL A   1      33.886  35.704  27.033  1.00  0.00     0.345 HD
ATOM      8  H   UNL A   1      35.388  35.001  26.887  1.00  0.00     0.345 HD
ATOM      9  H   UNL A   1      35.052  35.982  28.190  1.00  0.00     0.345 HD
ENDBRANCH   5   6
BRANCH   5  10
ATOM     10  C   UNL A   1      35.019  32.852  28.045  1.00  0.00     0.082 C 
BRANCH  10  11
ATOM     11  C   UNL A   1      34.473  31.531  28.606  1.00  0.00     0.045 C 
BRANCH  11  12
ATOM     12  C   UNL A   1      34.187  30.467  27.597  1.00  0.00     0.008 C 
ATOM     13  C   UNL A   1      33.120  30.345  26.811  1.00  0.00     0.051 A 
ATOM     14  C   UNL A   1      35.144  29.332  27.363  1.00  0.00     0.381 C 
ATOM     15  C   UNL A   1      31.929  31.101  26.587  1.00  0.00     0.015 A 
ATOM     16  C   UNL A   1      33.418  29.129  26.038  1.00  0.00     0.206 A 
ATOM     17  N   UNL A   1      34.523  28.502  26.300  1.00  0.00    -0.237 N 
ATOM     18  C   UNL A   1      31.078  30.697  25.630  1.00  0.00     0.001 A 
ATOM     19  C   UNL A   1      32.432  28.743  25.007  1.00  0.00     0.079 A 
ATOM     20  H   UNL A   1      34.868  27.675  25.891  1.00  0.00     0.446 HD
ATOM     21  C   UNL A   1      31.343  29.511  24.831  1.00  0.00     0.007 A 
ENDBRANCH  11  12
ENDBRANCH  10  11
ENDBRANCH   5  10
ENDBRANCH   3   5
ENDBRANCH   2   3
ENDBRANCH   1   2
BRANCH   1  22
ATOM     22  C   UNL A   1      36.200  32.811  32.274  1.00  0.00     0.275 C 
BRANCH  22  23
ATOM     23  O   UNL A   1      36.733  32.140  31.127  1.00  0.00    -0.458 OA
BRANCH  23  24
ATOM     24  C   UNL A   1      36.835  30.793  31.237  1.00  0.00     0.338 C 
ATOM     25  O   UNL A   1      35.984  30.014  31.612  1.00  0.00    -0.246 OA
BRANCH  24  26
ATOM     26  C   UNL A   1      38.125  30.408  30.640  1.00  0.00     0.060 A 
ATOM     27  C   UNL A   1      38.293  30.410  29.254  1.00  0.00     0.016 A 
ATOM     28  C   UNL A   1      39.159  30.001  31.490  1.00  0.00     0.016 A 
ATOM     29  C   UNL A   1      39.500  29.981  28.714  1.00  0.00     0.010 A 
ATOM     30  C   UNL A   1      40.365  29.565  30.948  1.00  0.00     0.010 A 
ATOM     31  C   UNL A   1      40.538  29.553  29.559  1.00  0.00    -0.014 A 
BRANCH  31  32
ATOM     32  C   UNL A   1      41.841  29.193  28.967  1.00  0.00     0.031 A 
ATOM     33  C   UNL A   1      42.978  30.164  28.962  1.00  0.00     0.074 A 
ATOM     34  C   UNL A   1      41.983  27.948  28.482  1.00  0.00     0.049 A 
ATOM     35  N   UNL A   1      44.224  29.963  28.625  1.00  0.00    -0.248 NA
ATOM     36  C   UNL A   1      42.679  31.537  29.394  1.00  0.00     0.031 C 
ATOM     37  C   UNL A   1      40.919  26.942  28.440  1.00  0.00     0.029 A 
ATOM     38  N   UNL A   1      43.075  27.306  27.966  1.00  0.00    -0.354 N 
ATOM     39  C   UNL A   1      44.873  31.173  28.833  1.00  0.00     0.074 A 
ATOM     40  C   UNL A   1      43.867  32.118  29.274  1.00  0.00     0.031 C 
ATOM     41  C   UNL A   1      41.425  25.792  27.972  1.00  0.00     0.029 A 
ATOM     42  C   UNL A   1      42.839  25.987  27.667  1.00  0.00     0.049 A 
ATOM     43  H   UNL A   1      43.945  27.746  27.822  1.00  0.00     0.167 HD
ATOM     44  C   UNL A   1      46.190  31.455  28.688  1.00  0.00     0.037 A 
ATOM     45  C   UNL A   1      43.679  25.034  27.224  1.00  0.00     0.037 A 
ATOM     46  C   UNL A   1      47.164  30.507  28.208  1.00  0.00     0.049 A 
ATOM     47  C   UNL A   1      45.123  25.384  27.022  1.00  0.00     0.074 A 
ATOM     48  C   UNL A   1      48.521  30.685  28.004  1.00  0.00     0.029 A 
ATOM     49  N   UNL A   1      46.878  29.196  27.844  1.00  0.00    -0.354 N 
ATOM     50  N   UNL A   1      45.732  26.525  27.248  1.00  0.00    -0.248 NA
ATOM     51  C   UNL A   1      45.995  24.321  26.510  1.00  0.00     0.031 C 
ATOM     52  C   UNL A   1      49.048  29.496  27.484  1.00  0.00     0.029 A 
ATOM     53  C   UNL A   1      48.027  28.560  27.400  1.00  0.00     0.049 A 
ATOM     54  H   UNL A   1      45.987  28.779  27.894  1.00  0.00     0.167 HD
ATOM     55  C   UNL A   1      47.064  26.317  26.913  1.00  0.00     0.074 A 
ATOM     56  C   UNL A   1      47.171  24.934  26.486  1.00  0.00     0.031 C 
ATOM     57  C   UNL A   1      48.101  27.190  26.953  1.00  0.00     0.037 A 
BRANCH  44  58
ATOM     58  C   UNL A   1      46.639  32.844  29.051  1.00  0.00     0.058 A 
ATOM     59  C   UNL A   1      47.036  33.163  30.360  1.00  0.00     0.135 A 
ATOM     60  C   UNL A   1      46.678  33.867  28.090  1.00  0.00     0.135 A 
ATOM     61  F   UNL A   1      47.008  32.226  31.322  1.00  0.00    -0.206 F 
ATOM     62  C   UNL A   1      47.419  34.453  30.714  1.00  0.00     0.059 A 
ATOM     63  C   UNL A   1      47.079  35.161  28.417  1.00  0.00     0.059 A 
ATOM     64  F   UNL A   1      46.312  33.620  26.823  1.00  0.00    -0.206 F 
ATOM     65  C   UNL A   1      47.430  35.449  29.735  1.00  0.00     0.060 A 
BRANCH  65  66
ATOM     66  S   UNL A   1      47.904  37.124  30.213  1.00  0.00     0.124 S 
ATOM     67  O   UNL A   1      46.632  37.831  30.101  1.00  0.00    -0.237 OA
ATOM     68  O   UNL A   1      48.405  36.934  31.571  1.00  0.00    -0.237 OA
ATOM     69  O   UNL A   1      48.913  37.488  29.223  1.00  0.00    -0.744 OA
ENDBRANCH  65  66
ENDBRANCH  44  58
BRANCH  45  70
ATOM     70  C   UNL A   1      43.167  23.657  27.021  1.00  0.00     0.058 A 
ATOM     71  C   UNL A   1      42.861  23.191  25.735  1.00  0.00     0.135 A 
ATOM     72  C   UNL A   1      43.070  22.751  28.090  1.00  0.00     0.135 A 
ATOM     73  F   UNL A   1      42.938  24.022  24.685  1.00  0.00    -0.206 F 
ATOM     74  C   UNL A   1      42.487  21.871  25.511  1.00  0.00     0.059 A 
ATOM     75  C   UNL A   1      42.717  21.421  27.887  1.00  0.00     0.059 A 
ATOM     76  F   UNL A   1      43.371  23.147  29.335  1.00  0.00    -0.206 F 
ATOM     77  C   UNL A   1      42.429  20.990  26.592  1.00  0.00     0.060 A 
BRANCH  77  78
ATOM     78  S   UNL A   1      42.044  19.254  26.271  1.00  0.00     0.124 S 
ATOM     79  O   UNL A   1      42.296  18.652  27.574  1.00  0.00    -0.237 OA
ATOM     80  O   UNL A   1      40.645  19.324  25.858  1.00  0.00    -0.237 OA
ATOM     81  O   UNL A   1      42.984  18.891  25.214  1.00  0.00    -0.744 OA
ENDBRANCH  77  78
ENDBRANCH  45  70
BRANCH  57  82
ATOM     82  C   UNL A   1      49.438  26.668  26.508  1.00  0.00     0.058 A 
ATOM     83  C   UNL A   1      49.897  26.862  25.197  1.00  0.00     0.135 A 
ATOM     84  C   UNL A   1      50.275  25.986  27.405  1.00  0.00     0.135 A 
ATOM     85  F   UNL A   1      49.130  27.501  24.299  1.00  0.00    -0.206 F 
ATOM     86  C   UNL A   1      51.131  26.374  24.781  1.00  0.00     0.059 A 
ATOM     87  C   UNL A   1      51.523  25.509  27.017  1.00  0.00     0.059 A 
ATOM     88  F   UNL A   1      49.884  25.780  28.673  1.00  0.00    -0.206 F 
ATOM     89  C   UNL A   1      51.936  25.697  25.698  1.00  0.00     0.060 A 
BRANCH  89  90
ATOM     90  S   UNL A   1      53.541  25.080  25.149  1.00  0.00     0.124 S 
ATOM     91  O   UNL A   1      53.574  25.538  23.764  1.00  0.00    -0.237 OA
ATOM     92  O   UNL A   1      54.463  25.753  26.060  1.00  0.00    -0.237 OA
ATOM     93  O   UNL A   1      53.431  23.637  25.332  1.00  0.00    -0.744 OA
ENDBRANCH  89  90
ENDBRANCH  57  82
ENDBRANCH  31  32
ENDBRANCH  24  26
ENDBRANCH  23  24
ENDBRANCH  22  23
ENDBRANCH   1  22
TORSDOF 18
ENDMDL
