MODEL 1
REMARK VINA RESULT:     -11.2      0.000      0.000
REMARK SMILES COc1ccccc1-c1ccc(C(=O)OCCOC(=O)c2ccc(-c3c4nc(c(-c5c(F)cc(S(=O)(=O)[O-])cc5F)c5ccc([nH]5)c(-c5c(F)cc(S(=O)(=O)[O-])cc5F)c5nc(c(-c6c(F)cc(S(=O)(=O)[O-])cc6F)c6ccc3[nH]6)C=C5)C=C4)cc2)c(O)c1
REMARK SMILES IDX 17 1 16 2 15 3 13 4 14 5 12 6 9 7 10 8 89 9 11 10 87 11 8 12
REMARK SMILES IDX 3 13 4 14 5 15 7 16 6 17 2 18 1 19 88 20 18 22 19 23 20 24
REMARK SMILES IDX 21 25 22 26 86 27 23 28 85 29 24 30 25 31 26 32 79 33 27 34
REMARK SMILES IDX 84 35 78 36 80 37 28 38 83 39 77 40 76 41 29 43 63 44 42 45
REMARK SMILES IDX 62 46 43 47 46 48 61 49 81 50 44 51 45 52 60 54 82 55 47 56
REMARK SMILES IDX 30 57 31 58 40 59 32 60 33 61 39 62 41 63 34 64 35 65 36 66
REMARK SMILES IDX 37 67 38 68 64 69 65 70 74 71 66 72 67 73 73 74 75 75 68 76
REMARK SMILES IDX 69 77 70 78 71 79 72 80 48 81 49 82 58 83 50 84 51 85 57 86
REMARK SMILES IDX 59 87 52 88 53 89 54 90 55 91 56 92
REMARK H PARENT 88 21 80 42 46 53
REMARK Flexibility Score: inf
ROOT
ATOM      1  C   UNL A   1      32.463  30.384  26.883  1.00  0.00     0.275 C 
ENDROOT
BRANCH   1   2
ATOM      2  C   UNL A   1      32.276  29.718  25.523  1.00  0.00     0.275 C 
BRANCH   2   3
ATOM      3  O   UNL A   1      33.362  28.808  25.260  1.00  0.00    -0.458 OA
BRANCH   3   4
ATOM      4  C   UNL A   1      33.376  28.279  24.013  1.00  0.00     0.342 C 
ATOM      5  O   UNL A   1      33.323  28.902  22.962  1.00  0.00    -0.246 OA
BRANCH   4   6
ATOM      6  C   UNL A   1      33.586  26.816  24.032  1.00  0.00     0.101 A 
ATOM      7  C   UNL A   1      34.301  24.103  24.286  1.00  0.00    -0.011 A 
ATOM      8  C   UNL A   1      34.008  24.870  25.419  1.00  0.00     0.010 A 
ATOM      9  C   UNL A   1      34.165  24.694  23.016  1.00  0.00     0.056 A 
ATOM     10  C   UNL A   1      33.685  26.215  25.293  1.00  0.00     0.020 A 
ATOM     11  C   UNL A   1      33.811  26.044  22.890  1.00  0.00     0.130 A 
BRANCH   7  12
ATOM     12  C   UNL A   1      34.903  22.778  24.475  1.00  0.00     0.024 A 
ATOM     13  C   UNL A   1      36.279  22.620  24.738  1.00  0.00     0.126 A 
ATOM     14  C   UNL A   1      36.821  21.363  25.020  1.00  0.00     0.047 A 
ATOM     15  C   UNL A   1      35.992  20.246  25.086  1.00  0.00     0.004 A 
ATOM     16  C   UNL A   1      34.090  21.631  24.527  1.00  0.00     0.012 A 
ATOM     17  C   UNL A   1      34.628  20.379  24.835  1.00  0.00     0.001 A 
BRANCH  13  18
ATOM     18  O   UNL A   1      37.164  23.671  24.701  1.00  0.00    -0.496 OA
ATOM     19  C   UNL A   1      37.796  23.868  25.969  1.00  0.00     0.278 C 
ENDBRANCH  13  18
ENDBRANCH   7  12
BRANCH  11  20
ATOM     20  O   UNL A   1      33.779  26.612  21.647  1.00  0.00    -0.507 OA
ATOM     21  H   UNL A   1      34.578  26.763  21.181  1.00  0.00     0.293 HD
ENDBRANCH  11  20
ENDBRANCH   4   6
ENDBRANCH   3   4
ENDBRANCH   2   3
ENDBRANCH   1   2
BRANCH   1  22
ATOM     22  O   UNL A   1      33.598  29.807  27.552  1.00  0.00    -0.458 OA
BRANCH  22  23
ATOM     23  C   UNL A   1      34.420  30.683  28.176  1.00  0.00     0.338 C 
ATOM     24  O   UNL A   1      34.139  31.809  28.551  1.00  0.00    -0.246 OA
BRANCH  23  25
ATOM     25  C   UNL A   1      35.763  30.090  28.352  1.00  0.00     0.060 A 
ATOM     26  C   UNL A   1      36.225  29.729  29.617  1.00  0.00     0.016 A 
ATOM     27  C   UNL A   1      36.617  29.995  27.255  1.00  0.00     0.016 A 
ATOM     28  C   UNL A   1      37.568  29.388  29.805  1.00  0.00     0.010 A 
ATOM     29  C   UNL A   1      37.932  29.543  27.429  1.00  0.00     0.010 A 
ATOM     30  C   UNL A   1      38.446  29.284  28.714  1.00  0.00    -0.014 A 
BRANCH  30  31
ATOM     31  C   UNL A   1      39.897  28.969  28.903  1.00  0.00     0.031 A 
ATOM     32  C   UNL A   1      40.834  30.012  29.471  1.00  0.00     0.074 A 
ATOM     33  C   UNL A   1      40.402  27.761  28.575  1.00  0.00     0.049 A 
ATOM     34  N   UNL A   1      42.144  30.019  29.513  1.00  0.00    -0.248 NA
ATOM     35  C   UNL A   1      40.217  31.219  30.045  1.00  0.00     0.031 C 
ATOM     36  C   UNL A   1      39.638  26.635  28.035  1.00  0.00     0.029 A 
ATOM     37  N   UNL A   1      41.687  27.277  28.652  1.00  0.00    -0.354 N 
ATOM     38  C   UNL A   1      42.506  31.258  30.032  1.00  0.00     0.074 A 
ATOM     39  C   UNL A   1      41.277  31.973  30.303  1.00  0.00     0.031 C 
ATOM     40  C   UNL A   1      40.454  25.581  27.879  1.00  0.00     0.029 A 
ATOM     41  C   UNL A   1      41.816  25.975  28.223  1.00  0.00     0.049 A 
ATOM     42  H   UNL A   1      42.445  27.811  28.983  1.00  0.00     0.167 HD
ATOM     43  C   UNL A   1      43.745  31.759  30.257  1.00  0.00     0.037 A 
ATOM     44  C   UNL A   1      42.905  25.193  28.083  1.00  0.00     0.037 A 
ATOM     45  C   UNL A   1      44.969  31.020  30.080  1.00  0.00     0.049 A 
ATOM     46  C   UNL A   1      44.266  25.747  28.396  1.00  0.00     0.074 A 
ATOM     47  C   UNL A   1      46.269  31.437  30.312  1.00  0.00     0.029 A 
ATOM     48  N   UNL A   1      45.044  29.701  29.662  1.00  0.00    -0.354 N 
ATOM     49  N   UNL A   1      44.592  26.947  28.809  1.00  0.00    -0.248 NA
ATOM     50  C   UNL A   1      45.411  24.845  28.200  1.00  0.00     0.031 C 
ATOM     51  C   UNL A   1      47.132  30.372  30.022  1.00  0.00     0.029 A 
ATOM     52  C   UNL A   1      46.366  29.286  29.634  1.00  0.00     0.049 A 
ATOM     53  H   UNL A   1      44.271  29.140  29.420  1.00  0.00     0.167 HD
ATOM     54  C   UNL A   1      45.978  26.949  28.915  1.00  0.00     0.074 A 
ATOM     55  C   UNL A   1      46.428  25.620  28.552  1.00  0.00     0.031 C 
ATOM     56  C   UNL A   1      46.802  27.963  29.269  1.00  0.00     0.037 A 
BRANCH  43  57
ATOM     57  C   UNL A   1      43.847  33.194  30.695  1.00  0.00     0.058 A 
ATOM     58  C   UNL A   1      43.790  34.260  29.784  1.00  0.00     0.135 A 
ATOM     59  C   UNL A   1      43.976  33.505  32.059  1.00  0.00     0.135 A 
ATOM     60  F   UNL A   1      43.684  34.018  28.468  1.00  0.00    -0.206 F 
ATOM     61  C   UNL A   1      43.884  35.583  30.206  1.00  0.00     0.059 A 
ATOM     62  C   UNL A   1      44.049  34.820  32.507  1.00  0.00     0.059 A 
ATOM     63  F   UNL A   1      44.033  32.524  32.973  1.00  0.00    -0.206 F 
ATOM     64  C   UNL A   1      44.018  35.853  31.570  1.00  0.00     0.060 A 
BRANCH  64  65
ATOM     65  S   UNL A   1      44.141  37.571  32.111  1.00  0.00     0.124 S 
ATOM     66  O   UNL A   1      45.546  37.652  32.500  1.00  0.00    -0.237 OA
ATOM     67  O   UNL A   1      43.776  38.310  30.906  1.00  0.00    -0.237 OA
ATOM     68  O   UNL A   1      43.180  37.651  33.205  1.00  0.00    -0.744 OA
ENDBRANCH  64  65
ENDBRANCH  43  57
BRANCH  44  69
ATOM     69  C   UNL A   1      42.748  23.799  27.593  1.00  0.00     0.058 A 
ATOM     70  C   UNL A   1      42.596  22.733  28.491  1.00  0.00     0.135 A 
ATOM     71  C   UNL A   1      42.711  23.512  26.219  1.00  0.00     0.135 A 
ATOM     72  F   UNL A   1      42.639  22.957  29.813  1.00  0.00    -0.206 F 
ATOM     73  C   UNL A   1      42.408  21.428  28.045  1.00  0.00     0.059 A 
ATOM     74  C   UNL A   1      42.501  22.220  25.750  1.00  0.00     0.059 A 
ATOM     75  F   UNL A   1      42.843  24.501  25.322  1.00  0.00    -0.206 F 
ATOM     76  C   UNL A   1      42.354  21.183  26.671  1.00  0.00     0.060 A 
BRANCH  76  77
ATOM     77  S   UNL A   1      42.019  19.505  26.095  1.00  0.00     0.124 S 
ATOM     78  O   UNL A   1      42.871  19.425  24.915  1.00  0.00    -0.237 OA
ATOM     79  O   UNL A   1      42.431  18.694  27.236  1.00  0.00    -0.237 OA
ATOM     80  O   UNL A   1      40.582  19.525  25.838  1.00  0.00    -0.744 OA
ENDBRANCH  76  77
ENDBRANCH  44  69
BRANCH  56  81
ATOM     81  C   UNL A   1      48.275  27.671  29.292  1.00  0.00     0.058 A 
ATOM     82  C   UNL A   1      49.066  27.814  28.143  1.00  0.00     0.135 A 
ATOM     83  C   UNL A   1      48.903  27.259  30.478  1.00  0.00     0.135 A 
ATOM     84  F   UNL A   1      48.510  28.199  26.984  1.00  0.00    -0.206 F 
ATOM     85  C   UNL A   1      50.429  27.532  28.160  1.00  0.00     0.059 A 
ATOM     86  C   UNL A   1      50.267  26.989  30.522  1.00  0.00     0.059 A 
ATOM     87  F   UNL A   1      48.190  27.115  31.606  1.00  0.00    -0.206 F 
ATOM     88  C   UNL A   1      51.019  27.113  29.354  1.00  0.00     0.060 A 
BRANCH  88  89
ATOM     89  S   UNL A   1      52.789  26.753  29.373  1.00  0.00     0.124 S 
ATOM     90  O   UNL A   1      52.966  26.092  28.084  1.00  0.00    -0.237 OA
ATOM     91  O   UNL A   1      53.383  28.081  29.490  1.00  0.00    -0.237 OA
ATOM     92  O   UNL A   1      52.946  25.899  30.546  1.00  0.00    -0.744 OA
ENDBRANCH  88  89
ENDBRANCH  56  81
ENDBRANCH  30  31
ENDBRANCH  23  25
ENDBRANCH  22  23
ENDBRANCH   1  22
TORSDOF 17
ENDMDL
MODEL 2
REMARK VINA RESULT:     -11.2      5.046     10.830
REMARK SMILES COc1ccccc1-c1ccc(C(=O)OCCOC(=O)c2ccc(-c3c4nc(c(-c5c(F)cc(S(=O)(=O)[O-])cc5F)c5ccc([nH]5)c(-c5c(F)cc(S(=O)(=O)[O-])cc5F)c5nc(c(-c6c(F)cc(S(=O)(=O)[O-])cc6F)c6ccc3[nH]6)C=C5)C=C4)cc2)c(O)c1
REMARK SMILES IDX 17 1 16 2 15 3 13 4 14 5 12 6 9 7 10 8 89 9 11 10 87 11 8 12
REMARK SMILES IDX 3 13 4 14 5 15 7 16 6 17 2 18 1 19 88 20 18 22 19 23 20 24
REMARK SMILES IDX 21 25 22 26 86 27 23 28 85 29 24 30 25 31 26 32 79 33 27 34
REMARK SMILES IDX 84 35 78 36 80 37 28 38 83 39 77 40 76 41 29 43 63 44 42 45
REMARK SMILES IDX 62 46 43 47 46 48 61 49 81 50 44 51 45 52 60 54 82 55 47 56
REMARK SMILES IDX 30 57 31 58 40 59 32 60 33 61 39 62 41 63 34 64 35 65 36 66
REMARK SMILES IDX 37 67 38 68 64 69 65 70 74 71 66 72 67 73 73 74 75 75 68 76
REMARK SMILES IDX 69 77 70 78 71 79 72 80 48 81 49 82 58 83 50 84 51 85 57 86
REMARK SMILES IDX 59 87 52 88 53 89 54 90 55 91 56 92
REMARK H PARENT 88 21 80 42 46 53
REMARK Flexibility Score: inf
ROOT
ATOM      1  C   UNL A   1      40.253  21.864  26.592  1.00  0.00     0.275 C 
ENDROOT
BRANCH   1   2
ATOM      2  C   UNL A   1      39.159  21.161  25.793  1.00  0.00     0.275 C 
BRANCH   2   3
ATOM      3  O   UNL A   1      38.087  22.077  25.501  1.00  0.00    -0.458 OA
BRANCH   3   4
ATOM      4  C   UNL A   1      36.896  21.495  25.226  1.00  0.00     0.342 C 
ATOM      5  O   UNL A   1      36.705  20.309  24.997  1.00  0.00    -0.246 OA
BRANCH   4   6
ATOM      6  C   UNL A   1      35.770  22.447  25.346  1.00  0.00     0.101 A 
ATOM      7  C   UNL A   1      33.899  24.538  25.589  1.00  0.00    -0.011 A 
ATOM      8  C   UNL A   1      34.782  24.497  24.505  1.00  0.00     0.010 A 
ATOM      9  C   UNL A   1      33.917  23.480  26.517  1.00  0.00     0.056 A 
ATOM     10  C   UNL A   1      35.724  23.481  24.404  1.00  0.00     0.020 A 
ATOM     11  C   UNL A   1      34.850  22.440  26.396  1.00  0.00     0.130 A 
BRANCH   7  12
ATOM     12  C   UNL A   1      33.117  25.761  25.809  1.00  0.00     0.024 A 
ATOM     13  C   UNL A   1      31.708  25.756  25.771  1.00  0.00     0.126 A 
ATOM     14  C   UNL A   1      30.972  26.901  26.086  1.00  0.00     0.047 A 
ATOM     15  C   UNL A   1      31.629  28.063  26.484  1.00  0.00     0.004 A 
ATOM     16  C   UNL A   1      33.758  26.952  26.194  1.00  0.00     0.012 A 
ATOM     17  C   UNL A   1      33.021  28.089  26.535  1.00  0.00     0.001 A 
BRANCH  13  18
ATOM     18  O   UNL A   1      30.983  24.649  25.396  1.00  0.00    -0.496 OA
ATOM     19  C   UNL A   1      30.314  24.058  26.513  1.00  0.00     0.278 C 
ENDBRANCH  13  18
ENDBRANCH   7  12
BRANCH  11  20
ATOM     20  O   UNL A   1      34.904  21.477  27.365  1.00  0.00    -0.507 OA
ATOM     21  H   UNL A   1      34.509  21.632  28.201  1.00  0.00     0.293 HD
ENDBRANCH  11  20
ENDBRANCH   4   6
ENDBRANCH   3   4
ENDBRANCH   2   3
ENDBRANCH   1   2
BRANCH   1  22
ATOM     22  O   UNL A   1      39.965  23.271  26.669  1.00  0.00    -0.458 OA
BRANCH  22  23
ATOM     23  C   UNL A   1      41.037  24.095  26.598  1.00  0.00     0.338 C 
ATOM     24  O   UNL A   1      42.060  23.910  25.960  1.00  0.00    -0.246 OA
BRANCH  23  25
ATOM     25  C   UNL A   1      40.815  25.299  27.428  1.00  0.00     0.060 A 
ATOM     26  C   UNL A   1      41.673  26.394  27.342  1.00  0.00     0.016 A 
ATOM     27  C   UNL A   1      39.802  25.292  28.385  1.00  0.00     0.016 A 
ATOM     28  C   UNL A   1      41.596  27.425  28.283  1.00  0.00     0.010 A 
ATOM     29  C   UNL A   1      39.656  26.380  29.255  1.00  0.00     0.010 A 
ATOM     30  C   UNL A   1      40.583  27.439  29.255  1.00  0.00    -0.014 A 
BRANCH  30  31
ATOM     31  C   UNL A   1      40.515  28.509  30.301  1.00  0.00     0.031 A 
ATOM     32  C   UNL A   1      41.497  28.509  31.453  1.00  0.00     0.074 A 
ATOM     33  C   UNL A   1      39.587  29.487  30.246  1.00  0.00     0.049 A 
ATOM     34  N   UNL A   1      41.476  29.205  32.563  1.00  0.00    -0.248 NA
ATOM     35  C   UNL A   1      42.638  27.585  31.354  1.00  0.00     0.031 C 
ATOM     36  C   UNL A   1      38.580  29.649  29.197  1.00  0.00     0.029 A 
ATOM     37  N   UNL A   1      39.344  30.540  31.098  1.00  0.00    -0.354 N 
ATOM     38  C   UNL A   1      42.543  28.742  33.327  1.00  0.00     0.074 A 
ATOM     39  C   UNL A   1      43.200  27.715  32.548  1.00  0.00     0.031 C 
ATOM     40  C   UNL A   1      37.864  30.760  29.438  1.00  0.00     0.029 A 
ATOM     41  C   UNL A   1      38.300  31.344  30.703  1.00  0.00     0.049 A 
ATOM     42  H   UNL A   1      39.869  30.703  31.915  1.00  0.00     0.167 HD
ATOM     43  C   UNL A   1      42.937  29.131  34.564  1.00  0.00     0.037 A 
ATOM     44  C   UNL A   1      37.727  32.408  31.299  1.00  0.00     0.037 A 
ATOM     45  C   UNL A   1      42.349  30.218  35.305  1.00  0.00     0.049 A 
ATOM     46  C   UNL A   1      38.218  32.862  32.644  1.00  0.00     0.074 A 
ATOM     47  C   UNL A   1      42.702  30.702  36.553  1.00  0.00     0.029 A 
ATOM     48  N   UNL A   1      41.306  31.011  34.852  1.00  0.00    -0.354 N 
ATOM     49  N   UNL A   1      39.176  32.360  33.384  1.00  0.00    -0.248 NA
ATOM     50  C   UNL A   1      37.532  34.016  33.247  1.00  0.00     0.031 C 
ATOM     51  C   UNL A   1      41.865  31.781  36.861  1.00  0.00     0.029 A 
ATOM     52  C   UNL A   1      41.008  31.984  35.792  1.00  0.00     0.049 A 
ATOM     53  H   UNL A   1      40.846  30.900  33.989  1.00  0.00     0.167 HD
ATOM     54  C   UNL A   1      39.204  33.130  34.541  1.00  0.00     0.074 A 
ATOM     55  C   UNL A   1      38.187  34.151  34.392  1.00  0.00     0.031 C 
ATOM     56  C   UNL A   1      39.993  32.993  35.634  1.00  0.00     0.037 A 
BRANCH  43  57
ATOM     57  C   UNL A   1      44.048  28.355  35.217  1.00  0.00     0.058 A 
ATOM     58  C   UNL A   1      43.803  27.231  36.020  1.00  0.00     0.135 A 
ATOM     59  C   UNL A   1      45.385  28.732  35.007  1.00  0.00     0.135 A 
ATOM     60  F   UNL A   1      42.543  26.838  36.266  1.00  0.00    -0.206 F 
ATOM     61  C   UNL A   1      44.843  26.523  36.615  1.00  0.00     0.059 A 
ATOM     62  C   UNL A   1      46.442  28.025  35.573  1.00  0.00     0.059 A 
ATOM     63  F   UNL A   1      45.676  29.798  34.244  1.00  0.00    -0.206 F 
ATOM     64  C   UNL A   1      46.160  26.931  36.390  1.00  0.00     0.060 A 
BRANCH  64  65
ATOM     65  S   UNL A   1      47.504  26.009  37.166  1.00  0.00     0.124 S 
ATOM     66  O   UNL A   1      47.350  26.395  38.565  1.00  0.00    -0.237 OA
ATOM     67  O   UNL A   1      47.162  24.625  36.851  1.00  0.00    -0.237 OA
ATOM     68  O   UNL A   1      48.696  26.522  36.499  1.00  0.00    -0.744 OA
ENDBRANCH  64  65
ENDBRANCH  43  57
BRANCH  44  69
ATOM     69  C   UNL A   1      36.595  33.102  30.632  1.00  0.00     0.058 A 
ATOM     70  C   UNL A   1      35.272  32.878  31.039  1.00  0.00     0.135 A 
ATOM     71  C   UNL A   1      36.817  34.028  29.600  1.00  0.00     0.135 A 
ATOM     72  F   UNL A   1      35.011  31.991  32.012  1.00  0.00    -0.206 F 
ATOM     73  C   UNL A   1      34.206  33.551  30.451  1.00  0.00     0.059 A 
ATOM     74  C   UNL A   1      35.770  34.730  29.013  1.00  0.00     0.059 A 
ATOM     75  F   UNL A   1      38.067  34.282  29.183  1.00  0.00    -0.206 F 
ATOM     76  C   UNL A   1      34.467  34.482  29.443  1.00  0.00     0.060 A 
BRANCH  76  77
ATOM     77  S   UNL A   1      33.092  35.421  28.743  1.00  0.00     0.124 S 
ATOM     78  O   UNL A   1      32.392  34.393  27.983  1.00  0.00    -0.237 OA
ATOM     79  O   UNL A   1      32.408  35.910  29.936  1.00  0.00    -0.237 OA
ATOM     80  O   UNL A   1      33.763  36.448  27.951  1.00  0.00    -0.744 OA
ENDBRANCH  76  77
ENDBRANCH  44  69
BRANCH  56  81
ATOM     81  C   UNL A   1      39.795  33.981  36.748  1.00  0.00     0.058 A 
ATOM     82  C   UNL A   1      40.440  35.227  36.743  1.00  0.00     0.135 A 
ATOM     83  C   UNL A   1      38.940  33.684  37.821  1.00  0.00     0.135 A 
ATOM     84  F   UNL A   1      41.272  35.553  35.742  1.00  0.00    -0.206 F 
ATOM     85  C   UNL A   1      40.265  36.138  37.780  1.00  0.00     0.059 A 
ATOM     86  C   UNL A   1      38.738  34.588  38.860  1.00  0.00     0.059 A 
ATOM     87  F   UNL A   1      38.294  32.509  37.867  1.00  0.00    -0.206 F 
ATOM     88  C   UNL A   1      39.417  35.806  38.838  1.00  0.00     0.060 A 
BRANCH  88  89
ATOM     89  S   UNL A   1      39.190  36.994  40.180  1.00  0.00     0.124 S 
ATOM     90  O   UNL A   1      40.569  37.238  40.590  1.00  0.00    -0.237 OA
ATOM     91  O   UNL A   1      38.522  38.106  39.511  1.00  0.00    -0.237 OA
ATOM     92  O   UNL A   1      38.367  36.264  41.140  1.00  0.00    -0.744 OA
ENDBRANCH  88  89
ENDBRANCH  56  81
ENDBRANCH  30  31
ENDBRANCH  23  25
ENDBRANCH  22  23
ENDBRANCH   1  22
TORSDOF 17
ENDMDL
MODEL 3
REMARK VINA RESULT:     -11.0      5.066     10.822
REMARK SMILES COc1ccccc1-c1ccc(C(=O)OCCOC(=O)c2ccc(-c3c4nc(c(-c5c(F)cc(S(=O)(=O)[O-])cc5F)c5ccc([nH]5)c(-c5c(F)cc(S(=O)(=O)[O-])cc5F)c5nc(c(-c6c(F)cc(S(=O)(=O)[O-])cc6F)c6ccc3[nH]6)C=C5)C=C4)cc2)c(O)c1
REMARK SMILES IDX 17 1 16 2 15 3 13 4 14 5 12 6 9 7 10 8 89 9 11 10 87 11 8 12
REMARK SMILES IDX 3 13 4 14 5 15 7 16 6 17 2 18 1 19 88 20 18 22 19 23 20 24
REMARK SMILES IDX 21 25 22 26 86 27 23 28 85 29 24 30 25 31 26 32 79 33 27 34
REMARK SMILES IDX 84 35 78 36 80 37 28 38 83 39 77 40 76 41 29 43 63 44 42 45
REMARK SMILES IDX 62 46 43 47 46 48 61 49 81 50 44 51 45 52 60 54 82 55 47 56
REMARK SMILES IDX 30 57 31 58 40 59 32 60 33 61 39 62 41 63 34 64 35 65 36 66
REMARK SMILES IDX 37 67 38 68 64 69 65 70 74 71 66 72 67 73 73 74 75 75 68 76
REMARK SMILES IDX 69 77 70 78 71 79 72 80 48 81 49 82 58 83 50 84 51 85 57 86
REMARK SMILES IDX 59 87 52 88 53 89 54 90 55 91 56 92
REMARK H PARENT 88 21 80 42 46 53
REMARK Flexibility Score: inf
ROOT
ATOM      1  C   UNL A   1      39.427  21.988  26.230  1.00  0.00     0.275 C 
ENDROOT
BRANCH   1   2
ATOM      2  C   UNL A   1      38.160  21.548  25.502  1.00  0.00     0.275 C 
BRANCH   2   3
ATOM      3  O   UNL A   1      37.269  22.667  25.331  1.00  0.00    -0.458 OA
BRANCH   3   4
ATOM      4  C   UNL A   1      35.961  22.395  25.555  1.00  0.00     0.342 C 
ATOM      5  O   UNL A   1      35.510  21.382  26.069  1.00  0.00    -0.246 OA
BRANCH   4   6
ATOM      6  C   UNL A   1      35.088  23.537  25.209  1.00  0.00     0.101 A 
ATOM      7  C   UNL A   1      33.132  25.497  24.691  1.00  0.00    -0.011 A 
ATOM      8  C   UNL A   1      33.357  25.046  25.996  1.00  0.00     0.010 A 
ATOM      9  C   UNL A   1      33.947  25.005  23.655  1.00  0.00     0.056 A 
ATOM     10  C   UNL A   1      34.301  24.057  26.245  1.00  0.00     0.020 A 
ATOM     11  C   UNL A   1      34.920  24.029  23.913  1.00  0.00     0.130 A 
BRANCH   7  12
ATOM     12  C   UNL A   1      31.948  26.326  24.432  1.00  0.00     0.024 A 
ATOM     13  C   UNL A   1      31.992  27.731  24.536  1.00  0.00     0.126 A 
ATOM     14  C   UNL A   1      30.891  28.516  24.185  1.00  0.00     0.047 A 
ATOM     15  C   UNL A   1      29.738  27.914  23.685  1.00  0.00     0.004 A 
ATOM     16  C   UNL A   1      30.766  25.740  23.945  1.00  0.00     0.012 A 
ATOM     17  C   UNL A   1      29.675  26.528  23.569  1.00  0.00     0.001 A 
BRANCH  13  18
ATOM     18  O   UNL A   1      33.093  28.403  25.012  1.00  0.00    -0.496 OA
ATOM     19  C   UNL A   1      32.783  29.766  25.316  1.00  0.00     0.278 C 
ENDBRANCH  13  18
ENDBRANCH   7  12
BRANCH  11  20
ATOM     20  O   UNL A   1      35.630  23.503  22.870  1.00  0.00    -0.507 OA
ATOM     21  H   UNL A   1      36.563  23.428  22.930  1.00  0.00     0.293 HD
ENDBRANCH  11  20
ENDBRANCH   4   6
ENDBRANCH   3   4
ENDBRANCH   2   3
ENDBRANCH   1   2
BRANCH   1  22
ATOM     22  O   UNL A   1      39.368  23.401  26.491  1.00  0.00    -0.458 OA
BRANCH  22  23
ATOM     23  C   UNL A   1      40.559  24.012  26.693  1.00  0.00     0.338 C 
ATOM     24  O   UNL A   1      41.647  23.647  26.278  1.00  0.00    -0.246 OA
BRANCH  23  25
ATOM     25  C   UNL A   1      40.380  25.226  27.517  1.00  0.00     0.060 A 
ATOM     26  C   UNL A   1      41.238  26.316  27.379  1.00  0.00     0.016 A 
ATOM     27  C   UNL A   1      39.412  25.236  28.520  1.00  0.00     0.016 A 
ATOM     28  C   UNL A   1      41.208  27.359  28.311  1.00  0.00     0.010 A 
ATOM     29  C   UNL A   1      39.310  26.333  29.383  1.00  0.00     0.010 A 
ATOM     30  C   UNL A   1      40.240  27.389  29.328  1.00  0.00    -0.014 A 
BRANCH  30  31
ATOM     31  C   UNL A   1      40.225  28.470  30.364  1.00  0.00     0.031 A 
ATOM     32  C   UNL A   1      41.222  28.448  31.502  1.00  0.00     0.074 A 
ATOM     33  C   UNL A   1      39.331  29.481  30.311  1.00  0.00     0.049 A 
ATOM     34  N   UNL A   1      41.242  29.155  32.604  1.00  0.00    -0.248 NA
ATOM     35  C   UNL A   1      42.330  27.484  31.397  1.00  0.00     0.031 C 
ATOM     36  C   UNL A   1      38.315  29.667  29.275  1.00  0.00     0.029 A 
ATOM     37  N   UNL A   1      39.137  30.549  31.155  1.00  0.00    -0.354 N 
ATOM     38  C   UNL A   1      42.303  28.664  33.358  1.00  0.00     0.074 A 
ATOM     39  C   UNL A   1      42.912  27.606  32.582  1.00  0.00     0.031 C 
ATOM     40  C   UNL A   1      37.642  30.804  29.514  1.00  0.00     0.029 A 
ATOM     41  C   UNL A   1      38.116  31.386  30.766  1.00  0.00     0.049 A 
ATOM     42  H   UNL A   1      39.679  30.702  31.963  1.00  0.00     0.167 HD
ATOM     43  C   UNL A   1      42.728  29.051  34.585  1.00  0.00     0.037 A 
ATOM     44  C   UNL A   1      37.589  32.475  31.359  1.00  0.00     0.037 A 
ATOM     45  C   UNL A   1      42.188  30.165  35.323  1.00  0.00     0.049 A 
ATOM     46  C   UNL A   1      38.115  32.926  32.692  1.00  0.00     0.074 A 
ATOM     47  C   UNL A   1      42.576  30.649  36.561  1.00  0.00     0.029 A 
ATOM     48  N   UNL A   1      41.168  30.990  34.876  1.00  0.00    -0.354 N 
ATOM     49  N   UNL A   1      39.065  32.398  33.424  1.00  0.00    -0.248 NA
ATOM     50  C   UNL A   1      37.478  34.108  33.292  1.00  0.00     0.031 C 
ATOM     51  C   UNL A   1      41.782  31.760  36.869  1.00  0.00     0.029 A 
ATOM     52  C   UNL A   1      40.917  31.982  35.810  1.00  0.00     0.049 A 
ATOM     53  H   UNL A   1      40.691  30.886  34.021  1.00  0.00     0.167 HD
ATOM     54  C   UNL A   1      39.137  33.177  34.572  1.00  0.00     0.074 A 
ATOM     55  C   UNL A   1      38.154  34.232  34.426  1.00  0.00     0.031 C 
ATOM     56  C   UNL A   1      39.936  33.025  35.656  1.00  0.00     0.037 A 
BRANCH  43  57
ATOM     57  C   UNL A   1      43.820  28.243  35.231  1.00  0.00     0.058 A 
ATOM     58  C   UNL A   1      45.175  28.584  35.107  1.00  0.00     0.135 A 
ATOM     59  C   UNL A   1      43.495  27.121  36.012  1.00  0.00     0.135 A 
ATOM     60  F   UNL A   1      45.541  29.636  34.359  1.00  0.00    -0.206 F 
ATOM     61  C   UNL A   1      46.173  27.825  35.713  1.00  0.00     0.059 A 
ATOM     62  C   UNL A   1      44.474  26.361  36.645  1.00  0.00     0.059 A 
ATOM     63  F   UNL A   1      42.213  26.752  36.165  1.00  0.00    -0.206 F 
ATOM     64  C   UNL A   1      45.813  26.713  36.476  1.00  0.00     0.060 A 
BRANCH  64  65
ATOM     65  S   UNL A   1      47.112  25.733  37.258  1.00  0.00     0.124 S 
ATOM     66  O   UNL A   1      48.101  25.656  36.186  1.00  0.00    -0.237 OA
ATOM     67  O   UNL A   1      47.486  26.557  38.404  1.00  0.00    -0.237 OA
ATOM     68  O   UNL A   1      46.441  24.480  37.585  1.00  0.00    -0.744 OA
ENDBRANCH  64  65
ENDBRANCH  43  57
BRANCH  44  69
ATOM     69  C   UNL A   1      36.473  33.201  30.700  1.00  0.00     0.058 A 
ATOM     70  C   UNL A   1      35.156  33.070  31.163  1.00  0.00     0.135 A 
ATOM     71  C   UNL A   1      36.706  34.067  29.620  1.00  0.00     0.135 A 
ATOM     72  F   UNL A   1      34.883  32.244  32.184  1.00  0.00    -0.206 F 
ATOM     73  C   UNL A   1      34.107  33.776  30.582  1.00  0.00     0.059 A 
ATOM     74  C   UNL A   1      35.678  34.800  29.037  1.00  0.00     0.059 A 
ATOM     75  F   UNL A   1      37.951  34.231  29.147  1.00  0.00    -0.206 F 
ATOM     76  C   UNL A   1      34.380  34.645  29.523  1.00  0.00     0.060 A 
BRANCH  76  77
ATOM     77  S   UNL A   1      33.034  35.628  28.829  1.00  0.00     0.124 S 
ATOM     78  O   UNL A   1      33.766  36.660  28.106  1.00  0.00    -0.237 OA
ATOM     79  O   UNL A   1      32.326  34.652  28.005  1.00  0.00    -0.237 OA
ATOM     80  O   UNL A   1      32.308  36.077  30.014  1.00  0.00    -0.744 OA
ENDBRANCH  76  77
ENDBRANCH  44  69
BRANCH  56  81
ATOM     81  C   UNL A   1      39.788  34.029  36.762  1.00  0.00     0.058 A 
ATOM     82  C   UNL A   1      38.963  33.781  37.868  1.00  0.00     0.135 A 
ATOM     83  C   UNL A   1      40.490  35.244  36.721  1.00  0.00     0.135 A 
ATOM     84  F   UNL A   1      38.266  32.636  37.949  1.00  0.00    -0.206 F 
ATOM     85  C   UNL A   1      38.816  34.716  38.888  1.00  0.00     0.059 A 
ATOM     86  C   UNL A   1      40.371  36.186  37.739  1.00  0.00     0.059 A 
ATOM     87  F   UNL A   1      41.298  35.525  35.688  1.00  0.00    -0.206 F 
ATOM     88  C   UNL A   1      39.519  35.919  38.811  1.00  0.00     0.060 A 
BRANCH  88  89
ATOM     89  S   UNL A   1      39.329  37.128  40.139  1.00  0.00     0.124 S 
ATOM     90  O   UNL A   1      38.579  36.360  41.127  1.00  0.00    -0.237 OA
ATOM     91  O   UNL A   1      40.712  37.433  40.493  1.00  0.00    -0.237 OA
ATOM     92  O   UNL A   1      38.597  38.218  39.501  1.00  0.00    -0.744 OA
ENDBRANCH  88  89
ENDBRANCH  56  81
ENDBRANCH  30  31
ENDBRANCH  23  25
ENDBRANCH  22  23
ENDBRANCH   1  22
TORSDOF 17
ENDMDL
