MODEL 1
REMARK VINA RESULT:     -12.2      0.000      0.000
REMARK SMILES Cc1c(C(=O)OCCOC(=O)c2ccc(-c3c4nc(c(-c5c(F)cc(S(=O)(=O)[O-])cc5F)c5ccc([nH]5)c(-c5c(F)cc(S(=O)(=O)[O-])cc5F)c5nc(c(-c6c(F)cc(S(=O)(=O)[O-])cc6F)c6ccc3[nH]6)C=C5)C=C4)cc2)sc2ncnc(NCc3cn4c(n3)SCC4)c12
REMARK SMILES IDX 7 1 6 2 4 3 5 4 3 5 1 6 2 7 94 8 78 9 79 10 83 11 80 12
REMARK SMILES IDX 82 13 81 14 84 15 85 17 86 18 87 19 90 20 88 21 89 22 93 23
REMARK SMILES IDX 91 24 92 25 8 26 9 27 10 28 11 29 12 30 13 31 77 32 14 33
REMARK SMILES IDX 76 34 15 35 16 36 17 37 70 38 18 39 75 40 69 41 71 42 19 43
REMARK SMILES IDX 74 44 68 45 67 46 20 48 54 49 33 50 53 51 34 52 37 53 52 54
REMARK SMILES IDX 72 55 35 56 36 57 51 59 73 60 38 61 21 62 22 63 31 64 23 65
REMARK SMILES IDX 24 66 30 67 32 68 25 69 26 70 27 71 28 72 29 73 55 74 56 75
REMARK SMILES IDX 65 76 57 77 58 78 64 79 66 80 59 81 60 82 61 83 62 84 63 85
REMARK SMILES IDX 39 86 40 87 49 88 41 89 42 90 48 91 50 92 43 93 44 94 45 95
REMARK SMILES IDX 46 96 47 97
REMARK H PARENT 84 16 71 47 37 58
REMARK Flexibility Score: inf
ROOT
ATOM      1  C   UNL A   1      37.056  21.309  24.433  1.00  0.00     0.275 C 
ENDROOT
BRANCH   1   2
ATOM      2  O   UNL A   1      36.615  22.676  24.521  1.00  0.00    -0.458 OA
BRANCH   2   3
ATOM      3  C   UNL A   1      35.549  23.015  23.731  1.00  0.00     0.348 C 
ATOM      4  O   UNL A   1      35.652  23.193  22.519  1.00  0.00    -0.245 OA
BRANCH   3   5
ATOM      5  C   UNL A   1      34.291  23.060  24.481  1.00  0.00     0.118 A 
ATOM      6  C   UNL A   1      34.561  25.368  25.487  1.00  0.00     0.047 C 
ATOM      7  C   UNL A   1      33.776  24.110  25.256  1.00  0.00    -0.012 A 
ATOM      8  C   UNL A   1      32.423  23.812  25.777  1.00  0.00     0.058 A 
ATOM      9  S   UNL A   1      33.246  21.715  24.478  1.00  0.00    -0.108 S 
ATOM     10  C   UNL A   1      32.101  22.497  25.450  1.00  0.00     0.129 A 
ATOM     11  C   UNL A   1      31.407  24.490  26.528  1.00  0.00     0.138 A 
ATOM     12  N   UNL A   1      31.013  21.800  25.810  1.00  0.00    -0.225 NA
ATOM     13  N   UNL A   1      30.323  23.780  26.930  1.00  0.00    -0.219 NA
ATOM     14  C   UNL A   1      30.181  22.507  26.560  1.00  0.00     0.225 A 
BRANCH  11  15
ATOM     15  N   UNL A   1      31.301  25.798  26.931  1.00  0.00    -0.364 N 
ATOM     16  H   UNL A   1      30.957  25.949  27.841  1.00  0.00     0.162 HD
BRANCH  15  17
ATOM     17  C   UNL A   1      31.635  26.968  26.176  1.00  0.00     0.172 C 
BRANCH  17  18
ATOM     18  C   UNL A   1      31.122  27.151  24.785  1.00  0.00     0.079 A 
ATOM     19  C   UNL A   1      31.728  27.858  23.751  1.00  0.00     0.113 A 
ATOM     20  N   UNL A   1      29.771  26.960  24.541  1.00  0.00    -0.226 NA
ATOM     21  N   UNL A   1      30.685  28.225  22.964  1.00  0.00    -0.325 N 
ATOM     22  C   UNL A   1      29.550  27.663  23.467  1.00  0.00     0.168 A 
ATOM     23  C   UNL A   1      30.506  29.355  22.070  1.00  0.00     0.135 C 
ATOM     24  S   UNL A   1      28.118  28.449  22.920  1.00  0.00    -0.086 SA
ATOM     25  C   UNL A   1      29.115  29.904  22.397  1.00  0.00     0.100 C 
ENDBRANCH  17  18
ENDBRANCH  15  17
ENDBRANCH  11  15
ENDBRANCH   3   5
ENDBRANCH   2   3
ENDBRANCH   1   2
BRANCH   1  26
ATOM     26  C   UNL A   1      38.188  21.012  25.412  1.00  0.00     0.275 C 
BRANCH  26  27
ATOM     27  O   UNL A   1      38.595  22.183  26.119  1.00  0.00    -0.458 OA
BRANCH  27  28
ATOM     28  C   UNL A   1      39.774  22.070  26.774  1.00  0.00     0.338 C 
ATOM     29  O   UNL A   1      40.213  21.075  27.324  1.00  0.00    -0.246 OA
BRANCH  28  30
ATOM     30  C   UNL A   1      40.410  23.385  26.885  1.00  0.00     0.060 A 
ATOM     31  C   UNL A   1      41.559  23.476  27.682  1.00  0.00     0.016 A 
ATOM     32  C   UNL A   1      39.710  24.520  26.463  1.00  0.00     0.016 A 
ATOM     33  C   UNL A   1      41.904  24.702  28.211  1.00  0.00     0.010 A 
ATOM     34  C   UNL A   1      40.037  25.737  27.013  1.00  0.00     0.010 A 
ATOM     35  C   UNL A   1      41.084  25.796  27.934  1.00  0.00    -0.014 A 
BRANCH  35  36
ATOM     36  C   UNL A   1      41.297  27.024  28.674  1.00  0.00     0.031 A 
ATOM     37  C   UNL A   1      42.501  27.798  28.277  1.00  0.00     0.074 A 
ATOM     38  C   UNL A   1      40.334  27.475  29.503  1.00  0.00     0.049 A 
ATOM     39  N   UNL A   1      43.520  28.139  28.997  1.00  0.00    -0.248 NA
ATOM     40  C   UNL A   1      42.652  28.112  26.844  1.00  0.00     0.031 C 
ATOM     41  C   UNL A   1      38.978  26.944  29.696  1.00  0.00     0.029 A 
ATOM     42  N   UNL A   1      40.322  28.606  30.251  1.00  0.00    -0.354 N 
ATOM     43  C   UNL A   1      44.330  28.900  28.157  1.00  0.00     0.074 A 
ATOM     44  C   UNL A   1      43.855  28.679  26.816  1.00  0.00     0.031 C 
ATOM     45  C   UNL A   1      38.218  27.880  30.309  1.00  0.00     0.029 A 
ATOM     46  C   UNL A   1      39.053  29.020  30.639  1.00  0.00     0.049 A 
ATOM     47  H   UNL A   1      41.142  29.090  30.500  1.00  0.00     0.167 HD
ATOM     48  C   UNL A   1      45.219  29.826  28.612  1.00  0.00     0.037 A 
ATOM     49  C   UNL A   1      38.737  30.280  31.041  1.00  0.00     0.037 A 
ATOM     50  C   UNL A   1      45.502  29.675  30.012  1.00  0.00     0.049 A 
ATOM     51  C   UNL A   1      40.018  30.929  31.453  1.00  0.00     0.074 A 
ATOM     52  C   UNL A   1      46.085  28.691  30.788  1.00  0.00     0.029 A 
ATOM     53  N   UNL A   1      44.832  30.476  30.904  1.00  0.00    -0.354 N 
ATOM     54  N   UNL A   1      40.747  30.524  32.463  1.00  0.00    -0.248 NA
ATOM     55  C   UNL A   1      40.734  31.690  30.436  1.00  0.00     0.031 C 
ATOM     56  C   UNL A   1      45.271  28.619  31.955  1.00  0.00     0.029 A 
ATOM     57  C   UNL A   1      44.329  29.643  31.876  1.00  0.00     0.049 A 
ATOM     58  H   UNL A   1      44.730  31.454  30.857  1.00  0.00     0.167 HD
ATOM     59  C   UNL A   1      42.062  30.632  32.028  1.00  0.00     0.074 A 
ATOM     60  C   UNL A   1      41.989  31.392  30.781  1.00  0.00     0.031 C 
ATOM     61  C   UNL A   1      43.067  29.862  32.547  1.00  0.00     0.037 A 
BRANCH  48  62
ATOM     62  C   UNL A   1      45.599  31.040  27.810  1.00  0.00     0.058 A 
ATOM     63  C   UNL A   1      46.911  31.199  27.333  1.00  0.00     0.135 A 
ATOM     64  C   UNL A   1      44.752  32.166  27.674  1.00  0.00     0.135 A 
ATOM     65  F   UNL A   1      47.805  30.206  27.457  1.00  0.00    -0.206 F 
ATOM     66  C   UNL A   1      47.352  32.397  26.768  1.00  0.00     0.059 A 
ATOM     67  C   UNL A   1      45.148  33.342  27.055  1.00  0.00     0.059 A 
ATOM     68  F   UNL A   1      43.529  32.200  28.221  1.00  0.00    -0.206 F 
ATOM     69  C   UNL A   1      46.462  33.463  26.636  1.00  0.00     0.060 A 
BRANCH  69  70
ATOM     70  S   UNL A   1      47.048  35.038  25.987  1.00  0.00     0.124 S 
ATOM     71  O   UNL A   1      45.794  35.675  25.603  1.00  0.00    -0.237 OA
ATOM     72  O   UNL A   1      47.728  35.608  27.145  1.00  0.00    -0.237 OA
ATOM     73  O   UNL A   1      47.921  34.643  24.886  1.00  0.00    -0.744 OA
ENDBRANCH  69  70
ENDBRANCH  48  62
BRANCH  49  74
ATOM     74  C   UNL A   1      37.531  31.049  30.616  1.00  0.00     0.058 A 
ATOM     75  C   UNL A   1      36.652  31.622  31.553  1.00  0.00     0.135 A 
ATOM     76  C   UNL A   1      37.342  31.449  29.275  1.00  0.00     0.135 A 
ATOM     77  F   UNL A   1      36.785  31.340  32.859  1.00  0.00    -0.206 F 
ATOM     78  C   UNL A   1      35.660  32.543  31.184  1.00  0.00     0.059 A 
ATOM     79  C   UNL A   1      36.353  32.347  28.882  1.00  0.00     0.059 A 
ATOM     80  F   UNL A   1      38.173  31.047  28.303  1.00  0.00    -0.206 F 
ATOM     81  C   UNL A   1      35.526  32.906  29.844  1.00  0.00     0.060 A 
BRANCH  81  82
ATOM     82  S   UNL A   1      34.331  34.178  29.368  1.00  0.00     0.124 S 
ATOM     83  O   UNL A   1      33.736  34.529  30.653  1.00  0.00    -0.237 OA
ATOM     84  O   UNL A   1      35.189  35.191  28.764  1.00  0.00    -0.237 OA
ATOM     85  O   UNL A   1      33.443  33.481  28.441  1.00  0.00    -0.744 OA
ENDBRANCH  81  82
ENDBRANCH  49  74
BRANCH  61  86
ATOM     86  C   UNL A   1      42.789  29.001  33.757  1.00  0.00     0.058 A 
ATOM     87  C   UNL A   1      42.080  27.787  33.717  1.00  0.00     0.135 A 
ATOM     88  C   UNL A   1      43.433  29.318  34.963  1.00  0.00     0.135 A 
ATOM     89  F   UNL A   1      41.535  27.347  32.574  1.00  0.00    -0.206 F 
ATOM     90  C   UNL A   1      41.984  26.947  34.830  1.00  0.00     0.059 A 
ATOM     91  C   UNL A   1      43.380  28.482  36.076  1.00  0.00     0.059 A 
ATOM     92  F   UNL A   1      44.188  30.427  35.050  1.00  0.00    -0.206 F 
ATOM     93  C   UNL A   1      42.643  27.302  36.007  1.00  0.00     0.060 A 
BRANCH  93  94
ATOM     94  S   UNL A   1      42.589  26.177  37.418  1.00  0.00     0.124 S 
ATOM     95  O   UNL A   1      43.026  24.918  36.824  1.00  0.00    -0.237 OA
ATOM     96  O   UNL A   1      43.526  26.799  38.350  1.00  0.00    -0.237 OA
ATOM     97  O   UNL A   1      41.189  26.217  37.835  1.00  0.00    -0.744 OA
ENDBRANCH  93  94
ENDBRANCH  61  86
ENDBRANCH  35  36
ENDBRANCH  28  30
ENDBRANCH  27  28
ENDBRANCH  26  27
ENDBRANCH   1  26
TORSDOF 17
ENDMDL
MODEL 2
REMARK VINA RESULT:     -11.7      2.746      9.194
REMARK SMILES Cc1c(C(=O)OCCOC(=O)c2ccc(-c3c4nc(c(-c5c(F)cc(S(=O)(=O)[O-])cc5F)c5ccc([nH]5)c(-c5c(F)cc(S(=O)(=O)[O-])cc5F)c5nc(c(-c6c(F)cc(S(=O)(=O)[O-])cc6F)c6ccc3[nH]6)C=C5)C=C4)cc2)sc2ncnc(NCc3cn4c(n3)SCC4)c12
REMARK SMILES IDX 7 1 6 2 4 3 5 4 3 5 1 6 2 7 94 8 78 9 79 10 83 11 80 12
REMARK SMILES IDX 82 13 81 14 84 15 85 17 86 18 87 19 90 20 88 21 89 22 93 23
REMARK SMILES IDX 91 24 92 25 8 26 9 27 10 28 11 29 12 30 13 31 77 32 14 33
REMARK SMILES IDX 76 34 15 35 16 36 17 37 70 38 18 39 75 40 69 41 71 42 19 43
REMARK SMILES IDX 74 44 68 45 67 46 20 48 54 49 33 50 53 51 34 52 37 53 52 54
REMARK SMILES IDX 72 55 35 56 36 57 51 59 73 60 38 61 21 62 22 63 31 64 23 65
REMARK SMILES IDX 24 66 30 67 32 68 25 69 26 70 27 71 28 72 29 73 55 74 56 75
REMARK SMILES IDX 65 76 57 77 58 78 64 79 66 80 59 81 60 82 61 83 62 84 63 85
REMARK SMILES IDX 39 86 40 87 49 88 41 89 42 90 48 91 50 92 43 93 44 94 45 95
REMARK SMILES IDX 46 96 47 97
REMARK H PARENT 84 16 71 47 37 58
REMARK Flexibility Score: inf
ROOT
ATOM      1  C   UNL A   1      33.056  29.974  25.980  1.00  0.00     0.275 C 
ENDROOT
BRANCH   1   2
ATOM      2  O   UNL A   1      31.954  29.048  25.986  1.00  0.00    -0.458 OA
BRANCH   2   3
ATOM      3  C   UNL A   1      31.373  28.798  24.772  1.00  0.00     0.348 C 
ATOM      4  O   UNL A   1      30.657  29.617  24.198  1.00  0.00    -0.245 OA
BRANCH   3   5
ATOM      5  C   UNL A   1      31.765  27.498  24.222  1.00  0.00     0.118 A 
ATOM      6  C   UNL A   1      30.884  26.042  26.098  1.00  0.00     0.047 C 
ATOM      7  C   UNL A   1      31.535  26.222  24.757  1.00  0.00    -0.012 A 
ATOM      8  C   UNL A   1      31.998  25.143  23.855  1.00  0.00     0.058 A 
ATOM      9  S   UNL A   1      32.616  27.414  22.749  1.00  0.00    -0.108 S 
ATOM     10  C   UNL A   1      32.659  25.722  22.775  1.00  0.00     0.129 A 
ATOM     11  C   UNL A   1      31.968  23.710  23.820  1.00  0.00     0.138 A 
ATOM     12  N   UNL A   1      33.309  25.102  21.778  1.00  0.00    -0.225 NA
ATOM     13  N   UNL A   1      32.657  23.077  22.838  1.00  0.00    -0.219 NA
ATOM     14  C   UNL A   1      33.275  23.783  21.890  1.00  0.00     0.225 A 
BRANCH  11  15
ATOM     15  N   UNL A   1      31.329  22.798  24.623  1.00  0.00    -0.364 N 
ATOM     16  H   UNL A   1      30.520  22.379  24.251  1.00  0.00     0.162 HD
BRANCH  15  17
ATOM     17  C   UNL A   1      31.707  22.388  25.942  1.00  0.00     0.172 C 
BRANCH  17  18
ATOM     18  C   UNL A   1      33.146  22.301  26.332  1.00  0.00     0.079 A 
ATOM     19  C   UNL A   1      33.988  23.352  26.680  1.00  0.00     0.113 A 
ATOM     20  N   UNL A   1      33.869  21.173  25.972  1.00  0.00    -0.226 NA
ATOM     21  N   UNL A   1      35.224  22.885  26.367  1.00  0.00    -0.325 N 
ATOM     22  C   UNL A   1      35.103  21.590  25.961  1.00  0.00     0.168 A 
ATOM     23  C   UNL A   1      36.442  23.573  25.979  1.00  0.00     0.135 C 
ATOM     24  S   UNL A   1      36.457  21.049  25.044  1.00  0.00    -0.086 SA
ATOM     25  C   UNL A   1      36.971  22.794  24.772  1.00  0.00     0.100 C 
ENDBRANCH  17  18
ENDBRANCH  15  17
ENDBRANCH  11  15
ENDBRANCH   3   5
ENDBRANCH   2   3
ENDBRANCH   1   2
BRANCH   1  26
ATOM     26  C   UNL A   1      33.021  30.909  27.185  1.00  0.00     0.275 C 
BRANCH  26  27
ATOM     27  O   UNL A   1      34.018  30.567  28.147  1.00  0.00    -0.458 OA
BRANCH  27  28
ATOM     28  C   UNL A   1      35.165  31.281  28.055  1.00  0.00     0.338 C 
ATOM     29  O   UNL A   1      35.354  32.277  27.378  1.00  0.00    -0.246 OA
BRANCH  28  30
ATOM     30  C   UNL A   1      36.241  30.589  28.769  1.00  0.00     0.060 A 
ATOM     31  C   UNL A   1      37.002  31.346  29.669  1.00  0.00     0.016 A 
ATOM     32  C   UNL A   1      36.655  29.328  28.326  1.00  0.00     0.016 A 
ATOM     33  C   UNL A   1      38.275  30.918  29.985  1.00  0.00     0.010 A 
ATOM     34  C   UNL A   1      37.933  28.916  28.618  1.00  0.00     0.010 A 
ATOM     35  C   UNL A   1      38.749  29.752  29.384  1.00  0.00    -0.014 A 
BRANCH  35  36
ATOM     36  C   UNL A   1      40.154  29.427  29.517  1.00  0.00     0.031 A 
ATOM     37  C   UNL A   1      40.627  29.237  30.913  1.00  0.00     0.074 A 
ATOM     38  C   UNL A   1      40.875  29.134  28.417  1.00  0.00     0.049 A 
ATOM     39  N   UNL A   1      41.547  29.884  31.553  1.00  0.00    -0.248 NA
ATOM     40  C   UNL A   1      39.872  28.289  31.752  1.00  0.00     0.031 C 
ATOM     41  C   UNL A   1      40.402  28.973  27.036  1.00  0.00     0.029 A 
ATOM     42  N   UNL A   1      42.180  28.775  28.329  1.00  0.00    -0.354 N 
ATOM     43  C   UNL A   1      41.632  29.270  32.801  1.00  0.00     0.074 A 
ATOM     44  C   UNL A   1      40.458  28.448  32.935  1.00  0.00     0.031 C 
ATOM     45  C   UNL A   1      41.345  28.322  26.317  1.00  0.00     0.029 A 
ATOM     46  C   UNL A   1      42.514  28.118  27.152  1.00  0.00     0.049 A 
ATOM     47  H   UNL A   1      42.835  28.967  29.039  1.00  0.00     0.167 HD
ATOM     48  C   UNL A   1      42.749  29.308  33.578  1.00  0.00     0.037 A 
ATOM     49  C   UNL A   1      43.614  27.335  26.985  1.00  0.00     0.037 A 
ATOM     50  C   UNL A   1      43.671  30.329  33.167  1.00  0.00     0.049 A 
ATOM     51  C   UNL A   1      44.578  27.720  28.059  1.00  0.00     0.074 A 
ATOM     52  C   UNL A   1      43.634  31.709  33.104  1.00  0.00     0.029 A 
ATOM     53  N   UNL A   1      44.732  29.969  32.371  1.00  0.00    -0.354 N 
ATOM     54  N   UNL A   1      45.130  28.904  28.149  1.00  0.00    -0.248 NA
ATOM     55  C   UNL A   1      44.523  26.964  29.303  1.00  0.00     0.031 C 
ATOM     56  C   UNL A   1      44.254  32.033  31.864  1.00  0.00     0.029 A 
ATOM     57  C   UNL A   1      44.743  30.849  31.314  1.00  0.00     0.049 A 
ATOM     58  H   UNL A   1      45.359  29.227  32.525  1.00  0.00     0.167 HD
ATOM     59  C   UNL A   1      45.135  29.201  29.506  1.00  0.00     0.074 A 
ATOM     60  C   UNL A   1      44.779  27.947  30.169  1.00  0.00     0.031 C 
ATOM     61  C   UNL A   1      45.140  30.487  29.972  1.00  0.00     0.037 A 
BRANCH  48  62
ATOM     62  C   UNL A   1      43.099  28.206  34.539  1.00  0.00     0.058 A 
ATOM     63  C   UNL A   1      43.264  28.476  35.908  1.00  0.00     0.135 A 
ATOM     64  C   UNL A   1      43.487  26.913  34.116  1.00  0.00     0.135 A 
ATOM     65  F   UNL A   1      42.968  29.689  36.402  1.00  0.00    -0.206 F 
ATOM     66  C   UNL A   1      43.786  27.531  36.792  1.00  0.00     0.059 A 
ATOM     67  C   UNL A   1      43.944  25.934  34.986  1.00  0.00     0.059 A 
ATOM     68  F   UNL A   1      43.524  26.575  32.819  1.00  0.00    -0.206 F 
ATOM     69  C   UNL A   1      44.125  26.263  36.319  1.00  0.00     0.060 A 
BRANCH  69  70
ATOM     70  S   UNL A   1      44.879  25.067  37.436  1.00  0.00     0.124 S 
ATOM     71  O   UNL A   1      44.178  25.356  38.682  1.00  0.00    -0.237 OA
ATOM     72  O   UNL A   1      44.549  23.801  36.793  1.00  0.00    -0.237 OA
ATOM     73  O   UNL A   1      46.293  25.428  37.408  1.00  0.00    -0.744 OA
ENDBRANCH  69  70
ENDBRANCH  48  62
BRANCH  49  74
ATOM     74  C   UNL A   1      43.637  26.008  26.302  1.00  0.00     0.058 A 
ATOM     75  C   UNL A   1      44.581  25.707  25.304  1.00  0.00     0.135 A 
ATOM     76  C   UNL A   1      42.888  24.913  26.786  1.00  0.00     0.135 A 
ATOM     77  F   UNL A   1      45.374  26.674  24.816  1.00  0.00    -0.206 F 
ATOM     78  C   UNL A   1      44.776  24.402  24.826  1.00  0.00     0.059 A 
ATOM     79  C   UNL A   1      43.051  23.613  26.316  1.00  0.00     0.059 A 
ATOM     80  F   UNL A   1      42.025  25.053  27.802  1.00  0.00    -0.206 F 
ATOM     81  C   UNL A   1      44.011  23.359  25.348  1.00  0.00     0.060 A 
BRANCH  81  82
ATOM     82  S   UNL A   1      44.332  21.657  24.829  1.00  0.00     0.124 S 
ATOM     83  O   UNL A   1      45.566  21.351  25.543  1.00  0.00    -0.237 OA
ATOM     84  O   UNL A   1      43.135  20.966  25.295  1.00  0.00    -0.237 OA
ATOM     85  O   UNL A   1      44.463  21.762  23.377  1.00  0.00    -0.744 OA
ENDBRANCH  81  82
ENDBRANCH  49  74
BRANCH  61  86
ATOM     86  C   UNL A   1      45.338  31.624  28.998  1.00  0.00     0.058 A 
ATOM     87  C   UNL A   1      46.596  32.106  28.590  1.00  0.00     0.135 A 
ATOM     88  C   UNL A   1      44.220  32.110  28.302  1.00  0.00     0.135 A 
ATOM     89  F   UNL A   1      47.724  31.610  29.116  1.00  0.00    -0.206 F 
ATOM     90  C   UNL A   1      46.733  33.051  27.570  1.00  0.00     0.059 A 
ATOM     91  C   UNL A   1      44.333  33.027  27.260  1.00  0.00     0.059 A 
ATOM     92  F   UNL A   1      42.994  31.639  28.590  1.00  0.00    -0.206 F 
ATOM     93  C   UNL A   1      45.593  33.503  26.906  1.00  0.00     0.060 A 
BRANCH  93  94
ATOM     94  S   UNL A   1      45.777  34.660  25.531  1.00  0.00     0.124 S 
ATOM     95  O   UNL A   1      45.422  35.932  26.151  1.00  0.00    -0.237 OA
ATOM     96  O   UNL A   1      47.184  34.499  25.172  1.00  0.00    -0.237 OA
ATOM     97  O   UNL A   1      44.829  34.164  24.537  1.00  0.00    -0.744 OA
ENDBRANCH  93  94
ENDBRANCH  61  86
ENDBRANCH  35  36
ENDBRANCH  28  30
ENDBRANCH  27  28
ENDBRANCH  26  27
ENDBRANCH   1  26
TORSDOF 17
ENDMDL
MODEL 3
REMARK VINA RESULT:     -11.6      1.553      2.037
REMARK SMILES Cc1c(C(=O)OCCOC(=O)c2ccc(-c3c4nc(c(-c5c(F)cc(S(=O)(=O)[O-])cc5F)c5ccc([nH]5)c(-c5c(F)cc(S(=O)(=O)[O-])cc5F)c5nc(c(-c6c(F)cc(S(=O)(=O)[O-])cc6F)c6ccc3[nH]6)C=C5)C=C4)cc2)sc2ncnc(NCc3cn4c(n3)SCC4)c12
REMARK SMILES IDX 7 1 6 2 4 3 5 4 3 5 1 6 2 7 94 8 78 9 79 10 83 11 80 12
REMARK SMILES IDX 82 13 81 14 84 15 85 17 86 18 87 19 90 20 88 21 89 22 93 23
REMARK SMILES IDX 91 24 92 25 8 26 9 27 10 28 11 29 12 30 13 31 77 32 14 33
REMARK SMILES IDX 76 34 15 35 16 36 17 37 70 38 18 39 75 40 69 41 71 42 19 43
REMARK SMILES IDX 74 44 68 45 67 46 20 48 54 49 33 50 53 51 34 52 37 53 52 54
REMARK SMILES IDX 72 55 35 56 36 57 51 59 73 60 38 61 21 62 22 63 31 64 23 65
REMARK SMILES IDX 24 66 30 67 32 68 25 69 26 70 27 71 28 72 29 73 55 74 56 75
REMARK SMILES IDX 65 76 57 77 58 78 64 79 66 80 59 81 60 82 61 83 62 84 63 85
REMARK SMILES IDX 39 86 40 87 49 88 41 89 42 90 48 91 50 92 43 93 44 94 45 95
REMARK SMILES IDX 46 96 47 97
REMARK H PARENT 84 16 71 47 37 58
REMARK Flexibility Score: inf
ROOT
ATOM      1  C   UNL A   1      38.659  22.545  25.685  1.00  0.00     0.275 C 
ENDROOT
BRANCH   1   2
ATOM      2  O   UNL A   1      37.382  22.233  26.270  1.00  0.00    -0.458 OA
BRANCH   2   3
ATOM      3  C   UNL A   1      36.531  21.491  25.495  1.00  0.00     0.348 C 
ATOM      4  O   UNL A   1      36.846  20.399  25.024  1.00  0.00    -0.245 OA
BRANCH   3   5
ATOM      5  C   UNL A   1      35.209  22.109  25.368  1.00  0.00     0.118 A 
ATOM      6  C   UNL A   1      35.441  22.952  22.991  1.00  0.00     0.047 C 
ATOM      7  C   UNL A   1      34.650  22.746  24.251  1.00  0.00    -0.012 A 
ATOM      8  C   UNL A   1      33.246  23.155  24.482  1.00  0.00     0.058 A 
ATOM      9  S   UNL A   1      34.135  22.110  26.691  1.00  0.00    -0.108 S 
ATOM     10  C   UNL A   1      32.924  22.902  25.813  1.00  0.00     0.129 A 
ATOM     11  C   UNL A   1      32.181  23.749  23.727  1.00  0.00     0.138 A 
ATOM     12  N   UNL A   1      31.788  23.209  26.459  1.00  0.00    -0.225 NA
ATOM     13  N   UNL A   1      31.045  24.098  24.383  1.00  0.00    -0.219 NA
ATOM     14  C   UNL A   1      30.907  23.817  25.679  1.00  0.00     0.225 A 
BRANCH  11  15
ATOM     15  N   UNL A   1      32.070  24.036  22.389  1.00  0.00    -0.364 N 
ATOM     16  H   UNL A   1      31.435  23.488  21.876  1.00  0.00     0.162 HD
BRANCH  15  17
ATOM     17  C   UNL A   1      32.776  25.045  21.657  1.00  0.00     0.172 C 
BRANCH  17  18
ATOM     18  C   UNL A   1      32.648  26.486  22.025  1.00  0.00     0.079 A 
ATOM     19  C   UNL A   1      33.542  27.247  22.771  1.00  0.00     0.113 A 
ATOM     20  N   UNL A   1      31.394  27.077  21.985  1.00  0.00    -0.226 NA
ATOM     21  N   UNL A   1      32.760  28.217  23.310  1.00  0.00    -0.325 N 
ATOM     22  C   UNL A   1      31.500  28.080  22.809  1.00  0.00     0.168 A 
ATOM     23  C   UNL A   1      32.888  28.986  24.535  1.00  0.00     0.135 C 
ATOM     24  S   UNL A   1      30.309  28.864  23.775  1.00  0.00    -0.086 SA
ATOM     25  C   UNL A   1      31.499  28.948  25.176  1.00  0.00     0.100 C 
ENDBRANCH  17  18
ENDBRANCH  15  17
ENDBRANCH  11  15
ENDBRANCH   3   5
ENDBRANCH   2   3
ENDBRANCH   1   2
BRANCH   1  26
ATOM     26  C   UNL A   1      39.775  21.679  26.260  1.00  0.00     0.275 C 
BRANCH  26  27
ATOM     27  O   UNL A   1      40.804  22.471  26.855  1.00  0.00    -0.458 OA
BRANCH  27  28
ATOM     28  C   UNL A   1      41.733  22.939  25.988  1.00  0.00     0.338 C 
ATOM     29  O   UNL A   1      42.369  22.290  25.177  1.00  0.00    -0.246 OA
BRANCH  28  30
ATOM     30  C   UNL A   1      42.007  24.351  26.268  1.00  0.00     0.060 A 
ATOM     31  C   UNL A   1      43.075  24.638  27.129  1.00  0.00     0.016 A 
ATOM     32  C   UNL A   1      41.049  25.313  25.930  1.00  0.00     0.016 A 
ATOM     33  C   UNL A   1      43.081  25.843  27.800  1.00  0.00     0.010 A 
ATOM     34  C   UNL A   1      41.040  26.502  26.620  1.00  0.00     0.010 A 
ATOM     35  C   UNL A   1      42.014  26.719  27.596  1.00  0.00    -0.014 A 
BRANCH  35  36
ATOM     36  C   UNL A   1      41.887  27.868  28.469  1.00  0.00     0.031 A 
ATOM     37  C   UNL A   1      42.982  28.867  28.359  1.00  0.00     0.074 A 
ATOM     38  C   UNL A   1      40.742  28.058  29.154  1.00  0.00     0.049 A 
ATOM     39  N   UNL A   1      43.799  29.279  29.275  1.00  0.00    -0.248 NA
ATOM     40  C   UNL A   1      43.298  29.368  27.010  1.00  0.00     0.031 C 
ATOM     41  C   UNL A   1      39.489  27.298  29.059  1.00  0.00     0.029 A 
ATOM     42  N   UNL A   1      40.412  29.076  29.988  1.00  0.00    -0.354 N 
ATOM     43  C   UNL A   1      44.583  30.253  28.661  1.00  0.00     0.074 A 
ATOM     44  C   UNL A   1      44.370  30.119  27.244  1.00  0.00     0.031 C 
ATOM     45  C   UNL A   1      38.488  28.022  29.612  1.00  0.00     0.029 A 
ATOM     46  C   UNL A   1      39.046  29.233  30.184  1.00  0.00     0.049 A 
ATOM     47  H   UNL A   1      41.084  29.652  30.418  1.00  0.00     0.167 HD
ATOM     48  C   UNL A   1      45.211  31.248  29.345  1.00  0.00     0.037 A 
ATOM     49  C   UNL A   1      38.452  30.370  30.637  1.00  0.00     0.037 A 
ATOM     50  C   UNL A   1      45.293  30.980  30.754  1.00  0.00     0.049 A 
ATOM     51  C   UNL A   1      39.517  31.162  31.323  1.00  0.00     0.074 A 
ATOM     52  C   UNL A   1      45.913  30.017  31.529  1.00  0.00     0.029 A 
ATOM     53  N   UNL A   1      44.360  31.552  31.584  1.00  0.00    -0.354 N 
ATOM     54  N   UNL A   1      40.139  30.761  32.404  1.00  0.00    -0.248 NA
ATOM     55  C   UNL A   1      40.237  32.142  30.520  1.00  0.00     0.031 C 
ATOM     56  C   UNL A   1      44.952  29.678  32.524  1.00  0.00     0.029 A 
ATOM     57  C   UNL A   1      43.867  30.540  32.374  1.00  0.00     0.049 A 
ATOM     58  H   UNL A   1      44.096  32.500  31.609  1.00  0.00     0.167 HD
ATOM     59  C   UNL A   1      41.466  31.128  32.217  1.00  0.00     0.074 A 
ATOM     60  C   UNL A   1      41.455  32.010  31.050  1.00  0.00     0.031 C 
ATOM     61  C   UNL A   1      42.497  30.473  32.831  1.00  0.00     0.037 A 
BRANCH  48  62
ATOM     62  C   UNL A   1      45.491  32.594  28.735  1.00  0.00     0.058 A 
ATOM     63  C   UNL A   1      46.809  33.064  28.614  1.00  0.00     0.135 A 
ATOM     64  C   UNL A   1      44.472  33.535  28.454  1.00  0.00     0.135 A 
ATOM     65  F   UNL A   1      47.846  32.262  28.903  1.00  0.00    -0.206 F 
ATOM     66  C   UNL A   1      47.095  34.380  28.247  1.00  0.00     0.059 A 
ATOM     67  C   UNL A   1      44.732  34.828  28.022  1.00  0.00     0.059 A 
ATOM     68  F   UNL A   1      43.178  33.265  28.676  1.00  0.00    -0.206 F 
ATOM     69  C   UNL A   1      46.048  35.254  27.955  1.00  0.00     0.060 A 
BRANCH  69  70
ATOM     70  S   UNL A   1      46.407  36.976  27.566  1.00  0.00     0.124 S 
ATOM     71  O   UNL A   1      45.212  37.640  28.072  1.00  0.00    -0.237 OA
ATOM     72  O   UNL A   1      47.636  37.206  28.316  1.00  0.00    -0.237 OA
ATOM     73  O   UNL A   1      46.558  36.966  26.114  1.00  0.00    -0.744 OA
ENDBRANCH  69  70
ENDBRANCH  48  62
BRANCH  49  74
ATOM     74  C   UNL A   1      37.210  30.981  30.079  1.00  0.00     0.058 A 
ATOM     75  C   UNL A   1      36.261  31.610  30.905  1.00  0.00     0.135 A 
ATOM     76  C   UNL A   1      37.041  31.179  28.691  1.00  0.00     0.135 A 
ATOM     77  F   UNL A   1      36.366  31.519  32.240  1.00  0.00    -0.206 F 
ATOM     78  C   UNL A   1      35.219  32.394  30.386  1.00  0.00     0.059 A 
ATOM     79  C   UNL A   1      36.006  31.938  28.152  1.00  0.00     0.059 A 
ATOM     80  F   UNL A   1      37.933  30.711  27.806  1.00  0.00    -0.206 F 
ATOM     81  C   UNL A   1      35.108  32.560  29.006  1.00  0.00     0.060 A 
BRANCH  81  82
ATOM     82  S   UNL A   1      33.844  33.662  28.328  1.00  0.00     0.124 S 
ATOM     83  O   UNL A   1      34.641  34.566  27.506  1.00  0.00    -0.237 OA
ATOM     84  O   UNL A   1      32.985  32.732  27.605  1.00  0.00    -0.237 OA
ATOM     85  O   UNL A   1      33.246  34.266  29.516  1.00  0.00    -0.744 OA
ENDBRANCH  81  82
ENDBRANCH  49  74
BRANCH  61  86
ATOM     86  C   UNL A   1      42.190  29.442  33.892  1.00  0.00     0.058 A 
ATOM     87  C   UNL A   1      41.830  28.110  33.618  1.00  0.00     0.135 A 
ATOM     88  C   UNL A   1      42.463  29.760  35.232  1.00  0.00     0.135 A 
ATOM     89  F   UNL A   1      41.667  27.688  32.356  1.00  0.00    -0.206 F 
ATOM     90  C   UNL A   1      41.710  27.151  34.628  1.00  0.00     0.059 A 
ATOM     91  C   UNL A   1      42.383  28.814  36.251  1.00  0.00     0.059 A 
ATOM     92  F   UNL A   1      42.883  30.995  35.556  1.00  0.00    -0.206 F 
ATOM     93  C   UNL A   1      41.994  27.513  35.944  1.00  0.00     0.060 A 
BRANCH  93  94
ATOM     94  S   UNL A   1      41.922  26.254  37.237  1.00  0.00     0.124 S 
ATOM     95  O   UNL A   1      40.577  26.440  37.771  1.00  0.00    -0.237 OA
ATOM     96  O   UNL A   1      42.142  25.021  36.486  1.00  0.00    -0.237 OA
ATOM     97  O   UNL A   1      43.009  26.628  38.139  1.00  0.00    -0.744 OA
ENDBRANCH  93  94
ENDBRANCH  61  86
ENDBRANCH  35  36
ENDBRANCH  28  30
ENDBRANCH  27  28
ENDBRANCH  26  27
ENDBRANCH   1  26
TORSDOF 17
ENDMDL
