MODEL 1
REMARK VINA RESULT:      -9.5      0.000      0.000
REMARK SMILES CC[C@@](C)(NC(=O)N(C)CCO)C(=O)OCCOC(=O)c1ccc(-c2c3nc(c(-c4c(F)cc(S(=O)(=O)[O-])cc4F)c4ccc([nH]4)c(-c4c(F)cc(S(=O)(=O)[O-])cc4F)c4nc(c(-c5c(F)cc(S(=O)(=O)[O-])cc5F)c5ccc2[nH]5)C=C4)C=C3)cc1
REMARK SMILES IDX 16 1 15 2 13 3 14 4 3 5 4 6 2 7 1 8 5 9 6 10 7 12 8 13 9 14
REMARK SMILES IDX 10 15 11 16 12 17 17 19 18 20 19 21 20 22 21 23 22 24 86 25
REMARK SMILES IDX 23 26 85 27 24 28 25 29 26 30 79 31 27 32 84 33 78 34 80 35
REMARK SMILES IDX 28 36 83 37 77 38 76 39 29 41 63 42 42 43 62 44 43 45 46 46
REMARK SMILES IDX 61 47 81 48 44 49 45 50 60 52 82 53 47 54 30 55 31 56 40 57
REMARK SMILES IDX 32 58 33 59 39 60 41 61 34 62 35 63 36 64 37 65 38 66 64 67
REMARK SMILES IDX 65 68 74 69 66 70 67 71 73 72 75 73 68 74 69 75 70 76 71 77
REMARK SMILES IDX 72 78 48 79 49 80 58 81 50 82 51 83 57 84 59 85 52 86 53 87
REMARK SMILES IDX 54 88 55 89 56 90
REMARK H PARENT 5 11 12 18 80 40 46 51
REMARK Flexibility Score: inf
ROOT
ATOM      1  C   UNL A   1      40.785  21.828  27.487  1.00  0.00     0.274 C 
ENDROOT
BRANCH   1   2
ATOM      2  O   UNL A   1      42.083  22.110  26.917  1.00  0.00    -0.460 OA
BRANCH   2   3
ATOM      3  C   UNL A   1      42.944  22.830  27.678  1.00  0.00     0.331 C 
ATOM      4  O   UNL A   1      42.756  23.011  28.874  1.00  0.00    -0.249 OA
BRANCH   3   5
ATOM      5  C   UNL A   1      44.083  23.498  26.842  1.00  0.00     0.136 C 
ATOM      6  C   UNL A   1      43.864  25.017  26.803  1.00  0.00     0.047 C 
BRANCH   5   7
ATOM      7  C   UNL A   1      45.466  23.242  27.577  1.00  0.00     0.037 C 
ATOM      8  C   UNL A   1      46.640  24.186  27.345  1.00  0.00     0.007 C 
ENDBRANCH   5   7
BRANCH   5   9
ATOM      9  N   UNL A   1      44.342  22.965  25.447  1.00  0.00    -0.322 N 
ATOM     10  C   UNL A   1      44.483  21.921  24.635  1.00  0.00     0.318 C 
ATOM     11  H   UNL A   1      44.459  23.760  24.878  1.00  0.00     0.166 HD
ATOM     12  O   UNL A   1      44.535  22.240  23.439  1.00  0.00    -0.249 OA
BRANCH  10  13
ATOM     13  N   UNL A   1      44.644  20.628  24.996  1.00  0.00    -0.326 N 
ATOM     14  C   UNL A   1      43.617  19.685  25.364  1.00  0.00     0.148 C 
BRANCH  13  15
ATOM     15  C   UNL A   1      46.029  20.110  25.046  1.00  0.00     0.149 C 
BRANCH  15  16
ATOM     16  C   UNL A   1      46.138  18.602  25.306  1.00  0.00     0.177 C 
BRANCH  16  17
ATOM     17  O   UNL A   1      47.289  18.266  26.078  1.00  0.00    -0.395 OA
ATOM     18  H   UNL A   1      47.317  17.306  26.214  1.00  0.00     0.210 HD
ENDBRANCH  16  17
ENDBRANCH  15  16
ENDBRANCH  13  15
ENDBRANCH  10  13
ENDBRANCH   5   9
ENDBRANCH   3   5
ENDBRANCH   2   3
ENDBRANCH   1   2
BRANCH   1  19
ATOM     19  C   UNL A   1      39.691  22.444  26.618  1.00  0.00     0.275 C 
BRANCH  19  20
ATOM     20  O   UNL A   1      39.395  23.754  27.121  1.00  0.00    -0.458 OA
BRANCH  20  21
ATOM     21  C   UNL A   1      40.112  24.780  26.613  1.00  0.00     0.338 C 
ATOM     22  O   UNL A   1      40.651  24.845  25.519  1.00  0.00    -0.246 OA
BRANCH  21  23
ATOM     23  C   UNL A   1      40.144  25.835  27.639  1.00  0.00     0.060 A 
ATOM     24  C   UNL A   1      39.337  25.708  28.771  1.00  0.00     0.016 A 
ATOM     25  C   UNL A   1      40.973  26.943  27.489  1.00  0.00     0.016 A 
ATOM     26  C   UNL A   1      39.363  26.673  29.773  1.00  0.00     0.010 A 
ATOM     27  C   UNL A   1      41.021  27.903  28.507  1.00  0.00     0.010 A 
ATOM     28  C   UNL A   1      40.213  27.776  29.654  1.00  0.00    -0.014 A 
BRANCH  28  29
ATOM     29  C   UNL A   1      40.198  28.839  30.689  1.00  0.00     0.031 A 
ATOM     30  C   UNL A   1      41.195  28.779  31.812  1.00  0.00     0.074 A 
ATOM     31  C   UNL A   1      39.320  29.858  30.618  1.00  0.00     0.049 A 
ATOM     32  N   UNL A   1      41.270  29.508  32.894  1.00  0.00    -0.248 NA
ATOM     33  C   UNL A   1      42.244  27.753  31.701  1.00  0.00     0.031 C 
ATOM     34  C   UNL A   1      38.349  30.067  29.541  1.00  0.00     0.029 A 
ATOM     35  N   UNL A   1      39.103  30.913  31.469  1.00  0.00    -0.354 N 
ATOM     36  C   UNL A   1      42.343  29.000  33.617  1.00  0.00     0.074 A 
ATOM     37  C   UNL A   1      42.890  27.903  32.848  1.00  0.00     0.031 C 
ATOM     38  C   UNL A   1      37.649  31.185  29.794  1.00  0.00     0.029 A 
ATOM     39  C   UNL A   1      38.079  31.741  31.075  1.00  0.00     0.049 A 
ATOM     40  H   UNL A   1      39.632  31.062  32.286  1.00  0.00     0.167 HD
ATOM     41  C   UNL A   1      42.821  29.409  34.816  1.00  0.00     0.037 A 
ATOM     42  C   UNL A   1      37.531  32.807  31.691  1.00  0.00     0.037 A 
ATOM     43  C   UNL A   1      42.291  30.525  35.555  1.00  0.00     0.049 A 
ATOM     44  C   UNL A   1      38.065  33.229  33.034  1.00  0.00     0.074 A 
ATOM     45  C   UNL A   1      42.697  31.016  36.785  1.00  0.00     0.029 A 
ATOM     46  N   UNL A   1      41.248  31.333  35.127  1.00  0.00    -0.354 N 
ATOM     47  N   UNL A   1      39.044  32.706  33.735  1.00  0.00    -0.248 NA
ATOM     48  C   UNL A   1      37.415  34.381  33.676  1.00  0.00     0.031 C 
ATOM     49  C   UNL A   1      41.880  32.106  37.110  1.00  0.00     0.029 A 
ATOM     50  C   UNL A   1      40.993  32.317  36.067  1.00  0.00     0.049 A 
ATOM     51  H   UNL A   1      40.761  31.222  34.278  1.00  0.00     0.167 HD
ATOM     52  C   UNL A   1      39.142  33.477  34.888  1.00  0.00     0.074 A 
ATOM     53  C   UNL A   1      38.130  34.509  34.785  1.00  0.00     0.031 C 
ATOM     54  C   UNL A   1      39.990  33.344  35.937  1.00  0.00     0.037 A 
BRANCH  41  55
ATOM     55  C   UNL A   1      43.941  28.611  35.419  1.00  0.00     0.058 A 
ATOM     56  C   UNL A   1      45.289  28.897  35.155  1.00  0.00     0.135 A 
ATOM     57  C   UNL A   1      43.656  27.535  36.276  1.00  0.00     0.135 A 
ATOM     58  F   UNL A   1      45.616  29.901  34.325  1.00  0.00    -0.206 F 
ATOM     59  C   UNL A   1      46.316  28.128  35.694  1.00  0.00     0.059 A 
ATOM     60  C   UNL A   1      44.667  26.767  36.845  1.00  0.00     0.059 A 
ATOM     61  F   UNL A   1      42.384  27.214  36.558  1.00  0.00    -0.206 F 
ATOM     62  C   UNL A   1      45.993  27.059  36.534  1.00  0.00     0.060 A 
BRANCH  62  63
ATOM     63  S   UNL A   1      47.330  26.057  37.219  1.00  0.00     0.124 S 
ATOM     64  O   UNL A   1      47.518  26.679  38.526  1.00  0.00    -0.237 OA
ATOM     65  O   UNL A   1      46.746  24.720  37.231  1.00  0.00    -0.237 OA
ATOM     66  O   UNL A   1      48.421  26.252  36.268  1.00  0.00    -0.744 OA
ENDBRANCH  62  63
ENDBRANCH  41  55
BRANCH  42  67
ATOM     67  C   UNL A   1      36.401  33.539  31.057  1.00  0.00     0.058 A 
ATOM     68  C   UNL A   1      36.592  34.289  29.887  1.00  0.00     0.135 A 
ATOM     69  C   UNL A   1      35.112  33.507  31.608  1.00  0.00     0.135 A 
ATOM     70  F   UNL A   1      37.809  34.363  29.329  1.00  0.00    -0.206 F 
ATOM     71  C   UNL A   1      35.547  34.990  29.291  1.00  0.00     0.059 A 
ATOM     72  C   UNL A   1      34.045  34.177  31.017  1.00  0.00     0.059 A 
ATOM     73  F   UNL A   1      34.873  32.799  32.724  1.00  0.00    -0.206 F 
ATOM     74  C   UNL A   1      34.275  34.925  29.863  1.00  0.00     0.060 A 
BRANCH  74  75
ATOM     75  S   UNL A   1      32.912  35.791  29.054  1.00  0.00     0.124 S 
ATOM     76  O   UNL A   1      32.371  34.748  28.191  1.00  0.00    -0.237 OA
ATOM     77  O   UNL A   1      32.077  36.179  30.187  1.00  0.00    -0.237 OA
ATOM     78  O   UNL A   1      33.577  36.896  28.370  1.00  0.00    -0.744 OA
ENDBRANCH  74  75
ENDBRANCH  42  67
BRANCH  54  79
ATOM     79  C   UNL A   1      39.893  34.368  37.032  1.00  0.00     0.058 A 
ATOM     80  C   UNL A   1      39.114  34.153  38.179  1.00  0.00     0.135 A 
ATOM     81  C   UNL A   1      40.615  35.570  36.943  1.00  0.00     0.135 A 
ATOM     82  F   UNL A   1      38.401  33.023  38.309  1.00  0.00    -0.206 F 
ATOM     83  C   UNL A   1      39.029  35.107  39.188  1.00  0.00     0.059 A 
ATOM     84  C   UNL A   1      40.563  36.527  37.950  1.00  0.00     0.059 A 
ATOM     85  F   UNL A   1      41.384  35.818  35.871  1.00  0.00    -0.206 F 
ATOM     86  C   UNL A   1      39.755  36.294  39.061  1.00  0.00     0.060 A 
BRANCH  86  87
ATOM     87  S   UNL A   1      39.650  37.523  40.381  1.00  0.00     0.124 S 
ATOM     88  O   UNL A   1      39.807  36.690  41.569  1.00  0.00    -0.237 OA
ATOM     89  O   UNL A   1      40.768  38.409  40.076  1.00  0.00    -0.237 OA
ATOM     90  O   UNL A   1      38.326  38.108  40.193  1.00  0.00    -0.744 OA
ENDBRANCH  86  87
ENDBRANCH  54  79
ENDBRANCH  28  29
ENDBRANCH  21  23
ENDBRANCH  20  21
ENDBRANCH  19  20
ENDBRANCH   1  19
TORSDOF 20
ENDMDL
MODEL 2
REMARK VINA RESULT:      -9.3      6.967     13.287
REMARK SMILES CC[C@@](C)(NC(=O)N(C)CCO)C(=O)OCCOC(=O)c1ccc(-c2c3nc(c(-c4c(F)cc(S(=O)(=O)[O-])cc4F)c4ccc([nH]4)c(-c4c(F)cc(S(=O)(=O)[O-])cc4F)c4nc(c(-c5c(F)cc(S(=O)(=O)[O-])cc5F)c5ccc2[nH]5)C=C4)C=C3)cc1
REMARK SMILES IDX 16 1 15 2 13 3 14 4 3 5 4 6 2 7 1 8 5 9 6 10 7 12 8 13 9 14
REMARK SMILES IDX 10 15 11 16 12 17 17 19 18 20 19 21 20 22 21 23 22 24 86 25
REMARK SMILES IDX 23 26 85 27 24 28 25 29 26 30 79 31 27 32 84 33 78 34 80 35
REMARK SMILES IDX 28 36 83 37 77 38 76 39 29 41 63 42 42 43 62 44 43 45 46 46
REMARK SMILES IDX 61 47 81 48 44 49 45 50 60 52 82 53 47 54 30 55 31 56 40 57
REMARK SMILES IDX 32 58 33 59 39 60 41 61 34 62 35 63 36 64 37 65 38 66 64 67
REMARK SMILES IDX 65 68 74 69 66 70 67 71 73 72 75 73 68 74 69 75 70 76 71 77
REMARK SMILES IDX 72 78 48 79 49 80 58 81 50 82 51 83 57 84 59 85 52 86 53 87
REMARK SMILES IDX 54 88 55 89 56 90
REMARK H PARENT 5 11 12 18 80 40 46 51
REMARK Flexibility Score: inf
ROOT
ATOM      1  C   UNL A   1      34.098  29.354  27.510  1.00  0.00     0.274 C 
ENDROOT
BRANCH   1   2
ATOM      2  O   UNL A   1      34.267  29.022  26.114  1.00  0.00    -0.460 OA
BRANCH   2   3
ATOM      3  C   UNL A   1      33.140  28.920  25.366  1.00  0.00     0.331 C 
ATOM      4  O   UNL A   1      32.438  29.891  25.117  1.00  0.00    -0.249 OA
BRANCH   3   5
ATOM      5  C   UNL A   1      32.783  27.442  25.002  1.00  0.00     0.136 C 
ATOM      6  C   UNL A   1      33.269  26.509  26.119  1.00  0.00     0.047 C 
BRANCH   5   7
ATOM      7  C   UNL A   1      31.202  27.307  24.932  1.00  0.00     0.037 C 
ATOM      8  C   UNL A   1      30.510  26.112  25.577  1.00  0.00     0.007 C 
ENDBRANCH   5   7
BRANCH   5   9
ATOM      9  N   UNL A   1      33.223  26.922  23.649  1.00  0.00    -0.322 N 
ATOM     10  C   UNL A   1      33.533  25.887  22.872  1.00  0.00     0.318 C 
ATOM     11  H   UNL A   1      33.328  27.719  23.081  1.00  0.00     0.166 HD
ATOM     12  O   UNL A   1      33.676  26.199  21.682  1.00  0.00    -0.249 OA
BRANCH  10  13
ATOM     13  N   UNL A   1      33.767  24.616  23.269  1.00  0.00    -0.326 N 
ATOM     14  C   UNL A   1      34.998  24.070  23.785  1.00  0.00     0.148 C 
BRANCH  13  15
ATOM     15  C   UNL A   1      32.649  23.655  23.144  1.00  0.00     0.149 C 
BRANCH  15  16
ATOM     16  C   UNL A   1      32.761  22.696  21.952  1.00  0.00     0.177 C 
BRANCH  16  17
ATOM     17  O   UNL A   1      33.259  23.342  20.782  1.00  0.00    -0.395 OA
ATOM     18  H   UNL A   1      33.998  23.921  21.023  1.00  0.00     0.210 HD
ENDBRANCH  16  17
ENDBRANCH  15  16
ENDBRANCH  13  15
ENDBRANCH  10  13
ENDBRANCH   5   9
ENDBRANCH   3   5
ENDBRANCH   2   3
ENDBRANCH   1   2
BRANCH   1  19
ATOM     19  C   UNL A   1      34.297  30.855  27.715  1.00  0.00     0.275 C 
BRANCH  19  20
ATOM     20  O   UNL A   1      35.697  31.107  27.894  1.00  0.00    -0.458 OA
BRANCH  20  21
ATOM     21  C   UNL A   1      36.225  30.800  29.099  1.00  0.00     0.338 C 
ATOM     22  O   UNL A   1      35.698  30.911  30.195  1.00  0.00    -0.246 OA
BRANCH  21  23
ATOM     23  C   UNL A   1      37.590  30.305  28.860  1.00  0.00     0.060 A 
ATOM     24  C   UNL A   1      38.500  30.282  29.917  1.00  0.00     0.016 A 
ATOM     25  C   UNL A   1      37.970  29.857  27.597  1.00  0.00     0.016 A 
ATOM     26  C   UNL A   1      39.791  29.794  29.733  1.00  0.00     0.010 A 
ATOM     27  C   UNL A   1      39.258  29.342  27.415  1.00  0.00     0.010 A 
ATOM     28  C   UNL A   1      40.179  29.311  28.480  1.00  0.00    -0.014 A 
BRANCH  28  29
ATOM     29  C   UNL A   1      41.572  28.849  28.263  1.00  0.00     0.031 A 
ATOM     30  C   UNL A   1      42.694  29.845  28.354  1.00  0.00     0.074 A 
ATOM     31  C   UNL A   1      41.836  27.553  28.010  1.00  0.00     0.049 A 
ATOM     32  N   UNL A   1      43.958  29.697  28.059  1.00  0.00    -0.248 NA
ATOM     33  C   UNL A   1      42.339  31.188  28.835  1.00  0.00     0.031 C 
ATOM     34  C   UNL A   1      40.843  26.478  27.965  1.00  0.00     0.029 A 
ATOM     35  N   UNL A   1      43.024  26.918  27.743  1.00  0.00    -0.354 N 
ATOM     36  C   UNL A   1      44.542  30.940  28.273  1.00  0.00     0.074 A 
ATOM     37  C   UNL A   1      43.494  31.828  28.725  1.00  0.00     0.031 C 
ATOM     38  C   UNL A   1      41.464  25.317  27.698  1.00  0.00     0.029 A 
ATOM     39  C   UNL A   1      42.888  25.572  27.495  1.00  0.00     0.049 A 
ATOM     40  H   UNL A   1      43.891  27.383  27.730  1.00  0.00     0.167 HD
ATOM     41  C   UNL A   1      45.834  31.305  28.100  1.00  0.00     0.037 A 
ATOM     42  C   UNL A   1      43.803  24.658  27.117  1.00  0.00     0.037 A 
ATOM     43  C   UNL A   1      46.877  30.404  27.684  1.00  0.00     0.049 A 
ATOM     44  C   UNL A   1      45.230  25.093  26.910  1.00  0.00     0.074 A 
ATOM     45  C   UNL A   1      48.218  30.676  27.469  1.00  0.00     0.029 A 
ATOM     46  N   UNL A   1      46.698  29.052  27.433  1.00  0.00    -0.354 N 
ATOM     47  N   UNL A   1      45.759  26.284  27.060  1.00  0.00    -0.248 NA
ATOM     48  C   UNL A   1      46.182  24.062  26.472  1.00  0.00     0.031 C 
ATOM     49  C   UNL A   1      48.844  29.492  27.063  1.00  0.00     0.029 A 
ATOM     50  C   UNL A   1      47.902  28.475  27.063  1.00  0.00     0.049 A 
ATOM     51  H   UNL A   1      45.842  28.573  27.508  1.00  0.00     0.167 HD
ATOM     52  C   UNL A   1      47.109  26.143  26.757  1.00  0.00     0.074 A 
ATOM     53  C   UNL A   1      47.317  24.747  26.426  1.00  0.00     0.031 C 
ATOM     54  C   UNL A   1      48.089  27.080  26.752  1.00  0.00     0.037 A 
BRANCH  41  55
ATOM     55  C   UNL A   1      46.175  32.753  28.313  1.00  0.00     0.058 A 
ATOM     56  C   UNL A   1      46.082  33.702  27.285  1.00  0.00     0.135 A 
ATOM     57  C   UNL A   1      46.606  33.196  29.575  1.00  0.00     0.135 A 
ATOM     58  F   UNL A   1      45.696  33.328  26.054  1.00  0.00    -0.206 F 
ATOM     59  C   UNL A   1      46.433  35.033  27.489  1.00  0.00     0.059 A 
ATOM     60  C   UNL A   1      46.939  34.526  29.809  1.00  0.00     0.059 A 
ATOM     61  F   UNL A   1      46.717  32.328  30.594  1.00  0.00    -0.206 F 
ATOM     62  C   UNL A   1      46.867  35.434  28.754  1.00  0.00     0.060 A 
BRANCH  62  63
ATOM     63  S   UNL A   1      47.333  37.160  29.008  1.00  0.00     0.124 S 
ATOM     64  O   UNL A   1      46.143  37.855  28.527  1.00  0.00    -0.237 OA
ATOM     65  O   UNL A   1      47.562  37.216  30.448  1.00  0.00    -0.237 OA
ATOM     66  O   UNL A   1      48.527  37.313  28.181  1.00  0.00    -0.744 OA
ENDBRANCH  62  63
ENDBRANCH  41  55
BRANCH  42  67
ATOM     67  C   UNL A   1      43.399  23.243  26.890  1.00  0.00     0.058 A 
ATOM     68  C   UNL A   1      43.316  22.714  25.594  1.00  0.00     0.135 A 
ATOM     69  C   UNL A   1      43.087  22.395  27.962  1.00  0.00     0.135 A 
ATOM     70  F   UNL A   1      43.591  23.489  24.534  1.00  0.00    -0.206 F 
ATOM     71  C   UNL A   1      42.927  21.397  25.367  1.00  0.00     0.059 A 
ATOM     72  C   UNL A   1      42.721  21.067  27.763  1.00  0.00     0.059 A 
ATOM     73  F   UNL A   1      43.157  22.848  29.224  1.00  0.00    -0.206 F 
ATOM     74  C   UNL A   1      42.634  20.580  26.459  1.00  0.00     0.060 A 
BRANCH  74  75
ATOM     75  S   UNL A   1      42.183  18.856  26.161  1.00  0.00     0.124 S 
ATOM     76  O   UNL A   1      43.131  18.479  25.120  1.00  0.00    -0.237 OA
ATOM     77  O   UNL A   1      42.398  18.249  27.471  1.00  0.00    -0.237 OA
ATOM     78  O   UNL A   1      40.787  18.943  25.744  1.00  0.00    -0.744 OA
ENDBRANCH  74  75
ENDBRANCH  42  67
BRANCH  54  79
ATOM     79  C   UNL A   1      49.481  26.616  26.426  1.00  0.00     0.058 A 
ATOM     80  C   UNL A   1      50.295  25.993  27.383  1.00  0.00     0.135 A 
ATOM     81  C   UNL A   1      49.992  26.774  25.128  1.00  0.00     0.135 A 
ATOM     82  F   UNL A   1      49.855  25.823  28.639  1.00  0.00    -0.206 F 
ATOM     83  C   UNL A   1      51.583  25.567  27.072  1.00  0.00     0.059 A 
ATOM     84  C   UNL A   1      51.267  26.336  24.789  1.00  0.00     0.059 A 
ATOM     85  F   UNL A   1      49.247  27.355  24.174  1.00  0.00    -0.206 F 
ATOM     86  C   UNL A   1      52.061  25.748  25.772  1.00  0.00     0.060 A 
BRANCH  86  87
ATOM     87  S   UNL A   1      53.729  25.181  25.372  1.00  0.00     0.124 S 
ATOM     88  O   UNL A   1      54.518  25.841  26.407  1.00  0.00    -0.237 OA
ATOM     89  O   UNL A   1      53.608  23.732  25.492  1.00  0.00    -0.237 OA
ATOM     90  O   UNL A   1      53.936  25.676  24.013  1.00  0.00    -0.744 OA
ENDBRANCH  86  87
ENDBRANCH  54  79
ENDBRANCH  28  29
ENDBRANCH  21  23
ENDBRANCH  20  21
ENDBRANCH  19  20
ENDBRANCH   1  19
TORSDOF 20
ENDMDL
MODEL 3
REMARK VINA RESULT:      -9.3      5.904     11.935
REMARK SMILES CC[C@@](C)(NC(=O)N(C)CCO)C(=O)OCCOC(=O)c1ccc(-c2c3nc(c(-c4c(F)cc(S(=O)(=O)[O-])cc4F)c4ccc([nH]4)c(-c4c(F)cc(S(=O)(=O)[O-])cc4F)c4nc(c(-c5c(F)cc(S(=O)(=O)[O-])cc5F)c5ccc2[nH]5)C=C4)C=C3)cc1
REMARK SMILES IDX 16 1 15 2 13 3 14 4 3 5 4 6 2 7 1 8 5 9 6 10 7 12 8 13 9 14
REMARK SMILES IDX 10 15 11 16 12 17 17 19 18 20 19 21 20 22 21 23 22 24 86 25
REMARK SMILES IDX 23 26 85 27 24 28 25 29 26 30 79 31 27 32 84 33 78 34 80 35
REMARK SMILES IDX 28 36 83 37 77 38 76 39 29 41 63 42 42 43 62 44 43 45 46 46
REMARK SMILES IDX 61 47 81 48 44 49 45 50 60 52 82 53 47 54 30 55 31 56 40 57
REMARK SMILES IDX 32 58 33 59 39 60 41 61 34 62 35 63 36 64 37 65 38 66 64 67
REMARK SMILES IDX 65 68 74 69 66 70 67 71 73 72 75 73 68 74 69 75 70 76 71 77
REMARK SMILES IDX 72 78 48 79 49 80 58 81 50 82 51 83 57 84 59 85 52 86 53 87
REMARK SMILES IDX 54 88 55 89 56 90
REMARK H PARENT 5 11 12 18 80 40 46 51
REMARK Flexibility Score: inf
ROOT
ATOM      1  C   UNL A   1      33.668  28.014  25.895  1.00  0.00     0.274 C 
ENDROOT
BRANCH   1   2
ATOM      2  O   UNL A   1      33.034  26.718  25.973  1.00  0.00    -0.460 OA
BRANCH   2   3
ATOM      3  C   UNL A   1      31.689  26.681  25.797  1.00  0.00     0.331 C 
ATOM      4  O   UNL A   1      30.914  26.600  26.742  1.00  0.00    -0.249 OA
BRANCH   3   5
ATOM      5  C   UNL A   1      31.273  26.606  24.292  1.00  0.00     0.136 C 
ATOM      6  C   UNL A   1      30.138  25.588  24.125  1.00  0.00     0.047 C 
BRANCH   5   7
ATOM      7  C   UNL A   1      30.702  28.022  23.856  1.00  0.00     0.037 C 
ATOM      8  C   UNL A   1      31.494  28.899  22.891  1.00  0.00     0.007 C 
ENDBRANCH   5   7
BRANCH   5   9
ATOM      9  N   UNL A   1      32.363  26.356  23.269  1.00  0.00    -0.322 N 
ATOM     10  C   UNL A   1      33.144  25.492  22.625  1.00  0.00     0.318 C 
ATOM     11  H   UNL A   1      32.606  27.243  22.920  1.00  0.00     0.166 HD
ATOM     12  O   UNL A   1      33.779  26.011  21.697  1.00  0.00    -0.249 OA
BRANCH  10  13
ATOM     13  N   UNL A   1      33.345  24.192  22.936  1.00  0.00    -0.326 N 
ATOM     14  C   UNL A   1      33.145  23.045  22.085  1.00  0.00     0.148 C 
BRANCH  13  15
ATOM     15  C   UNL A   1      33.801  23.891  24.311  1.00  0.00     0.149 C 
BRANCH  15  16
ATOM     16  C   UNL A   1      35.308  24.071  24.537  1.00  0.00     0.177 C 
BRANCH  16  17
ATOM     17  O   UNL A   1      35.988  22.826  24.681  1.00  0.00    -0.395 OA
ATOM     18  H   UNL A   1      35.949  22.339  23.843  1.00  0.00     0.210 HD
ENDBRANCH  16  17
ENDBRANCH  15  16
ENDBRANCH  13  15
ENDBRANCH  10  13
ENDBRANCH   5   9
ENDBRANCH   3   5
ENDBRANCH   2   3
ENDBRANCH   1   2
BRANCH   1  19
ATOM     19  C   UNL A   1      32.935  29.006  26.796  1.00  0.00     0.275 C 
BRANCH  19  20
ATOM     20  O   UNL A   1      33.696  29.175  27.999  1.00  0.00    -0.458 OA
BRANCH  20  21
ATOM     21  C   UNL A   1      34.377  30.334  28.135  1.00  0.00     0.338 C 
ATOM     22  O   UNL A   1      33.927  31.470  28.114  1.00  0.00    -0.246 OA
BRANCH  21  23
ATOM     23  C   UNL A   1      35.796  29.985  28.307  1.00  0.00     0.060 A 
ATOM     24  C   UNL A   1      36.241  29.539  29.552  1.00  0.00     0.016 A 
ATOM     25  C   UNL A   1      36.684  30.091  27.240  1.00  0.00     0.016 A 
ATOM     26  C   UNL A   1      37.571  29.175  29.741  1.00  0.00     0.010 A 
ATOM     27  C   UNL A   1      38.016  29.701  27.420  1.00  0.00     0.010 A 
ATOM     28  C   UNL A   1      38.470  29.244  28.673  1.00  0.00    -0.014 A 
BRANCH  28  29
ATOM     29  C   UNL A   1      39.901  28.917  28.886  1.00  0.00     0.031 A 
ATOM     30  C   UNL A   1      40.810  29.962  29.471  1.00  0.00     0.074 A 
ATOM     31  C   UNL A   1      40.381  27.696  28.582  1.00  0.00     0.049 A 
ATOM     32  N   UNL A   1      42.109  29.948  29.606  1.00  0.00    -0.248 NA
ATOM     33  C   UNL A   1      40.164  31.188  29.963  1.00  0.00     0.031 C 
ATOM     34  C   UNL A   1      39.588  26.575  28.073  1.00  0.00     0.029 A 
ATOM     35  N   UNL A   1      41.656  27.192  28.658  1.00  0.00    -0.354 N 
ATOM     36  C   UNL A   1      42.444  31.180  30.154  1.00  0.00     0.074 A 
ATOM     37  C   UNL A   1      41.210  31.915  30.328  1.00  0.00     0.031 C 
ATOM     38  C   UNL A   1      40.392  25.514  27.893  1.00  0.00     0.029 A 
ATOM     39  C   UNL A   1      41.765  25.895  28.217  1.00  0.00     0.049 A 
ATOM     40  H   UNL A   1      42.421  27.712  28.996  1.00  0.00     0.167 HD
ATOM     41  C   UNL A   1      43.671  31.655  30.475  1.00  0.00     0.037 A 
ATOM     42  C   UNL A   1      42.853  25.113  28.063  1.00  0.00     0.037 A 
ATOM     43  C   UNL A   1      44.889  30.902  30.330  1.00  0.00     0.049 A 
ATOM     44  C   UNL A   1      44.209  25.671  28.406  1.00  0.00     0.074 A 
ATOM     45  C   UNL A   1      46.185  31.294  30.617  1.00  0.00     0.029 A 
ATOM     46  N   UNL A   1      44.959  29.594  29.872  1.00  0.00    -0.354 N 
ATOM     47  N   UNL A   1      44.519  26.859  28.869  1.00  0.00    -0.248 NA
ATOM     48  C   UNL A   1      45.364  24.787  28.194  1.00  0.00     0.031 C 
ATOM     49  C   UNL A   1      47.042  30.231  30.306  1.00  0.00     0.029 A 
ATOM     50  C   UNL A   1      46.275  29.165  29.864  1.00  0.00     0.049 A 
ATOM     51  H   UNL A   1      44.186  29.052  29.593  1.00  0.00     0.167 HD
ATOM     52  C   UNL A   1      45.901  26.858  29.027  1.00  0.00     0.074 A 
ATOM     53  C   UNL A   1      46.365  25.547  28.619  1.00  0.00     0.031 C 
ATOM     54  C   UNL A   1      46.713  27.849  29.468  1.00  0.00     0.037 A 
BRANCH  41  55
ATOM     55  C   UNL A   1      43.753  33.073  30.965  1.00  0.00     0.058 A 
ATOM     56  C   UNL A   1      43.833  34.164  30.086  1.00  0.00     0.135 A 
ATOM     57  C   UNL A   1      43.755  33.341  32.344  1.00  0.00     0.135 A 
ATOM     58  F   UNL A   1      43.857  33.962  28.759  1.00  0.00    -0.206 F 
ATOM     59  C   UNL A   1      43.943  35.470  30.555  1.00  0.00     0.059 A 
ATOM     60  C   UNL A   1      43.840  34.640  32.835  1.00  0.00     0.059 A 
ATOM     61  F   UNL A   1      43.686  32.334  33.228  1.00  0.00    -0.206 F 
ATOM     62  C   UNL A   1      43.952  35.696  31.933  1.00  0.00     0.060 A 
BRANCH  62  63
ATOM     63  S   UNL A   1      44.109  37.392  32.535  1.00  0.00     0.124 S 
ATOM     64  O   UNL A   1      43.836  38.156  31.321  1.00  0.00    -0.237 OA
ATOM     65  O   UNL A   1      43.080  37.455  33.568  1.00  0.00    -0.237 OA
ATOM     66  O   UNL A   1      45.484  37.453  33.020  1.00  0.00    -0.744 OA
ENDBRANCH  62  63
ENDBRANCH  41  55
BRANCH  42  67
ATOM     67  C   UNL A   1      42.711  23.726  27.543  1.00  0.00     0.058 A 
ATOM     68  C   UNL A   1      42.508  22.645  28.414  1.00  0.00     0.135 A 
ATOM     69  C   UNL A   1      42.776  23.453  26.169  1.00  0.00     0.135 A 
ATOM     70  F   UNL A   1      42.452  22.852  29.738  1.00  0.00    -0.206 F 
ATOM     71  C   UNL A   1      42.387  21.341  27.943  1.00  0.00     0.059 A 
ATOM     72  C   UNL A   1      42.631  22.161  25.671  1.00  0.00     0.059 A 
ATOM     73  F   UNL A   1      42.961  24.452  25.291  1.00  0.00    -0.206 F 
ATOM     74  C   UNL A   1      42.446  21.109  26.567  1.00  0.00     0.060 A 
BRANCH  74  75
ATOM     75  S   UNL A   1      42.233  19.422  25.958  1.00  0.00     0.124 S 
ATOM     76  O   UNL A   1      43.084  19.427  24.774  1.00  0.00    -0.237 OA
ATOM     77  O   UNL A   1      42.709  18.624  27.083  1.00  0.00    -0.237 OA
ATOM     78  O   UNL A   1      40.797  19.338  25.705  1.00  0.00    -0.744 OA
ENDBRANCH  74  75
ENDBRANCH  42  67
BRANCH  54  79
ATOM     79  C   UNL A   1      48.179  27.538  29.579  1.00  0.00     0.058 A 
ATOM     80  C   UNL A   1      49.061  27.742  28.508  1.00  0.00     0.135 A 
ATOM     81  C   UNL A   1      48.710  27.055  30.786  1.00  0.00     0.135 A 
ATOM     82  F   UNL A   1      48.603  28.197  27.331  1.00  0.00    -0.206 F 
ATOM     83  C   UNL A   1      50.417  27.450  28.619  1.00  0.00     0.059 A 
ATOM     84  C   UNL A   1      50.065  26.779  30.927  1.00  0.00     0.059 A 
ATOM     85  F   UNL A   1      47.908  26.853  31.844  1.00  0.00    -0.206 F 
ATOM     86  C   UNL A   1      50.908  26.964  29.833  1.00  0.00     0.060 A 
BRANCH  86  87
ATOM     87  S   UNL A   1      52.672  26.600  29.975  1.00  0.00     0.124 S 
ATOM     88  O   UNL A   1      53.213  27.906  30.334  1.00  0.00    -0.237 OA
ATOM     89  O   UNL A   1      52.702  25.590  31.028  1.00  0.00    -0.237 OA
ATOM     90  O   UNL A   1      53.025  26.117  28.643  1.00  0.00    -0.744 OA
ENDBRANCH  86  87
ENDBRANCH  54  79
ENDBRANCH  28  29
ENDBRANCH  21  23
ENDBRANCH  20  21
ENDBRANCH  19  20
ENDBRANCH   1  19
TORSDOF 20
ENDMDL
