MODEL 1
REMARK VINA RESULT:     -10.5      0.000      0.000
REMARK SMILES O=C1NC[C@@H](CSc2ccnc(C(=O)OCCOC(=O)c3ccc(-c4c5nc(c(-c6c(F)cc(S(=O)(=O)[O-])cc6F)c6ccc([nH]6)c(-c6c(F)cc(S(=O)(=O)[O-])cc6F)c6nc(c(-c7c(F)cc(S(=O)(=O)[O-])cc7F)c7ccc4[nH]7)C=C6)C=C5)cc3)c2)O1
REMARK SMILES IDX 16 1 15 2 13 3 14 4 12 5 8 6 9 7 87 8 10 9 11 10 7 11 6 12
REMARK SMILES IDX 5 13 1 14 2 15 3 16 88 17 4 18 17 20 18 21 19 22 20 23 21 24
REMARK SMILES IDX 22 25 86 26 23 27 85 28 24 29 25 30 26 31 79 32 27 33 84 34
REMARK SMILES IDX 78 35 80 36 28 37 83 38 77 39 76 40 29 42 63 43 42 44 62 45
REMARK SMILES IDX 43 46 46 47 61 48 81 49 44 50 45 51 60 53 82 54 47 55 30 56
REMARK SMILES IDX 31 57 40 58 32 59 33 60 39 61 41 62 34 63 35 64 36 65 37 66
REMARK SMILES IDX 38 67 64 68 65 69 74 70 66 71 67 72 73 73 75 74 68 75 69 76
REMARK SMILES IDX 70 77 71 78 72 79 48 80 49 81 58 82 50 83 51 84 57 85 59 86
REMARK SMILES IDX 52 87 53 88 54 89 55 90 56 91
REMARK H PARENT 3 19 80 41 46 52
REMARK Flexibility Score: inf
ROOT
ATOM      1  C   UNL A   1      41.039  19.851  26.682  1.00  0.00     0.275 C 
ENDROOT
BRANCH   1   2
ATOM      2  O   UNL A   1      41.580  18.875  25.769  1.00  0.00    -0.457 OA
BRANCH   2   3
ATOM      3  C   UNL A   1      42.799  18.389  26.131  1.00  0.00     0.357 C 
ATOM      4  O   UNL A   1      42.976  17.389  26.814  1.00  0.00    -0.244 OA
BRANCH   3   5
ATOM      5  C   UNL A   1      43.927  19.174  25.534  1.00  0.00     0.149 A 
ATOM      6  C   UNL A   1      44.999  21.158  24.754  1.00  0.00     0.011 A 
ATOM      7  C   UNL A   1      46.186  20.435  24.674  1.00  0.00     0.035 A 
ATOM      8  C   UNL A   1      43.839  20.521  25.205  1.00  0.00     0.051 A 
ATOM      9  C   UNL A   1      46.169  19.088  24.959  1.00  0.00     0.113 A 
ATOM     10  N   UNL A   1      45.074  18.455  25.397  1.00  0.00    -0.249 NA
BRANCH   6  11
ATOM     11  S   UNL A   1      45.034  22.916  24.468  1.00  0.00    -0.122 SA
BRANCH  11  12
ATOM     12  C   UNL A   1      45.825  23.576  25.995  1.00  0.00     0.122 C 
BRANCH  12  13
ATOM     13  C   UNL A   1      44.950  24.071  27.159  1.00  0.00     0.208 C 
ATOM     14  O   UNL A   1      42.198  22.484  28.521  1.00  0.00    -0.225 OA
ATOM     15  C   UNL A   1      43.266  23.012  28.276  1.00  0.00     0.407 C 
ATOM     16  N   UNL A   1      44.324  23.074  29.135  1.00  0.00    -0.318 N 
ATOM     17  O   UNL A   1      43.596  23.594  27.088  1.00  0.00    -0.443 OA
ATOM     18  C   UNL A   1      45.445  23.719  28.550  1.00  0.00     0.165 C 
ATOM     19  H   UNL A   1      44.310  22.716  30.052  1.00  0.00     0.167 HD
ENDBRANCH  12  13
ENDBRANCH  11  12
ENDBRANCH   6  11
ENDBRANCH   3   5
ENDBRANCH   2   3
ENDBRANCH   1   2
BRANCH   1  20
ATOM     20  C   UNL A   1      39.967  20.725  26.018  1.00  0.00     0.275 C 
BRANCH  20  21
ATOM     21  O   UNL A   1      40.238  22.135  26.130  1.00  0.00    -0.458 OA
BRANCH  21  22
ATOM     22  C   UNL A   1      39.156  22.941  26.031  1.00  0.00     0.338 C 
ATOM     23  O   UNL A   1      38.100  22.689  25.471  1.00  0.00    -0.246 OA
BRANCH  22  24
ATOM     24  C   UNL A   1      39.387  24.196  26.765  1.00  0.00     0.060 A 
ATOM     25  C   UNL A   1      40.232  25.151  26.199  1.00  0.00     0.016 A 
ATOM     26  C   UNL A   1      38.876  24.381  28.050  1.00  0.00     0.016 A 
ATOM     27  C   UNL A   1      40.605  26.281  26.923  1.00  0.00     0.010 A 
ATOM     28  C   UNL A   1      39.227  25.532  28.766  1.00  0.00     0.010 A 
ATOM     29  C   UNL A   1      40.111  26.480  28.217  1.00  0.00    -0.014 A 
BRANCH  29  30
ATOM     30  C   UNL A   1      40.551  27.648  29.025  1.00  0.00     0.031 A 
ATOM     31  C   UNL A   1      41.865  27.590  29.756  1.00  0.00     0.074 A 
ATOM     32  C   UNL A   1      39.773  28.743  29.119  1.00  0.00     0.049 A 
ATOM     33  N   UNL A   1      42.346  28.400  30.662  1.00  0.00    -0.248 NA
ATOM     34  C   UNL A   1      42.750  26.462  29.426  1.00  0.00     0.031 C 
ATOM     35  C   UNL A   1      38.509  28.946  28.409  1.00  0.00     0.029 A 
ATOM     36  N   UNL A   1      39.922  29.885  29.866  1.00  0.00    -0.354 N 
ATOM     37  C   UNL A   1      43.570  27.860  31.042  1.00  0.00     0.074 A 
ATOM     38  C   UNL A   1      43.752  26.647  30.275  1.00  0.00     0.031 C 
ATOM     39  C   UNL A   1      37.996  30.136  28.760  1.00  0.00     0.029 A 
ATOM     40  C   UNL A   1      38.855  30.747  29.770  1.00  0.00     0.049 A 
ATOM     41  H   UNL A   1      40.717  30.069  30.418  1.00  0.00     0.167 HD
ATOM     42  C   UNL A   1      44.456  28.336  31.950  1.00  0.00     0.037 A 
ATOM     43  C   UNL A   1      38.575  31.874  30.454  1.00  0.00     0.037 A 
ATOM     44  C   UNL A   1      44.268  29.558  32.691  1.00  0.00     0.049 A 
ATOM     45  C   UNL A   1      39.541  32.350  31.506  1.00  0.00     0.074 A 
ATOM     46  C   UNL A   1      45.104  30.131  33.633  1.00  0.00     0.029 A 
ATOM     47  N   UNL A   1      43.168  30.396  32.570  1.00  0.00    -0.354 N 
ATOM     48  N   UNL A   1      40.679  31.815  31.881  1.00  0.00    -0.248 NA
ATOM     49  C   UNL A   1      39.185  33.575  32.233  1.00  0.00     0.031 C 
ATOM     50  C   UNL A   1      44.489  31.290  34.115  1.00  0.00     0.029 A 
ATOM     51  C   UNL A   1      43.297  31.473  33.430  1.00  0.00     0.049 A 
ATOM     52  H   UNL A   1      42.408  30.246  31.963  1.00  0.00     0.167 HD
ATOM     53  C   UNL A   1      41.192  32.660  32.861  1.00  0.00     0.074 A 
ATOM     54  C   UNL A   1      40.239  33.739  33.021  1.00  0.00     0.031 C 
ATOM     55  C   UNL A   1      42.350  32.554  33.557  1.00  0.00     0.037 A 
BRANCH  42  56
ATOM     56  C   UNL A   1      45.689  27.515  32.223  1.00  0.00     0.058 A 
ATOM     57  C   UNL A   1      45.679  26.426  33.106  1.00  0.00     0.135 A 
ATOM     58  C   UNL A   1      46.896  27.812  31.567  1.00  0.00     0.135 A 
ATOM     59  F   UNL A   1      44.558  26.106  33.774  1.00  0.00    -0.206 F 
ATOM     60  C   UNL A   1      46.827  25.679  33.355  1.00  0.00     0.059 A 
ATOM     61  C   UNL A   1      48.049  27.061  31.778  1.00  0.00     0.059 A 
ATOM     62  F   UNL A   1      46.964  28.843  30.710  1.00  0.00    -0.206 F 
ATOM     63  C   UNL A   1      48.009  26.007  32.688  1.00  0.00     0.060 A 
BRANCH  63  64
ATOM     64  S   UNL A   1      49.492  25.037  33.032  1.00  0.00     0.124 S 
ATOM     65  O   UNL A   1      48.945  23.943  33.828  1.00  0.00    -0.237 OA
ATOM     66  O   UNL A   1      49.948  24.679  31.693  1.00  0.00    -0.237 OA
ATOM     67  O   UNL A   1      50.351  25.971  33.754  1.00  0.00    -0.744 OA
ENDBRANCH  63  64
ENDBRANCH  42  56
BRANCH  43  68
ATOM     68  C   UNL A   1      37.312  32.613  30.183  1.00  0.00     0.058 A 
ATOM     69  C   UNL A   1      37.266  33.642  29.232  1.00  0.00     0.135 A 
ATOM     70  C   UNL A   1      36.122  32.296  30.859  1.00  0.00     0.135 A 
ATOM     71  F   UNL A   1      38.378  33.991  28.567  1.00  0.00    -0.206 F 
ATOM     72  C   UNL A   1      36.091  34.340  28.969  1.00  0.00     0.059 A 
ATOM     73  C   UNL A   1      34.929  32.959  30.593  1.00  0.00     0.059 A 
ATOM     74  F   UNL A   1      36.109  31.312  31.773  1.00  0.00    -0.206 F 
ATOM     75  C   UNL A   1      34.926  33.988  29.652  1.00  0.00     0.060 A 
BRANCH  75  76
ATOM     76  S   UNL A   1      33.398  34.871  29.271  1.00  0.00     0.124 S 
ATOM     77  O   UNL A   1      32.796  33.998  28.270  1.00  0.00    -0.237 OA
ATOM     78  O   UNL A   1      32.732  34.908  30.569  1.00  0.00    -0.237 OA
ATOM     79  O   UNL A   1      33.869  36.163  28.780  1.00  0.00    -0.744 OA
ENDBRANCH  75  76
ENDBRANCH  43  68
BRANCH  55  80
ATOM     80  C   UNL A   1      42.697  33.665  34.510  1.00  0.00     0.058 A 
ATOM     81  C   UNL A   1      43.336  34.839  34.087  1.00  0.00     0.135 A 
ATOM     82  C   UNL A   1      42.306  33.580  35.858  1.00  0.00     0.135 A 
ATOM     83  F   UNL A   1      43.738  34.969  32.812  1.00  0.00    -0.206 F 
ATOM     84  C   UNL A   1      43.585  35.888  34.967  1.00  0.00     0.059 A 
ATOM     85  C   UNL A   1      42.520  34.625  36.748  1.00  0.00     0.059 A 
ATOM     86  F   UNL A   1      41.683  32.480  36.312  1.00  0.00    -0.206 F 
ATOM     87  C   UNL A   1      43.165  35.774  36.295  1.00  0.00     0.060 A 
BRANCH  87  88
ATOM     88  S   UNL A   1      43.438  37.166  37.412  1.00  0.00     0.124 S 
ATOM     89  O   UNL A   1      42.126  37.309  38.033  1.00  0.00    -0.237 OA
ATOM     90  O   UNL A   1      44.500  36.665  38.279  1.00  0.00    -0.237 OA
ATOM     91  O   UNL A   1      43.831  38.250  36.515  1.00  0.00    -0.744 OA
ENDBRANCH  87  88
ENDBRANCH  55  80
ENDBRANCH  29  30
ENDBRANCH  22  24
ENDBRANCH  21  22
ENDBRANCH  20  21
ENDBRANCH   1  20
TORSDOF 17
ENDMDL
MODEL 2
REMARK VINA RESULT:     -10.3      4.287     10.841
REMARK SMILES O=C1NC[C@@H](CSc2ccnc(C(=O)OCCOC(=O)c3ccc(-c4c5nc(c(-c6c(F)cc(S(=O)(=O)[O-])cc6F)c6ccc([nH]6)c(-c6c(F)cc(S(=O)(=O)[O-])cc6F)c6nc(c(-c7c(F)cc(S(=O)(=O)[O-])cc7F)c7ccc4[nH]7)C=C6)C=C5)cc3)c2)O1
REMARK SMILES IDX 16 1 15 2 13 3 14 4 12 5 8 6 9 7 87 8 10 9 11 10 7 11 6 12
REMARK SMILES IDX 5 13 1 14 2 15 3 16 88 17 4 18 17 20 18 21 19 22 20 23 21 24
REMARK SMILES IDX 22 25 86 26 23 27 85 28 24 29 25 30 26 31 79 32 27 33 84 34
REMARK SMILES IDX 78 35 80 36 28 37 83 38 77 39 76 40 29 42 63 43 42 44 62 45
REMARK SMILES IDX 43 46 46 47 61 48 81 49 44 50 45 51 60 53 82 54 47 55 30 56
REMARK SMILES IDX 31 57 40 58 32 59 33 60 39 61 41 62 34 63 35 64 36 65 37 66
REMARK SMILES IDX 38 67 64 68 65 69 74 70 66 71 67 72 73 73 75 74 68 75 69 76
REMARK SMILES IDX 70 77 71 78 72 79 48 80 49 81 58 82 50 83 51 84 57 85 59 86
REMARK SMILES IDX 52 87 53 88 54 89 55 90 56 91
REMARK H PARENT 3 19 80 41 46 52
REMARK Flexibility Score: inf
ROOT
ATOM      1  C   UNL A   1      31.767  29.552  26.086  1.00  0.00     0.275 C 
ENDROOT
BRANCH   1   2
ATOM      2  O   UNL A   1      31.831  28.185  25.630  1.00  0.00    -0.457 OA
BRANCH   2   3
ATOM      3  C   UNL A   1      31.443  27.269  26.559  1.00  0.00     0.357 C 
ATOM      4  O   UNL A   1      31.179  27.529  27.725  1.00  0.00    -0.244 OA
BRANCH   3   5
ATOM      5  C   UNL A   1      31.295  25.896  25.980  1.00  0.00     0.149 A 
ATOM      6  C   UNL A   1      31.780  24.142  24.435  1.00  0.00     0.011 A 
ATOM      7  C   UNL A   1      31.056  23.278  25.254  1.00  0.00     0.035 A 
ATOM      8  C   UNL A   1      31.915  25.483  24.807  1.00  0.00     0.051 A 
ATOM      9  C   UNL A   1      30.421  23.785  26.364  1.00  0.00     0.113 A 
ATOM     10  N   UNL A   1      30.539  25.063  26.745  1.00  0.00    -0.249 NA
BRANCH   6  11
ATOM     11  S   UNL A   1      32.672  23.475  23.045  1.00  0.00    -0.122 SA
BRANCH  11  12
ATOM     12  C   UNL A   1      34.158  22.716  23.823  1.00  0.00     0.122 C 
BRANCH  12  13
ATOM     13  C   UNL A   1      35.508  23.452  23.776  1.00  0.00     0.208 C 
ATOM     14  O   UNL A   1      37.600  24.138  26.441  1.00  0.00    -0.225 OA
ATOM     15  C   UNL A   1      37.063  23.759  25.418  1.00  0.00     0.407 C 
ATOM     16  N   UNL A   1      37.597  22.866  24.536  1.00  0.00    -0.318 N 
ATOM     17  O   UNL A   1      35.819  24.134  25.004  1.00  0.00    -0.443 OA
ATOM     18  C   UNL A   1      36.716  22.591  23.459  1.00  0.00     0.165 C 
ATOM     19  H   UNL A   1      38.490  22.461  24.636  1.00  0.00     0.167 HD
ENDBRANCH  12  13
ENDBRANCH  11  12
ENDBRANCH   6  11
ENDBRANCH   3   5
ENDBRANCH   2   3
ENDBRANCH   1   2
BRANCH   1  20
ATOM     20  C   UNL A   1      33.161  30.132  26.358  1.00  0.00     0.275 C 
BRANCH  20  21
ATOM     21  O   UNL A   1      33.701  29.732  27.632  1.00  0.00    -0.458 OA
BRANCH  21  22
ATOM     22  C   UNL A   1      34.516  30.635  28.224  1.00  0.00     0.338 C 
ATOM     23  O   UNL A   1      34.208  31.742  28.639  1.00  0.00    -0.246 OA
BRANCH  22  24
ATOM     24  C   UNL A   1      35.870  30.078  28.371  1.00  0.00     0.060 A 
ATOM     25  C   UNL A   1      36.285  29.663  29.636  1.00  0.00     0.016 A 
ATOM     26  C   UNL A   1      36.765  30.075  27.301  1.00  0.00     0.016 A 
ATOM     27  C   UNL A   1      37.605  29.278  29.855  1.00  0.00     0.010 A 
ATOM     28  C   UNL A   1      38.085  29.658  27.514  1.00  0.00     0.010 A 
ATOM     29  C   UNL A   1      38.521  29.277  28.797  1.00  0.00    -0.014 A 
BRANCH  29  30
ATOM     30  C   UNL A   1      39.948  28.930  29.029  1.00  0.00     0.031 A 
ATOM     31  C   UNL A   1      40.893  29.984  29.537  1.00  0.00     0.074 A 
ATOM     32  C   UNL A   1      40.397  27.687  28.770  1.00  0.00     0.049 A 
ATOM     33  N   UNL A   1      42.198  29.957  29.622  1.00  0.00    -0.248 NA
ATOM     34  C   UNL A   1      40.286  31.240  30.004  1.00  0.00     0.031 C 
ATOM     35  C   UNL A   1      39.569  26.562  28.335  1.00  0.00     0.029 A 
ATOM     36  N   UNL A   1      41.667  27.167  28.817  1.00  0.00    -0.354 N 
ATOM     37  C   UNL A   1      42.572  31.203  30.111  1.00  0.00     0.074 A 
ATOM     38  C   UNL A   1      41.357  31.967  30.295  1.00  0.00     0.031 C 
ATOM     39  C   UNL A   1      40.352  25.487  28.148  1.00  0.00     0.029 A 
ATOM     40  C   UNL A   1      41.743  25.865  28.381  1.00  0.00     0.049 A 
ATOM     41  H   UNL A   1      42.448  27.677  29.133  1.00  0.00     0.167 HD
ATOM     42  C   UNL A   1      43.817  31.665  30.379  1.00  0.00     0.037 A 
ATOM     43  C   UNL A   1      42.813  25.081  28.147  1.00  0.00     0.037 A 
ATOM     44  C   UNL A   1      45.017  30.883  30.210  1.00  0.00     0.049 A 
ATOM     45  C   UNL A   1      44.192  25.635  28.388  1.00  0.00     0.074 A 
ATOM     46  C   UNL A   1      46.327  31.253  30.454  1.00  0.00     0.029 A 
ATOM     47  N   UNL A   1      45.049  29.572  29.757  1.00  0.00    -0.354 N 
ATOM     48  N   UNL A   1      44.538  26.825  28.819  1.00  0.00    -0.248 NA
ATOM     49  C   UNL A   1      45.327  24.746  28.104  1.00  0.00     0.031 C 
ATOM     50  C   UNL A   1      47.155  30.182  30.105  1.00  0.00     0.029 A 
ATOM     51  C   UNL A   1      46.358  29.122  29.701  1.00  0.00     0.049 A 
ATOM     52  H   UNL A   1      44.259  29.039  29.512  1.00  0.00     0.167 HD
ATOM     53  C   UNL A   1      45.927  26.814  28.895  1.00  0.00     0.074 A 
ATOM     54  C   UNL A   1      46.357  25.500  28.463  1.00  0.00     0.031 C 
ATOM     55  C   UNL A   1      46.767  27.800  29.294  1.00  0.00     0.037 A 
BRANCH  42  56
ATOM     56  C   UNL A   1      43.952  33.090  30.846  1.00  0.00     0.058 A 
ATOM     57  C   UNL A   1      44.021  33.426  32.206  1.00  0.00     0.135 A 
ATOM     58  C   UNL A   1      44.041  34.135  29.911  1.00  0.00     0.135 A 
ATOM     59  F   UNL A   1      43.924  32.471  33.145  1.00  0.00    -0.206 F 
ATOM     60  C   UNL A   1      44.139  34.749  32.624  1.00  0.00     0.059 A 
ATOM     61  C   UNL A   1      44.189  35.462  30.305  1.00  0.00     0.059 A 
ATOM     62  F   UNL A   1      43.982  33.873  28.595  1.00  0.00    -0.206 F 
ATOM     63  C   UNL A   1      44.219  35.760  31.666  1.00  0.00     0.060 A 
BRANCH  63  64
ATOM     64  S   UNL A   1      44.359  37.470  32.226  1.00  0.00     0.124 S 
ATOM     65  O   UNL A   1      45.788  37.567  32.509  1.00  0.00    -0.237 OA
ATOM     66  O   UNL A   1      43.892  38.219  31.063  1.00  0.00    -0.237 OA
ATOM     67  O   UNL A   1      43.484  37.521  33.393  1.00  0.00    -0.744 OA
ENDBRANCH  63  64
ENDBRANCH  42  56
BRANCH  43  68
ATOM     68  C   UNL A   1      42.623  23.698  27.630  1.00  0.00     0.058 A 
ATOM     69  C   UNL A   1      42.566  23.442  26.253  1.00  0.00     0.135 A 
ATOM     70  C   UNL A   1      42.508  22.603  28.503  1.00  0.00     0.135 A 
ATOM     71  F   UNL A   1      42.660  24.455  25.378  1.00  0.00    -0.206 F 
ATOM     72  C   UNL A   1      42.389  22.153  25.758  1.00  0.00     0.059 A 
ATOM     73  C   UNL A   1      42.360  21.302  28.032  1.00  0.00     0.059 A 
ATOM     74  F   UNL A   1      42.565  22.792  29.830  1.00  0.00    -0.206 F 
ATOM     75  C   UNL A   1      42.291  21.089  26.655  1.00  0.00     0.060 A 
BRANCH  75  76
ATOM     76  S   UNL A   1      42.107  19.417  25.999  1.00  0.00     0.124 S 
ATOM     77  O   UNL A   1      40.670  19.353  25.758  1.00  0.00    -0.237 OA
ATOM     78  O   UNL A   1      42.953  19.459  24.811  1.00  0.00    -0.237 OA
ATOM     79  O   UNL A   1      42.603  18.574  27.083  1.00  0.00    -0.744 OA
ENDBRANCH  75  76
ENDBRANCH  43  68
BRANCH  55  80
ATOM     80  C   UNL A   1      48.237  27.485  29.352  1.00  0.00     0.058 A 
ATOM     81  C   UNL A   1      49.109  27.800  28.300  1.00  0.00     0.135 A 
ATOM     82  C   UNL A   1      48.789  26.930  30.519  1.00  0.00     0.135 A 
ATOM     83  F   UNL A   1      48.632  28.323  27.159  1.00  0.00    -0.206 F 
ATOM     84  C   UNL A   1      50.478  27.567  28.399  1.00  0.00     0.059 A 
ATOM     85  C   UNL A   1      50.156  26.715  30.650  1.00  0.00     0.059 A 
ATOM     86  F   UNL A   1      47.998  26.619  31.559  1.00  0.00    -0.206 F 
ATOM     87  C   UNL A   1      50.993  27.032  29.582  1.00  0.00     0.060 A 
BRANCH  87  88
ATOM     88  S   UNL A   1      52.777  26.793  29.720  1.00  0.00     0.124 S 
ATOM     89  O   UNL A   1      53.087  26.145  28.450  1.00  0.00    -0.237 OA
ATOM     90  O   UNL A   1      53.263  28.161  29.871  1.00  0.00    -0.237 OA
ATOM     91  O   UNL A   1      52.917  25.951  30.906  1.00  0.00    -0.744 OA
ENDBRANCH  87  88
ENDBRANCH  55  80
ENDBRANCH  29  30
ENDBRANCH  22  24
ENDBRANCH  21  22
ENDBRANCH  20  21
ENDBRANCH   1  20
TORSDOF 17
ENDMDL
MODEL 3
REMARK VINA RESULT:     -10.3      5.661     12.768
REMARK SMILES O=C1NC[C@@H](CSc2ccnc(C(=O)OCCOC(=O)c3ccc(-c4c5nc(c(-c6c(F)cc(S(=O)(=O)[O-])cc6F)c6ccc([nH]6)c(-c6c(F)cc(S(=O)(=O)[O-])cc6F)c6nc(c(-c7c(F)cc(S(=O)(=O)[O-])cc7F)c7ccc4[nH]7)C=C6)C=C5)cc3)c2)O1
REMARK SMILES IDX 16 1 15 2 13 3 14 4 12 5 8 6 9 7 87 8 10 9 11 10 7 11 6 12
REMARK SMILES IDX 5 13 1 14 2 15 3 16 88 17 4 18 17 20 18 21 19 22 20 23 21 24
REMARK SMILES IDX 22 25 86 26 23 27 85 28 24 29 25 30 26 31 79 32 27 33 84 34
REMARK SMILES IDX 78 35 80 36 28 37 83 38 77 39 76 40 29 42 63 43 42 44 62 45
REMARK SMILES IDX 43 46 46 47 61 48 81 49 44 50 45 51 60 53 82 54 47 55 30 56
REMARK SMILES IDX 31 57 40 58 32 59 33 60 39 61 41 62 34 63 35 64 36 65 37 66
REMARK SMILES IDX 38 67 64 68 65 69 74 70 66 71 67 72 73 73 75 74 68 75 69 76
REMARK SMILES IDX 70 77 71 78 72 79 48 80 49 81 58 82 50 83 51 84 57 85 59 86
REMARK SMILES IDX 52 87 53 88 54 89 55 90 56 91
REMARK H PARENT 3 19 80 41 46 52
REMARK Flexibility Score: inf
ROOT
ATOM      1  C   UNL A   1      34.637  31.716  27.662  1.00  0.00     0.275 C 
ENDROOT
BRANCH   1   2
ATOM      2  O   UNL A   1      33.475  30.871  27.537  1.00  0.00    -0.457 OA
BRANCH   2   3
ATOM      3  C   UNL A   1      33.758  29.573  27.242  1.00  0.00     0.357 C 
ATOM      4  O   UNL A   1      34.740  28.966  27.645  1.00  0.00    -0.244 OA
BRANCH   3   5
ATOM      5  C   UNL A   1      32.685  28.927  26.420  1.00  0.00     0.149 A 
ATOM      6  C   UNL A   1      31.267  28.705  24.512  1.00  0.00     0.011 A 
ATOM      7  C   UNL A   1      30.897  27.450  24.987  1.00  0.00     0.035 A 
ATOM      8  C   UNL A   1      32.192  29.464  25.236  1.00  0.00     0.051 A 
ATOM      9  C   UNL A   1      31.384  27.023  26.201  1.00  0.00     0.113 A 
ATOM     10  N   UNL A   1      32.274  27.727  26.911  1.00  0.00    -0.249 NA
BRANCH   6  11
ATOM     11  S   UNL A   1      30.705  29.226  22.904  1.00  0.00    -0.122 SA
BRANCH  11  12
ATOM     12  C   UNL A   1      28.872  29.155  23.055  1.00  0.00     0.122 C 
BRANCH  12  13
ATOM     13  C   UNL A   1      28.013  30.315  22.523  1.00  0.00     0.208 C 
ATOM     14  O   UNL A   1      28.668  33.697  22.808  1.00  0.00    -0.225 OA
ATOM     15  C   UNL A   1      28.455  32.552  22.456  1.00  0.00     0.407 C 
ATOM     16  N   UNL A   1      28.524  32.102  21.170  1.00  0.00    -0.318 N 
ATOM     17  O   UNL A   1      28.154  31.519  23.294  1.00  0.00    -0.443 OA
ATOM     18  C   UNL A   1      28.264  30.710  21.080  1.00  0.00     0.165 C 
ATOM     19  H   UNL A   1      28.728  32.677  20.397  1.00  0.00     0.167 HD
ENDBRANCH  12  13
ENDBRANCH  11  12
ENDBRANCH   6  11
ENDBRANCH   3   5
ENDBRANCH   2   3
ENDBRANCH   1   2
BRANCH   1  20
ATOM     20  C   UNL A   1      34.819  32.234  29.094  1.00  0.00     0.275 C 
BRANCH  20  21
ATOM     21  O   UNL A   1      36.166  32.086  29.582  1.00  0.00    -0.458 OA
BRANCH  21  22
ATOM     22  C   UNL A   1      36.386  30.992  30.347  1.00  0.00     0.338 C 
ATOM     23  O   UNL A   1      35.640  30.525  31.194  1.00  0.00    -0.246 OA
BRANCH  22  24
ATOM     24  C   UNL A   1      37.665  30.363  29.979  1.00  0.00     0.060 A 
ATOM     25  C   UNL A   1      38.518  29.944  31.001  1.00  0.00     0.016 A 
ATOM     26  C   UNL A   1      38.075  30.295  28.648  1.00  0.00     0.016 A 
ATOM     27  C   UNL A   1      39.801  29.489  30.707  1.00  0.00     0.010 A 
ATOM     28  C   UNL A   1      39.354  29.810  28.350  1.00  0.00     0.010 A 
ATOM     29  C   UNL A   1      40.235  29.423  29.378  1.00  0.00    -0.014 A 
BRANCH  29  30
ATOM     30  C   UNL A   1      41.623  29.001  29.054  1.00  0.00     0.031 A 
ATOM     31  C   UNL A   1      42.731  30.019  29.076  1.00  0.00     0.074 A 
ATOM     32  C   UNL A   1      41.886  27.722  28.723  1.00  0.00     0.049 A 
ATOM     33  N   UNL A   1      43.960  29.916  28.643  1.00  0.00    -0.248 NA
ATOM     34  C   UNL A   1      42.405  31.330  29.657  1.00  0.00     0.031 C 
ATOM     35  C   UNL A   1      40.913  26.630  28.727  1.00  0.00     0.029 A 
ATOM     36  N   UNL A   1      43.051  27.129  28.303  1.00  0.00    -0.354 N 
ATOM     37  C   UNL A   1      44.543  31.160  28.860  1.00  0.00     0.074 A 
ATOM     38  C   UNL A   1      43.529  32.004  29.454  1.00  0.00     0.031 C 
ATOM     39  C   UNL A   1      41.517  25.502  28.320  1.00  0.00     0.029 A 
ATOM     40  C   UNL A   1      42.899  25.805  27.962  1.00  0.00     0.049 A 
ATOM     41  H   UNL A   1      43.911  27.605  28.251  1.00  0.00     0.167 HD
ATOM     42  C   UNL A   1      45.809  31.557  28.585  1.00  0.00     0.037 A 
ATOM     43  C   UNL A   1      43.760  24.947  27.379  1.00  0.00     0.037 A 
ATOM     44  C   UNL A   1      46.813  30.697  28.011  1.00  0.00     0.049 A 
ATOM     45  C   UNL A   1      45.141  25.427  27.020  1.00  0.00     0.074 A 
ATOM     46  C   UNL A   1      48.127  30.997  27.695  1.00  0.00     0.029 A 
ATOM     47  N   UNL A   1      46.616  29.365  27.672  1.00  0.00    -0.354 N 
ATOM     48  N   UNL A   1      45.673  26.613  27.200  1.00  0.00    -0.248 NA
ATOM     49  C   UNL A   1      46.037  24.459  26.375  1.00  0.00     0.031 C 
ATOM     50  C   UNL A   1      48.708  29.863  27.122  1.00  0.00     0.029 A 
ATOM     51  C   UNL A   1      47.777  28.835  27.137  1.00  0.00     0.049 A 
ATOM     52  H   UNL A   1      45.773  28.871  27.794  1.00  0.00     0.167 HD
ATOM     53  C   UNL A   1      46.978  26.522  26.724  1.00  0.00     0.074 A 
ATOM     54  C   UNL A   1      47.152  25.165  26.247  1.00  0.00     0.031 C 
ATOM     55  C   UNL A   1      47.943  27.473  26.692  1.00  0.00     0.037 A 
BRANCH  42  56
ATOM     56  C   UNL A   1      46.170  32.992  28.863  1.00  0.00     0.058 A 
ATOM     57  C   UNL A   1      46.714  33.400  30.090  1.00  0.00     0.135 A 
ATOM     58  C   UNL A   1      45.992  33.972  27.871  1.00  0.00     0.135 A 
ATOM     59  F   UNL A   1      46.891  32.510  31.081  1.00  0.00    -0.206 F 
ATOM     60  C   UNL A   1      47.038  34.731  30.336  1.00  0.00     0.059 A 
ATOM     61  C   UNL A   1      46.336  35.303  28.085  1.00  0.00     0.059 A 
ATOM     62  F   UNL A   1      45.476  33.639  26.676  1.00  0.00    -0.206 F 
ATOM     63  C   UNL A   1      46.842  35.676  29.328  1.00  0.00     0.060 A 
BRANCH  63  64
ATOM     64  S   UNL A   1      47.255  37.400  29.669  1.00  0.00     0.124 S 
ATOM     65  O   UNL A   1      46.361  38.100  28.752  1.00  0.00    -0.237 OA
ATOM     66  O   UNL A   1      46.932  37.524  31.087  1.00  0.00    -0.237 OA
ATOM     67  O   UNL A   1      48.676  37.482  29.344  1.00  0.00    -0.744 OA
ENDBRANCH  63  64
ENDBRANCH  42  56
BRANCH  43  68
ATOM     68  C   UNL A   1      43.329  23.556  27.074  1.00  0.00     0.058 A 
ATOM     69  C   UNL A   1      43.014  23.166  25.765  1.00  0.00     0.135 A 
ATOM     70  C   UNL A   1      43.238  22.583  28.084  1.00  0.00     0.135 A 
ATOM     71  F   UNL A   1      43.076  24.061  24.767  1.00  0.00    -0.206 F 
ATOM     72  C   UNL A   1      42.612  21.868  25.467  1.00  0.00     0.059 A 
ATOM     73  C   UNL A   1      42.866  21.271  27.807  1.00  0.00     0.059 A 
ATOM     74  F   UNL A   1      43.537  22.900  29.353  1.00  0.00    -0.206 F 
ATOM     75  C   UNL A   1      42.544  20.926  26.494  1.00  0.00     0.060 A 
BRANCH  75  76
ATOM     76  S   UNL A   1      42.063  19.234  26.088  1.00  0.00     0.124 S 
ATOM     77  O   UNL A   1      42.864  18.979  24.896  1.00  0.00    -0.237 OA
ATOM     78  O   UNL A   1      42.458  18.506  27.290  1.00  0.00    -0.237 OA
ATOM     79  O   UNL A   1      40.623  19.336  25.871  1.00  0.00    -0.744 OA
ENDBRANCH  75  76
ENDBRANCH  43  68
BRANCH  55  80
ATOM     80  C   UNL A   1      49.303  27.072  26.189  1.00  0.00     0.058 A 
ATOM     81  C   UNL A   1      50.267  26.493  27.027  1.00  0.00     0.135 A 
ATOM     82  C   UNL A   1      49.610  27.199  24.824  1.00  0.00     0.135 A 
ATOM     83  F   UNL A   1      50.027  26.358  28.342  1.00  0.00    -0.206 F 
ATOM     84  C   UNL A   1      51.494  26.063  26.532  1.00  0.00     0.059 A 
ATOM     85  C   UNL A   1      50.818  26.751  24.302  1.00  0.00     0.059 A 
ATOM     86  F   UNL A   1      48.718  27.739  23.978  1.00  0.00    -0.206 F 
ATOM     87  C   UNL A   1      51.757  26.188  25.165  1.00  0.00     0.060 A 
BRANCH  87  88
ATOM     88  S   UNL A   1      53.327  25.569  24.525  1.00  0.00     0.124 S 
ATOM     89  O   UNL A   1      54.282  26.462  25.170  1.00  0.00    -0.237 OA
ATOM     90  O   UNL A   1      53.332  24.187  24.996  1.00  0.00    -0.237 OA
ATOM     91  O   UNL A   1      53.192  25.730  23.079  1.00  0.00    -0.744 OA
ENDBRANCH  87  88
ENDBRANCH  55  80
ENDBRANCH  29  30
ENDBRANCH  22  24
ENDBRANCH  21  22
ENDBRANCH  20  21
ENDBRANCH   1  20
TORSDOF 17
ENDMDL
