MODEL 1
REMARK VINA RESULT:     -11.9      0.000      0.000
REMARK SMILES CC(C)(C)OC(=O)N1C[C@@H](C(=O)OCCOC(=O)c2ccc(-c3c4nc(c(-c5c(F)cc(S(=O)(=O)[O-])cc5F)c5ccc([nH]5)c(-c5c(F)cc(S(=O)(=O)[O-])cc5F)c5nc(c(-c6c(F)cc(S(=O)(=O)[O-])cc6F)c6ccc3[nH]6)C=C5)C=C4)cc2)[C@@]2(C1)C(=O)Nc1ccccc12
REMARK SMILES IDX 14 1 13 2 11 3 12 4 10 5 8 6 9 7 86 8 85 9 87 10 95 11 88 12
REMARK SMILES IDX 89 13 90 14 94 15 91 17 93 18 92 19 6 20 7 21 5 22 2 23 1 24
REMARK SMILES IDX 3 25 4 26 15 27 16 28 17 29 18 30 19 31 20 32 84 33 21 34
REMARK SMILES IDX 83 35 22 36 23 37 24 38 77 39 25 40 82 41 76 42 78 43 26 44
REMARK SMILES IDX 81 45 75 46 74 47 27 49 61 50 40 51 60 52 41 53 44 54 59 55
REMARK SMILES IDX 79 56 42 57 43 58 58 60 80 61 45 62 28 63 29 64 38 65 30 66
REMARK SMILES IDX 31 67 37 68 39 69 32 70 33 71 34 72 35 73 36 74 62 75 63 76
REMARK SMILES IDX 72 77 64 78 65 79 71 80 73 81 66 82 67 83 68 84 69 85 70 86
REMARK SMILES IDX 46 87 47 88 56 89 48 90 49 91 55 92 57 93 50 94 51 95 52 96
REMARK SMILES IDX 53 97 54 98
REMARK H PARENT 89 16 78 48 44 59
REMARK Flexibility Score: inf
ROOT
ATOM      1  C   UNL A   1      32.319  29.829  27.060  1.00  0.00     0.274 C 
ENDROOT
BRANCH   1   2
ATOM      2  O   UNL A   1      31.856  30.028  25.705  1.00  0.00    -0.462 OA
BRANCH   2   3
ATOM      3  C   UNL A   1      32.350  29.159  24.799  1.00  0.00     0.312 C 
ATOM      4  O   UNL A   1      33.379  29.366  24.158  1.00  0.00    -0.252 OA
BRANCH   3   5
ATOM      5  C   UNL A   1      31.563  27.888  24.593  1.00  0.00     0.140 C 
ATOM      6  N   UNL A   1      32.692  26.193  23.379  1.00  0.00    -0.306 N 
ATOM      7  C   UNL A   1      32.570  26.746  24.711  1.00  0.00     0.140 C 
ATOM      8  C   UNL A   1      31.801  26.854  22.425  1.00  0.00     0.146 C 
ATOM      9  C   UNL A   1      30.767  27.541  23.314  1.00  0.00     0.109 C 
ATOM     10  C   UNL A   1      29.701  26.487  23.783  1.00  0.00     0.237 C 
ATOM     11  C   UNL A   1      29.850  28.595  22.738  1.00  0.00    -0.006 A 
ATOM     12  O   UNL A   1      29.898  25.352  24.184  1.00  0.00    -0.274 OA
ATOM     13  N   UNL A   1      28.460  27.087  23.731  1.00  0.00    -0.325 N 
ATOM     14  C   UNL A   1      28.529  28.317  23.111  1.00  0.00     0.045 A 
ATOM     15  C   UNL A   1      30.099  29.717  21.967  1.00  0.00     0.007 A 
ATOM     16  H   UNL A   1      27.633  26.691  24.091  1.00  0.00     0.169 HD
ATOM     17  C   UNL A   1      27.461  29.147  22.840  1.00  0.00     0.026 A 
ATOM     18  C   UNL A   1      29.032  30.585  21.680  1.00  0.00     0.000 A 
ATOM     19  C   UNL A   1      27.728  30.312  22.129  1.00  0.00     0.002 A 
BRANCH   6  20
ATOM     20  C   UNL A   1      33.319  24.983  23.226  1.00  0.00     0.410 C 
ATOM     21  O   UNL A   1      34.077  24.754  22.285  1.00  0.00    -0.224 OA
BRANCH  20  22
ATOM     22  O   UNL A   1      32.995  24.092  24.190  1.00  0.00    -0.444 OA
BRANCH  22  23
ATOM     23  C   UNL A   1      34.035  23.510  25.021  1.00  0.00     0.106 C 
ATOM     24  C   UNL A   1      34.356  22.161  24.362  1.00  0.00     0.056 C 
ATOM     25  C   UNL A   1      33.465  23.273  26.423  1.00  0.00     0.056 C 
ATOM     26  C   UNL A   1      35.341  24.320  25.084  1.00  0.00     0.056 C 
ENDBRANCH  22  23
ENDBRANCH  20  22
ENDBRANCH   6  20
ENDBRANCH   3   5
ENDBRANCH   2   3
ENDBRANCH   1   2
BRANCH   1  27
ATOM     27  C   UNL A   1      33.615  30.595  27.349  1.00  0.00     0.275 C 
BRANCH  27  28
ATOM     28  O   UNL A   1      34.631  29.743  27.915  1.00  0.00    -0.458 OA
BRANCH  28  29
ATOM     29  C   UNL A   1      35.443  30.369  28.793  1.00  0.00     0.338 C 
ATOM     30  O   UNL A   1      35.141  31.275  29.548  1.00  0.00    -0.246 OA
BRANCH  29  31
ATOM     31  C   UNL A   1      36.802  29.832  28.796  1.00  0.00     0.060 A 
ATOM     32  C   UNL A   1      37.420  29.564  30.018  1.00  0.00     0.016 A 
ATOM     33  C   UNL A   1      37.534  29.850  27.612  1.00  0.00     0.016 A 
ATOM     34  C   UNL A   1      38.793  29.365  30.070  1.00  0.00     0.010 A 
ATOM     35  C   UNL A   1      38.900  29.575  27.655  1.00  0.00     0.010 A 
ATOM     36  C   UNL A   1      39.539  29.346  28.886  1.00  0.00    -0.014 A 
BRANCH  36  37
ATOM     37  C   UNL A   1      40.980  29.014  28.925  1.00  0.00     0.031 A 
ATOM     38  C   UNL A   1      41.999  30.073  29.220  1.00  0.00     0.074 A 
ATOM     39  C   UNL A   1      41.347  27.751  28.641  1.00  0.00     0.049 A 
ATOM     40  N   UNL A   1      43.300  30.010  29.127  1.00  0.00    -0.248 NA
ATOM     41  C   UNL A   1      41.489  31.380  29.668  1.00  0.00     0.031 C 
ATOM     42  C   UNL A   1      40.422  26.646  28.366  1.00  0.00     0.029 A 
ATOM     43  N   UNL A   1      42.586  27.183  28.517  1.00  0.00    -0.354 N 
ATOM     44  C   UNL A   1      43.769  31.271  29.475  1.00  0.00     0.074 A 
ATOM     45  C   UNL A   1      42.609  32.086  29.769  1.00  0.00     0.031 C 
ATOM     46  C   UNL A   1      41.126  25.535  28.110  1.00  0.00     0.029 A 
ATOM     47  C   UNL A   1      42.544  25.867  28.127  1.00  0.00     0.049 A 
ATOM     48  H   UNL A   1      43.424  27.670  28.692  1.00  0.00     0.167 HD
ATOM     49  C   UNL A   1      45.053  31.699  29.535  1.00  0.00     0.037 A 
ATOM     50  C   UNL A   1      43.537  25.031  27.772  1.00  0.00     0.037 A 
ATOM     51  C   UNL A   1      46.187  30.857  29.242  1.00  0.00     0.049 A 
ATOM     52  C   UNL A   1      44.946  25.545  27.800  1.00  0.00     0.074 A 
ATOM     53  C   UNL A   1      47.533  31.177  29.286  1.00  0.00     0.029 A 
ATOM     54  N   UNL A   1      46.107  29.527  28.847  1.00  0.00    -0.354 N 
ATOM     55  N   UNL A   1      45.379  26.741  28.124  1.00  0.00    -0.248 NA
ATOM     56  C   UNL A   1      46.002  24.604  27.410  1.00  0.00     0.031 C 
ATOM     57  C   UNL A   1      48.262  30.057  28.873  1.00  0.00     0.029 A 
ATOM     58  C   UNL A   1      47.376  29.019  28.624  1.00  0.00     0.049 A 
ATOM     59  H   UNL A   1      45.270  29.020  28.742  1.00  0.00     0.167 HD
ATOM     60  C   UNL A   1      46.760  26.691  28.000  1.00  0.00     0.074 A 
ATOM     61  C   UNL A   1      47.090  25.342  27.582  1.00  0.00     0.031 C 
ATOM     62  C   UNL A   1      47.674  27.669  28.212  1.00  0.00     0.037 A 
BRANCH  49  63
ATOM     63  C   UNL A   1      45.301  33.139  29.897  1.00  0.00     0.058 A 
ATOM     64  C   UNL A   1      45.539  33.543  31.220  1.00  0.00     0.135 A 
ATOM     65  C   UNL A   1      45.338  34.127  28.897  1.00  0.00     0.135 A 
ATOM     66  F   UNL A   1      45.501  32.647  32.218  1.00  0.00    -0.206 F 
ATOM     67  C   UNL A   1      45.780  34.876  31.542  1.00  0.00     0.059 A 
ATOM     68  C   UNL A   1      45.602  35.461  29.194  1.00  0.00     0.059 A 
ATOM     69  F   UNL A   1      45.116  33.799  27.615  1.00  0.00    -0.206 F 
ATOM     70  C   UNL A   1      45.808  35.829  30.522  1.00  0.00     0.060 A 
BRANCH  70  71
ATOM     71  S   UNL A   1      46.116  37.554  30.958  1.00  0.00     0.124 S 
ATOM     72  O   UNL A   1      47.488  37.488  31.452  1.00  0.00    -0.237 OA
ATOM     73  O   UNL A   1      45.935  38.237  29.682  1.00  0.00    -0.237 OA
ATOM     74  O   UNL A   1      45.100  37.838  31.968  1.00  0.00    -0.744 OA
ENDBRANCH  70  71
ENDBRANCH  49  63
BRANCH  50  75
ATOM     75  C   UNL A   1      43.216  23.646  27.344  1.00  0.00     0.058 A 
ATOM     76  C   UNL A   1      43.010  22.630  28.287  1.00  0.00     0.135 A 
ATOM     77  C   UNL A   1      43.066  23.319  25.986  1.00  0.00     0.135 A 
ATOM     78  F   UNL A   1      43.144  22.893  29.597  1.00  0.00    -0.206 F 
ATOM     79  C   UNL A   1      42.682  21.335  27.901  1.00  0.00     0.059 A 
ATOM     80  C   UNL A   1      42.710  22.039  25.577  1.00  0.00     0.059 A 
ATOM     81  F   UNL A   1      43.230  24.261  25.045  1.00  0.00    -0.206 F 
ATOM     82  C   UNL A   1      42.531  21.050  26.542  1.00  0.00     0.060 A 
BRANCH  82  83
ATOM     83  S   UNL A   1      42.062  19.376  26.056  1.00  0.00     0.124 S 
ATOM     84  O   UNL A   1      42.866  19.185  24.854  1.00  0.00    -0.237 OA
ATOM     85  O   UNL A   1      42.459  18.594  27.222  1.00  0.00    -0.237 OA
ATOM     86  O   UNL A   1      40.621  19.480  25.841  1.00  0.00    -0.744 OA
ENDBRANCH  82  83
ENDBRANCH  50  75
BRANCH  62  87
ATOM     87  C   UNL A   1      49.120  27.302  28.030  1.00  0.00     0.058 A 
ATOM     88  C   UNL A   1      49.799  27.551  26.828  1.00  0.00     0.135 A 
ATOM     89  C   UNL A   1      49.843  26.734  29.091  1.00  0.00     0.135 A 
ATOM     90  F   UNL A   1      49.148  28.082  25.781  1.00  0.00    -0.206 F 
ATOM     91  C   UNL A   1      51.143  27.231  26.676  1.00  0.00     0.059 A 
ATOM     92  C   UNL A   1      51.195  26.431  28.970  1.00  0.00     0.059 A 
ATOM     93  F   UNL A   1      49.240  26.482  30.263  1.00  0.00    -0.206 F 
ATOM     94  C   UNL A   1      51.834  26.676  27.755  1.00  0.00     0.060 A 
BRANCH  94  95
ATOM     95  S   UNL A   1      53.589  26.303  27.559  1.00  0.00     0.124 S 
ATOM     96  O   UNL A   1      54.071  27.503  26.884  1.00  0.00    -0.237 OA
ATOM     97  O   UNL A   1      54.027  26.133  28.941  1.00  0.00    -0.237 OA
ATOM     98  O   UNL A   1      53.590  25.085  26.754  1.00  0.00    -0.744 OA
ENDBRANCH  94  95
ENDBRANCH  62  87
ENDBRANCH  36  37
ENDBRANCH  29  31
ENDBRANCH  28  29
ENDBRANCH  27  28
ENDBRANCH   1  27
TORSDOF 17
ENDMDL
MODEL 2
REMARK VINA RESULT:     -11.8      6.082     11.298
REMARK SMILES CC(C)(C)OC(=O)N1C[C@@H](C(=O)OCCOC(=O)c2ccc(-c3c4nc(c(-c5c(F)cc(S(=O)(=O)[O-])cc5F)c5ccc([nH]5)c(-c5c(F)cc(S(=O)(=O)[O-])cc5F)c5nc(c(-c6c(F)cc(S(=O)(=O)[O-])cc6F)c6ccc3[nH]6)C=C5)C=C4)cc2)[C@@]2(C1)C(=O)Nc1ccccc12
REMARK SMILES IDX 14 1 13 2 11 3 12 4 10 5 8 6 9 7 86 8 85 9 87 10 95 11 88 12
REMARK SMILES IDX 89 13 90 14 94 15 91 17 93 18 92 19 6 20 7 21 5 22 2 23 1 24
REMARK SMILES IDX 3 25 4 26 15 27 16 28 17 29 18 30 19 31 20 32 84 33 21 34
REMARK SMILES IDX 83 35 22 36 23 37 24 38 77 39 25 40 82 41 76 42 78 43 26 44
REMARK SMILES IDX 81 45 75 46 74 47 27 49 61 50 40 51 60 52 41 53 44 54 59 55
REMARK SMILES IDX 79 56 42 57 43 58 58 60 80 61 45 62 28 63 29 64 38 65 30 66
REMARK SMILES IDX 31 67 37 68 39 69 32 70 33 71 34 72 35 73 36 74 62 75 63 76
REMARK SMILES IDX 72 77 64 78 65 79 71 80 73 81 66 82 67 83 68 84 69 85 70 86
REMARK SMILES IDX 46 87 47 88 56 89 48 90 49 91 55 92 57 93 50 94 51 95 52 96
REMARK SMILES IDX 53 97 54 98
REMARK H PARENT 89 16 78 48 44 59
REMARK Flexibility Score: inf
ROOT
ATOM      1  C   UNL A   1      37.182  22.254  25.422  1.00  0.00     0.274 C 
ENDROOT
BRANCH   1   2
ATOM      2  O   UNL A   1      36.421  23.388  24.947  1.00  0.00    -0.462 OA
BRANCH   2   3
ATOM      3  C   UNL A   1      35.917  23.256  23.702  1.00  0.00     0.312 C 
ATOM      4  O   UNL A   1      36.598  22.936  22.729  1.00  0.00    -0.252 OA
BRANCH   3   5
ATOM      5  C   UNL A   1      34.441  23.531  23.546  1.00  0.00     0.140 C 
ATOM      6  N   UNL A   1      33.485  24.885  25.240  1.00  0.00    -0.306 N 
ATOM      7  C   UNL A   1      34.231  24.972  24.002  1.00  0.00     0.140 C 
ATOM      8  C   UNL A   1      33.152  23.504  25.585  1.00  0.00     0.146 C 
ATOM      9  C   UNL A   1      33.318  22.752  24.266  1.00  0.00     0.109 C 
ATOM     10  C   UNL A   1      32.043  22.976  23.376  1.00  0.00     0.237 C 
ATOM     11  C   UNL A   1      33.376  21.242  24.255  1.00  0.00    -0.006 A 
ATOM     12  O   UNL A   1      31.442  24.019  23.182  1.00  0.00    -0.274 OA
ATOM     13  N   UNL A   1      31.732  21.777  22.770  1.00  0.00    -0.325 N 
ATOM     14  C   UNL A   1      32.496  20.749  23.283  1.00  0.00     0.045 A 
ATOM     15  C   UNL A   1      34.121  20.339  24.993  1.00  0.00     0.007 A 
ATOM     16  H   UNL A   1      31.055  21.668  22.063  1.00  0.00     0.169 HD
ATOM     17  C   UNL A   1      32.392  19.416  22.942  1.00  0.00     0.026 A 
ATOM     18  C   UNL A   1      34.041  18.975  24.665  1.00  0.00     0.000 A 
ATOM     19  C   UNL A   1      33.198  18.520  23.636  1.00  0.00     0.002 A 
BRANCH   6  20
ATOM     20  C   UNL A   1      32.915  26.026  25.743  1.00  0.00     0.410 C 
ATOM     21  O   UNL A   1      31.711  26.257  25.641  1.00  0.00    -0.224 OA
BRANCH  20  22
ATOM     22  O   UNL A   1      33.811  26.853  26.328  1.00  0.00    -0.444 OA
BRANCH  22  23
ATOM     23  C   UNL A   1      33.640  28.293  26.235  1.00  0.00     0.106 C 
ATOM     24  C   UNL A   1      33.686  28.599  24.732  1.00  0.00     0.056 C 
ATOM     25  C   UNL A   1      34.823  28.972  26.933  1.00  0.00     0.056 C 
ATOM     26  C   UNL A   1      32.301  28.820  26.777  1.00  0.00     0.056 C 
ENDBRANCH  22  23
ENDBRANCH  20  22
ENDBRANCH   6  20
ENDBRANCH   3   5
ENDBRANCH   2   3
ENDBRANCH   1   2
BRANCH   1  27
ATOM     27  C   UNL A   1      38.566  22.660  25.943  1.00  0.00     0.275 C 
BRANCH  27  28
ATOM     28  O   UNL A   1      38.543  23.950  26.586  1.00  0.00    -0.458 OA
BRANCH  28  29
ATOM     29  C   UNL A   1      39.767  24.425  26.902  1.00  0.00     0.338 C 
ATOM     30  O   UNL A   1      40.839  23.986  26.528  1.00  0.00    -0.246 OA
BRANCH  29  31
ATOM     31  C   UNL A   1      39.715  25.603  27.765  1.00  0.00     0.060 A 
ATOM     32  C   UNL A   1      40.663  26.612  27.589  1.00  0.00     0.016 A 
ATOM     33  C   UNL A   1      38.904  25.573  28.897  1.00  0.00     0.016 A 
ATOM     34  C   UNL A   1      40.844  27.571  28.576  1.00  0.00     0.010 A 
ATOM     35  C   UNL A   1      39.034  26.580  29.851  1.00  0.00     0.010 A 
ATOM     36  C   UNL A   1      40.015  27.575  29.703  1.00  0.00    -0.014 A 
BRANCH  36  37
ATOM     37  C   UNL A   1      40.123  28.666  30.697  1.00  0.00     0.031 A 
ATOM     38  C   UNL A   1      41.092  28.566  31.837  1.00  0.00     0.074 A 
ATOM     39  C   UNL A   1      39.295  29.720  30.573  1.00  0.00     0.049 A 
ATOM     40  N   UNL A   1      41.204  29.331  32.889  1.00  0.00    -0.248 NA
ATOM     41  C   UNL A   1      42.054  27.453  31.795  1.00  0.00     0.031 C 
ATOM     42  C   UNL A   1      38.336  29.915  29.481  1.00  0.00     0.029 A 
ATOM     43  N   UNL A   1      39.111  30.814  31.375  1.00  0.00    -0.354 N 
ATOM     44  C   UNL A   1      42.227  28.782  33.653  1.00  0.00     0.074 A 
ATOM     45  C   UNL A   1      42.695  27.607  32.948  1.00  0.00     0.031 C 
ATOM     46  C   UNL A   1      37.668  31.059  29.680  1.00  0.00     0.029 A 
ATOM     47  C   UNL A   1      38.097  31.635  30.947  1.00  0.00     0.049 A 
ATOM     48  H   UNL A   1      39.652  30.994  32.177  1.00  0.00     0.167 HD
ATOM     49  C   UNL A   1      42.718  29.224  34.836  1.00  0.00     0.037 A 
ATOM     50  C   UNL A   1      37.538  32.709  31.536  1.00  0.00     0.037 A 
ATOM     51  C   UNL A   1      42.231  30.404  35.508  1.00  0.00     0.049 A 
ATOM     52  C   UNL A   1      38.067  33.148  32.869  1.00  0.00     0.074 A 
ATOM     53  C   UNL A   1      42.664  30.956  36.701  1.00  0.00     0.029 A 
ATOM     54  N   UNL A   1      41.200  31.212  35.046  1.00  0.00    -0.354 N 
ATOM     55  N   UNL A   1      39.030  32.618  33.586  1.00  0.00    -0.248 NA
ATOM     56  C   UNL A   1      37.435  34.323  33.477  1.00  0.00     0.031 C 
ATOM     57  C   UNL A   1      41.864  32.069  36.983  1.00  0.00     0.029 A 
ATOM     58  C   UNL A   1      40.968  32.245  35.939  1.00  0.00     0.049 A 
ATOM     59  H   UNL A   1      40.707  31.071  34.206  1.00  0.00     0.167 HD
ATOM     60  C   UNL A   1      39.137  33.409  34.721  1.00  0.00     0.074 A 
ATOM     61  C   UNL A   1      38.146  34.460  34.588  1.00  0.00     0.031 C 
ATOM     62  C   UNL A   1      39.976  33.281  35.778  1.00  0.00     0.037 A 
BRANCH  49  63
ATOM     63  C   UNL A   1      43.807  28.419  35.492  1.00  0.00     0.058 A 
ATOM     64  C   UNL A   1      43.526  27.402  36.418  1.00  0.00     0.135 A 
ATOM     65  C   UNL A   1      45.155  28.644  35.160  1.00  0.00     0.135 A 
ATOM     66  F   UNL A   1      42.260  27.153  36.785  1.00  0.00    -0.206 F 
ATOM     67  C   UNL A   1      44.541  26.655  37.011  1.00  0.00     0.059 A 
ATOM     68  C   UNL A   1      46.184  27.892  35.721  1.00  0.00     0.059 A 
ATOM     69  F   UNL A   1      45.483  29.604  34.282  1.00  0.00    -0.206 F 
ATOM     70  C   UNL A   1      45.868  26.908  36.657  1.00  0.00     0.060 A 
BRANCH  70  71
ATOM     71  S   UNL A   1      47.172  25.934  37.438  1.00  0.00     0.124 S 
ATOM     72  O   UNL A   1      46.473  25.389  38.597  1.00  0.00    -0.237 OA
ATOM     73  O   UNL A   1      47.511  24.972  36.395  1.00  0.00    -0.237 OA
ATOM     74  O   UNL A   1      48.205  26.922  37.736  1.00  0.00    -0.744 OA
ENDBRANCH  70  71
ENDBRANCH  49  63
BRANCH  50  75
ATOM     75  C   UNL A   1      36.408  33.408  30.871  1.00  0.00     0.058 A 
ATOM     76  C   UNL A   1      35.110  33.333  31.391  1.00  0.00     0.135 A 
ATOM     77  C   UNL A   1      36.612  34.199  29.728  1.00  0.00     0.135 A 
ATOM     78  F   UNL A   1      34.865  32.589  32.481  1.00  0.00    -0.206 F 
ATOM     79  C   UNL A   1      34.048  34.005  30.795  1.00  0.00     0.059 A 
ATOM     80  C   UNL A   1      35.572  34.903  29.131  1.00  0.00     0.059 A 
ATOM     81  F   UNL A   1      37.842  34.321  29.204  1.00  0.00    -0.206 F 
ATOM     82  C   UNL A   1      34.290  34.791  29.666  1.00  0.00     0.060 A 
BRANCH  82  83
ATOM     83  S   UNL A   1      32.912  35.692  28.926  1.00  0.00     0.124 S 
ATOM     84  O   UNL A   1      32.338  34.679  28.048  1.00  0.00    -0.237 OA
ATOM     85  O   UNL A   1      32.116  36.050  30.095  1.00  0.00    -0.237 OA
ATOM     86  O   UNL A   1      33.566  36.812  28.255  1.00  0.00    -0.744 OA
ENDBRANCH  82  83
ENDBRANCH  50  75
BRANCH  62  87
ATOM     87  C   UNL A   1      39.882  34.325  36.854  1.00  0.00     0.058 A 
ATOM     88  C   UNL A   1      40.546  35.555  36.748  1.00  0.00     0.135 A 
ATOM     89  C   UNL A   1      39.078  34.104  37.984  1.00  0.00     0.135 A 
ATOM     90  F   UNL A   1      41.336  35.809  35.692  1.00  0.00    -0.206 F 
ATOM     91  C   UNL A   1      40.434  36.527  37.737  1.00  0.00     0.059 A 
ATOM     92  C   UNL A   1      38.928  35.072  38.971  1.00  0.00     0.059 A 
ATOM     93  F   UNL A   1      38.417  32.945  38.128  1.00  0.00    -0.206 F 
ATOM     94  C   UNL A   1      39.619  36.277  38.842  1.00  0.00     0.060 A 
BRANCH  94  95
ATOM     95  S   UNL A   1      39.448  37.562  40.098  1.00  0.00     0.124 S 
ATOM     96  O   UNL A   1      39.180  36.771  41.294  1.00  0.00    -0.237 OA
ATOM     97  O   UNL A   1      40.751  38.219  40.050  1.00  0.00    -0.237 OA
ATOM     98  O   UNL A   1      38.330  38.366  39.612  1.00  0.00    -0.744 OA
ENDBRANCH  94  95
ENDBRANCH  62  87
ENDBRANCH  36  37
ENDBRANCH  29  31
ENDBRANCH  28  29
ENDBRANCH  27  28
ENDBRANCH   1  27
TORSDOF 17
ENDMDL
MODEL 3
REMARK VINA RESULT:     -11.8      1.452      2.220
REMARK SMILES CC(C)(C)OC(=O)N1C[C@@H](C(=O)OCCOC(=O)c2ccc(-c3c4nc(c(-c5c(F)cc(S(=O)(=O)[O-])cc5F)c5ccc([nH]5)c(-c5c(F)cc(S(=O)(=O)[O-])cc5F)c5nc(c(-c6c(F)cc(S(=O)(=O)[O-])cc6F)c6ccc3[nH]6)C=C5)C=C4)cc2)[C@@]2(C1)C(=O)Nc1ccccc12
REMARK SMILES IDX 14 1 13 2 11 3 12 4 10 5 8 6 9 7 86 8 85 9 87 10 95 11 88 12
REMARK SMILES IDX 89 13 90 14 94 15 91 17 93 18 92 19 6 20 7 21 5 22 2 23 1 24
REMARK SMILES IDX 3 25 4 26 15 27 16 28 17 29 18 30 19 31 20 32 84 33 21 34
REMARK SMILES IDX 83 35 22 36 23 37 24 38 77 39 25 40 82 41 76 42 78 43 26 44
REMARK SMILES IDX 81 45 75 46 74 47 27 49 61 50 40 51 60 52 41 53 44 54 59 55
REMARK SMILES IDX 79 56 42 57 43 58 58 60 80 61 45 62 28 63 29 64 38 65 30 66
REMARK SMILES IDX 31 67 37 68 39 69 32 70 33 71 34 72 35 73 36 74 62 75 63 76
REMARK SMILES IDX 72 77 64 78 65 79 71 80 73 81 66 82 67 83 68 84 69 85 70 86
REMARK SMILES IDX 46 87 47 88 56 89 48 90 49 91 55 92 57 93 50 94 51 95 52 96
REMARK SMILES IDX 53 97 54 98
REMARK H PARENT 89 16 78 48 44 59
REMARK Flexibility Score: inf
ROOT
ATOM      1  C   UNL A   1      33.975  28.498  26.720  1.00  0.00     0.274 C 
ENDROOT
BRANCH   1   2
ATOM      2  O   UNL A   1      32.603  28.697  26.307  1.00  0.00    -0.462 OA
BRANCH   2   3
ATOM      3  C   UNL A   1      31.710  27.859  26.872  1.00  0.00     0.312 C 
ATOM      4  O   UNL A   1      31.245  28.027  27.998  1.00  0.00    -0.252 OA
BRANCH   3   5
ATOM      5  C   UNL A   1      31.295  26.666  26.044  1.00  0.00     0.140 C 
ATOM      6  N   UNL A   1      33.077  25.482  25.024  1.00  0.00    -0.306 N 
ATOM      7  C   UNL A   1      32.362  25.601  26.277  1.00  0.00     0.140 C 
ATOM      8  C   UNL A   1      32.517  26.348  23.987  1.00  0.00     0.146 C 
ATOM      9  C   UNL A   1      31.119  26.677  24.508  1.00  0.00     0.109 C 
ATOM     10  C   UNL A   1      30.156  25.473  24.209  1.00  0.00     0.237 C 
ATOM     11  C   UNL A   1      30.324  27.803  23.889  1.00  0.00    -0.006 A 
ATOM     12  O   UNL A   1      30.379  24.283  24.356  1.00  0.00    -0.274 OA
ATOM     13  N   UNL A   1      28.944  25.991  23.800  1.00  0.00    -0.325 N 
ATOM     14  C   UNL A   1      29.030  27.352  23.597  1.00  0.00     0.045 A 
ATOM     15  C   UNL A   1      30.649  29.117  23.602  1.00  0.00     0.007 A 
ATOM     16  H   UNL A   1      28.125  25.459  23.671  1.00  0.00     0.169 HD
ATOM     17  C   UNL A   1      28.019  28.165  23.125  1.00  0.00     0.026 A 
ATOM     18  C   UNL A   1      29.639  29.971  23.126  1.00  0.00     0.000 A 
ATOM     19  C   UNL A   1      28.331  29.503  22.908  1.00  0.00     0.002 A 
BRANCH   6  20
ATOM     20  C   UNL A   1      33.915  24.411  24.846  1.00  0.00     0.410 C 
ATOM     21  O   UNL A   1      34.989  24.512  24.254  1.00  0.00    -0.224 OA
BRANCH  20  22
ATOM     22  O   UNL A   1      33.423  23.261  25.361  1.00  0.00    -0.444 OA
BRANCH  22  23
ATOM     23  C   UNL A   1      33.266  22.093  24.512  1.00  0.00     0.106 C 
ATOM     24  C   UNL A   1      34.599  21.342  24.624  1.00  0.00     0.056 C 
ATOM     25  C   UNL A   1      33.060  22.561  23.069  1.00  0.00     0.056 C 
ATOM     26  C   UNL A   1      32.150  21.126  24.945  1.00  0.00     0.056 C 
ENDBRANCH  22  23
ENDBRANCH  20  22
ENDBRANCH   6  20
ENDBRANCH   3   5
ENDBRANCH   2   3
ENDBRANCH   1   2
BRANCH   1  27
ATOM     27  C   UNL A   1      34.541  29.716  27.459  1.00  0.00     0.275 C 
BRANCH  27  28
ATOM     28  O   UNL A   1      35.494  29.337  28.472  1.00  0.00    -0.458 OA
BRANCH  28  29
ATOM     29  C   UNL A   1      36.218  30.370  28.955  1.00  0.00     0.338 C 
ATOM     30  O   UNL A   1      35.789  31.368  29.504  1.00  0.00    -0.246 OA
BRANCH  29  31
ATOM     31  C   UNL A   1      37.658  30.186  28.786  1.00  0.00     0.060 A 
ATOM     32  C   UNL A   1      38.150  29.824  27.532  1.00  0.00     0.016 A 
ATOM     33  C   UNL A   1      38.464  30.115  29.920  1.00  0.00     0.016 A 
ATOM     34  C   UNL A   1      39.443  29.333  27.412  1.00  0.00     0.010 A 
ATOM     35  C   UNL A   1      39.786  29.695  29.786  1.00  0.00     0.010 A 
ATOM     36  C   UNL A   1      40.278  29.287  28.535  1.00  0.00    -0.014 A 
BRANCH  36  37
ATOM     37  C   UNL A   1      41.692  28.881  28.388  1.00  0.00     0.031 A 
ATOM     38  C   UNL A   1      42.789  29.902  28.441  1.00  0.00     0.074 A 
ATOM     39  C   UNL A   1      41.958  27.581  28.159  1.00  0.00     0.049 A 
ATOM     40  N   UNL A   1      44.057  29.761  28.162  1.00  0.00    -0.248 NA
ATOM     41  C   UNL A   1      42.409  31.265  28.848  1.00  0.00     0.031 C 
ATOM     42  C   UNL A   1      40.956  26.511  28.117  1.00  0.00     0.029 A 
ATOM     43  N   UNL A   1      43.139  26.939  27.902  1.00  0.00    -0.354 N 
ATOM     44  C   UNL A   1      44.627  31.018  28.330  1.00  0.00     0.074 A 
ATOM     45  C   UNL A   1      43.560  31.914  28.724  1.00  0.00     0.031 C 
ATOM     46  C   UNL A   1      41.565  25.347  27.853  1.00  0.00     0.029 A 
ATOM     47  C   UNL A   1      42.982  25.601  27.633  1.00  0.00     0.049 A 
ATOM     48  H   UNL A   1      44.013  27.391  27.909  1.00  0.00     0.167 HD
ATOM     49  C   UNL A   1      45.922  31.378  28.164  1.00  0.00     0.037 A 
ATOM     50  C   UNL A   1      43.874  24.688  27.206  1.00  0.00     0.037 A 
ATOM     51  C   UNL A   1      46.961  30.455  27.778  1.00  0.00     0.049 A 
ATOM     52  C   UNL A   1      45.291  25.125  26.983  1.00  0.00     0.074 A 
ATOM     53  C   UNL A   1      48.311  30.704  27.596  1.00  0.00     0.029 A 
ATOM     54  N   UNL A   1      46.766  29.106  27.512  1.00  0.00    -0.354 N 
ATOM     55  N   UNL A   1      45.819  26.317  27.138  1.00  0.00    -0.248 NA
ATOM     56  C   UNL A   1      46.234  24.101  26.520  1.00  0.00     0.031 C 
ATOM     57  C   UNL A   1      48.921  29.517  27.175  1.00  0.00     0.029 A 
ATOM     58  C   UNL A   1      47.964  28.514  27.146  1.00  0.00     0.049 A 
ATOM     59  H   UNL A   1      45.902  28.639  27.574  1.00  0.00     0.167 HD
ATOM     60  C   UNL A   1      47.162  26.182  26.816  1.00  0.00     0.074 A 
ATOM     61  C   UNL A   1      47.367  24.789  26.468  1.00  0.00     0.031 C 
ATOM     62  C   UNL A   1      48.138  27.122  26.809  1.00  0.00     0.037 A 
BRANCH  49  63
ATOM     63  C   UNL A   1      46.283  32.825  28.365  1.00  0.00     0.058 A 
ATOM     64  C   UNL A   1      46.731  33.316  29.601  1.00  0.00     0.135 A 
ATOM     65  C   UNL A   1      46.215  33.730  27.290  1.00  0.00     0.135 A 
ATOM     66  F   UNL A   1      46.801  32.503  30.666  1.00  0.00    -0.206 F 
ATOM     67  C   UNL A   1      47.075  34.655  29.772  1.00  0.00     0.059 A 
ATOM     68  C   UNL A   1      46.577  35.067  27.433  1.00  0.00     0.059 A 
ATOM     69  F   UNL A   1      45.792  33.317  26.085  1.00  0.00    -0.206 F 
ATOM     70  C   UNL A   1      46.993  35.524  28.682  1.00  0.00     0.060 A 
BRANCH  70  71
ATOM     71  S   UNL A   1      47.437  37.258  28.923  1.00  0.00     0.124 S 
ATOM     72  O   UNL A   1      48.892  37.200  28.831  1.00  0.00    -0.237 OA
ATOM     73  O   UNL A   1      46.758  37.912  27.809  1.00  0.00    -0.237 OA
ATOM     74  O   UNL A   1      46.904  37.566  30.247  1.00  0.00    -0.744 OA
ENDBRANCH  70  71
ENDBRANCH  49  63
BRANCH  50  75
ATOM     75  C   UNL A   1      43.433  23.294  26.947  1.00  0.00     0.058 A 
ATOM     76  C   UNL A   1      43.346  22.797  25.640  1.00  0.00     0.135 A 
ATOM     77  C   UNL A   1      43.129  22.417  28.002  1.00  0.00     0.135 A 
ATOM     78  F   UNL A   1      43.625  23.597  24.598  1.00  0.00    -0.206 F 
ATOM     79  C   UNL A   1      42.961  21.486  25.384  1.00  0.00     0.059 A 
ATOM     80  C   UNL A   1      42.770  21.094  27.773  1.00  0.00     0.059 A 
ATOM     81  F   UNL A   1      43.218  22.838  29.274  1.00  0.00    -0.206 F 
ATOM     82  C   UNL A   1      42.677  20.640  26.459  1.00  0.00     0.060 A 
BRANCH  82  83
ATOM     83  S   UNL A   1      42.220  18.928  26.116  1.00  0.00     0.124 S 
ATOM     84  O   UNL A   1      40.803  19.062  25.797  1.00  0.00    -0.237 OA
ATOM     85  O   UNL A   1      43.097  18.593  24.999  1.00  0.00    -0.237 OA
ATOM     86  O   UNL A   1      42.522  18.242  27.369  1.00  0.00    -0.744 OA
ENDBRANCH  82  83
ENDBRANCH  50  75
BRANCH  62  87
ATOM     87  C   UNL A   1      49.523  26.664  26.447  1.00  0.00     0.058 A 
ATOM     88  C   UNL A   1      50.366  26.051  27.386  1.00  0.00     0.135 A 
ATOM     89  C   UNL A   1      49.991  26.802  25.131  1.00  0.00     0.135 A 
ATOM     90  F   UNL A   1      49.968  25.907  28.660  1.00  0.00    -0.206 F 
ATOM     91  C   UNL A   1      51.636  25.607  27.036  1.00  0.00     0.059 A 
ATOM     92  C   UNL A   1      51.247  26.340  24.753  1.00  0.00     0.059 A 
ATOM     93  F   UNL A   1      49.219  27.376  24.194  1.00  0.00    -0.206 F 
ATOM     94  C   UNL A   1      52.066  25.752  25.716  1.00  0.00     0.060 A 
BRANCH  94  95
ATOM     95  S   UNL A   1      53.700  25.134  25.266  1.00  0.00     0.124 S 
ATOM     96  O   UNL A   1      54.541  25.753  26.286  1.00  0.00    -0.237 OA
ATOM     97  O   UNL A   1      53.528  23.688  25.378  1.00  0.00    -0.237 OA
ATOM     98  O   UNL A   1      53.890  25.632  23.907  1.00  0.00    -0.744 OA
ENDBRANCH  94  95
ENDBRANCH  62  87
ENDBRANCH  36  37
ENDBRANCH  29  31
ENDBRANCH  28  29
ENDBRANCH  27  28
ENDBRANCH   1  27
TORSDOF 17
ENDMDL
