MODEL 1
REMARK VINA RESULT:     -11.6      0.000      0.000
REMARK SMILES CC(=O)N/C(=C\c1ccccc1)C(=O)N[C@H](C(=O)OCCOC(=O)c1ccc(-c2c3nc(c(-c4c(F)cc(S(=O)(=O)[O-])cc4F)c4ccc([nH]4)c(-c4c(F)cc(S(=O)(=O)[O-])cc4F)c4nc(c(-c5c(F)cc(S(=O)(=O)[O-])cc5F)c5ccc2[nH]5)C=C4)C=C3)cc1)C(C)C
REMARK SMILES IDX 20 1 19 2 17 3 18 4 16 5 15 6 13 7 14 8 5 10 6 11 4 12 1 13
REMARK SMILES IDX 2 14 3 15 7 17 8 18 12 19 9 20 11 21 10 22 91 23 92 24 93 25
REMARK SMILES IDX 21 26 22 27 23 28 24 29 25 30 26 31 90 32 27 33 89 34 28 35
REMARK SMILES IDX 29 36 30 37 83 38 31 39 88 40 82 41 84 42 32 43 87 44 81 45
REMARK SMILES IDX 80 46 33 48 67 49 46 50 66 51 47 52 50 53 65 54 85 55 48 56
REMARK SMILES IDX 49 57 64 59 86 60 51 61 34 62 35 63 44 64 36 65 37 66 43 67
REMARK SMILES IDX 45 68 38 69 39 70 40 71 41 72 42 73 68 74 69 75 78 76 70 77
REMARK SMILES IDX 71 78 77 79 79 80 72 81 73 82 74 83 75 84 76 85 52 86 53 87
REMARK SMILES IDX 62 88 54 89 55 90 61 91 63 92 56 93 57 94 58 95 59 96 60 97
REMARK H PARENT 15 9 4 16 84 47 50 58
REMARK Flexibility Score: inf
ROOT
ATOM      1  C   UNL A   1      36.607  23.957  25.798  1.00  0.00     0.274 C 
ENDROOT
BRANCH   1   2
ATOM      2  O   UNL A   1      35.919  22.971  25.000  1.00  0.00    -0.461 OA
BRANCH   2   3
ATOM      3  C   UNL A   1      35.328  23.392  23.849  1.00  0.00     0.329 C 
ATOM      4  O   UNL A   1      35.794  23.197  22.731  1.00  0.00    -0.250 OA
BRANCH   3   5
ATOM      5  C   UNL A   1      33.957  24.090  24.081  1.00  0.00     0.195 C 
BRANCH   5   6
ATOM      6  N   UNL A   1      33.427  24.454  22.746  1.00  0.00    -0.337 N 
ATOM      7  C   UNL A   1      33.213  25.646  22.094  1.00  0.00     0.268 C 
ATOM      8  O   UNL A   1      33.342  25.650  20.873  1.00  0.00    -0.268 OA
ATOM      9  H   UNL A   1      33.172  23.671  22.208  1.00  0.00     0.164 HD
BRANCH   7  10
ATOM     10  C   UNL A   1      32.666  26.855  22.810  1.00  0.00     0.107 C 
ATOM     11  C   UNL A   1      33.217  27.184  23.994  1.00  0.00     0.040 C 
BRANCH  10  12
ATOM     12  N   UNL A   1      31.655  27.649  22.293  1.00  0.00    -0.322 N 
ATOM     13  C   UNL A   1      29.497  27.097  23.484  1.00  0.00     0.114 C 
ATOM     14  C   UNL A   1      30.330  27.862  22.504  1.00  0.00     0.221 C 
ATOM     15  O   UNL A   1      29.804  28.739  21.806  1.00  0.00    -0.275 OA
ATOM     16  H   UNL A   1      31.993  28.221  21.566  1.00  0.00     0.170 HD
ENDBRANCH  10  12
BRANCH  11  17
ATOM     17  C   UNL A   1      32.658  28.011  25.081  1.00  0.00    -0.023 A 
ATOM     18  C   UNL A   1      32.962  29.378  25.113  1.00  0.00     0.008 A 
ATOM     19  C   UNL A   1      32.036  27.440  26.204  1.00  0.00     0.008 A 
ATOM     20  C   UNL A   1      32.639  30.153  26.230  1.00  0.00     0.001 A 
ATOM     21  C   UNL A   1      31.695  28.219  27.311  1.00  0.00     0.001 A 
ATOM     22  C   UNL A   1      32.004  29.574  27.327  1.00  0.00     0.000 A 
ENDBRANCH  11  17
ENDBRANCH   7  10
ENDBRANCH   5   6
BRANCH   5  23
ATOM     23  C   UNL A   1      32.965  23.289  24.952  1.00  0.00     0.017 C 
ATOM     24  C   UNL A   1      32.936  23.868  26.378  1.00  0.00     0.010 C 
ATOM     25  C   UNL A   1      31.537  23.310  24.402  1.00  0.00     0.010 C 
ENDBRANCH   5  23
ENDBRANCH   3   5
ENDBRANCH   2   3
ENDBRANCH   1   2
BRANCH   1  26
ATOM     26  C   UNL A   1      38.085  23.588  25.972  1.00  0.00     0.275 C 
BRANCH  26  27
ATOM     27  O   UNL A   1      38.900  24.747  26.223  1.00  0.00    -0.458 OA
BRANCH  27  28
ATOM     28  C   UNL A   1      40.078  24.498  26.828  1.00  0.00     0.338 C 
ATOM     29  O   UNL A   1      40.949  23.713  26.467  1.00  0.00    -0.246 OA
BRANCH  28  30
ATOM     30  C   UNL A   1      40.285  25.431  27.936  1.00  0.00     0.060 A 
ATOM     31  C   UNL A   1      39.286  25.493  28.904  1.00  0.00     0.016 A 
ATOM     32  C   UNL A   1      41.353  26.327  27.959  1.00  0.00     0.016 A 
ATOM     33  C   UNL A   1      39.283  26.518  29.835  1.00  0.00     0.010 A 
ATOM     34  C   UNL A   1      41.389  27.314  28.950  1.00  0.00     0.010 A 
ATOM     35  C   UNL A   1      40.336  27.434  29.876  1.00  0.00    -0.014 A 
BRANCH  35  36
ATOM     36  C   UNL A   1      40.304  28.518  30.885  1.00  0.00     0.031 A 
ATOM     37  C   UNL A   1      41.271  28.513  32.033  1.00  0.00     0.074 A 
ATOM     38  C   UNL A   1      39.432  29.532  30.733  1.00  0.00     0.049 A 
ATOM     39  N   UNL A   1      41.320  29.304  33.073  1.00  0.00    -0.248 NA
ATOM     40  C   UNL A   1      42.313  27.475  32.014  1.00  0.00     0.031 C 
ATOM     41  C   UNL A   1      38.484  29.670  29.623  1.00  0.00     0.029 A 
ATOM     42  N   UNL A   1      39.206  30.643  31.503  1.00  0.00    -0.354 N 
ATOM     43  C   UNL A   1      42.369  28.837  33.855  1.00  0.00     0.074 A 
ATOM     44  C   UNL A   1      42.926  27.689  33.171  1.00  0.00     0.031 C 
ATOM     45  C   UNL A   1      37.794  30.809  29.775  1.00  0.00     0.029 A 
ATOM     46  C   UNL A   1      38.200  31.446  31.022  1.00  0.00     0.049 A 
ATOM     47  H   UNL A   1      39.715  30.845  32.321  1.00  0.00     0.167 HD
ATOM     48  C   UNL A   1      42.819  29.323  35.037  1.00  0.00     0.037 A 
ATOM     49  C   UNL A   1      37.641  32.552  31.545  1.00  0.00     0.037 A 
ATOM     50  C   UNL A   1      42.276  30.489  35.684  1.00  0.00     0.049 A 
ATOM     51  C   UNL A   1      38.146  33.068  32.859  1.00  0.00     0.074 A 
ATOM     52  C   UNL A   1      42.651  31.065  36.885  1.00  0.00     0.029 A 
ATOM     53  N   UNL A   1      41.246  31.269  35.173  1.00  0.00    -0.354 N 
ATOM     54  N   UNL A   1      39.096  32.580  33.621  1.00  0.00    -0.248 NA
ATOM     55  C   UNL A   1      37.499  34.271  33.393  1.00  0.00     0.031 C 
ATOM     56  C   UNL A   1      41.831  32.177  37.113  1.00  0.00     0.029 A 
ATOM     57  C   UNL A   1      40.967  32.315  36.038  1.00  0.00     0.049 A 
ATOM     58  H   UNL A   1      40.783  31.103  34.321  1.00  0.00     0.167 HD
ATOM     59  C   UNL A   1      39.161  33.415  34.728  1.00  0.00     0.074 A 
ATOM     60  C   UNL A   1      38.167  34.452  34.525  1.00  0.00     0.031 C 
ATOM     61  C   UNL A   1      39.964  33.328  35.817  1.00  0.00     0.037 A 
BRANCH  48  62
ATOM     62  C   UNL A   1      43.919  28.560  35.718  1.00  0.00     0.058 A 
ATOM     63  C   UNL A   1      43.656  27.532  36.637  1.00  0.00     0.135 A 
ATOM     64  C   UNL A   1      45.263  28.875  35.456  1.00  0.00     0.135 A 
ATOM     65  F   UNL A   1      42.390  27.203  36.937  1.00  0.00    -0.206 F 
ATOM     66  C   UNL A   1      44.684  26.871  37.305  1.00  0.00     0.059 A 
ATOM     67  C   UNL A   1      46.307  28.212  36.095  1.00  0.00     0.059 A 
ATOM     68  F   UNL A   1      45.573  29.848  34.586  1.00  0.00    -0.206 F 
ATOM     69  C   UNL A   1      46.007  27.227  37.034  1.00  0.00     0.060 A 
BRANCH  69  70
ATOM     70  S   UNL A   1      47.336  26.394  37.931  1.00  0.00     0.124 S 
ATOM     71  O   UNL A   1      46.770  26.306  39.273  1.00  0.00    -0.237 OA
ATOM     72  O   UNL A   1      47.461  25.130  37.212  1.00  0.00    -0.237 OA
ATOM     73  O   UNL A   1      48.466  27.307  37.785  1.00  0.00    -0.744 OA
ENDBRANCH  69  70
ENDBRANCH  48  62
BRANCH  49  74
ATOM     74  C   UNL A   1      36.517  33.202  30.825  1.00  0.00     0.058 A 
ATOM     75  C   UNL A   1      35.194  33.055  31.261  1.00  0.00     0.135 A 
ATOM     76  C   UNL A   1      36.759  34.055  29.735  1.00  0.00     0.135 A 
ATOM     77  F   UNL A   1      34.913  32.245  32.293  1.00  0.00    -0.206 F 
ATOM     78  C   UNL A   1      34.148  33.742  30.651  1.00  0.00     0.059 A 
ATOM     79  C   UNL A   1      35.734  34.768  29.124  1.00  0.00     0.059 A 
ATOM     80  F   UNL A   1      38.013  34.240  29.292  1.00  0.00    -0.206 F 
ATOM     81  C   UNL A   1      34.431  34.604  29.590  1.00  0.00     0.060 A 
BRANCH  81  82
ATOM     82  S   UNL A   1      33.086  35.575  28.871  1.00  0.00     0.124 S 
ATOM     83  O   UNL A   1      33.822  36.586  28.122  1.00  0.00    -0.237 OA
ATOM     84  O   UNL A   1      32.376  34.581  28.073  1.00  0.00    -0.237 OA
ATOM     85  O   UNL A   1      32.361  36.057  30.043  1.00  0.00    -0.744 OA
ENDBRANCH  81  82
ENDBRANCH  49  74
BRANCH  61  86
ATOM     86  C   UNL A   1      39.795  34.385  36.869  1.00  0.00     0.058 A 
ATOM     87  C   UNL A   1      38.924  34.202  37.953  1.00  0.00     0.135 A 
ATOM     88  C   UNL A   1      40.537  35.574  36.811  1.00  0.00     0.135 A 
ATOM     89  F   UNL A   1      38.186  33.084  38.047  1.00  0.00    -0.206 F 
ATOM     90  C   UNL A   1      38.778  35.173  38.937  1.00  0.00     0.059 A 
ATOM     91  C   UNL A   1      40.421  36.551  37.793  1.00  0.00     0.059 A 
ATOM     92  F   UNL A   1      41.388  35.791  35.796  1.00  0.00    -0.206 F 
ATOM     93  C   UNL A   1      39.530  36.347  38.846  1.00  0.00     0.060 A 
BRANCH  93  94
ATOM     94  S   UNL A   1      39.355  37.592  40.142  1.00  0.00     0.124 S 
ATOM     95  O   UNL A   1      38.276  38.419  39.611  1.00  0.00    -0.237 OA
ATOM     96  O   UNL A   1      39.018  36.787  41.312  1.00  0.00    -0.237 OA
ATOM     97  O   UNL A   1      40.670  38.224  40.183  1.00  0.00    -0.744 OA
ENDBRANCH  93  94
ENDBRANCH  61  86
ENDBRANCH  35  36
ENDBRANCH  28  30
ENDBRANCH  27  28
ENDBRANCH  26  27
ENDBRANCH   1  26
TORSDOF 19
ENDMDL
MODEL 2
REMARK VINA RESULT:     -10.9      6.724     11.941
REMARK SMILES CC(=O)N/C(=C\c1ccccc1)C(=O)N[C@H](C(=O)OCCOC(=O)c1ccc(-c2c3nc(c(-c4c(F)cc(S(=O)(=O)[O-])cc4F)c4ccc([nH]4)c(-c4c(F)cc(S(=O)(=O)[O-])cc4F)c4nc(c(-c5c(F)cc(S(=O)(=O)[O-])cc5F)c5ccc2[nH]5)C=C4)C=C3)cc1)C(C)C
REMARK SMILES IDX 20 1 19 2 17 3 18 4 16 5 15 6 13 7 14 8 5 10 6 11 4 12 1 13
REMARK SMILES IDX 2 14 3 15 7 17 8 18 12 19 9 20 11 21 10 22 91 23 92 24 93 25
REMARK SMILES IDX 21 26 22 27 23 28 24 29 25 30 26 31 90 32 27 33 89 34 28 35
REMARK SMILES IDX 29 36 30 37 83 38 31 39 88 40 82 41 84 42 32 43 87 44 81 45
REMARK SMILES IDX 80 46 33 48 67 49 46 50 66 51 47 52 50 53 65 54 85 55 48 56
REMARK SMILES IDX 49 57 64 59 86 60 51 61 34 62 35 63 44 64 36 65 37 66 43 67
REMARK SMILES IDX 45 68 38 69 39 70 40 71 41 72 42 73 68 74 69 75 78 76 70 77
REMARK SMILES IDX 71 78 77 79 79 80 72 81 73 82 74 83 75 84 76 85 52 86 53 87
REMARK SMILES IDX 62 88 54 89 55 90 61 91 63 92 56 93 57 94 58 95 59 96 60 97
REMARK H PARENT 15 9 4 16 84 47 50 58
REMARK Flexibility Score: inf
ROOT
ATOM      1  C   UNL A   1      34.452  29.833  26.922  1.00  0.00     0.274 C 
ENDROOT
BRANCH   1   2
ATOM      2  O   UNL A   1      33.251  29.044  26.796  1.00  0.00    -0.461 OA
BRANCH   2   3
ATOM      3  C   UNL A   1      32.424  29.315  25.750  1.00  0.00     0.329 C 
ATOM      4  O   UNL A   1      31.641  30.259  25.724  1.00  0.00    -0.250 OA
BRANCH   3   5
ATOM      5  C   UNL A   1      32.617  28.346  24.547  1.00  0.00     0.195 C 
BRANCH   5   6
ATOM      6  N   UNL A   1      31.553  27.320  24.645  1.00  0.00    -0.337 N 
ATOM      7  C   UNL A   1      31.384  26.186  25.404  1.00  0.00     0.268 C 
ATOM      8  O   UNL A   1      30.236  25.883  25.715  1.00  0.00    -0.268 OA
ATOM      9  H   UNL A   1      30.802  27.487  24.031  1.00  0.00     0.164 HD
BRANCH   7  10
ATOM     10  C   UNL A   1      32.528  25.246  25.693  1.00  0.00     0.107 C 
ATOM     11  C   UNL A   1      33.624  25.338  24.916  1.00  0.00     0.040 C 
BRANCH  10  12
ATOM     12  N   UNL A   1      32.511  24.328  26.730  1.00  0.00    -0.322 N 
ATOM     13  C   UNL A   1      31.187  22.303  26.001  1.00  0.00     0.114 C 
ATOM     14  C   UNL A   1      32.024  23.082  26.967  1.00  0.00     0.221 C 
ATOM     15  O   UNL A   1      32.292  22.598  28.076  1.00  0.00    -0.275 OA
ATOM     16  H   UNL A   1      32.986  24.678  27.518  1.00  0.00     0.170 HD
ENDBRANCH  10  12
BRANCH  11  17
ATOM     17  C   UNL A   1      34.684  24.336  24.682  1.00  0.00    -0.023 A 
ATOM     18  C   UNL A   1      35.739  24.245  25.598  1.00  0.00     0.008 A 
ATOM     19  C   UNL A   1      34.795  23.643  23.465  1.00  0.00     0.008 A 
ATOM     20  C   UNL A   1      36.867  23.472  25.310  1.00  0.00     0.001 A 
ATOM     21  C   UNL A   1      35.911  22.853  23.187  1.00  0.00     0.001 A 
ATOM     22  C   UNL A   1      36.951  22.774  24.107  1.00  0.00     0.000 A 
ENDBRANCH  11  17
ENDBRANCH   7  10
ENDBRANCH   5   6
BRANCH   5  23
ATOM     23  C   UNL A   1      32.697  29.038  23.169  1.00  0.00     0.017 C 
ATOM     24  C   UNL A   1      33.765  28.350  22.300  1.00  0.00     0.010 C 
ATOM     25  C   UNL A   1      31.370  29.003  22.407  1.00  0.00     0.010 C 
ENDBRANCH   5  23
ENDBRANCH   3   5
ENDBRANCH   2   3
ENDBRANCH   1   2
BRANCH   1  26
ATOM     26  C   UNL A   1      34.419  30.683  28.197  1.00  0.00     0.275 C 
BRANCH  26  27
ATOM     27  O   UNL A   1      35.740  31.068  28.618  1.00  0.00    -0.458 OA
BRANCH  27  28
ATOM     28  C   UNL A   1      36.259  30.332  29.621  1.00  0.00     0.338 C 
ATOM     29  O   UNL A   1      35.647  29.750  30.511  1.00  0.00    -0.246 OA
BRANCH  28  30
ATOM     30  C   UNL A   1      37.700  30.165  29.433  1.00  0.00     0.060 A 
ATOM     31  C   UNL A   1      38.158  30.053  28.123  1.00  0.00     0.016 A 
ATOM     32  C   UNL A   1      38.569  29.977  30.508  1.00  0.00     0.016 A 
ATOM     33  C   UNL A   1      39.457  29.643  27.873  1.00  0.00     0.010 A 
ATOM     34  C   UNL A   1      39.902  29.639  30.252  1.00  0.00     0.010 A 
ATOM     35  C   UNL A   1      40.346  29.440  28.931  1.00  0.00    -0.014 A 
BRANCH  35  36
ATOM     36  C   UNL A   1      41.729  29.002  28.630  1.00  0.00     0.031 A 
ATOM     37  C   UNL A   1      42.870  29.971  28.739  1.00  0.00     0.074 A 
ATOM     38  C   UNL A   1      41.956  27.715  28.307  1.00  0.00     0.049 A 
ATOM     39  N   UNL A   1      44.124  29.808  28.405  1.00  0.00    -0.248 NA
ATOM     40  C   UNL A   1      42.558  31.300  29.284  1.00  0.00     0.031 C 
ATOM     41  C   UNL A   1      40.929  26.672  28.229  1.00  0.00     0.029 A 
ATOM     42  N   UNL A   1      43.119  27.061  27.997  1.00  0.00    -0.354 N 
ATOM     43  C   UNL A   1      44.745  31.025  28.659  1.00  0.00     0.074 A 
ATOM     44  C   UNL A   1      43.727  31.919  29.170  1.00  0.00     0.031 C 
ATOM     45  C   UNL A   1      41.510  25.507  27.911  1.00  0.00     0.029 A 
ATOM     46  C   UNL A   1      42.935  25.732  27.698  1.00  0.00     0.049 A 
ATOM     47  H   UNL A   1      44.000  27.500  27.989  1.00  0.00     0.167 HD
ATOM     48  C   UNL A   1      46.044  31.361  28.476  1.00  0.00     0.037 A 
ATOM     49  C   UNL A   1      43.810  24.806  27.264  1.00  0.00     0.037 A 
ATOM     50  C   UNL A   1      47.051  30.447  28.001  1.00  0.00     0.049 A 
ATOM     51  C   UNL A   1      45.242  25.200  27.059  1.00  0.00     0.074 A 
ATOM     52  C   UNL A   1      48.395  30.684  27.774  1.00  0.00     0.029 A 
ATOM     53  N   UNL A   1      46.823  29.111  27.695  1.00  0.00    -0.354 N 
ATOM     54  N   UNL A   1      45.803  26.372  27.241  1.00  0.00    -0.248 NA
ATOM     55  C   UNL A   1      46.155  24.159  26.577  1.00  0.00     0.031 C 
ATOM     56  C   UNL A   1      48.975  29.498  27.305  1.00  0.00     0.029 A 
ATOM     57  C   UNL A   1      48.000  28.514  27.271  1.00  0.00     0.049 A 
ATOM     58  H   UNL A   1      45.954  28.657  27.768  1.00  0.00     0.167 HD
ATOM     59  C   UNL A   1      47.138  26.211  26.894  1.00  0.00     0.074 A 
ATOM     60  C   UNL A   1      47.302  24.821  26.511  1.00  0.00     0.031 C 
ATOM     61  C   UNL A   1      48.134  27.131  26.885  1.00  0.00     0.037 A 
BRANCH  48  62
ATOM     62  C   UNL A   1      46.428  32.788  28.747  1.00  0.00     0.058 A 
ATOM     63  C   UNL A   1      46.865  33.216  30.011  1.00  0.00     0.135 A 
ATOM     64  C   UNL A   1      46.342  33.749  27.726  1.00  0.00     0.135 A 
ATOM     65  F   UNL A   1      46.948  32.343  31.027  1.00  0.00    -0.206 F 
ATOM     66  C   UNL A   1      47.162  34.553  30.265  1.00  0.00     0.059 A 
ATOM     67  C   UNL A   1      46.656  35.086  27.950  1.00  0.00     0.059 A 
ATOM     68  F   UNL A   1      45.931  33.395  26.498  1.00  0.00    -0.206 F 
ATOM     69  C   UNL A   1      47.044  35.482  29.229  1.00  0.00     0.060 A 
BRANCH  69  70
ATOM     70  S   UNL A   1      47.394  37.220  29.572  1.00  0.00     0.124 S 
ATOM     71  O   UNL A   1      46.047  37.770  29.689  1.00  0.00    -0.237 OA
ATOM     72  O   UNL A   1      48.158  37.153  30.814  1.00  0.00    -0.237 OA
ATOM     73  O   UNL A   1      48.149  37.652  28.399  1.00  0.00    -0.744 OA
ENDBRANCH  69  70
ENDBRANCH  48  62
BRANCH  49  74
ATOM     74  C   UNL A   1      43.321  23.436  26.967  1.00  0.00     0.058 A 
ATOM     75  C   UNL A   1      43.110  23.011  25.648  1.00  0.00     0.135 A 
ATOM     76  C   UNL A   1      43.140  22.498  27.997  1.00  0.00     0.135 A 
ATOM     77  F   UNL A   1      43.264  23.874  24.632  1.00  0.00    -0.206 F 
ATOM     78  C   UNL A   1      42.750  21.699  25.357  1.00  0.00     0.059 A 
ATOM     79  C   UNL A   1      42.801  21.176  27.729  1.00  0.00     0.059 A 
ATOM     80  F   UNL A   1      43.346  22.854  29.274  1.00  0.00    -0.206 F 
ATOM     81  C   UNL A   1      42.608  20.786  26.405  1.00  0.00     0.060 A 
BRANCH  81  82
ATOM     82  S   UNL A   1      42.245  19.059  26.016  1.00  0.00     0.124 S 
ATOM     83  O   UNL A   1      43.083  18.840  24.844  1.00  0.00    -0.237 OA
ATOM     84  O   UNL A   1      42.660  18.371  27.235  1.00  0.00    -0.237 OA
ATOM     85  O   UNL A   1      40.805  19.069  25.773  1.00  0.00    -0.744 OA
ENDBRANCH  81  82
ENDBRANCH  49  74
BRANCH  61  86
ATOM     86  C   UNL A   1      49.489  26.656  26.447  1.00  0.00     0.058 A 
ATOM     87  C   UNL A   1      50.308  25.902  27.300  1.00  0.00     0.135 A 
ATOM     88  C   UNL A   1      49.955  26.926  25.152  1.00  0.00     0.135 A 
ATOM     89  F   UNL A   1      49.908  25.626  28.552  1.00  0.00    -0.206 F 
ATOM     90  C   UNL A   1      51.556  25.447  26.891  1.00  0.00     0.059 A 
ATOM     91  C   UNL A   1      51.192  26.465  24.714  1.00  0.00     0.059 A 
ATOM     92  F   UNL A   1      49.204  27.638  24.297  1.00  0.00    -0.206 F 
ATOM     93  C   UNL A   1      51.991  25.737  25.596  1.00  0.00     0.060 A 
BRANCH  93  94
ATOM     94  S   UNL A   1      53.602  25.120  25.062  1.00  0.00     0.124 S 
ATOM     95  O   UNL A   1      54.509  25.936  25.863  1.00  0.00    -0.237 OA
ATOM     96  O   UNL A   1      53.535  23.707  25.422  1.00  0.00    -0.237 OA
ATOM     97  O   UNL A   1      53.610  25.394  23.628  1.00  0.00    -0.744 OA
ENDBRANCH  93  94
ENDBRANCH  61  86
ENDBRANCH  35  36
ENDBRANCH  28  30
ENDBRANCH  27  28
ENDBRANCH  26  27
ENDBRANCH   1  26
TORSDOF 19
ENDMDL
MODEL 3
REMARK VINA RESULT:     -10.5      7.034     11.733
REMARK SMILES CC(=O)N/C(=C\c1ccccc1)C(=O)N[C@H](C(=O)OCCOC(=O)c1ccc(-c2c3nc(c(-c4c(F)cc(S(=O)(=O)[O-])cc4F)c4ccc([nH]4)c(-c4c(F)cc(S(=O)(=O)[O-])cc4F)c4nc(c(-c5c(F)cc(S(=O)(=O)[O-])cc5F)c5ccc2[nH]5)C=C4)C=C3)cc1)C(C)C
REMARK SMILES IDX 20 1 19 2 17 3 18 4 16 5 15 6 13 7 14 8 5 10 6 11 4 12 1 13
REMARK SMILES IDX 2 14 3 15 7 17 8 18 12 19 9 20 11 21 10 22 91 23 92 24 93 25
REMARK SMILES IDX 21 26 22 27 23 28 24 29 25 30 26 31 90 32 27 33 89 34 28 35
REMARK SMILES IDX 29 36 30 37 83 38 31 39 88 40 82 41 84 42 32 43 87 44 81 45
REMARK SMILES IDX 80 46 33 48 67 49 46 50 66 51 47 52 50 53 65 54 85 55 48 56
REMARK SMILES IDX 49 57 64 59 86 60 51 61 34 62 35 63 44 64 36 65 37 66 43 67
REMARK SMILES IDX 45 68 38 69 39 70 40 71 41 72 42 73 68 74 69 75 78 76 70 77
REMARK SMILES IDX 71 78 77 79 79 80 72 81 73 82 74 83 75 84 76 85 52 86 53 87
REMARK SMILES IDX 62 88 54 89 55 90 61 91 63 92 56 93 57 94 58 95 59 96 60 97
REMARK H PARENT 15 9 4 16 84 47 50 58
REMARK Flexibility Score: inf
ROOT
ATOM      1  C   UNL A   1      34.407  28.531  26.518  1.00  0.00     0.274 C 
ENDROOT
BRANCH   1   2
ATOM      2  O   UNL A   1      33.468  27.438  26.605  1.00  0.00    -0.461 OA
BRANCH   2   3
ATOM      3  C   UNL A   1      32.476  27.384  25.675  1.00  0.00     0.329 C 
ATOM      4  O   UNL A   1      31.764  28.337  25.379  1.00  0.00    -0.250 OA
BRANCH   3   5
ATOM      5  C   UNL A   1      32.375  26.002  24.965  1.00  0.00     0.195 C 
BRANCH   5   6
ATOM      6  N   UNL A   1      31.603  25.111  25.863  1.00  0.00    -0.337 N 
ATOM      7  C   UNL A   1      31.885  23.936  26.519  1.00  0.00     0.268 C 
ATOM      8  O   UNL A   1      31.334  23.749  27.599  1.00  0.00    -0.268 OA
ATOM      9  H   UNL A   1      30.687  25.431  26.025  1.00  0.00     0.164 HD
BRANCH   7  10
ATOM     10  C   UNL A   1      32.690  22.838  25.869  1.00  0.00     0.107 C 
ATOM     11  C   UNL A   1      32.055  22.025  25.005  1.00  0.00     0.040 C 
BRANCH  10  12
ATOM     12  N   UNL A   1      34.044  22.653  26.099  1.00  0.00    -0.322 N 
ATOM     13  C   UNL A   1      35.344  23.790  24.255  1.00  0.00     0.114 C 
ATOM     14  C   UNL A   1      35.223  23.017  25.531  1.00  0.00     0.221 C 
ATOM     15  O   UNL A   1      36.246  22.647  26.123  1.00  0.00    -0.275 OA
ATOM     16  H   UNL A   1      34.193  22.102  26.901  1.00  0.00     0.170 HD
ENDBRANCH  10  12
BRANCH  11  17
ATOM     17  C   UNL A   1      32.434  20.672  24.551  1.00  0.00    -0.023 A 
ATOM     18  C   UNL A   1      32.245  20.334  23.205  1.00  0.00     0.008 A 
ATOM     19  C   UNL A   1      32.751  19.646  25.458  1.00  0.00     0.008 A 
ATOM     20  C   UNL A   1      32.383  19.011  22.777  1.00  0.00     0.001 A 
ATOM     21  C   UNL A   1      32.911  18.329  25.027  1.00  0.00     0.001 A 
ATOM     22  C   UNL A   1      32.719  18.010  23.687  1.00  0.00     0.000 A 
ENDBRANCH  11  17
ENDBRANCH   7  10
ENDBRANCH   5   6
BRANCH   5  23
ATOM     23  C   UNL A   1      31.834  26.058  23.521  1.00  0.00     0.017 C 
ATOM     24  C   UNL A   1      33.005  26.052  22.522  1.00  0.00     0.010 C 
ATOM     25  C   UNL A   1      30.915  24.882  23.182  1.00  0.00     0.010 C 
ENDBRANCH   5  23
ENDBRANCH   3   5
ENDBRANCH   2   3
ENDBRANCH   1   2
BRANCH   1  26
ATOM     26  C   UNL A   1      34.495  29.285  27.850  1.00  0.00     0.275 C 
BRANCH  26  27
ATOM     27  O   UNL A   1      35.759  29.956  28.002  1.00  0.00    -0.458 OA
BRANCH  27  28
ATOM     28  C   UNL A   1      36.396  29.720  29.166  1.00  0.00     0.338 C 
ATOM     29  O   UNL A   1      35.889  29.458  30.251  1.00  0.00    -0.246 OA
BRANCH  28  30
ATOM     30  C   UNL A   1      37.841  29.654  28.948  1.00  0.00     0.060 A 
ATOM     31  C   UNL A   1      38.282  29.646  27.627  1.00  0.00     0.016 A 
ATOM     32  C   UNL A   1      38.739  29.459  29.998  1.00  0.00     0.016 A 
ATOM     33  C   UNL A   1      39.598  29.332  27.335  1.00  0.00     0.010 A 
ATOM     34  C   UNL A   1      40.086  29.220  29.702  1.00  0.00     0.010 A 
ATOM     35  C   UNL A   1      40.517  29.125  28.366  1.00  0.00    -0.014 A 
BRANCH  35  36
ATOM     36  C   UNL A   1      41.918  28.792  28.020  1.00  0.00     0.031 A 
ATOM     37  C   UNL A   1      42.288  27.391  27.626  1.00  0.00     0.074 A 
ATOM     38  C   UNL A   1      42.844  29.769  28.014  1.00  0.00     0.049 A 
ATOM     39  N   UNL A   1      43.473  26.883  27.405  1.00  0.00    -0.248 NA
ATOM     40  C   UNL A   1      41.182  26.434  27.471  1.00  0.00     0.031 C 
ATOM     41  C   UNL A   1      42.585  31.178  28.323  1.00  0.00     0.029 A 
ATOM     42  N   UNL A   1      44.184  29.732  27.728  1.00  0.00    -0.354 N 
ATOM     43  C   UNL A   1      43.262  25.538  27.127  1.00  0.00     0.074 A 
ATOM     44  C   UNL A   1      41.835  25.309  27.212  1.00  0.00     0.031 C 
ATOM     45  C   UNL A   1      43.724  31.873  28.191  1.00  0.00     0.029 A 
ATOM     46  C   UNL A   1      44.803  30.952  27.856  1.00  0.00     0.049 A 
ATOM     47  H   UNL A   1      44.656  28.912  27.458  1.00  0.00     0.167 HD
ATOM     48  C   UNL A   1      44.180  24.586  26.831  1.00  0.00     0.037 A 
ATOM     49  C   UNL A   1      46.103  31.286  27.752  1.00  0.00     0.037 A 
ATOM     50  C   UNL A   1      45.592  24.841  26.714  1.00  0.00     0.049 A 
ATOM     51  C   UNL A   1      47.104  30.216  27.435  1.00  0.00     0.074 A 
ATOM     52  C   UNL A   1      46.611  23.950  26.425  1.00  0.00     0.029 A 
ATOM     53  N   UNL A   1      46.185  26.089  26.865  1.00  0.00    -0.354 N 
ATOM     54  N   UNL A   1      46.899  28.935  27.237  1.00  0.00    -0.248 NA
ATOM     55  C   UNL A   1      48.508  30.627  27.340  1.00  0.00     0.031 C 
ATOM     56  C   UNL A   1      47.822  24.654  26.429  1.00  0.00     0.029 A 
ATOM     57  C   UNL A   1      47.555  25.989  26.686  1.00  0.00     0.049 A 
ATOM     58  H   UNL A   1      45.701  26.921  27.070  1.00  0.00     0.167 HD
ATOM     59  C   UNL A   1      48.151  28.384  26.996  1.00  0.00     0.074 A 
ATOM     60  C   UNL A   1      49.104  29.477  27.053  1.00  0.00     0.031 C 
ATOM     61  C   UNL A   1      48.483  27.091  26.758  1.00  0.00     0.037 A 
BRANCH  48  62
ATOM     62  C   UNL A   1      43.679  23.180  26.665  1.00  0.00     0.058 A 
ATOM     63  C   UNL A   1      43.271  22.399  27.758  1.00  0.00     0.135 A 
ATOM     64  C   UNL A   1      43.621  22.597  25.388  1.00  0.00     0.135 A 
ATOM     65  F   UNL A   1      43.323  22.900  29.002  1.00  0.00    -0.206 F 
ATOM     66  C   UNL A   1      42.863  21.077  27.597  1.00  0.00     0.059 A 
ATOM     67  C   UNL A   1      43.196  21.286  25.200  1.00  0.00     0.059 A 
ATOM     68  F   UNL A   1      43.999  23.298  24.307  1.00  0.00    -0.206 F 
ATOM     69  C   UNL A   1      42.840  20.526  26.314  1.00  0.00     0.060 A 
BRANCH  69  70
ATOM     70  S   UNL A   1      42.347  18.800  26.114  1.00  0.00     0.124 S 
ATOM     71  O   UNL A   1      42.546  18.283  27.464  1.00  0.00    -0.237 OA
ATOM     72  O   UNL A   1      40.959  18.913  25.678  1.00  0.00    -0.237 OA
ATOM     73  O   UNL A   1      43.277  18.297  25.106  1.00  0.00    -0.744 OA
ENDBRANCH  69  70
ENDBRANCH  48  62
BRANCH  49  74
ATOM     74  C   UNL A   1      46.507  32.694  27.993  1.00  0.00     0.058 A 
ATOM     75  C   UNL A   1      47.009  33.103  29.236  1.00  0.00     0.135 A 
ATOM     76  C   UNL A   1      46.478  33.638  26.953  1.00  0.00     0.135 A 
ATOM     77  F   UNL A   1      47.049  32.238  30.261  1.00  0.00    -0.206 F 
ATOM     78  C   UNL A   1      47.483  34.395  29.438  1.00  0.00     0.059 A 
ATOM     79  C   UNL A   1      46.966  34.929  27.125  1.00  0.00     0.059 A 
ATOM     80  F   UNL A   1      46.020  33.289  25.740  1.00  0.00    -0.206 F 
ATOM     81  C   UNL A   1      47.467  35.298  28.372  1.00  0.00     0.060 A 
BRANCH  81  82
ATOM     82  S   UNL A   1      48.181  36.941  28.608  1.00  0.00     0.124 S 
ATOM     83  O   UNL A   1      49.510  36.769  28.033  1.00  0.00    -0.237 OA
ATOM     84  O   UNL A   1      47.264  37.791  27.855  1.00  0.00    -0.237 OA
ATOM     85  O   UNL A   1      48.136  37.118  30.057  1.00  0.00    -0.744 OA
ENDBRANCH  81  82
ENDBRANCH  49  74
BRANCH  61  86
ATOM     86  C   UNL A   1      49.938  26.795  26.542  1.00  0.00     0.058 A 
ATOM     87  C   UNL A   1      50.774  26.432  27.608  1.00  0.00     0.135 A 
ATOM     88  C   UNL A   1      50.491  26.840  25.254  1.00  0.00     0.135 A 
ATOM     89  F   UNL A   1      50.292  26.384  28.860  1.00  0.00    -0.206 F 
ATOM     90  C   UNL A   1      52.119  26.142  27.408  1.00  0.00     0.059 A 
ATOM     91  C   UNL A   1      51.829  26.535  25.027  1.00  0.00     0.059 A 
ATOM     92  F   UNL A   1      49.729  27.175  24.201  1.00  0.00    -0.206 F 
ATOM     93  C   UNL A   1      52.638  26.199  26.112  1.00  0.00     0.060 A 
BRANCH  93  94
ATOM     94  S   UNL A   1      54.379  25.795  25.856  1.00  0.00     0.124 S 
ATOM     95  O   UNL A   1      55.034  26.727  26.768  1.00  0.00    -0.237 OA
ATOM     96  O   UNL A   1      54.437  24.387  26.238  1.00  0.00    -0.237 OA
ATOM     97  O   UNL A   1      54.581  26.059  24.434  1.00  0.00    -0.744 OA
ENDBRANCH  93  94
ENDBRANCH  61  86
ENDBRANCH  35  36
ENDBRANCH  28  30
ENDBRANCH  27  28
ENDBRANCH  26  27
ENDBRANCH   1  26
TORSDOF 19
ENDMDL
