MODEL 1
REMARK VINA RESULT:     -11.3      0.000      0.000
REMARK SMILES C[C@H]1CCC[C@]1(C(=O)OCCOC(=O)c1ccc(-c2c3nc(c(-c4c(F)cc(S(=O)(=O)[O-])cc4F)c4ccc([nH]4)c(-c4c(F)cc(S(=O)(=O)[O-])cc4F)c4nc(c(-c5c(F)cc(S(=O)(=O)[O-])cc5F)c5ccc2[nH]5)C=C4)C=C3)cc1)c1ccc2c(c1)OCO2
REMARK SMILES IDX 11 1 10 2 9 3 7 4 8 5 6 6 1 7 2 8 3 9 4 10 5 11 81 12 82 13
REMARK SMILES IDX 86 14 83 15 85 16 84 17 87 18 89 19 88 20 12 21 13 22 14 23
REMARK SMILES IDX 15 24 16 25 80 26 17 27 79 28 18 29 19 30 20 31 73 32 21 33
REMARK SMILES IDX 78 34 72 35 74 36 22 37 77 38 71 39 70 40 23 42 57 43 36 44
REMARK SMILES IDX 56 45 37 46 40 47 55 48 75 49 38 50 39 51 54 53 76 54 41 55
REMARK SMILES IDX 24 56 25 57 34 58 26 59 27 60 33 61 35 62 28 63 29 64 30 65
REMARK SMILES IDX 31 66 32 67 58 68 59 69 68 70 60 71 61 72 67 73 69 74 62 75
REMARK SMILES IDX 63 76 64 77 65 78 66 79 42 80 43 81 52 82 44 83 45 84 51 85
REMARK SMILES IDX 53 86 46 87 47 88 48 89 49 90 50 91
REMARK H PARENT 74 41 40 52
REMARK Flexibility Score: inf
ROOT
ATOM      1  C   UNL A   1      32.437  29.676  27.294  1.00  0.00     0.275 C 
ENDROOT
BRANCH   1   2
ATOM      2  C   UNL A   1      32.212  28.171  27.184  1.00  0.00     0.274 C 
BRANCH   2   3
ATOM      3  O   UNL A   1      32.509  27.725  25.844  1.00  0.00    -0.461 OA
BRANCH   3   4
ATOM      4  C   UNL A   1      32.369  26.397  25.567  1.00  0.00     0.316 C 
ATOM      5  O   UNL A   1      31.920  25.602  26.386  1.00  0.00    -0.251 OA
BRANCH   4   6
ATOM      6  C   UNL A   1      33.012  26.002  24.198  1.00  0.00     0.096 C 
ATOM      7  C   UNL A   1      30.829  24.706  23.445  1.00  0.00     0.009 C 
ATOM      8  C   UNL A   1      31.962  25.658  23.077  1.00  0.00     0.008 C 
ATOM      9  C   UNL A   1      31.515  27.009  22.525  1.00  0.00     0.005 C 
ATOM     10  C   UNL A   1      32.807  27.812  22.499  1.00  0.00     0.002 C 
ATOM     11  C   UNL A   1      33.647  27.332  23.686  1.00  0.00     0.024 C 
BRANCH   6  12
ATOM     12  C   UNL A   1      34.100  24.885  24.265  1.00  0.00    -0.027 A 
ATOM     13  C   UNL A   1      34.303  23.923  23.246  1.00  0.00     0.009 A 
ATOM     14  C   UNL A   1      34.963  24.811  25.385  1.00  0.00     0.055 A 
ATOM     15  C   UNL A   1      35.363  23.000  23.282  1.00  0.00     0.051 A 
ATOM     16  C   UNL A   1      36.021  23.922  25.381  1.00  0.00     0.166 A 
ATOM     17  C   UNL A   1      36.224  23.048  24.348  1.00  0.00     0.165 A 
ATOM     18  O   UNL A   1      36.974  23.811  26.346  1.00  0.00    -0.454 OA
ATOM     19  O   UNL A   1      37.330  22.281  24.521  1.00  0.00    -0.454 OA
ATOM     20  C   UNL A   1      37.868  22.858  25.727  1.00  0.00     0.468 C 
ENDBRANCH   6  12
ENDBRANCH   4   6
ENDBRANCH   3   4
ENDBRANCH   2   3
ENDBRANCH   1   2
BRANCH   1  21
ATOM     21  O   UNL A   1      33.828  29.939  27.061  1.00  0.00    -0.458 OA
BRANCH  21  22
ATOM     22  C   UNL A   1      34.464  30.676  27.998  1.00  0.00     0.338 C 
ATOM     23  O   UNL A   1      34.010  31.637  28.604  1.00  0.00    -0.246 OA
BRANCH  22  24
ATOM     24  C   UNL A   1      35.828  30.139  28.194  1.00  0.00     0.060 A 
ATOM     25  C   UNL A   1      36.218  29.629  29.434  1.00  0.00     0.016 A 
ATOM     26  C   UNL A   1      36.755  30.199  27.153  1.00  0.00     0.016 A 
ATOM     27  C   UNL A   1      37.536  29.227  29.650  1.00  0.00     0.010 A 
ATOM     28  C   UNL A   1      38.059  29.725  27.353  1.00  0.00     0.010 A 
ATOM     29  C   UNL A   1      38.476  29.256  28.613  1.00  0.00    -0.014 A 
BRANCH  29  30
ATOM     30  C   UNL A   1      39.902  28.882  28.852  1.00  0.00     0.031 A 
ATOM     31  C   UNL A   1      40.840  29.894  29.459  1.00  0.00     0.074 A 
ATOM     32  C   UNL A   1      40.377  27.653  28.563  1.00  0.00     0.049 A 
ATOM     33  N   UNL A   1      42.148  29.903  29.488  1.00  0.00    -0.248 NA
ATOM     34  C   UNL A   1      40.218  31.063  30.104  1.00  0.00     0.031 C 
ATOM     35  C   UNL A   1      39.589  26.526  28.060  1.00  0.00     0.029 A 
ATOM     36  N   UNL A   1      41.652  27.143  28.657  1.00  0.00    -0.354 N 
ATOM     37  C   UNL A   1      42.506  31.111  30.074  1.00  0.00     0.074 A 
ATOM     38  C   UNL A   1      41.277  31.800  30.407  1.00  0.00     0.031 C 
ATOM     39  C   UNL A   1      40.384  25.452  27.934  1.00  0.00     0.029 A 
ATOM     40  C   UNL A   1      41.759  25.837  28.238  1.00  0.00     0.049 A 
ATOM     41  H   UNL A   1      42.417  27.665  28.991  1.00  0.00     0.167 HD
ATOM     42  C   UNL A   1      43.747  31.607  30.298  1.00  0.00     0.037 A 
ATOM     43  C   UNL A   1      42.841  25.051  28.062  1.00  0.00     0.037 A 
ATOM     44  C   UNL A   1      44.965  30.886  30.035  1.00  0.00     0.049 A 
ATOM     45  C   UNL A   1      44.214  25.623  28.296  1.00  0.00     0.074 A 
ATOM     46  C   UNL A   1      46.272  31.311  30.194  1.00  0.00     0.029 A 
ATOM     47  N   UNL A   1      45.024  29.574  29.588  1.00  0.00    -0.354 N 
ATOM     48  N   UNL A   1      44.549  26.820  28.713  1.00  0.00    -0.248 NA
ATOM     49  C   UNL A   1      45.359  24.748  27.997  1.00  0.00     0.031 C 
ATOM     50  C   UNL A   1      47.123  30.261  29.826  1.00  0.00     0.029 A 
ATOM     51  C   UNL A   1      46.344  29.173  29.471  1.00  0.00     0.049 A 
ATOM     52  H   UNL A   1      44.242  29.012  29.383  1.00  0.00     0.167 HD
ATOM     53  C   UNL A   1      45.939  26.843  28.728  1.00  0.00     0.074 A 
ATOM     54  C   UNL A   1      46.385  25.534  28.299  1.00  0.00     0.031 C 
ATOM     55  C   UNL A   1      46.771  27.862  29.055  1.00  0.00     0.037 A 
BRANCH  42  56
ATOM     56  C   UNL A   1      43.850  33.019  30.802  1.00  0.00     0.058 A 
ATOM     57  C   UNL A   1      43.801  34.128  29.944  1.00  0.00     0.135 A 
ATOM     58  C   UNL A   1      43.987  33.260  32.180  1.00  0.00     0.135 A 
ATOM     59  F   UNL A   1      43.692  33.952  28.618  1.00  0.00    -0.206 F 
ATOM     60  C   UNL A   1      43.911  35.427  30.432  1.00  0.00     0.059 A 
ATOM     61  C   UNL A   1      44.075  34.551  32.691  1.00  0.00     0.059 A 
ATOM     62  F   UNL A   1      44.040  32.234  33.044  1.00  0.00    -0.206 F 
ATOM     63  C   UNL A   1      44.053  35.628  31.806  1.00  0.00     0.060 A 
BRANCH  63  64
ATOM     64  S   UNL A   1      44.206  37.316  32.429  1.00  0.00     0.124 S 
ATOM     65  O   UNL A   1      43.179  37.336  33.466  1.00  0.00    -0.237 OA
ATOM     66  O   UNL A   1      45.586  37.354  32.903  1.00  0.00    -0.237 OA
ATOM     67  O   UNL A   1      43.928  38.138  31.255  1.00  0.00    -0.744 OA
ENDBRANCH  63  64
ENDBRANCH  42  56
BRANCH  43  68
ATOM     68  C   UNL A   1      42.677  23.655  27.571  1.00  0.00     0.058 A 
ATOM     69  C   UNL A   1      42.534  22.585  28.465  1.00  0.00     0.135 A 
ATOM     70  C   UNL A   1      42.650  23.365  26.197  1.00  0.00     0.135 A 
ATOM     71  F   UNL A   1      42.574  22.808  29.788  1.00  0.00    -0.206 F 
ATOM     72  C   UNL A   1      42.372  21.277  28.019  1.00  0.00     0.059 A 
ATOM     73  C   UNL A   1      42.460  22.071  25.726  1.00  0.00     0.059 A 
ATOM     74  F   UNL A   1      42.779  24.353  25.298  1.00  0.00    -0.206 F 
ATOM     75  C   UNL A   1      42.331  21.031  26.645  1.00  0.00     0.060 A 
BRANCH  75  76
ATOM     76  S   UNL A   1      42.054  19.343  26.065  1.00  0.00     0.124 S 
ATOM     77  O   UNL A   1      42.909  19.294  24.885  1.00  0.00    -0.237 OA
ATOM     78  O   UNL A   1      42.493  18.544  27.206  1.00  0.00    -0.237 OA
ATOM     79  O   UNL A   1      40.616  19.313  25.808  1.00  0.00    -0.744 OA
ENDBRANCH  75  76
ENDBRANCH  43  68
BRANCH  55  80
ATOM     80  C   UNL A   1      48.248  27.596  28.994  1.00  0.00     0.058 A 
ATOM     81  C   UNL A   1      48.997  27.881  27.843  1.00  0.00     0.135 A 
ATOM     82  C   UNL A   1      48.929  27.104  30.118  1.00  0.00     0.135 A 
ATOM     83  F   UNL A   1      48.391  28.347  26.739  1.00  0.00    -0.206 F 
ATOM     84  C   UNL A   1      50.373  27.675  27.803  1.00  0.00     0.059 A 
ATOM     85  C   UNL A   1      50.306  26.907  30.107  1.00  0.00     0.059 A 
ATOM     86  F   UNL A   1      48.257  26.823  31.245  1.00  0.00    -0.206 F 
ATOM     87  C   UNL A   1      51.018  27.188  28.941  1.00  0.00     0.060 A 
BRANCH  87  88
ATOM     88  S   UNL A   1      52.810  26.962  28.896  1.00  0.00     0.124 S 
ATOM     89  O   UNL A   1      53.273  28.331  28.691  1.00  0.00    -0.237 OA
ATOM     90  O   UNL A   1      53.089  26.388  30.209  1.00  0.00    -0.237 OA
ATOM     91  O   UNL A   1      53.009  26.056  27.768  1.00  0.00    -0.744 OA
ENDBRANCH  87  88
ENDBRANCH  55  80
ENDBRANCH  29  30
ENDBRANCH  22  24
ENDBRANCH  21  22
ENDBRANCH   1  21
TORSDOF 15
ENDMDL
MODEL 2
REMARK VINA RESULT:     -11.1      1.619      3.642
REMARK SMILES C[C@H]1CCC[C@]1(C(=O)OCCOC(=O)c1ccc(-c2c3nc(c(-c4c(F)cc(S(=O)(=O)[O-])cc4F)c4ccc([nH]4)c(-c4c(F)cc(S(=O)(=O)[O-])cc4F)c4nc(c(-c5c(F)cc(S(=O)(=O)[O-])cc5F)c5ccc2[nH]5)C=C4)C=C3)cc1)c1ccc2c(c1)OCO2
REMARK SMILES IDX 11 1 10 2 9 3 7 4 8 5 6 6 1 7 2 8 3 9 4 10 5 11 81 12 82 13
REMARK SMILES IDX 86 14 83 15 85 16 84 17 87 18 89 19 88 20 12 21 13 22 14 23
REMARK SMILES IDX 15 24 16 25 80 26 17 27 79 28 18 29 19 30 20 31 73 32 21 33
REMARK SMILES IDX 78 34 72 35 74 36 22 37 77 38 71 39 70 40 23 42 57 43 36 44
REMARK SMILES IDX 56 45 37 46 40 47 55 48 75 49 38 50 39 51 54 53 76 54 41 55
REMARK SMILES IDX 24 56 25 57 34 58 26 59 27 60 33 61 35 62 28 63 29 64 30 65
REMARK SMILES IDX 31 66 32 67 58 68 59 69 68 70 60 71 61 72 67 73 69 74 62 75
REMARK SMILES IDX 63 76 64 77 65 78 66 79 42 80 43 81 52 82 44 83 45 84 51 85
REMARK SMILES IDX 53 86 46 87 47 88 48 89 49 90 50 91
REMARK H PARENT 74 41 40 52
REMARK Flexibility Score: inf
ROOT
ATOM      1  C   UNL A   1      34.203  28.420  26.521  1.00  0.00     0.275 C 
ENDROOT
BRANCH   1   2
ATOM      2  C   UNL A   1      33.064  28.892  25.624  1.00  0.00     0.274 C 
BRANCH   2   3
ATOM      3  O   UNL A   1      32.177  27.790  25.332  1.00  0.00    -0.461 OA
BRANCH   3   4
ATOM      4  C   UNL A   1      32.359  27.116  24.161  1.00  0.00     0.316 C 
ATOM      5  O   UNL A   1      33.412  27.168  23.534  1.00  0.00    -0.251 OA
BRANCH   4   6
ATOM      6  C   UNL A   1      31.042  26.454  23.643  1.00  0.00     0.096 C 
ATOM      7  C   UNL A   1      32.155  25.850  21.317  1.00  0.00     0.009 C 
ATOM      8  C   UNL A   1      31.265  25.419  22.478  1.00  0.00     0.008 C 
ATOM      9  C   UNL A   1      31.690  24.127  23.171  1.00  0.00     0.005 C 
ATOM     10  C   UNL A   1      30.803  24.095  24.407  1.00  0.00     0.002 C 
ATOM     11  C   UNL A   1      30.585  25.550  24.830  1.00  0.00     0.024 C 
BRANCH   6  12
ATOM     12  C   UNL A   1      29.900  27.445  23.259  1.00  0.00    -0.027 A 
ATOM     13  C   UNL A   1      28.537  27.240  23.588  1.00  0.00     0.009 A 
ATOM     14  C   UNL A   1      30.208  28.637  22.559  1.00  0.00     0.055 A 
ATOM     15  C   UNL A   1      27.547  28.203  23.328  1.00  0.00     0.051 A 
ATOM     16  C   UNL A   1      29.225  29.586  22.350  1.00  0.00     0.166 A 
ATOM     17  C   UNL A   1      27.930  29.380  22.738  1.00  0.00     0.165 A 
ATOM     18  O   UNL A   1      29.405  30.806  21.775  1.00  0.00    -0.454 OA
ATOM     19  O   UNL A   1      27.128  30.441  22.469  1.00  0.00    -0.454 OA
ATOM     20  C   UNL A   1      28.096  31.387  21.974  1.00  0.00     0.468 C 
ENDBRANCH   6  12
ENDBRANCH   4   6
ENDBRANCH   3   4
ENDBRANCH   2   3
ENDBRANCH   1   2
BRANCH   1  21
ATOM     21  O   UNL A   1      34.011  28.985  27.825  1.00  0.00    -0.458 OA
BRANCH  21  22
ATOM     22  C   UNL A   1      34.627  30.163  28.066  1.00  0.00     0.338 C 
ATOM     23  O   UNL A   1      34.102  31.267  28.107  1.00  0.00    -0.246 OA
BRANCH  22  24
ATOM     24  C   UNL A   1      36.071  29.921  28.279  1.00  0.00     0.060 A 
ATOM     25  C   UNL A   1      36.990  30.178  27.260  1.00  0.00     0.016 A 
ATOM     26  C   UNL A   1      36.514  29.374  29.483  1.00  0.00     0.016 A 
ATOM     27  C   UNL A   1      38.335  29.845  27.421  1.00  0.00     0.010 A 
ATOM     28  C   UNL A   1      37.878  29.110  29.668  1.00  0.00     0.010 A 
ATOM     29  C   UNL A   1      38.805  29.318  28.630  1.00  0.00    -0.014 A 
BRANCH  29  30
ATOM     30  C   UNL A   1      40.232  28.905  28.790  1.00  0.00     0.031 A 
ATOM     31  C   UNL A   1      41.232  29.896  29.328  1.00  0.00     0.074 A 
ATOM     32  C   UNL A   1      40.654  27.660  28.487  1.00  0.00     0.049 A 
ATOM     33  N   UNL A   1      42.539  29.867  29.281  1.00  0.00    -0.248 NA
ATOM     34  C   UNL A   1      40.683  31.088  29.995  1.00  0.00     0.031 C 
ATOM     35  C   UNL A   1      39.806  26.552  28.044  1.00  0.00     0.029 A 
ATOM     36  N   UNL A   1      41.918  27.114  28.512  1.00  0.00    -0.354 N 
ATOM     37  C   UNL A   1      42.965  31.070  29.831  1.00  0.00     0.074 A 
ATOM     38  C   UNL A   1      41.778  31.797  30.228  1.00  0.00     0.031 C 
ATOM     39  C   UNL A   1      40.562  25.454  27.884  1.00  0.00     0.029 A 
ATOM     40  C   UNL A   1      41.962  25.802  28.103  1.00  0.00     0.049 A 
ATOM     41  H   UNL A   1      42.715  27.617  28.795  1.00  0.00     0.167 HD
ATOM     42  C   UNL A   1      44.230  31.532  29.976  1.00  0.00     0.037 A 
ATOM     43  C   UNL A   1      43.009  24.983  27.872  1.00  0.00     0.037 A 
ATOM     44  C   UNL A   1      45.410  30.774  29.650  1.00  0.00     0.049 A 
ATOM     45  C   UNL A   1      44.409  25.517  28.019  1.00  0.00     0.074 A 
ATOM     46  C   UNL A   1      46.736  31.162  29.728  1.00  0.00     0.029 A 
ATOM     47  N   UNL A   1      45.405  29.456  29.216  1.00  0.00    -0.354 N 
ATOM     48  N   UNL A   1      44.802  26.708  28.402  1.00  0.00    -0.248 NA
ATOM     49  C   UNL A   1      45.509  24.607  27.663  1.00  0.00     0.031 C 
ATOM     50  C   UNL A   1      47.533  30.085  29.323  1.00  0.00     0.029 A 
ATOM     51  C   UNL A   1      46.704  29.016  29.026  1.00  0.00     0.049 A 
ATOM     52  H   UNL A   1      44.597  28.914  29.064  1.00  0.00     0.167 HD
ATOM     53  C   UNL A   1      46.191  26.691  28.335  1.00  0.00     0.074 A 
ATOM     54  C   UNL A   1      46.573  25.366  27.896  1.00  0.00     0.031 C 
ATOM     55  C   UNL A   1      47.069  27.689  28.601  1.00  0.00     0.037 A 
BRANCH  42  56
ATOM     56  C   UNL A   1      44.403  32.945  30.457  1.00  0.00     0.058 A 
ATOM     57  C   UNL A   1      44.539  33.264  31.815  1.00  0.00     0.135 A 
ATOM     58  C   UNL A   1      44.448  33.999  29.527  1.00  0.00     0.135 A 
ATOM     59  F   UNL A   1      44.482  32.298  32.745  1.00  0.00    -0.206 F 
ATOM     60  C   UNL A   1      44.686  34.582  32.239  1.00  0.00     0.059 A 
ATOM     61  C   UNL A   1      44.618  35.320  29.927  1.00  0.00     0.059 A 
ATOM     62  F   UNL A   1      44.323  33.747  28.214  1.00  0.00    -0.206 F 
ATOM     63  C   UNL A   1      44.719  35.604  31.288  1.00  0.00     0.060 A 
BRANCH  63  64
ATOM     64  S   UNL A   1      44.899  37.311  31.848  1.00  0.00     0.124 S 
ATOM     65  O   UNL A   1      43.813  37.968  31.125  1.00  0.00    -0.237 OA
ATOM     66  O   UNL A   1      44.716  37.190  33.291  1.00  0.00    -0.237 OA
ATOM     67  O   UNL A   1      46.246  37.669  31.417  1.00  0.00    -0.744 OA
ENDBRANCH  63  64
ENDBRANCH  42  56
BRANCH  43  68
ATOM     68  C   UNL A   1      42.777  23.588  27.408  1.00  0.00     0.058 A 
ATOM     69  C   UNL A   1      42.843  23.257  26.047  1.00  0.00     0.135 A 
ATOM     70  C   UNL A   1      42.494  22.556  28.317  1.00  0.00     0.135 A 
ATOM     71  F   UNL A   1      43.090  24.212  25.137  1.00  0.00    -0.206 F 
ATOM     72  C   UNL A   1      42.635  21.955  25.601  1.00  0.00     0.059 A 
ATOM     73  C   UNL A   1      42.312  21.242  27.900  1.00  0.00     0.059 A 
ATOM     74  F   UNL A   1      42.423  22.817  29.631  1.00  0.00    -0.206 F 
ATOM     75  C   UNL A   1      42.375  20.953  26.538  1.00  0.00     0.060 A 
BRANCH  75  76
ATOM     76  S   UNL A   1      42.173  19.251  25.966  1.00  0.00     0.124 S 
ATOM     77  O   UNL A   1      40.732  19.183  25.752  1.00  0.00    -0.237 OA
ATOM     78  O   UNL A   1      42.999  19.225  24.763  1.00  0.00    -0.237 OA
ATOM     79  O   UNL A   1      42.685  18.462  27.084  1.00  0.00    -0.744 OA
ENDBRANCH  75  76
ENDBRANCH  43  68
BRANCH  55  80
ATOM     80  C   UNL A   1      48.531  27.379  28.456  1.00  0.00     0.058 A 
ATOM     81  C   UNL A   1      49.220  27.633  27.260  1.00  0.00     0.135 A 
ATOM     82  C   UNL A   1      49.263  26.878  29.544  1.00  0.00     0.135 A 
ATOM     83  F   UNL A   1      48.564  28.107  26.189  1.00  0.00    -0.206 F 
ATOM     84  C   UNL A   1      50.585  27.387  27.143  1.00  0.00     0.059 A 
ATOM     85  C   UNL A   1      50.632  26.641  29.454  1.00  0.00     0.059 A 
ATOM     86  F   UNL A   1      48.651  26.626  30.711  1.00  0.00    -0.206 F 
ATOM     87  C   UNL A   1      51.282  26.891  28.246  1.00  0.00     0.060 A 
BRANCH  87  88
ATOM     88  S   UNL A   1      53.060  26.613  28.099  1.00  0.00     0.124 S 
ATOM     89  O   UNL A   1      53.524  27.919  27.642  1.00  0.00    -0.237 OA
ATOM     90  O   UNL A   1      53.437  26.248  29.461  1.00  0.00    -0.237 OA
ATOM     91  O   UNL A   1      53.155  25.535  27.119  1.00  0.00    -0.744 OA
ENDBRANCH  87  88
ENDBRANCH  55  80
ENDBRANCH  29  30
ENDBRANCH  22  24
ENDBRANCH  21  22
ENDBRANCH   1  21
TORSDOF 15
ENDMDL
MODEL 3
REMARK VINA RESULT:     -10.9      3.817      9.904
REMARK SMILES C[C@H]1CCC[C@]1(C(=O)OCCOC(=O)c1ccc(-c2c3nc(c(-c4c(F)cc(S(=O)(=O)[O-])cc4F)c4ccc([nH]4)c(-c4c(F)cc(S(=O)(=O)[O-])cc4F)c4nc(c(-c5c(F)cc(S(=O)(=O)[O-])cc5F)c5ccc2[nH]5)C=C4)C=C3)cc1)c1ccc2c(c1)OCO2
REMARK SMILES IDX 11 1 10 2 9 3 7 4 8 5 6 6 1 7 2 8 3 9 4 10 5 11 81 12 82 13
REMARK SMILES IDX 86 14 83 15 85 16 84 17 87 18 89 19 88 20 12 21 13 22 14 23
REMARK SMILES IDX 15 24 16 25 80 26 17 27 79 28 18 29 19 30 20 31 73 32 21 33
REMARK SMILES IDX 78 34 72 35 74 36 22 37 77 38 71 39 70 40 23 42 57 43 36 44
REMARK SMILES IDX 56 45 37 46 40 47 55 48 75 49 38 50 39 51 54 53 76 54 41 55
REMARK SMILES IDX 24 56 25 57 34 58 26 59 27 60 33 61 35 62 28 63 29 64 30 65
REMARK SMILES IDX 31 66 32 67 58 68 59 69 68 70 60 71 61 72 67 73 69 74 62 75
REMARK SMILES IDX 63 76 64 77 65 78 66 79 42 80 43 81 52 82 44 83 45 84 51 85
REMARK SMILES IDX 53 86 46 87 47 88 48 89 49 90 50 91
REMARK H PARENT 74 41 40 52
REMARK Flexibility Score: inf
ROOT
ATOM      1  C   UNL A   1      37.856  21.653  25.191  1.00  0.00     0.275 C 
ENDROOT
BRANCH   1   2
ATOM      2  C   UNL A   1      36.453  21.783  24.609  1.00  0.00     0.274 C 
BRANCH   2   3
ATOM      3  O   UNL A   1      35.985  23.142  24.746  1.00  0.00    -0.461 OA
BRANCH   3   4
ATOM      4  C   UNL A   1      34.895  23.520  24.019  1.00  0.00     0.316 C 
ATOM      5  O   UNL A   1      34.888  23.496  22.792  1.00  0.00    -0.251 OA
BRANCH   4   6
ATOM      6  C   UNL A   1      33.774  24.148  24.907  1.00  0.00     0.096 C 
ATOM      7  C   UNL A   1      31.882  23.369  23.226  1.00  0.00     0.009 C 
ATOM      8  C   UNL A   1      32.349  23.523  24.669  1.00  0.00     0.008 C 
ATOM      9  C   UNL A   1      32.337  22.237  25.492  1.00  0.00     0.005 C 
ATOM     10  C   UNL A   1      33.076  22.637  26.761  1.00  0.00     0.002 C 
ATOM     11  C   UNL A   1      34.128  23.671  26.350  1.00  0.00     0.024 C 
BRANCH   6  12
ATOM     12  C   UNL A   1      33.682  25.705  24.870  1.00  0.00    -0.027 A 
ATOM     13  C   UNL A   1      33.648  26.463  23.674  1.00  0.00     0.009 A 
ATOM     14  C   UNL A   1      33.608  26.435  26.081  1.00  0.00     0.055 A 
ATOM     15  C   UNL A   1      33.452  27.855  23.669  1.00  0.00     0.051 A 
ATOM     16  C   UNL A   1      33.377  27.797  26.052  1.00  0.00     0.166 A 
ATOM     17  C   UNL A   1      33.286  28.487  24.874  1.00  0.00     0.165 A 
ATOM     18  O   UNL A   1      33.194  28.599  27.136  1.00  0.00    -0.454 OA
ATOM     19  O   UNL A   1      33.028  29.806  25.060  1.00  0.00    -0.454 OA
ATOM     20  C   UNL A   1      32.846  29.843  26.489  1.00  0.00     0.468 C 
ENDBRANCH   6  12
ENDBRANCH   4   6
ENDBRANCH   3   4
ENDBRANCH   2   3
ENDBRANCH   1   2
BRANCH   1  21
ATOM     21  O   UNL A   1      38.249  22.934  25.704  1.00  0.00    -0.458 OA
BRANCH  21  22
ATOM     22  C   UNL A   1      39.533  23.050  26.109  1.00  0.00     0.338 C 
ATOM     23  O   UNL A   1      40.444  22.265  25.884  1.00  0.00    -0.246 OA
BRANCH  22  24
ATOM     24  C   UNL A   1      39.685  24.298  26.888  1.00  0.00     0.060 A 
ATOM     25  C   UNL A   1      40.556  25.300  26.456  1.00  0.00     0.016 A 
ATOM     26  C   UNL A   1      39.002  24.453  28.094  1.00  0.00     0.016 A 
ATOM     27  C   UNL A   1      40.784  26.426  27.247  1.00  0.00     0.010 A 
ATOM     28  C   UNL A   1      39.178  25.621  28.849  1.00  0.00     0.010 A 
ATOM     29  C   UNL A   1      40.091  26.614  28.449  1.00  0.00    -0.014 A 
BRANCH  29  30
ATOM     30  C   UNL A   1      40.373  27.788  29.328  1.00  0.00     0.031 A 
ATOM     31  C   UNL A   1      41.636  27.811  30.151  1.00  0.00     0.074 A 
ATOM     32  C   UNL A   1      39.539  28.848  29.394  1.00  0.00     0.049 A 
ATOM     33  N   UNL A   1      41.946  28.559  31.177  1.00  0.00    -0.248 NA
ATOM     34  C   UNL A   1      42.683  26.847  29.774  1.00  0.00     0.031 C 
ATOM     35  C   UNL A   1      38.325  29.033  28.598  1.00  0.00     0.029 A 
ATOM     36  N   UNL A   1      39.595  29.981  30.173  1.00  0.00    -0.354 N 
ATOM     37  C   UNL A   1      43.181  28.101  31.622  1.00  0.00     0.074 A 
ATOM     38  C   UNL A   1      43.575  27.025  30.738  1.00  0.00     0.031 C 
ATOM     39  C   UNL A   1      37.779  30.222  28.896  1.00  0.00     0.029 A 
ATOM     40  C   UNL A   1      38.536  30.838  29.981  1.00  0.00     0.049 A 
ATOM     41  H   UNL A   1      40.324  30.160  30.810  1.00  0.00     0.167 HD
ATOM     42  C   UNL A   1      43.909  28.528  32.680  1.00  0.00     0.037 A 
ATOM     43  C   UNL A   1      38.178  31.961  30.637  1.00  0.00     0.037 A 
ATOM     44  C   UNL A   1      43.550  29.648  33.510  1.00  0.00     0.049 A 
ATOM     45  C   UNL A   1      38.989  32.412  31.823  1.00  0.00     0.074 A 
ATOM     46  C   UNL A   1      44.202  30.141  34.627  1.00  0.00     0.029 A 
ATOM     47  N   UNL A   1      42.455  30.472  33.291  1.00  0.00    -0.354 N 
ATOM     48  N   UNL A   1      40.078  31.885  32.327  1.00  0.00    -0.248 NA
ATOM     49  C   UNL A   1      38.496  33.589  32.556  1.00  0.00     0.031 C 
ATOM     50  C   UNL A   1      43.491  31.254  35.095  1.00  0.00     0.029 A 
ATOM     51  C   UNL A   1      42.417  31.472  34.249  1.00  0.00     0.049 A 
ATOM     52  H   UNL A   1      41.802  30.362  32.563  1.00  0.00     0.167 HD
ATOM     53  C   UNL A   1      40.403  32.665  33.431  1.00  0.00     0.074 A 
ATOM     54  C   UNL A   1      39.408  33.713  33.512  1.00  0.00     0.031 C 
ATOM     55  C   UNL A   1      41.427  32.516  34.308  1.00  0.00     0.037 A 
BRANCH  42  56
ATOM     56  C   UNL A   1      45.142  27.746  33.037  1.00  0.00     0.058 A 
ATOM     57  C   UNL A   1      45.088  26.561  33.785  1.00  0.00     0.135 A 
ATOM     58  C   UNL A   1      46.402  28.191  32.602  1.00  0.00     0.135 A 
ATOM     59  F   UNL A   1      43.912  26.103  34.242  1.00  0.00    -0.206 F 
ATOM     60  C   UNL A   1      46.244  25.858  34.114  1.00  0.00     0.059 A 
ATOM     61  C   UNL A   1      47.567  27.492  32.900  1.00  0.00     0.059 A 
ATOM     62  F   UNL A   1      46.509  29.320  31.884  1.00  0.00    -0.206 F 
ATOM     63  C   UNL A   1      47.479  26.335  33.672  1.00  0.00     0.060 A 
BRANCH  63  64
ATOM     64  S   UNL A   1      48.974  25.423  34.113  1.00  0.00     0.124 S 
ATOM     65  O   UNL A   1      49.964  26.495  34.160  1.00  0.00    -0.237 OA
ATOM     66  O   UNL A   1      48.616  24.834  35.400  1.00  0.00    -0.237 OA
ATOM     67  O   UNL A   1      49.129  24.473  33.015  1.00  0.00    -0.744 OA
ENDBRANCH  63  64
ENDBRANCH  42  56
BRANCH  43  68
ATOM     68  C   UNL A   1      36.953  32.703  30.232  1.00  0.00     0.058 A 
ATOM     69  C   UNL A   1      35.716  32.443  30.838  1.00  0.00     0.135 A 
ATOM     70  C   UNL A   1      36.997  33.693  29.236  1.00  0.00     0.135 A 
ATOM     71  F   UNL A   1      35.618  31.492  31.780  1.00  0.00    -0.206 F 
ATOM     72  C   UNL A   1      34.565  33.135  30.474  1.00  0.00     0.059 A 
ATOM     73  C   UNL A   1      35.867  34.418  28.875  1.00  0.00     0.059 A 
ATOM     74  F   UNL A   1      38.156  33.982  28.626  1.00  0.00    -0.206 F 
ATOM     75  C   UNL A   1      34.652  34.125  29.493  1.00  0.00     0.060 A 
BRANCH  75  76
ATOM     76  S   UNL A   1      33.172  35.070  29.067  1.00  0.00     0.124 S 
ATOM     77  O   UNL A   1      33.751  36.279  28.494  1.00  0.00    -0.237 OA
ATOM     78  O   UNL A   1      32.493  34.181  28.130  1.00  0.00    -0.237 OA
ATOM     79  O   UNL A   1      32.504  35.237  30.355  1.00  0.00    -0.744 OA
ENDBRANCH  75  76
ENDBRANCH  43  68
BRANCH  55  80
ATOM     80  C   UNL A   1      41.543  33.527  35.412  1.00  0.00     0.058 A 
ATOM     81  C   UNL A   1      42.261  34.720  35.242  1.00  0.00     0.135 A 
ATOM     82  C   UNL A   1      40.880  33.326  36.633  1.00  0.00     0.135 A 
ATOM     83  F   UNL A   1      42.918  34.957  34.095  1.00  0.00    -0.206 F 
ATOM     84  C   UNL A   1      42.331  35.676  36.252  1.00  0.00     0.059 A 
ATOM     85  C   UNL A   1      40.921  34.275  37.649  1.00  0.00     0.059 A 
ATOM     86  F   UNL A   1      40.174  32.204  36.841  1.00  0.00    -0.206 F 
ATOM     87  C   UNL A   1      41.657  35.444  37.452  1.00  0.00     0.060 A 
BRANCH  87  88
ATOM     88  S   UNL A   1      41.717  36.707  38.741  1.00  0.00     0.124 S 
ATOM     89  O   UNL A   1      41.988  35.902  39.928  1.00  0.00    -0.237 OA
ATOM     90  O   UNL A   1      42.812  37.563  38.293  1.00  0.00    -0.237 OA
ATOM     91  O   UNL A   1      40.391  37.315  38.683  1.00  0.00    -0.744 OA
ENDBRANCH  87  88
ENDBRANCH  55  80
ENDBRANCH  29  30
ENDBRANCH  22  24
ENDBRANCH  21  22
ENDBRANCH   1  21
TORSDOF 15
ENDMDL
