MODEL 1
REMARK VINA RESULT:     -11.5      0.000      0.000
REMARK SMILES Cc1cc(NC(=O)CCC(=O)OCCOC(=O)c2ccc(-c3c4nc(c(-c5c(F)cc(S(=O)(=O)[O-])cc5F)c5ccc([nH]5)c(-c5c(F)cc(S(=O)(=O)[O-])cc5F)c5nc(c(-c6c(F)cc(S(=O)(=O)[O-])cc6F)c6ccc3[nH]6)C=C5)C=C4)cc2)ccc1S(=O)(=O)[O-]
REMARK SMILES IDX 13 1 12 2 10 3 11 4 9 5 8 6 6 7 5 8 7 10 4 11 1 12 2 13 3 14
REMARK SMILES IDX 86 15 85 16 84 17 87 18 88 19 89 20 90 21 14 22 15 23 16 24
REMARK SMILES IDX 17 25 18 26 19 27 83 28 20 29 82 30 21 31 22 32 23 33 76 34
REMARK SMILES IDX 24 35 81 36 75 37 77 38 25 39 80 40 74 41 73 42 26 44 60 45
REMARK SMILES IDX 39 46 59 47 40 48 43 49 58 50 78 51 41 52 42 53 57 55 79 56
REMARK SMILES IDX 44 57 27 58 28 59 37 60 29 61 30 62 36 63 38 64 31 65 32 66
REMARK SMILES IDX 33 67 34 68 35 69 61 70 62 71 71 72 63 73 64 74 70 75 72 76
REMARK SMILES IDX 65 77 66 78 67 79 68 80 69 81 45 82 46 83 55 84 47 85 48 86
REMARK SMILES IDX 54 87 56 88 49 89 50 90 51 91 52 92 53 93
REMARK H PARENT 5 9 77 43 43 54
REMARK Flexibility Score: inf
ROOT
ATOM      1  C   UNL A   1      32.153  29.381  26.875  1.00  0.00     0.274 C 
ENDROOT
BRANCH   1   2
ATOM      2  O   UNL A   1      32.251  30.075  25.632  1.00  0.00    -0.462 OA
BRANCH   2   3
ATOM      3  C   UNL A   1      32.025  29.182  24.640  1.00  0.00     0.306 C 
ATOM      4  O   UNL A   1      31.032  28.503  24.619  1.00  0.00    -0.252 OA
BRANCH   3   5
ATOM      5  C   UNL A   1      33.104  29.124  23.599  1.00  0.00     0.132 C 
BRANCH   5   6
ATOM      6  C   UNL A   1      33.833  27.769  23.693  1.00  0.00     0.112 C 
BRANCH   6   7
ATOM      7  C   UNL A   1      33.791  26.952  22.409  1.00  0.00     0.224 C 
ATOM      8  N   UNL A   1      33.688  25.584  22.326  1.00  0.00    -0.326 N 
ATOM      9  H   UNL A   1      33.705  25.264  21.395  1.00  0.00     0.169 HD
ATOM     10  O   UNL A   1      33.705  27.575  21.337  1.00  0.00    -0.275 OA
BRANCH   8  11
ATOM     11  C   UNL A   1      33.566  24.519  23.259  1.00  0.00     0.041 A 
ATOM     12  C   UNL A   1      31.254  23.036  25.907  1.00  0.00     0.046 C 
ATOM     13  C   UNL A   1      32.452  23.179  25.008  1.00  0.00    -0.032 A 
ATOM     14  C   UNL A   1      32.549  24.358  24.197  1.00  0.00     0.030 A 
ATOM     15  C   UNL A   1      33.391  22.144  24.835  1.00  0.00     0.057 A 
ATOM     16  C   UNL A   1      34.460  22.337  23.947  1.00  0.00     0.021 A 
ATOM     17  C   UNL A   1      34.556  23.520  23.197  1.00  0.00     0.027 A 
BRANCH  15  18
ATOM     18  S   UNL A   1      33.223  20.468  25.476  1.00  0.00     0.124 S 
ATOM     19  O   UNL A   1      33.485  20.533  26.901  1.00  0.00    -0.237 OA
ATOM     20  O   UNL A   1      31.967  19.949  24.976  1.00  0.00    -0.237 OA
ATOM     21  O   UNL A   1      34.396  19.545  24.878  1.00  0.00    -0.744 OA
ENDBRANCH  15  18
ENDBRANCH   8  11
ENDBRANCH   6   7
ENDBRANCH   5   6
ENDBRANCH   3   5
ENDBRANCH   2   3
ENDBRANCH   1   2
BRANCH   1  22
ATOM     22  C   UNL A   1      33.543  28.806  27.249  1.00  0.00     0.275 C 
BRANCH  22  23
ATOM     23  O   UNL A   1      34.739  29.750  27.188  1.00  0.00    -0.458 OA
BRANCH  23  24
ATOM     24  C   UNL A   1      35.270  30.894  27.795  1.00  0.00     0.338 C 
ATOM     25  O   UNL A   1      35.064  32.012  27.343  1.00  0.00    -0.246 OA
BRANCH  24  26
ATOM     26  C   UNL A   1      35.977  30.750  29.084  1.00  0.00     0.060 A 
ATOM     27  C   UNL A   1      35.933  29.666  29.993  1.00  0.00     0.016 A 
ATOM     28  C   UNL A   1      37.120  31.415  29.018  1.00  0.00     0.016 A 
ATOM     29  C   UNL A   1      37.168  29.170  30.501  1.00  0.00     0.010 A 
ATOM     30  C   UNL A   1      38.024  30.455  28.825  1.00  0.00     0.010 A 
ATOM     31  C   UNL A   1      38.298  29.583  29.825  1.00  0.00    -0.014 A 
BRANCH  31  32
ATOM     32  C   UNL A   1      39.747  29.308  29.729  1.00  0.00     0.031 A 
ATOM     33  C   UNL A   1      40.156  28.018  29.177  1.00  0.00     0.074 A 
ATOM     34  C   UNL A   1      40.576  30.408  29.821  1.00  0.00     0.049 A 
ATOM     35  N   UNL A   1      40.773  27.076  29.803  1.00  0.00    -0.248 NA
ATOM     36  C   UNL A   1      39.819  27.679  27.789  1.00  0.00     0.031 C 
ATOM     37  C   UNL A   1      41.975  30.699  29.578  1.00  0.00     0.029 A 
ATOM     38  N   UNL A   1      40.130  31.712  30.192  1.00  0.00    -0.354 N 
ATOM     39  C   UNL A   1      41.315  26.306  28.787  1.00  0.00     0.074 A 
ATOM     40  C   UNL A   1      40.457  26.516  27.634  1.00  0.00     0.031 C 
ATOM     41  C   UNL A   1      42.285  31.855  30.230  1.00  0.00     0.029 A 
ATOM     42  C   UNL A   1      41.091  32.354  30.928  1.00  0.00     0.049 A 
ATOM     43  H   UNL A   1      39.255  32.096  29.953  1.00  0.00     0.167 HD
ATOM     44  C   UNL A   1      42.672  26.142  28.696  1.00  0.00     0.037 A 
ATOM     45  C   UNL A   1      40.746  32.448  32.245  1.00  0.00     0.037 A 
ATOM     46  C   UNL A   1      43.388  27.097  29.559  1.00  0.00     0.049 A 
ATOM     47  C   UNL A   1      41.479  31.366  32.997  1.00  0.00     0.074 A 
ATOM     48  C   UNL A   1      44.253  28.157  29.340  1.00  0.00     0.029 A 
ATOM     49  N   UNL A   1      43.007  27.230  30.882  1.00  0.00    -0.354 N 
ATOM     50  N   UNL A   1      42.257  30.489  32.427  1.00  0.00    -0.248 NA
ATOM     51  C   UNL A   1      41.332  31.137  34.425  1.00  0.00     0.031 C 
ATOM     52  C   UNL A   1      44.424  28.870  30.569  1.00  0.00     0.029 A 
ATOM     53  C   UNL A   1      43.646  28.262  31.534  1.00  0.00     0.049 A 
ATOM     54  H   UNL A   1      42.344  26.645  31.315  1.00  0.00     0.167 HD
ATOM     55  C   UNL A   1      42.624  29.538  33.322  1.00  0.00     0.074 A 
ATOM     56  C   UNL A   1      42.022  29.992  34.569  1.00  0.00     0.031 C 
ATOM     57  C   UNL A   1      43.360  28.446  32.954  1.00  0.00     0.037 A 
BRANCH  44  58
ATOM     58  C   UNL A   1      43.322  25.303  27.609  1.00  0.00     0.058 A 
ATOM     59  C   UNL A   1      43.298  23.895  27.650  1.00  0.00     0.135 A 
ATOM     60  C   UNL A   1      43.891  25.848  26.431  1.00  0.00     0.135 A 
ATOM     61  F   UNL A   1      42.723  23.229  28.659  1.00  0.00    -0.206 F 
ATOM     62  C   UNL A   1      43.835  23.094  26.644  1.00  0.00     0.059 A 
ATOM     63  C   UNL A   1      44.465  25.065  25.422  1.00  0.00     0.059 A 
ATOM     64  F   UNL A   1      43.876  27.171  26.200  1.00  0.00    -0.206 F 
ATOM     65  C   UNL A   1      44.421  23.683  25.533  1.00  0.00     0.060 A 
BRANCH  65  66
ATOM     66  S   UNL A   1      45.066  22.612  24.236  1.00  0.00     0.124 S 
ATOM     67  O   UNL A   1      45.460  21.425  24.989  1.00  0.00    -0.237 OA
ATOM     68  O   UNL A   1      43.904  22.456  23.369  1.00  0.00    -0.237 OA
ATOM     69  O   UNL A   1      46.170  23.384  23.674  1.00  0.00    -0.744 OA
ENDBRANCH  65  66
ENDBRANCH  44  58
BRANCH  45  70
ATOM     70  C   UNL A   1      39.266  32.802  32.471  1.00  0.00     0.058 A 
ATOM     71  C   UNL A   1      38.790  34.092  32.127  1.00  0.00     0.135 A 
ATOM     72  C   UNL A   1      38.265  31.840  32.722  1.00  0.00     0.135 A 
ATOM     73  F   UNL A   1      39.657  35.060  31.785  1.00  0.00    -0.206 F 
ATOM     74  C   UNL A   1      37.426  34.397  32.009  1.00  0.00     0.059 A 
ATOM     75  C   UNL A   1      36.890  32.124  32.613  1.00  0.00     0.059 A 
ATOM     76  F   UNL A   1      38.600  30.567  32.978  1.00  0.00    -0.206 F 
ATOM     77  C   UNL A   1      36.477  33.403  32.242  1.00  0.00     0.060 A 
BRANCH  77  78
ATOM     78  S   UNL A   1      34.748  33.745  31.802  1.00  0.00     0.124 S 
ATOM     79  O   UNL A   1      34.052  32.640  32.450  1.00  0.00    -0.237 OA
ATOM     80  O   UNL A   1      34.550  35.058  32.413  1.00  0.00    -0.237 OA
ATOM     81  O   UNL A   1      34.755  33.728  30.344  1.00  0.00    -0.744 OA
ENDBRANCH  77  78
ENDBRANCH  45  70
BRANCH  57  82
ATOM     82  C   UNL A   1      43.833  27.410  33.934  1.00  0.00     0.058 A 
ATOM     83  C   UNL A   1      42.949  26.523  34.564  1.00  0.00     0.135 A 
ATOM     84  C   UNL A   1      45.180  27.334  34.362  1.00  0.00     0.135 A 
ATOM     85  F   UNL A   1      41.622  26.616  34.381  1.00  0.00    -0.206 F 
ATOM     86  C   UNL A   1      43.389  25.538  35.440  1.00  0.00     0.059 A 
ATOM     87  C   UNL A   1      45.631  26.404  35.282  1.00  0.00     0.059 A 
ATOM     88  F   UNL A   1      46.137  28.154  33.911  1.00  0.00    -0.206 F 
ATOM     89  C   UNL A   1      44.734  25.482  35.785  1.00  0.00     0.060 A 
BRANCH  89  90
ATOM     90  S   UNL A   1      45.296  24.229  36.937  1.00  0.00     0.124 S 
ATOM     91  O   UNL A   1      44.902  22.995  36.263  1.00  0.00    -0.237 OA
ATOM     92  O   UNL A   1      46.729  24.500  36.982  1.00  0.00    -0.237 OA
ATOM     93  O   UNL A   1      44.558  24.533  38.160  1.00  0.00    -0.744 OA
ENDBRANCH  89  90
ENDBRANCH  57  82
ENDBRANCH  31  32
ENDBRANCH  24  26
ENDBRANCH  23  24
ENDBRANCH  22  23
ENDBRANCH   1  22
TORSDOF 18
ENDMDL
MODEL 2
REMARK VINA RESULT:     -11.3      3.362      9.401
REMARK SMILES Cc1cc(NC(=O)CCC(=O)OCCOC(=O)c2ccc(-c3c4nc(c(-c5c(F)cc(S(=O)(=O)[O-])cc5F)c5ccc([nH]5)c(-c5c(F)cc(S(=O)(=O)[O-])cc5F)c5nc(c(-c6c(F)cc(S(=O)(=O)[O-])cc6F)c6ccc3[nH]6)C=C5)C=C4)cc2)ccc1S(=O)(=O)[O-]
REMARK SMILES IDX 13 1 12 2 10 3 11 4 9 5 8 6 6 7 5 8 7 10 4 11 1 12 2 13 3 14
REMARK SMILES IDX 86 15 85 16 84 17 87 18 88 19 89 20 90 21 14 22 15 23 16 24
REMARK SMILES IDX 17 25 18 26 19 27 83 28 20 29 82 30 21 31 22 32 23 33 76 34
REMARK SMILES IDX 24 35 81 36 75 37 77 38 25 39 80 40 74 41 73 42 26 44 60 45
REMARK SMILES IDX 39 46 59 47 40 48 43 49 58 50 78 51 41 52 42 53 57 55 79 56
REMARK SMILES IDX 44 57 27 58 28 59 37 60 29 61 30 62 36 63 38 64 31 65 32 66
REMARK SMILES IDX 33 67 34 68 35 69 61 70 62 71 71 72 63 73 64 74 70 75 72 76
REMARK SMILES IDX 65 77 66 78 67 79 68 80 69 81 45 82 46 83 55 84 47 85 48 86
REMARK SMILES IDX 54 87 56 88 49 89 50 90 51 91 52 92 53 93
REMARK H PARENT 5 9 77 43 43 54
REMARK Flexibility Score: inf
ROOT
ATOM      1  C   UNL A   1      35.742  23.936  24.669  1.00  0.00     0.274 C 
ENDROOT
BRANCH   1   2
ATOM      2  O   UNL A   1      34.774  24.924  25.021  1.00  0.00    -0.462 OA
BRANCH   2   3
ATOM      3  C   UNL A   1      34.286  25.452  23.874  1.00  0.00     0.306 C 
ATOM      4  O   UNL A   1      34.347  24.856  22.831  1.00  0.00    -0.252 OA
BRANCH   3   5
ATOM      5  C   UNL A   1      33.679  26.816  24.028  1.00  0.00     0.132 C 
BRANCH   5   6
ATOM      6  C   UNL A   1      32.546  26.990  22.998  1.00  0.00     0.112 C 
BRANCH   6   7
ATOM      7  C   UNL A   1      31.147  26.887  23.592  1.00  0.00     0.224 C 
ATOM      8  N   UNL A   1      30.569  25.749  24.101  1.00  0.00    -0.326 N 
ATOM      9  H   UNL A   1      29.647  25.905  24.410  1.00  0.00     0.169 HD
ATOM     10  O   UNL A   1      30.518  27.945  23.760  1.00  0.00    -0.275 OA
BRANCH   8  11
ATOM     11  C   UNL A   1      30.978  24.401  24.287  1.00  0.00     0.041 A 
ATOM     12  C   UNL A   1      32.028  21.247  22.416  1.00  0.00     0.046 C 
ATOM     13  C   UNL A   1      31.722  22.158  23.573  1.00  0.00    -0.032 A 
ATOM     14  C   UNL A   1      31.187  23.457  23.284  1.00  0.00     0.030 A 
ATOM     15  C   UNL A   1      32.073  21.835  24.898  1.00  0.00     0.057 A 
ATOM     16  C   UNL A   1      31.791  22.755  25.919  1.00  0.00     0.021 A 
ATOM     17  C   UNL A   1      31.225  24.003  25.615  1.00  0.00     0.027 A 
BRANCH  15  18
ATOM     18  S   UNL A   1      33.083  20.427  25.395  1.00  0.00     0.124 S 
ATOM     19  O   UNL A   1      32.223  19.259  25.363  1.00  0.00    -0.237 OA
ATOM     20  O   UNL A   1      34.294  20.478  24.604  1.00  0.00    -0.237 OA
ATOM     21  O   UNL A   1      33.508  20.590  26.936  1.00  0.00    -0.744 OA
ENDBRANCH  15  18
ENDBRANCH   8  11
ENDBRANCH   6   7
ENDBRANCH   5   6
ENDBRANCH   3   5
ENDBRANCH   2   3
ENDBRANCH   1   2
BRANCH   1  22
ATOM     22  C   UNL A   1      36.390  23.374  25.960  1.00  0.00     0.275 C 
BRANCH  22  23
ATOM     23  O   UNL A   1      37.798  23.845  26.309  1.00  0.00    -0.458 OA
BRANCH  23  24
ATOM     24  C   UNL A   1      39.063  23.363  26.662  1.00  0.00     0.338 C 
ATOM     25  O   UNL A   1      39.246  22.186  26.938  1.00  0.00    -0.246 OA
BRANCH  24  26
ATOM     26  C   UNL A   1      40.222  24.275  26.564  1.00  0.00     0.060 A 
ATOM     27  C   UNL A   1      40.425  25.341  25.656  1.00  0.00     0.016 A 
ATOM     28  C   UNL A   1      40.752  24.419  27.768  1.00  0.00     0.016 A 
ATOM     29  C   UNL A   1      40.870  26.589  26.181  1.00  0.00     0.010 A 
ATOM     30  C   UNL A   1      40.305  25.612  28.160  1.00  0.00     0.010 A 
ATOM     31  C   UNL A   1      40.760  26.731  27.549  1.00  0.00    -0.014 A 
BRANCH  31  32
ATOM     32  C   UNL A   1      40.858  27.754  28.612  1.00  0.00     0.031 A 
ATOM     33  C   UNL A   1      39.810  28.771  28.671  1.00  0.00     0.074 A 
ATOM     34  C   UNL A   1      41.706  27.455  29.659  1.00  0.00     0.049 A 
ATOM     35  N   UNL A   1      39.954  30.035  28.469  1.00  0.00    -0.248 NA
ATOM     36  C   UNL A   1      38.422  28.373  28.935  1.00  0.00     0.031 C 
ATOM     37  C   UNL A   1      41.975  27.980  30.983  1.00  0.00     0.029 A 
ATOM     38  N   UNL A   1      42.605  26.347  29.664  1.00  0.00    -0.354 N 
ATOM     39  C   UNL A   1      38.835  30.593  29.064  1.00  0.00     0.074 A 
ATOM     40  C   UNL A   1      37.817  29.560  29.034  1.00  0.00     0.031 C 
ATOM     41  C   UNL A   1      43.193  27.517  31.381  1.00  0.00     0.029 A 
ATOM     42  C   UNL A   1      43.762  26.674  30.321  1.00  0.00     0.049 A 
ATOM     43  H   UNL A   1      42.420  25.471  29.253  1.00  0.00     0.167 HD
ATOM     44  C   UNL A   1      38.976  31.482  30.098  1.00  0.00     0.037 A 
ATOM     45  C   UNL A   1      44.810  26.831  29.459  1.00  0.00     0.037 A 
ATOM     46  C   UNL A   1      40.350  31.475  30.630  1.00  0.00     0.049 A 
ATOM     47  C   UNL A   1      45.008  28.308  29.231  1.00  0.00     0.074 A 
ATOM     48  C   UNL A   1      40.930  31.125  31.838  1.00  0.00     0.029 A 
ATOM     49  N   UNL A   1      41.415  31.583  29.754  1.00  0.00    -0.354 N 
ATOM     50  N   UNL A   1      44.248  29.229  29.753  1.00  0.00    -0.248 NA
ATOM     51  C   UNL A   1      46.017  28.857  28.340  1.00  0.00     0.031 C 
ATOM     52  C   UNL A   1      42.352  31.097  31.673  1.00  0.00     0.029 A 
ATOM     53  C   UNL A   1      42.640  31.405  30.358  1.00  0.00     0.049 A 
ATOM     54  H   UNL A   1      41.308  31.769  28.793  1.00  0.00     0.167 HD
ATOM     55  C   UNL A   1      44.552  30.441  29.225  1.00  0.00     0.074 A 
ATOM     56  C   UNL A   1      45.677  30.157  28.343  1.00  0.00     0.031 C 
ATOM     57  C   UNL A   1      43.832  31.563  29.530  1.00  0.00     0.037 A 
BRANCH  44  58
ATOM     58  C   UNL A   1      37.787  32.132  30.783  1.00  0.00     0.058 A 
ATOM     59  C   UNL A   1      37.212  33.321  30.294  1.00  0.00     0.135 A 
ATOM     60  C   UNL A   1      37.097  31.551  31.877  1.00  0.00     0.135 A 
ATOM     61  F   UNL A   1      37.700  33.948  29.217  1.00  0.00    -0.206 F 
ATOM     62  C   UNL A   1      36.087  33.915  30.864  1.00  0.00     0.059 A 
ATOM     63  C   UNL A   1      35.985  32.144  32.486  1.00  0.00     0.059 A 
ATOM     64  F   UNL A   1      37.460  30.356  32.372  1.00  0.00    -0.206 F 
ATOM     65  C   UNL A   1      35.479  33.325  31.963  1.00  0.00     0.060 A 
BRANCH  65  66
ATOM     66  S   UNL A   1      34.003  34.103  32.644  1.00  0.00     0.124 S 
ATOM     67  O   UNL A   1      34.572  35.130  33.511  1.00  0.00    -0.237 OA
ATOM     68  O   UNL A   1      33.336  34.587  31.441  1.00  0.00    -0.237 OA
ATOM     69  O   UNL A   1      33.330  33.008  33.338  1.00  0.00    -0.744 OA
ENDBRANCH  65  66
ENDBRANCH  44  58
BRANCH  45  70
ATOM     70  C   UNL A   1      44.853  25.773  28.343  1.00  0.00     0.058 A 
ATOM     71  C   UNL A   1      45.141  24.423  28.662  1.00  0.00     0.135 A 
ATOM     72  C   UNL A   1      44.334  25.987  27.048  1.00  0.00     0.135 A 
ATOM     73  F   UNL A   1      45.558  24.098  29.897  1.00  0.00    -0.206 F 
ATOM     74  C   UNL A   1      44.901  23.360  27.778  1.00  0.00     0.059 A 
ATOM     75  C   UNL A   1      44.089  24.936  26.142  1.00  0.00     0.059 A 
ATOM     76  F   UNL A   1      43.953  27.214  26.667  1.00  0.00    -0.206 F 
ATOM     77  C   UNL A   1      44.362  23.623  26.520  1.00  0.00     0.060 A 
BRANCH  77  78
ATOM     78  S   UNL A   1      43.796  22.216  25.518  1.00  0.00     0.124 S 
ATOM     79  O   UNL A   1      44.986  21.376  25.486  1.00  0.00    -0.237 OA
ATOM     80  O   UNL A   1      42.690  21.711  26.330  1.00  0.00    -0.237 OA
ATOM     81  O   UNL A   1      43.412  22.829  24.252  1.00  0.00    -0.744 OA
ENDBRANCH  77  78
ENDBRANCH  45  70
BRANCH  57  82
ATOM     82  C   UNL A   1      44.184  32.928  29.009  1.00  0.00     0.058 A 
ATOM     83  C   UNL A   1      44.079  33.254  27.650  1.00  0.00     0.135 A 
ATOM     84  C   UNL A   1      44.741  33.932  29.836  1.00  0.00     0.135 A 
ATOM     85  F   UNL A   1      43.738  32.331  26.737  1.00  0.00    -0.206 F 
ATOM     86  C   UNL A   1      44.365  34.527  27.171  1.00  0.00     0.059 A 
ATOM     87  C   UNL A   1      45.094  35.186  29.370  1.00  0.00     0.059 A 
ATOM     88  F   UNL A   1      44.972  33.758  31.142  1.00  0.00    -0.206 F 
ATOM     89  C   UNL A   1      44.863  35.489  28.043  1.00  0.00     0.060 A 
BRANCH  89  90
ATOM     90  S   UNL A   1      45.259  37.122  27.419  1.00  0.00     0.124 S 
ATOM     91  O   UNL A   1      43.946  37.624  27.024  1.00  0.00    -0.237 OA
ATOM     92  O   UNL A   1      45.851  37.745  28.597  1.00  0.00    -0.237 OA
ATOM     93  O   UNL A   1      46.179  36.854  26.318  1.00  0.00    -0.744 OA
ENDBRANCH  89  90
ENDBRANCH  57  82
ENDBRANCH  31  32
ENDBRANCH  24  26
ENDBRANCH  23  24
ENDBRANCH  22  23
ENDBRANCH   1  22
TORSDOF 18
ENDMDL
MODEL 3
REMARK VINA RESULT:     -11.2      1.238      2.153
REMARK SMILES Cc1cc(NC(=O)CCC(=O)OCCOC(=O)c2ccc(-c3c4nc(c(-c5c(F)cc(S(=O)(=O)[O-])cc5F)c5ccc([nH]5)c(-c5c(F)cc(S(=O)(=O)[O-])cc5F)c5nc(c(-c6c(F)cc(S(=O)(=O)[O-])cc6F)c6ccc3[nH]6)C=C5)C=C4)cc2)ccc1S(=O)(=O)[O-]
REMARK SMILES IDX 13 1 12 2 10 3 11 4 9 5 8 6 6 7 5 8 7 10 4 11 1 12 2 13 3 14
REMARK SMILES IDX 86 15 85 16 84 17 87 18 88 19 89 20 90 21 14 22 15 23 16 24
REMARK SMILES IDX 17 25 18 26 19 27 83 28 20 29 82 30 21 31 22 32 23 33 76 34
REMARK SMILES IDX 24 35 81 36 75 37 77 38 25 39 80 40 74 41 73 42 26 44 60 45
REMARK SMILES IDX 39 46 59 47 40 48 43 49 58 50 78 51 41 52 42 53 57 55 79 56
REMARK SMILES IDX 44 57 27 58 28 59 37 60 29 61 30 62 36 63 38 64 31 65 32 66
REMARK SMILES IDX 33 67 34 68 35 69 61 70 62 71 71 72 63 73 64 74 70 75 72 76
REMARK SMILES IDX 65 77 66 78 67 79 68 80 69 81 45 82 46 83 55 84 47 85 48 86
REMARK SMILES IDX 54 87 56 88 49 89 50 90 51 91 52 92 53 93
REMARK H PARENT 5 9 77 43 43 54
REMARK Flexibility Score: inf
ROOT
ATOM      1  C   UNL A   1      31.919  30.184  25.555  1.00  0.00     0.274 C 
ENDROOT
BRANCH   1   2
ATOM      2  O   UNL A   1      32.915  29.469  24.825  1.00  0.00    -0.462 OA
BRANCH   2   3
ATOM      3  C   UNL A   1      32.314  28.902  23.752  1.00  0.00     0.306 C 
ATOM      4  O   UNL A   1      32.953  28.376  22.879  1.00  0.00    -0.252 OA
BRANCH   3   5
ATOM      5  C   UNL A   1      30.816  28.991  23.761  1.00  0.00     0.132 C 
BRANCH   5   6
ATOM      6  C   UNL A   1      30.235  27.914  22.824  1.00  0.00     0.112 C 
BRANCH   6   7
ATOM      7  C   UNL A   1      29.127  27.079  23.453  1.00  0.00     0.224 C 
ATOM      8  N   UNL A   1      29.286  25.859  24.064  1.00  0.00    -0.326 N 
ATOM      9  H   UNL A   1      28.431  25.484  24.378  1.00  0.00     0.169 HD
ATOM     10  O   UNL A   1      28.003  27.598  23.547  1.00  0.00    -0.275 OA
BRANCH   8  11
ATOM     11  C   UNL A   1      30.385  25.005  24.351  1.00  0.00     0.041 A 
ATOM     12  C   UNL A   1      32.908  22.638  22.744  1.00  0.00     0.046 C 
ATOM     13  C   UNL A   1      32.211  23.431  23.814  1.00  0.00    -0.032 A 
ATOM     14  C   UNL A   1      31.029  24.159  23.451  1.00  0.00     0.030 A 
ATOM     15  C   UNL A   1      32.753  23.596  25.103  1.00  0.00     0.057 A 
ATOM     16  C   UNL A   1      32.063  24.386  26.035  1.00  0.00     0.021 A 
ATOM     17  C   UNL A   1      30.884  25.052  25.667  1.00  0.00     0.027 A 
BRANCH  15  18
ATOM     18  S   UNL A   1      34.400  23.074  25.615  1.00  0.00     0.124 S 
ATOM     19  O   UNL A   1      34.524  21.671  25.270  1.00  0.00    -0.237 OA
ATOM     20  O   UNL A   1      35.333  24.051  25.093  1.00  0.00    -0.237 OA
ATOM     21  O   UNL A   1      34.503  23.119  27.218  1.00  0.00    -0.744 OA
ENDBRANCH  15  18
ENDBRANCH   8  11
ENDBRANCH   6   7
ENDBRANCH   5   6
ENDBRANCH   3   5
ENDBRANCH   2   3
ENDBRANCH   1   2
BRANCH   1  22
ATOM     22  C   UNL A   1      32.435  30.453  26.991  1.00  0.00     0.275 C 
BRANCH  22  23
ATOM     23  O   UNL A   1      33.942  30.592  27.189  1.00  0.00    -0.458 OA
BRANCH  23  24
ATOM     24  C   UNL A   1      35.084  29.847  27.501  1.00  0.00     0.338 C 
ATOM     25  O   UNL A   1      35.506  28.978  26.750  1.00  0.00    -0.246 OA
BRANCH  24  26
ATOM     26  C   UNL A   1      35.866  30.217  28.698  1.00  0.00     0.060 A 
ATOM     27  C   UNL A   1      35.917  29.560  29.950  1.00  0.00     0.016 A 
ATOM     28  C   UNL A   1      36.975  30.827  28.309  1.00  0.00     0.016 A 
ATOM     29  C   UNL A   1      37.199  29.317  30.525  1.00  0.00     0.010 A 
ATOM     30  C   UNL A   1      37.907  29.882  28.434  1.00  0.00     0.010 A 
ATOM     31  C   UNL A   1      38.271  29.462  29.669  1.00  0.00    -0.014 A 
BRANCH  31  32
ATOM     32  C   UNL A   1      39.723  29.197  29.588  1.00  0.00     0.031 A 
ATOM     33  C   UNL A   1      40.146  27.899  29.067  1.00  0.00     0.074 A 
ATOM     34  C   UNL A   1      40.543  30.306  29.661  1.00  0.00     0.049 A 
ATOM     35  N   UNL A   1      40.767  26.975  29.717  1.00  0.00    -0.248 NA
ATOM     36  C   UNL A   1      39.821  27.526  27.684  1.00  0.00     0.031 C 
ATOM     37  C   UNL A   1      41.940  30.603  29.420  1.00  0.00     0.029 A 
ATOM     38  N   UNL A   1      40.084  31.613  30.000  1.00  0.00    -0.354 N 
ATOM     39  C   UNL A   1      41.321  26.188  28.721  1.00  0.00     0.074 A 
ATOM     40  C   UNL A   1      40.469  26.366  27.559  1.00  0.00     0.031 C 
ATOM     41  C   UNL A   1      42.237  31.776  30.048  1.00  0.00     0.029 A 
ATOM     42  C   UNL A   1      41.035  32.280  30.728  1.00  0.00     0.049 A 
ATOM     43  H   UNL A   1      39.207  31.985  29.748  1.00  0.00     0.167 HD
ATOM     44  C   UNL A   1      42.681  26.033  28.642  1.00  0.00     0.037 A 
ATOM     45  C   UNL A   1      40.681  32.399  32.040  1.00  0.00     0.037 A 
ATOM     46  C   UNL A   1      43.383  27.013  29.488  1.00  0.00     0.049 A 
ATOM     47  C   UNL A   1      41.418  31.340  32.820  1.00  0.00     0.074 A 
ATOM     48  C   UNL A   1      44.240  28.075  29.251  1.00  0.00     0.029 A 
ATOM     49  N   UNL A   1      42.993  27.172  30.806  1.00  0.00    -0.354 N 
ATOM     50  N   UNL A   1      42.206  30.457  32.275  1.00  0.00    -0.248 NA
ATOM     51  C   UNL A   1      41.264  31.141  34.252  1.00  0.00     0.031 C 
ATOM     52  C   UNL A   1      44.399  28.817  30.465  1.00  0.00     0.029 A 
ATOM     53  C   UNL A   1      43.619  28.223  31.439  1.00  0.00     0.049 A 
ATOM     54  H   UNL A   1      42.332  26.591  31.248  1.00  0.00     0.167 HD
ATOM     55  C   UNL A   1      42.576  29.529  33.192  1.00  0.00     0.074 A 
ATOM     56  C   UNL A   1      41.962  30.005  34.426  1.00  0.00     0.031 C 
ATOM     57  C   UNL A   1      43.323  28.436  32.853  1.00  0.00     0.037 A 
BRANCH  44  58
ATOM     58  C   UNL A   1      43.344  25.176  27.578  1.00  0.00     0.058 A 
ATOM     59  C   UNL A   1      43.844  25.735  26.386  1.00  0.00     0.135 A 
ATOM     60  C   UNL A   1      43.616  23.794  27.741  1.00  0.00     0.135 A 
ATOM     61  F   UNL A   1      43.738  27.043  26.123  1.00  0.00    -0.206 F 
ATOM     62  C   UNL A   1      44.507  24.988  25.414  1.00  0.00     0.059 A 
ATOM     63  C   UNL A   1      44.252  23.017  26.765  1.00  0.00     0.059 A 
ATOM     64  F   UNL A   1      43.304  23.153  28.879  1.00  0.00    -0.206 F 
ATOM     65  C   UNL A   1      44.705  23.629  25.606  1.00  0.00     0.060 A 
BRANCH  65  66
ATOM     66  S   UNL A   1      45.603  22.708  24.343  1.00  0.00     0.124 S 
ATOM     67  O   UNL A   1      44.530  22.299  23.442  1.00  0.00    -0.237 OA
ATOM     68  O   UNL A   1      46.515  23.721  23.824  1.00  0.00    -0.237 OA
ATOM     69  O   UNL A   1      46.231  21.624  25.093  1.00  0.00    -0.744 OA
ENDBRANCH  65  66
ENDBRANCH  44  58
BRANCH  45  70
ATOM     70  C   UNL A   1      39.197  32.746  32.249  1.00  0.00     0.058 A 
ATOM     71  C   UNL A   1      38.689  33.984  31.782  1.00  0.00     0.135 A 
ATOM     72  C   UNL A   1      38.219  31.795  32.612  1.00  0.00     0.135 A 
ATOM     73  F   UNL A   1      39.532  34.928  31.331  1.00  0.00    -0.206 F 
ATOM     74  C   UNL A   1      37.318  34.249  31.653  1.00  0.00     0.059 A 
ATOM     75  C   UNL A   1      36.837  32.040  32.494  1.00  0.00     0.059 A 
ATOM     76  F   UNL A   1      38.584  30.563  32.993  1.00  0.00    -0.206 F 
ATOM     77  C   UNL A   1      36.394  33.265  31.999  1.00  0.00     0.060 A 
BRANCH  77  78
ATOM     78  S   UNL A   1      34.652  33.527  31.551  1.00  0.00     0.124 S 
ATOM     79  O   UNL A   1      33.965  32.685  32.522  1.00  0.00    -0.237 OA
ATOM     80  O   UNL A   1      34.515  34.967  31.758  1.00  0.00    -0.237 OA
ATOM     81  O   UNL A   1      34.585  33.086  30.163  1.00  0.00    -0.744 OA
ENDBRANCH  77  78
ENDBRANCH  45  70
BRANCH  57  82
ATOM     82  C   UNL A   1      43.798  27.425  33.858  1.00  0.00     0.058 A 
ATOM     83  C   UNL A   1      45.159  27.234  34.134  1.00  0.00     0.135 A 
ATOM     84  C   UNL A   1      42.913  26.532  34.509  1.00  0.00     0.135 A 
ATOM     85  F   UNL A   1      46.107  27.891  33.448  1.00  0.00    -0.206 F 
ATOM     86  C   UNL A   1      45.599  26.328  35.092  1.00  0.00     0.059 A 
ATOM     87  C   UNL A   1      43.333  25.579  35.419  1.00  0.00     0.059 A 
ATOM     88  F   UNL A   1      41.591  26.536  34.304  1.00  0.00    -0.206 F 
ATOM     89  C   UNL A   1      44.675  25.512  35.736  1.00  0.00     0.060 A 
BRANCH  89  90
ATOM     90  S   UNL A   1      45.246  24.325  36.951  1.00  0.00     0.124 S 
ATOM     91  O   UNL A   1      44.857  23.055  36.344  1.00  0.00    -0.237 OA
ATOM     92  O   UNL A   1      46.677  24.604  36.977  1.00  0.00    -0.237 OA
ATOM     93  O   UNL A   1      44.510  24.688  38.158  1.00  0.00    -0.744 OA
ENDBRANCH  89  90
ENDBRANCH  57  82
ENDBRANCH  31  32
ENDBRANCH  24  26
ENDBRANCH  23  24
ENDBRANCH  22  23
ENDBRANCH   1  22
TORSDOF 18
ENDMDL
