MODEL 1
REMARK VINA RESULT:     -10.3      0.000      0.000
REMARK SMILES CCc1ccc2c(c1)C=C(C(=O)OCCOC(=O)c1ccc(-c3c4nc(c(-c5c(F)cc(S(=O)(=O)[O-])cc5F)c5ccc([nH]5)c(-c5c(F)cc(S(=O)(=O)[O-])cc5F)c5nc(c(-c6c(F)cc(S(=O)(=O)[O-])cc6F)c6ccc3[nH]6)C=C5)C=C4)cc1)[C@H](C(F)(F)F)O2
REMARK SMILES IDX 15 1 14 2 13 3 11 4 12 5 10 6 3 7 4 8 8 9 5 10 7 11 6 12
REMARK SMILES IDX 9 13 90 14 85 15 2 16 1 17 86 18 87 19 88 20 89 21 16 22
REMARK SMILES IDX 17 23 18 24 19 25 20 26 84 27 21 28 83 29 22 30 23 31 24 32
REMARK SMILES IDX 77 33 25 34 82 35 76 36 78 37 26 38 81 39 75 40 74 41 27 43
REMARK SMILES IDX 61 44 40 45 60 46 41 47 44 48 59 49 79 50 42 51 43 52 58 54
REMARK SMILES IDX 80 55 45 56 28 57 29 58 38 59 30 60 31 61 37 62 39 63 32 64
REMARK SMILES IDX 33 65 34 66 35 67 36 68 62 69 63 70 72 71 64 72 65 73 71 74
REMARK SMILES IDX 73 75 66 76 67 77 68 78 69 79 70 80 46 81 47 82 56 83 48 84
REMARK SMILES IDX 49 85 55 86 57 87 50 88 51 89 52 90 53 91 54 92
REMARK H PARENT 78 42 44 53
REMARK Flexibility Score: inf
ROOT
ATOM      1  C   UNL A   1      32.680  32.098  27.560  1.00  0.00     0.275 C 
ENDROOT
BRANCH   1   2
ATOM      2  C   UNL A   1      32.546  33.624  27.559  1.00  0.00     0.275 C 
BRANCH   2   3
ATOM      3  O   UNL A   1      32.629  34.173  28.891  1.00  0.00    -0.459 OA
BRANCH   3   4
ATOM      4  C   UNL A   1      33.770  34.854  29.183  1.00  0.00     0.338 C 
ATOM      5  O   UNL A   1      34.271  35.707  28.479  1.00  0.00    -0.246 OA
BRANCH   4   6
ATOM      6  C   UNL A   1      34.337  34.448  30.494  1.00  0.00     0.087 C 
ATOM      7  C   UNL A   1      37.488  32.002  33.252  1.00  0.00    -0.047 A 
ATOM      8  C   UNL A   1      36.952  32.646  34.380  1.00  0.00     0.007 A 
ATOM      9  C   UNL A   1      36.951  32.301  31.987  1.00  0.00     0.015 A 
ATOM     10  C   UNL A   1      35.965  33.619  34.243  1.00  0.00     0.047 A 
ATOM     11  C   UNL A   1      35.946  33.268  31.845  1.00  0.00     0.018 A 
ATOM     12  C   UNL A   1      35.482  33.936  32.979  1.00  0.00     0.128 A 
ATOM     13  C   UNL A   1      35.412  33.640  30.536  1.00  0.00     0.027 C 
ATOM     14  O   UNL A   1      34.606  34.981  32.903  1.00  0.00    -0.475 OA
ATOM     15  C   UNL A   1      33.687  34.949  31.776  1.00  0.00     0.316 C 
BRANCH   7  16
ATOM     16  C   UNL A   1      38.621  31.025  33.475  1.00  0.00     0.032 C 
ATOM     17  C   UNL A   1      38.338  29.566  33.142  1.00  0.00     0.009 C 
ENDBRANCH   7  16
BRANCH  15  18
ATOM     18  C   UNL A   1      32.948  36.301  31.758  1.00  0.00     0.430 C 
ATOM     19  F   UNL A   1      31.790  36.241  31.064  1.00  0.00    -0.167 F 
ATOM     20  F   UNL A   1      32.597  36.657  33.023  1.00  0.00    -0.167 F 
ATOM     21  F   UNL A   1      33.709  37.300  31.262  1.00  0.00    -0.167 F 
ENDBRANCH  15  18
ENDBRANCH   4   6
ENDBRANCH   3   4
ENDBRANCH   2   3
ENDBRANCH   1   2
BRANCH   1  22
ATOM     22  O   UNL A   1      34.024  31.681  27.862  1.00  0.00    -0.458 OA
BRANCH  22  23
ATOM     23  C   UNL A   1      34.234  30.343  27.792  1.00  0.00     0.338 C 
ATOM     24  O   UNL A   1      33.484  29.513  27.300  1.00  0.00    -0.246 OA
BRANCH  23  25
ATOM     25  C   UNL A   1      35.611  30.025  28.214  1.00  0.00     0.060 A 
ATOM     26  C   UNL A   1      36.598  30.091  27.226  1.00  0.00     0.016 A 
ATOM     27  C   UNL A   1      35.951  29.659  29.517  1.00  0.00     0.016 A 
ATOM     28  C   UNL A   1      37.937  29.878  27.544  1.00  0.00     0.010 A 
ATOM     29  C   UNL A   1      37.292  29.384  29.826  1.00  0.00     0.010 A 
ATOM     30  C   UNL A   1      38.293  29.509  28.845  1.00  0.00    -0.014 A 
BRANCH  30  31
ATOM     31  C   UNL A   1      39.701  29.144  29.132  1.00  0.00     0.031 A 
ATOM     32  C   UNL A   1      40.601  30.162  29.772  1.00  0.00     0.074 A 
ATOM     33  C   UNL A   1      40.162  27.906  28.872  1.00  0.00     0.049 A 
ATOM     34  N   UNL A   1      41.868  30.073  30.082  1.00  0.00    -0.248 NA
ATOM     35  C   UNL A   1      39.983  31.452  30.121  1.00  0.00     0.031 C 
ATOM     36  C   UNL A   1      39.365  26.805  28.333  1.00  0.00     0.029 A 
ATOM     37  N   UNL A   1      41.417  27.369  29.028  1.00  0.00    -0.354 N 
ATOM     38  C   UNL A   1      42.202  31.289  30.662  1.00  0.00     0.074 A 
ATOM     39  C   UNL A   1      41.007  32.107  30.648  1.00  0.00     0.031 C 
ATOM     40  C   UNL A   1      40.157  25.729  28.179  1.00  0.00     0.029 A 
ATOM     41  C   UNL A   1      41.522  26.074  28.575  1.00  0.00     0.049 A 
ATOM     42  H   UNL A   1      42.169  27.865  29.424  1.00  0.00     0.167 HD
ATOM     43  C   UNL A   1      43.397  31.688  31.160  1.00  0.00     0.037 A 
ATOM     44  C   UNL A   1      42.603  25.273  28.467  1.00  0.00     0.037 A 
ATOM     45  C   UNL A   1      44.589  30.880  31.147  1.00  0.00     0.049 A 
ATOM     46  C   UNL A   1      43.949  25.782  28.924  1.00  0.00     0.074 A 
ATOM     47  C   UNL A   1      45.851  31.204  31.611  1.00  0.00     0.029 A 
ATOM     48  N   UNL A   1      44.672  29.596  30.628  1.00  0.00    -0.354 N 
ATOM     49  N   UNL A   1      44.256  26.934  29.473  1.00  0.00    -0.248 NA
ATOM     50  C   UNL A   1      45.099  24.882  28.745  1.00  0.00     0.031 C 
ATOM     51  C   UNL A   1      46.712  30.140  31.319  1.00  0.00     0.029 A 
ATOM     52  C   UNL A   1      45.972  29.125  30.735  1.00  0.00     0.049 A 
ATOM     53  H   UNL A   1      43.919  29.092  30.242  1.00  0.00     0.167 HD
ATOM     54  C   UNL A   1      45.621  26.882  29.738  1.00  0.00     0.074 A 
ATOM     55  C   UNL A   1      46.082  25.583  29.294  1.00  0.00     0.031 C 
ATOM     56  C   UNL A   1      46.420  27.823  30.303  1.00  0.00     0.037 A 
BRANCH  43  57
ATOM     57  C   UNL A   1      43.486  33.084  31.713  1.00  0.00     0.058 A 
ATOM     58  C   UNL A   1      43.731  34.194  30.891  1.00  0.00     0.135 A 
ATOM     59  C   UNL A   1      43.300  33.312  33.087  1.00  0.00     0.135 A 
ATOM     60  F   UNL A   1      43.939  34.031  29.575  1.00  0.00    -0.206 F 
ATOM     61  C   UNL A   1      43.814  35.481  31.416  1.00  0.00     0.059 A 
ATOM     62  C   UNL A   1      43.349  34.593  33.627  1.00  0.00     0.059 A 
ATOM     63  F   UNL A   1      43.067  32.284  33.918  1.00  0.00    -0.206 F 
ATOM     64  C   UNL A   1      43.622  35.670  32.786  1.00  0.00     0.060 A 
BRANCH  64  65
ATOM     65  S   UNL A   1      43.735  37.343  33.450  1.00  0.00     0.124 S 
ATOM     66  O   UNL A   1      42.472  37.456  34.175  1.00  0.00    -0.237 OA
ATOM     67  O   UNL A   1      44.935  37.272  34.276  1.00  0.00    -0.237 OA
ATOM     68  O   UNL A   1      43.847  38.177  32.257  1.00  0.00    -0.744 OA
ENDBRANCH  64  65
ENDBRANCH  43  57
BRANCH  44  69
ATOM     69  C   UNL A   1      42.472  23.915  27.868  1.00  0.00     0.058 A 
ATOM     70  C   UNL A   1      42.454  22.762  28.667  1.00  0.00     0.135 A 
ATOM     71  C   UNL A   1      42.394  23.741  26.477  1.00  0.00     0.135 A 
ATOM     72  F   UNL A   1      42.547  22.869  30.001  1.00  0.00    -0.206 F 
ATOM     73  C   UNL A   1      42.381  21.488  28.111  1.00  0.00     0.059 A 
ATOM     74  C   UNL A   1      42.289  22.480  25.898  1.00  0.00     0.059 A 
ATOM     75  F   UNL A   1      42.407  24.810  25.663  1.00  0.00    -0.206 F 
ATOM     76  C   UNL A   1      42.297  21.357  26.723  1.00  0.00     0.060 A 
BRANCH  76  77
ATOM     77  S   UNL A   1      42.173  19.700  26.013  1.00  0.00     0.124 S 
ATOM     78  O   UNL A   1      42.537  18.864  27.151  1.00  0.00    -0.237 OA
ATOM     79  O   UNL A   1      40.773  19.647  25.604  1.00  0.00    -0.237 OA
ATOM     80  O   UNL A   1      43.139  19.730  24.918  1.00  0.00    -0.744 OA
ENDBRANCH  76  77
ENDBRANCH  44  69
BRANCH  56  81
ATOM     81  C   UNL A   1      47.869  27.475  30.527  1.00  0.00     0.058 A 
ATOM     82  C   UNL A   1      48.303  26.794  31.675  1.00  0.00     0.135 A 
ATOM     83  C   UNL A   1      48.827  27.770  29.542  1.00  0.00     0.135 A 
ATOM     84  F   UNL A   1      47.434  26.490  32.651  1.00  0.00    -0.206 F 
ATOM     85  C   UNL A   1      49.638  26.435  31.846  1.00  0.00     0.059 A 
ATOM     86  C   UNL A   1      50.160  27.393  29.678  1.00  0.00     0.059 A 
ATOM     87  F   UNL A   1      48.467  28.411  28.418  1.00  0.00    -0.206 F 
ATOM     88  C   UNL A   1      50.558  26.734  30.839  1.00  0.00     0.060 A 
BRANCH  88  89
ATOM     89  S   UNL A   1      52.277  26.223  31.056  1.00  0.00     0.124 S 
ATOM     90  O   UNL A   1      52.799  27.294  31.898  1.00  0.00    -0.237 OA
ATOM     91  O   UNL A   1      52.136  24.921  31.700  1.00  0.00    -0.237 OA
ATOM     92  O   UNL A   1      52.796  26.188  29.692  1.00  0.00    -0.744 OA
ENDBRANCH  88  89
ENDBRANCH  56  81
ENDBRANCH  30  31
ENDBRANCH  23  25
ENDBRANCH  22  23
ENDBRANCH   1  22
TORSDOF 16
ENDMDL
MODEL 2
REMARK VINA RESULT:     -10.1      4.984     11.695
REMARK SMILES CCc1ccc2c(c1)C=C(C(=O)OCCOC(=O)c1ccc(-c3c4nc(c(-c5c(F)cc(S(=O)(=O)[O-])cc5F)c5ccc([nH]5)c(-c5c(F)cc(S(=O)(=O)[O-])cc5F)c5nc(c(-c6c(F)cc(S(=O)(=O)[O-])cc6F)c6ccc3[nH]6)C=C5)C=C4)cc1)[C@H](C(F)(F)F)O2
REMARK SMILES IDX 15 1 14 2 13 3 11 4 12 5 10 6 3 7 4 8 8 9 5 10 7 11 6 12
REMARK SMILES IDX 9 13 90 14 85 15 2 16 1 17 86 18 87 19 88 20 89 21 16 22
REMARK SMILES IDX 17 23 18 24 19 25 20 26 84 27 21 28 83 29 22 30 23 31 24 32
REMARK SMILES IDX 77 33 25 34 82 35 76 36 78 37 26 38 81 39 75 40 74 41 27 43
REMARK SMILES IDX 61 44 40 45 60 46 41 47 44 48 59 49 79 50 42 51 43 52 58 54
REMARK SMILES IDX 80 55 45 56 28 57 29 58 38 59 30 60 31 61 37 62 39 63 32 64
REMARK SMILES IDX 33 65 34 66 35 67 36 68 62 69 63 70 72 71 64 72 65 73 71 74
REMARK SMILES IDX 73 75 66 76 67 77 68 78 69 79 70 80 46 81 47 82 56 83 48 84
REMARK SMILES IDX 49 85 55 86 57 87 50 88 51 89 52 90 53 91 54 92
REMARK H PARENT 78 42 44 53
REMARK Flexibility Score: inf
ROOT
ATOM      1  C   UNL A   1      38.785  22.832  26.158  1.00  0.00     0.275 C 
ENDROOT
BRANCH   1   2
ATOM      2  C   UNL A   1      37.405  22.659  25.514  1.00  0.00     0.275 C 
BRANCH   2   3
ATOM      3  O   UNL A   1      36.530  23.767  25.811  1.00  0.00    -0.459 OA
BRANCH   3   4
ATOM      4  C   UNL A   1      35.223  23.451  26.021  1.00  0.00     0.338 C 
ATOM      5  O   UNL A   1      34.831  22.492  26.653  1.00  0.00    -0.246 OA
BRANCH   4   6
ATOM      6  C   UNL A   1      34.308  24.441  25.398  1.00  0.00     0.087 C 
ATOM      7  C   UNL A   1      32.109  28.760  25.222  1.00  0.00    -0.047 A 
ATOM      8  C   UNL A   1      31.568  28.398  23.976  1.00  0.00     0.007 A 
ATOM      9  C   UNL A   1      32.936  27.840  25.889  1.00  0.00     0.015 A 
ATOM     10  C   UNL A   1      31.905  27.187  23.377  1.00  0.00     0.047 A 
ATOM     11  C   UNL A   1      33.267  26.612  25.298  1.00  0.00     0.018 A 
ATOM     12  C   UNL A   1      32.765  26.311  24.031  1.00  0.00     0.128 A 
ATOM     13  C   UNL A   1      34.172  25.663  25.944  1.00  0.00     0.027 C 
ATOM     14  O   UNL A   1      33.151  25.201  23.337  1.00  0.00    -0.475 OA
ATOM     15  C   UNL A   1      33.528  24.054  24.149  1.00  0.00     0.316 C 
BRANCH   7  16
ATOM     16  C   UNL A   1      31.766  30.129  25.763  1.00  0.00     0.032 C 
ATOM     17  C   UNL A   1      32.635  30.650  26.900  1.00  0.00     0.009 C 
ENDBRANCH   7  16
BRANCH  15  18
ATOM     18  C   UNL A   1      34.126  23.003  23.193  1.00  0.00     0.430 C 
ATOM     19  F   UNL A   1      34.000  21.745  23.673  1.00  0.00    -0.167 F 
ATOM     20  F   UNL A   1      33.452  23.010  22.012  1.00  0.00    -0.167 F 
ATOM     21  F   UNL A   1      35.425  23.239  22.910  1.00  0.00    -0.167 F 
ENDBRANCH  15  18
ENDBRANCH   4   6
ENDBRANCH   3   4
ENDBRANCH   2   3
ENDBRANCH   1   2
BRANCH   1  22
ATOM     22  O   UNL A   1      39.028  24.198  26.538  1.00  0.00    -0.458 OA
BRANCH  22  23
ATOM     23  C   UNL A   1      40.321  24.486  26.829  1.00  0.00     0.338 C 
ATOM     24  O   UNL A   1      41.310  24.064  26.247  1.00  0.00    -0.246 OA
BRANCH  23  25
ATOM     25  C   UNL A   1      40.384  25.562  27.837  1.00  0.00     0.060 A 
ATOM     26  C   UNL A   1      39.322  25.632  28.743  1.00  0.00     0.016 A 
ATOM     27  C   UNL A   1      41.424  26.490  27.906  1.00  0.00     0.016 A 
ATOM     28  C   UNL A   1      39.329  26.569  29.773  1.00  0.00     0.010 A 
ATOM     29  C   UNL A   1      41.402  27.473  28.907  1.00  0.00     0.010 A 
ATOM     30  C   UNL A   1      40.364  27.506  29.855  1.00  0.00    -0.014 A 
BRANCH  30  31
ATOM     31  C   UNL A   1      40.281  28.586  30.868  1.00  0.00     0.031 A 
ATOM     32  C   UNL A   1      41.188  28.533  32.064  1.00  0.00     0.074 A 
ATOM     33  C   UNL A   1      39.444  29.627  30.703  1.00  0.00     0.049 A 
ATOM     34  N   UNL A   1      41.266  29.347  33.084  1.00  0.00    -0.248 NA
ATOM     35  C   UNL A   1      42.147  27.417  32.108  1.00  0.00     0.031 C 
ATOM     36  C   UNL A   1      38.576  29.836  29.544  1.00  0.00     0.029 A 
ATOM     37  N   UNL A   1      39.187  30.705  31.515  1.00  0.00    -0.354 N 
ATOM     38  C   UNL A   1      42.278  28.847  33.891  1.00  0.00     0.074 A 
ATOM     39  C   UNL A   1      42.777  27.648  33.249  1.00  0.00     0.031 C 
ATOM     40  C   UNL A   1      37.864  30.962  29.733  1.00  0.00     0.029 A 
ATOM     41  C   UNL A   1      38.198  31.533  31.037  1.00  0.00     0.049 A 
ATOM     42  H   UNL A   1      39.665  30.868  32.360  1.00  0.00     0.167 HD
ATOM     43  C   UNL A   1      42.748  29.340  35.062  1.00  0.00     0.037 A 
ATOM     44  C   UNL A   1      37.611  32.608  31.603  1.00  0.00     0.037 A 
ATOM     45  C   UNL A   1      42.229  30.517  35.709  1.00  0.00     0.049 A 
ATOM     46  C   UNL A   1      38.075  33.073  32.962  1.00  0.00     0.074 A 
ATOM     47  C   UNL A   1      42.627  31.086  36.906  1.00  0.00     0.029 A 
ATOM     48  N   UNL A   1      41.189  31.297  35.224  1.00  0.00    -0.354 N 
ATOM     49  N   UNL A   1      39.035  32.594  33.718  1.00  0.00    -0.248 NA
ATOM     50  C   UNL A   1      37.374  34.226  33.549  1.00  0.00     0.031 C 
ATOM     51  C   UNL A   1      41.789  32.172  37.176  1.00  0.00     0.029 A 
ATOM     52  C   UNL A   1      40.913  32.324  36.114  1.00  0.00     0.049 A 
ATOM     53  H   UNL A   1      40.717  31.145  34.374  1.00  0.00     0.167 HD
ATOM     54  C   UNL A   1      39.077  33.408  34.847  1.00  0.00     0.074 A 
ATOM     55  C   UNL A   1      38.049  34.413  34.675  1.00  0.00     0.031 C 
ATOM     56  C   UNL A   1      39.896  33.331  35.927  1.00  0.00     0.037 A 
BRANCH  43  57
ATOM     57  C   UNL A   1      43.847  28.575  35.746  1.00  0.00     0.058 A 
ATOM     58  C   UNL A   1      43.577  27.542  36.657  1.00  0.00     0.135 A 
ATOM     59  C   UNL A   1      45.192  28.866  35.464  1.00  0.00     0.135 A 
ATOM     60  F   UNL A   1      42.310  27.236  36.979  1.00  0.00    -0.206 F 
ATOM     61  C   UNL A   1      44.604  26.843  37.285  1.00  0.00     0.059 A 
ATOM     62  C   UNL A   1      46.232  28.160  36.059  1.00  0.00     0.059 A 
ATOM     63  F   UNL A   1      45.505  29.848  34.604  1.00  0.00    -0.206 F 
ATOM     64  C   UNL A   1      45.928  27.160  36.980  1.00  0.00     0.060 A 
BRANCH  64  65
ATOM     65  S   UNL A   1      47.246  26.245  37.805  1.00  0.00     0.124 S 
ATOM     66  O   UNL A   1      47.939  27.313  38.521  1.00  0.00    -0.237 OA
ATOM     67  O   UNL A   1      46.501  25.305  38.636  1.00  0.00    -0.237 OA
ATOM     68  O   UNL A   1      47.990  25.647  36.701  1.00  0.00    -0.744 OA
ENDBRANCH  64  65
ENDBRANCH  43  57
BRANCH  44  69
ATOM     69  C   UNL A   1      36.494  33.306  30.906  1.00  0.00     0.058 A 
ATOM     70  C   UNL A   1      36.727  34.141  29.802  1.00  0.00     0.135 A 
ATOM     71  C   UNL A   1      35.168  33.174  31.351  1.00  0.00     0.135 A 
ATOM     72  F   UNL A   1      37.977  34.318  29.349  1.00  0.00    -0.206 F 
ATOM     73  C   UNL A   1      35.693  34.833  29.178  1.00  0.00     0.059 A 
ATOM     74  C   UNL A   1      34.114  33.831  30.725  1.00  0.00     0.059 A 
ATOM     75  F   UNL A   1      34.887  32.389  32.403  1.00  0.00    -0.206 F 
ATOM     76  C   UNL A   1      34.387  34.670  29.646  1.00  0.00     0.060 A 
BRANCH  76  77
ATOM     77  S   UNL A   1      33.049  35.549  28.810  1.00  0.00     0.124 S 
ATOM     78  O   UNL A   1      32.300  36.090  29.938  1.00  0.00    -0.237 OA
ATOM     79  O   UNL A   1      33.779  36.522  28.004  1.00  0.00    -0.237 OA
ATOM     80  O   UNL A   1      32.377  34.497  28.053  1.00  0.00    -0.744 OA
ENDBRANCH  76  77
ENDBRANCH  44  69
BRANCH  56  81
ATOM     81  C   UNL A   1      39.760  34.390  36.991  1.00  0.00     0.058 A 
ATOM     82  C   UNL A   1      38.986  34.193  38.145  1.00  0.00     0.135 A 
ATOM     83  C   UNL A   1      40.476  35.595  36.884  1.00  0.00     0.135 A 
ATOM     84  F   UNL A   1      38.278  33.063  38.300  1.00  0.00    -0.206 F 
ATOM     85  C   UNL A   1      38.910  35.160  39.144  1.00  0.00     0.059 A 
ATOM     86  C   UNL A   1      40.439  36.562  37.883  1.00  0.00     0.059 A 
ATOM     87  F   UNL A   1      41.242  35.833  35.807  1.00  0.00    -0.206 F 
ATOM     88  C   UNL A   1      39.645  36.340  39.007  1.00  0.00     0.060 A 
BRANCH  88  89
ATOM     89  S   UNL A   1      39.571  37.566  40.331  1.00  0.00     0.124 S 
ATOM     90  O   UNL A   1      40.984  37.885  40.516  1.00  0.00    -0.237 OA
ATOM     91  O   UNL A   1      38.756  38.620  39.735  1.00  0.00    -0.237 OA
ATOM     92  O   UNL A   1      38.943  36.842  41.432  1.00  0.00    -0.744 OA
ENDBRANCH  88  89
ENDBRANCH  56  81
ENDBRANCH  30  31
ENDBRANCH  23  25
ENDBRANCH  22  23
ENDBRANCH   1  22
TORSDOF 16
ENDMDL
MODEL 3
REMARK VINA RESULT:     -10.1      3.386      6.019
REMARK SMILES CCc1ccc2c(c1)C=C(C(=O)OCCOC(=O)c1ccc(-c3c4nc(c(-c5c(F)cc(S(=O)(=O)[O-])cc5F)c5ccc([nH]5)c(-c5c(F)cc(S(=O)(=O)[O-])cc5F)c5nc(c(-c6c(F)cc(S(=O)(=O)[O-])cc6F)c6ccc3[nH]6)C=C5)C=C4)cc1)[C@H](C(F)(F)F)O2
REMARK SMILES IDX 15 1 14 2 13 3 11 4 12 5 10 6 3 7 4 8 8 9 5 10 7 11 6 12
REMARK SMILES IDX 9 13 90 14 85 15 2 16 1 17 86 18 87 19 88 20 89 21 16 22
REMARK SMILES IDX 17 23 18 24 19 25 20 26 84 27 21 28 83 29 22 30 23 31 24 32
REMARK SMILES IDX 77 33 25 34 82 35 76 36 78 37 26 38 81 39 75 40 74 41 27 43
REMARK SMILES IDX 61 44 40 45 60 46 41 47 44 48 59 49 79 50 42 51 43 52 58 54
REMARK SMILES IDX 80 55 45 56 28 57 29 58 38 59 30 60 31 61 37 62 39 63 32 64
REMARK SMILES IDX 33 65 34 66 35 67 36 68 62 69 63 70 72 71 64 72 65 73 71 74
REMARK SMILES IDX 73 75 66 76 67 77 68 78 69 79 70 80 46 81 47 82 56 83 48 84
REMARK SMILES IDX 49 85 55 86 57 87 50 88 51 89 52 90 53 91 54 92
REMARK H PARENT 78 42 44 53
REMARK Flexibility Score: inf
ROOT
ATOM      1  C   UNL A   1      32.426  29.120  27.204  1.00  0.00     0.275 C 
ENDROOT
BRANCH   1   2
ATOM      2  C   UNL A   1      32.165  28.423  25.864  1.00  0.00     0.275 C 
BRANCH   2   3
ATOM      3  O   UNL A   1      33.167  27.427  25.571  1.00  0.00    -0.459 OA
BRANCH   3   4
ATOM      4  C   UNL A   1      33.032  26.781  24.382  1.00  0.00     0.338 C 
ATOM      5  O   UNL A   1      32.588  27.277  23.366  1.00  0.00    -0.246 OA
BRANCH   4   6
ATOM      6  C   UNL A   1      33.516  25.379  24.455  1.00  0.00     0.087 C 
ATOM      7  C   UNL A   1      36.952  22.044  25.227  1.00  0.00    -0.047 A 
ATOM      8  C   UNL A   1      35.975  21.046  25.064  1.00  0.00     0.007 A 
ATOM      9  C   UNL A   1      36.565  23.390  25.109  1.00  0.00     0.015 A 
ATOM     10  C   UNL A   1      34.638  21.383  24.869  1.00  0.00     0.047 A 
ATOM     11  C   UNL A   1      35.222  23.735  24.896  1.00  0.00     0.018 A 
ATOM     12  C   UNL A   1      34.268  22.722  24.804  1.00  0.00     0.128 A 
ATOM     13  C   UNL A   1      34.785  25.129  24.829  1.00  0.00     0.027 C 
ATOM     14  O   UNL A   1      32.930  22.984  24.735  1.00  0.00    -0.475 OA
ATOM     15  C   UNL A   1      32.569  24.242  24.100  1.00  0.00     0.316 C 
BRANCH   7  16
ATOM     16  C   UNL A   1      38.366  21.599  25.526  1.00  0.00     0.032 C 
ATOM     17  C   UNL A   1      39.177  22.487  26.460  1.00  0.00     0.009 C 
ENDBRANCH   7  16
BRANCH  15  18
ATOM     18  C   UNL A   1      31.055  24.437  24.316  1.00  0.00     0.430 C 
ATOM     19  F   UNL A   1      30.401  23.261  24.440  1.00  0.00    -0.167 F 
ATOM     20  F   UNL A   1      30.833  25.102  25.482  1.00  0.00    -0.167 F 
ATOM     21  F   UNL A   1      30.481  25.161  23.332  1.00  0.00    -0.167 F 
ENDBRANCH  15  18
ENDBRANCH   4   6
ENDBRANCH   3   4
ENDBRANCH   2   3
ENDBRANCH   1   2
BRANCH   1  22
ATOM     22  O   UNL A   1      33.784  28.941  27.643  1.00  0.00    -0.458 OA
BRANCH  22  23
ATOM     23  C   UNL A   1      34.452  30.091  27.907  1.00  0.00     0.338 C 
ATOM     24  O   UNL A   1      33.966  31.207  28.015  1.00  0.00    -0.246 OA
BRANCH  23  25
ATOM     25  C   UNL A   1      35.853  29.791  28.262  1.00  0.00     0.060 A 
ATOM     26  C   UNL A   1      36.793  29.894  27.233  1.00  0.00     0.016 A 
ATOM     27  C   UNL A   1      36.256  29.407  29.542  1.00  0.00     0.016 A 
ATOM     28  C   UNL A   1      38.148  29.700  27.488  1.00  0.00     0.010 A 
ATOM     29  C   UNL A   1      37.614  29.152  29.786  1.00  0.00     0.010 A 
ATOM     30  C   UNL A   1      38.568  29.314  28.765  1.00  0.00    -0.014 A 
BRANCH  30  31
ATOM     31  C   UNL A   1      39.994  28.970  28.983  1.00  0.00     0.031 A 
ATOM     32  C   UNL A   1      40.912  30.006  29.565  1.00  0.00     0.074 A 
ATOM     33  C   UNL A   1      40.457  27.735  28.712  1.00  0.00     0.049 A 
ATOM     34  N   UNL A   1      42.194  29.936  29.811  1.00  0.00    -0.248 NA
ATOM     35  C   UNL A   1      40.296  31.292  29.933  1.00  0.00     0.031 C 
ATOM     36  C   UNL A   1      39.648  26.618  28.225  1.00  0.00     0.029 A 
ATOM     37  N   UNL A   1      41.725  27.216  28.808  1.00  0.00    -0.354 N 
ATOM     38  C   UNL A   1      42.542  31.162  30.361  1.00  0.00     0.074 A 
ATOM     39  C   UNL A   1      41.337  31.965  30.400  1.00  0.00     0.031 C 
ATOM     40  C   UNL A   1      40.446  25.551  28.042  1.00  0.00     0.029 A 
ATOM     41  C   UNL A   1      41.825  25.917  28.363  1.00  0.00     0.049 A 
ATOM     42  H   UNL A   1      42.490  27.725  29.160  1.00  0.00     0.167 HD
ATOM     43  C   UNL A   1      43.755  31.582  30.792  1.00  0.00     0.037 A 
ATOM     44  C   UNL A   1      42.909  25.129  28.207  1.00  0.00     0.037 A 
ATOM     45  C   UNL A   1      44.955  30.789  30.726  1.00  0.00     0.049 A 
ATOM     46  C   UNL A   1      44.270  25.660  28.589  1.00  0.00     0.074 A 
ATOM     47  C   UNL A   1      46.236  31.133  31.121  1.00  0.00     0.029 A 
ATOM     48  N   UNL A   1      45.029  29.500  30.217  1.00  0.00    -0.354 N 
ATOM     49  N   UNL A   1      44.589  26.822  29.110  1.00  0.00    -0.248 NA
ATOM     50  C   UNL A   1      45.421  24.773  28.361  1.00  0.00     0.031 C 
ATOM     51  C   UNL A   1      47.094  30.078  30.796  1.00  0.00     0.029 A 
ATOM     52  C   UNL A   1      46.338  29.047  30.261  1.00  0.00     0.049 A 
ATOM     53  H   UNL A   1      44.264  28.983  29.875  1.00  0.00     0.167 HD
ATOM     54  C   UNL A   1      45.967  26.790  29.306  1.00  0.00     0.074 A 
ATOM     55  C   UNL A   1      46.422  25.492  28.851  1.00  0.00     0.031 C 
ATOM     56  C   UNL A   1      46.781  27.747  29.819  1.00  0.00     0.037 A 
BRANCH  43  57
ATOM     57  C   UNL A   1      43.854  32.984  31.326  1.00  0.00     0.058 A 
ATOM     58  C   UNL A   1      43.732  33.268  32.695  1.00  0.00     0.135 A 
ATOM     59  C   UNL A   1      44.097  34.058  30.453  1.00  0.00     0.135 A 
ATOM     60  F   UNL A   1      43.478  32.282  33.572  1.00  0.00    -0.206 F 
ATOM     61  C   UNL A   1      43.822  34.570  33.177  1.00  0.00     0.059 A 
ATOM     62  C   UNL A   1      44.219  35.363  30.917  1.00  0.00     0.059 A 
ATOM     63  F   UNL A   1      44.216  33.842  29.134  1.00  0.00    -0.206 F 
ATOM     64  C   UNL A   1      44.066  35.612  32.279  1.00  0.00     0.060 A 
BRANCH  64  65
ATOM     65  S   UNL A   1      44.177  37.294  32.921  1.00  0.00     0.124 S 
ATOM     66  O   UNL A   1      44.133  38.079  31.690  1.00  0.00    -0.237 OA
ATOM     67  O   UNL A   1      42.994  37.384  33.771  1.00  0.00    -0.237 OA
ATOM     68  O   UNL A   1      45.454  37.307  33.626  1.00  0.00    -0.744 OA
ENDBRANCH  64  65
ENDBRANCH  43  57
BRANCH  44  69
ATOM     69  C   UNL A   1      42.766  23.763  27.629  1.00  0.00     0.058 A 
ATOM     70  C   UNL A   1      42.522  22.646  28.443  1.00  0.00     0.135 A 
ATOM     71  C   UNL A   1      42.900  23.543  26.249  1.00  0.00     0.135 A 
ATOM     72  F   UNL A   1      42.406  22.797  29.771  1.00  0.00    -0.206 F 
ATOM     73  C   UNL A   1      42.437  21.361  27.915  1.00  0.00     0.059 A 
ATOM     74  C   UNL A   1      42.787  22.272  25.693  1.00  0.00     0.059 A 
ATOM     75  F   UNL A   1      43.134  24.575  25.422  1.00  0.00    -0.206 F 
ATOM     76  C   UNL A   1      42.568  21.185  26.535  1.00  0.00     0.060 A 
BRANCH  76  77
ATOM     77  S   UNL A   1      42.425  19.516  25.857  1.00  0.00     0.124 S 
ATOM     78  O   UNL A   1      42.774  18.697  27.012  1.00  0.00    -0.237 OA
ATOM     79  O   UNL A   1      41.026  19.473  25.444  1.00  0.00    -0.237 OA
ATOM     80  O   UNL A   1      43.395  19.513  24.766  1.00  0.00    -0.744 OA
ENDBRANCH  76  77
ENDBRANCH  44  69
BRANCH  56  81
ATOM     81  C   UNL A   1      48.244  27.420  29.972  1.00  0.00     0.058 A 
ATOM     82  C   UNL A   1      49.197  27.795  29.012  1.00  0.00     0.135 A 
ATOM     83  C   UNL A   1      48.707  26.781  31.135  1.00  0.00     0.135 A 
ATOM     84  F   UNL A   1      48.812  28.403  27.879  1.00  0.00    -0.206 F 
ATOM     85  C   UNL A   1      50.553  27.530  29.190  1.00  0.00     0.059 A 
ATOM     86  C   UNL A   1      50.060  26.535  31.349  1.00  0.00     0.059 A 
ATOM     87  F   UNL A   1      47.843  26.410  32.094  1.00  0.00    -0.206 F 
ATOM     88  C   UNL A   1      50.975  26.904  30.365  1.00  0.00     0.060 A 
BRANCH  88  89
ATOM     89  S   UNL A   1      52.741  26.608  30.603  1.00  0.00     0.124 S 
ATOM     90  O   UNL A   1      52.729  25.507  31.561  1.00  0.00    -0.237 OA
ATOM     91  O   UNL A   1      53.184  26.270  29.254  1.00  0.00    -0.237 OA
ATOM     92  O   UNL A   1      53.234  27.882  31.117  1.00  0.00    -0.744 OA
ENDBRANCH  88  89
ENDBRANCH  56  81
ENDBRANCH  30  31
ENDBRANCH  23  25
ENDBRANCH  22  23
ENDBRANCH   1  22
TORSDOF 16
ENDMDL
