MODEL 1
REMARK VINA RESULT:     -11.3      0.000      0.000
REMARK SMILES C[C@@H]1C(=O)NC(=O)CN1C(=O)NC1(CC(=O)OCCOC(=O)c2ccc(-c3c4nc(c(-c5c(F)cc(S(=O)(=O)[O-])cc5F)c5ccc([nH]5)c(-c5c(F)cc(S(=O)(=O)[O-])cc5F)c5nc(c(-c6c(F)cc(S(=O)(=O)[O-])cc6F)c6ccc3[nH]6)C=C5)C=C4)cc2)CCC1
REMARK SMILES IDX 18 1 17 2 15 3 16 4 14 5 13 6 89 7 91 8 90 9 12 10 10 11
REMARK SMILES IDX 11 12 9 14 1 15 2 16 3 17 4 18 5 19 8 20 6 21 7 23 19 24
REMARK SMILES IDX 20 25 21 26 22 27 23 28 24 29 88 30 25 31 87 32 26 33 27 34
REMARK SMILES IDX 28 35 81 36 29 37 86 38 80 39 82 40 30 41 85 42 79 43 78 44
REMARK SMILES IDX 31 46 65 47 44 48 64 49 45 50 48 51 63 52 83 53 46 54 47 55
REMARK SMILES IDX 62 57 84 58 49 59 32 60 33 61 42 62 34 63 35 64 41 65 43 66
REMARK SMILES IDX 36 67 37 68 38 69 39 70 40 71 66 72 67 73 76 74 68 75 69 76
REMARK SMILES IDX 75 77 77 78 70 79 71 80 72 81 73 82 74 83 50 84 51 85 60 86
REMARK SMILES IDX 52 87 53 88 59 89 61 90 54 91 55 92 56 93 57 94 58 95
REMARK H PARENT 12 13 5 22 82 45 48 56
REMARK Flexibility Score: inf
ROOT
ATOM      1  C   UNL A   1      37.174  22.429  25.073  1.00  0.00     0.274 C 
ENDROOT
BRANCH   1   2
ATOM      2  O   UNL A   1      36.338  23.599  25.186  1.00  0.00    -0.462 OA
BRANCH   2   3
ATOM      3  C   UNL A   1      35.260  23.512  25.999  1.00  0.00     0.308 C 
ATOM      4  O   UNL A   1      35.194  22.789  26.986  1.00  0.00    -0.252 OA
BRANCH   3   5
ATOM      5  C   UNL A   1      34.072  24.316  25.527  1.00  0.00     0.151 C 
BRANCH   5   6
ATOM      6  C   UNL A   1      33.371  23.936  24.214  1.00  0.00     0.052 C 
ATOM      7  C   UNL A   1      31.830  23.587  24.249  1.00  0.00     0.029 C 
ATOM      8  C   UNL A   1      33.537  22.418  23.797  1.00  0.00     0.029 C 
ATOM      9  C   UNL A   1      32.206  22.123  24.497  1.00  0.00     0.005 C 
BRANCH   6  10
ATOM     10  N   UNL A   1      33.735  24.847  23.104  1.00  0.00    -0.332 N 
ATOM     11  C   UNL A   1      33.357  26.044  22.600  1.00  0.00     0.318 C 
ATOM     12  O   UNL A   1      33.925  26.357  21.547  1.00  0.00    -0.249 OA
ATOM     13  H   UNL A   1      34.474  24.469  22.575  1.00  0.00     0.165 HD
BRANCH  11  14
ATOM     14  N   UNL A   1      32.465  26.896  23.181  1.00  0.00    -0.304 N 
ATOM     15  C   UNL A   1      31.590  26.954  25.493  1.00  0.00     0.042 C 
ATOM     16  C   UNL A   1      32.535  27.582  24.469  1.00  0.00     0.174 C 
ATOM     17  C   UNL A   1      32.226  29.075  24.329  1.00  0.00     0.249 C 
ATOM     18  O   UNL A   1      32.571  29.891  25.183  1.00  0.00    -0.272 OA
ATOM     19  N   UNL A   1      31.390  29.435  23.306  1.00  0.00    -0.293 N 
ATOM     20  C   UNL A   1      31.199  27.119  22.456  1.00  0.00     0.222 C 
ATOM     21  C   UNL A   1      30.782  28.587  22.417  1.00  0.00     0.246 C 
ATOM     22  H   UNL A   1      31.208  30.397  23.198  1.00  0.00     0.173 HD
ATOM     23  O   UNL A   1      29.867  28.995  21.708  1.00  0.00    -0.273 OA
ENDBRANCH  11  14
ENDBRANCH   6  10
ENDBRANCH   5   6
ENDBRANCH   3   5
ENDBRANCH   2   3
ENDBRANCH   1   2
BRANCH   1  24
ATOM     24  C   UNL A   1      38.456  22.591  25.885  1.00  0.00     0.275 C 
BRANCH  24  25
ATOM     25  O   UNL A   1      38.702  23.980  26.157  1.00  0.00    -0.458 OA
BRANCH  25  26
ATOM     26  C   UNL A   1      39.916  24.243  26.696  1.00  0.00     0.338 C 
ATOM     27  O   UNL A   1      40.976  23.707  26.425  1.00  0.00    -0.246 OA
BRANCH  26  28
ATOM     28  C   UNL A   1      39.781  25.389  27.607  1.00  0.00     0.060 A 
ATOM     29  C   UNL A   1      40.582  26.509  27.389  1.00  0.00     0.016 A 
ATOM     30  C   UNL A   1      38.946  25.314  28.721  1.00  0.00     0.016 A 
ATOM     31  C   UNL A   1      40.608  27.530  28.335  1.00  0.00     0.010 A 
ATOM     32  C   UNL A   1      38.933  26.371  29.638  1.00  0.00     0.010 A 
ATOM     33  C   UNL A   1      39.792  27.474  29.476  1.00  0.00    -0.014 A 
BRANCH  33  34
ATOM     34  C   UNL A   1      39.862  28.545  30.508  1.00  0.00     0.031 A 
ATOM     35  C   UNL A   1      40.873  28.465  31.626  1.00  0.00     0.074 A 
ATOM     36  C   UNL A   1      39.025  29.600  30.448  1.00  0.00     0.049 A 
ATOM     37  N   UNL A   1      40.977  29.202  32.704  1.00  0.00    -0.248 NA
ATOM     38  C   UNL A   1      41.886  27.402  31.530  1.00  0.00     0.031 C 
ATOM     39  C   UNL A   1      38.022  29.828  29.406  1.00  0.00     0.029 A 
ATOM     40  N   UNL A   1      38.885  30.682  31.283  1.00  0.00    -0.354 N 
ATOM     41  C   UNL A   1      42.035  28.670  33.432  1.00  0.00     0.074 A 
ATOM     42  C   UNL A   1      42.534  27.538  32.679  1.00  0.00     0.031 C 
ATOM     43  C   UNL A   1      37.394  30.989  29.646  1.00  0.00     0.029 A 
ATOM     44  C   UNL A   1      37.893  31.550  30.897  1.00  0.00     0.049 A 
ATOM     45  H   UNL A   1      39.443  30.821  32.082  1.00  0.00     0.167 HD
ATOM     46  C   UNL A   1      42.542  29.085  34.619  1.00  0.00     0.037 A 
ATOM     47  C   UNL A   1      37.409  32.656  31.494  1.00  0.00     0.037 A 
ATOM     48  C   UNL A   1      42.082  30.247  35.337  1.00  0.00     0.049 A 
ATOM     49  C   UNL A   1      37.975  33.090  32.816  1.00  0.00     0.074 A 
ATOM     50  C   UNL A   1      42.547  30.758  36.538  1.00  0.00     0.029 A 
ATOM     51  N   UNL A   1      41.065  31.090  34.914  1.00  0.00    -0.354 N 
ATOM     52  N   UNL A   1      38.935  32.542  33.520  1.00  0.00    -0.248 NA
ATOM     53  C   UNL A   1      37.378  34.282  33.434  1.00  0.00     0.031 C 
ATOM     54  C   UNL A   1      41.790  31.892  36.855  1.00  0.00     0.029 A 
ATOM     55  C   UNL A   1      40.879  32.109  35.835  1.00  0.00     0.049 A 
ATOM     56  H   UNL A   1      40.551  30.980  34.082  1.00  0.00     0.167 HD
ATOM     57  C   UNL A   1      39.064  33.324  34.661  1.00  0.00     0.074 A 
ATOM     58  C   UNL A   1      38.094  34.395  34.545  1.00  0.00     0.031 C 
ATOM     59  C   UNL A   1      39.908  33.167  35.710  1.00  0.00     0.037 A 
BRANCH  46  60
ATOM     60  C   UNL A   1      43.637  28.258  35.236  1.00  0.00     0.058 A 
ATOM     61  C   UNL A   1      44.993  28.490  34.960  1.00  0.00     0.135 A 
ATOM     62  C   UNL A   1      43.321  27.236  36.147  1.00  0.00     0.135 A 
ATOM     63  F   UNL A   1      45.352  29.445  34.088  1.00  0.00    -0.206 F 
ATOM     64  C   UNL A   1      45.996  27.718  35.542  1.00  0.00     0.059 A 
ATOM     65  C   UNL A   1      44.307  26.468  36.758  1.00  0.00     0.059 A 
ATOM     66  F   UNL A   1      42.039  26.974  36.451  1.00  0.00    -0.206 F 
ATOM     67  C   UNL A   1      45.642  26.706  36.437  1.00  0.00     0.060 A 
BRANCH  67  68
ATOM     68  S   UNL A   1      46.950  25.709  37.185  1.00  0.00     0.124 S 
ATOM     69  O   UNL A   1      46.675  24.394  36.615  1.00  0.00    -0.237 OA
ATOM     70  O   UNL A   1      48.162  26.365  36.704  1.00  0.00    -0.237 OA
ATOM     71  O   UNL A   1      46.698  25.838  38.617  1.00  0.00    -0.744 OA
ENDBRANCH  67  68
ENDBRANCH  46  60
BRANCH  47  72
ATOM     72  C   UNL A   1      36.302  33.409  30.851  1.00  0.00     0.058 A 
ATOM     73  C   UNL A   1      35.014  33.411  31.406  1.00  0.00     0.135 A 
ATOM     74  C   UNL A   1      36.521  34.177  29.696  1.00  0.00     0.135 A 
ATOM     75  F   UNL A   1      34.756  32.683  32.503  1.00  0.00    -0.206 F 
ATOM     76  C   UNL A   1      33.982  34.152  30.842  1.00  0.00     0.059 A 
ATOM     77  C   UNL A   1      35.510  34.944  29.129  1.00  0.00     0.059 A 
ATOM     78  F   UNL A   1      37.740  34.216  29.136  1.00  0.00    -0.206 F 
ATOM     79  C   UNL A   1      34.242  34.922  29.707  1.00  0.00     0.060 A 
BRANCH  79  80
ATOM     80  S   UNL A   1      32.921  35.950  29.030  1.00  0.00     0.124 S 
ATOM     81  O   UNL A   1      32.174  36.298  30.232  1.00  0.00    -0.237 OA
ATOM     82  O   UNL A   1      33.664  37.039  28.403  1.00  0.00    -0.237 OA
ATOM     83  O   UNL A   1      32.242  35.051  28.100  1.00  0.00    -0.744 OA
ENDBRANCH  79  80
ENDBRANCH  47  72
BRANCH  59  84
ATOM     84  C   UNL A   1      39.832  34.188  36.809  1.00  0.00     0.058 A 
ATOM     85  C   UNL A   1      40.448  35.443  36.689  1.00  0.00     0.135 A 
ATOM     86  C   UNL A   1      39.106  33.921  37.980  1.00  0.00     0.135 A 
ATOM     87  F   UNL A   1      41.160  35.743  35.591  1.00  0.00    -0.206 F 
ATOM     88  C   UNL A   1      40.365  36.392  37.702  1.00  0.00     0.059 A 
ATOM     89  C   UNL A   1      38.994  34.863  38.999  1.00  0.00     0.059 A 
ATOM     90  F   UNL A   1      38.493  32.738  38.141  1.00  0.00    -0.206 F 
ATOM     91  C   UNL A   1      39.637  36.092  38.855  1.00  0.00     0.060 A 
BRANCH  91  92
ATOM     92  S   UNL A   1      39.515  37.338  40.157  1.00  0.00     0.124 S 
ATOM     93  O   UNL A   1      38.816  38.416  39.467  1.00  0.00    -0.237 OA
ATOM     94  O   UNL A   1      38.749  36.643  41.188  1.00  0.00    -0.237 OA
ATOM     95  O   UNL A   1      40.908  37.609  40.498  1.00  0.00    -0.744 OA
ENDBRANCH  91  92
ENDBRANCH  59  84
ENDBRANCH  33  34
ENDBRANCH  26  28
ENDBRANCH  25  26
ENDBRANCH  24  25
ENDBRANCH   1  24
TORSDOF 17
ENDMDL
MODEL 2
REMARK VINA RESULT:     -11.1      6.815     11.937
REMARK SMILES C[C@@H]1C(=O)NC(=O)CN1C(=O)NC1(CC(=O)OCCOC(=O)c2ccc(-c3c4nc(c(-c5c(F)cc(S(=O)(=O)[O-])cc5F)c5ccc([nH]5)c(-c5c(F)cc(S(=O)(=O)[O-])cc5F)c5nc(c(-c6c(F)cc(S(=O)(=O)[O-])cc6F)c6ccc3[nH]6)C=C5)C=C4)cc2)CCC1
REMARK SMILES IDX 18 1 17 2 15 3 16 4 14 5 13 6 89 7 91 8 90 9 12 10 10 11
REMARK SMILES IDX 11 12 9 14 1 15 2 16 3 17 4 18 5 19 8 20 6 21 7 23 19 24
REMARK SMILES IDX 20 25 21 26 22 27 23 28 24 29 88 30 25 31 87 32 26 33 27 34
REMARK SMILES IDX 28 35 81 36 29 37 86 38 80 39 82 40 30 41 85 42 79 43 78 44
REMARK SMILES IDX 31 46 65 47 44 48 64 49 45 50 48 51 63 52 83 53 46 54 47 55
REMARK SMILES IDX 62 57 84 58 49 59 32 60 33 61 42 62 34 63 35 64 41 65 43 66
REMARK SMILES IDX 36 67 37 68 38 69 39 70 40 71 66 72 67 73 76 74 68 75 69 76
REMARK SMILES IDX 75 77 77 78 70 79 71 80 72 81 73 82 74 83 50 84 51 85 60 86
REMARK SMILES IDX 52 87 53 88 59 89 61 90 54 91 55 92 56 93 57 94 58 95
REMARK H PARENT 12 13 5 22 82 45 48 56
REMARK Flexibility Score: inf
ROOT
ATOM      1  C   UNL A   1      33.502  29.704  26.447  1.00  0.00     0.274 C 
ENDROOT
BRANCH   1   2
ATOM      2  O   UNL A   1      34.278  28.611  25.911  1.00  0.00    -0.462 OA
BRANCH   2   3
ATOM      3  C   UNL A   1      33.637  27.739  25.098  1.00  0.00     0.308 C 
ATOM      4  O   UNL A   1      34.022  27.427  23.978  1.00  0.00    -0.252 OA
BRANCH   3   5
ATOM      5  C   UNL A   1      32.321  27.245  25.649  1.00  0.00     0.151 C 
BRANCH   5   6
ATOM      6  C   UNL A   1      31.613  26.059  24.976  1.00  0.00     0.052 C 
ATOM      7  C   UNL A   1      30.309  25.473  25.648  1.00  0.00     0.029 C 
ATOM      8  C   UNL A   1      32.231  24.643  25.325  1.00  0.00     0.029 C 
ATOM      9  C   UNL A   1      31.196  24.516  26.450  1.00  0.00     0.005 C 
BRANCH   6  10
ATOM     10  N   UNL A   1      31.480  26.247  23.513  1.00  0.00    -0.332 N 
ATOM     11  C   UNL A   1      30.785  27.012  22.641  1.00  0.00     0.318 C 
ATOM     12  O   UNL A   1      30.954  26.716  21.453  1.00  0.00    -0.249 OA
ATOM     13  H   UNL A   1      32.077  25.631  23.030  1.00  0.00     0.165 HD
BRANCH  11  14
ATOM     14  N   UNL A   1      29.984  28.063  22.982  1.00  0.00    -0.304 N 
ATOM     15  C   UNL A   1      30.517  30.135  24.222  1.00  0.00     0.042 C 
ATOM     16  C   UNL A   1      30.230  29.498  22.862  1.00  0.00     0.174 C 
ATOM     17  C   UNL A   1      29.055  30.217  22.193  1.00  0.00     0.249 C 
ATOM     18  O   UNL A   1      29.185  31.325  21.673  1.00  0.00    -0.272 OA
ATOM     19  N   UNL A   1      27.818  29.656  22.360  1.00  0.00    -0.293 N 
ATOM     20  C   UNL A   1      28.705  27.731  23.637  1.00  0.00     0.222 C 
ATOM     21  C   UNL A   1      27.527  28.533  23.092  1.00  0.00     0.246 C 
ATOM     22  H   UNL A   1      27.064  30.101  21.911  1.00  0.00     0.173 HD
ATOM     23  O   UNL A   1      26.361  28.271  23.374  1.00  0.00    -0.273 OA
ENDBRANCH  11  14
ENDBRANCH   6  10
ENDBRANCH   5   6
ENDBRANCH   3   5
ENDBRANCH   2   3
ENDBRANCH   1   2
BRANCH   1  24
ATOM     24  C   UNL A   1      34.278  30.445  27.532  1.00  0.00     0.275 C 
BRANCH  24  25
ATOM     25  O   UNL A   1      35.388  29.652  27.983  1.00  0.00    -0.458 OA
BRANCH  25  26
ATOM     26  C   UNL A   1      36.019  30.135  29.079  1.00  0.00     0.338 C 
ATOM     27  O   UNL A   1      35.506  30.587  30.087  1.00  0.00    -0.246 OA
BRANCH  26  28
ATOM     28  C   UNL A   1      37.465  29.923  28.913  1.00  0.00     0.060 A 
ATOM     29  C   UNL A   1      37.978  29.823  27.620  1.00  0.00     0.016 A 
ATOM     30  C   UNL A   1      38.284  29.725  30.023  1.00  0.00     0.016 A 
ATOM     31  C   UNL A   1      39.305  29.444  27.435  1.00  0.00     0.010 A 
ATOM     32  C   UNL A   1      39.632  29.402  29.829  1.00  0.00     0.010 A 
ATOM     33  C   UNL A   1      40.148  29.220  28.533  1.00  0.00    -0.014 A 
BRANCH  33  34
ATOM     34  C   UNL A   1      41.552  28.766  28.327  1.00  0.00     0.031 A 
ATOM     35  C   UNL A   1      42.696  29.744  28.433  1.00  0.00     0.074 A 
ATOM     36  C   UNL A   1      41.812  27.472  28.049  1.00  0.00     0.049 A 
ATOM     37  N   UNL A   1      43.958  29.581  28.124  1.00  0.00    -0.248 NA
ATOM     38  C   UNL A   1      42.373  31.090  28.933  1.00  0.00     0.031 C 
ATOM     39  C   UNL A   1      40.810  26.409  27.951  1.00  0.00     0.029 A 
ATOM     40  N   UNL A   1      42.999  26.831  27.799  1.00  0.00    -0.354 N 
ATOM     41  C   UNL A   1      44.570  30.808  28.349  1.00  0.00     0.074 A 
ATOM     42  C   UNL A   1      43.538  31.712  28.811  1.00  0.00     0.031 C 
ATOM     43  C   UNL A   1      41.427  25.245  27.693  1.00  0.00     0.029 A 
ATOM     44  C   UNL A   1      42.856  25.491  27.532  1.00  0.00     0.049 A 
ATOM     45  H   UNL A   1      43.871  27.288  27.809  1.00  0.00     0.167 HD
ATOM     46  C   UNL A   1      45.873  31.150  28.186  1.00  0.00     0.037 A 
ATOM     47  C   UNL A   1      43.761  24.565  27.162  1.00  0.00     0.037 A 
ATOM     48  C   UNL A   1      46.908  30.232  27.783  1.00  0.00     0.049 A 
ATOM     49  C   UNL A   1      45.195  24.967  26.972  1.00  0.00     0.074 A 
ATOM     50  C   UNL A   1      48.260  30.481  27.608  1.00  0.00     0.029 A 
ATOM     51  N   UNL A   1      46.714  28.886  27.510  1.00  0.00    -0.354 N 
ATOM     52  N   UNL A   1      45.748  26.145  27.131  1.00  0.00    -0.248 NA
ATOM     53  C   UNL A   1      46.127  23.919  26.532  1.00  0.00     0.031 C 
ATOM     54  C   UNL A   1      48.877  29.292  27.201  1.00  0.00     0.029 A 
ATOM     55  C   UNL A   1      47.917  28.295  27.156  1.00  0.00     0.049 A 
ATOM     56  H   UNL A   1      45.849  28.419  27.560  1.00  0.00     0.167 HD
ATOM     57  C   UNL A   1      47.091  25.980  26.819  1.00  0.00     0.074 A 
ATOM     58  C   UNL A   1      47.273  24.584  26.477  1.00  0.00     0.031 C 
ATOM     59  C   UNL A   1      48.084  26.904  26.814  1.00  0.00     0.037 A 
BRANCH  46  60
ATOM     60  C   UNL A   1      46.249  32.588  28.412  1.00  0.00     0.058 A 
ATOM     61  C   UNL A   1      46.580  33.082  29.683  1.00  0.00     0.135 A 
ATOM     62  C   UNL A   1      46.311  33.480  27.328  1.00  0.00     0.135 A 
ATOM     63  F   UNL A   1      46.525  32.278  30.756  1.00  0.00    -0.206 F 
ATOM     64  C   UNL A   1      46.930  34.416  29.877  1.00  0.00     0.059 A 
ATOM     65  C   UNL A   1      46.681  34.811  27.494  1.00  0.00     0.059 A 
ATOM     66  F   UNL A   1      46.009  33.060  26.089  1.00  0.00    -0.206 F 
ATOM     67  C   UNL A   1      46.973  35.274  28.776  1.00  0.00     0.060 A 
BRANCH  67  68
ATOM     68  S   UNL A   1      47.426  37.003  29.037  1.00  0.00     0.124 S 
ATOM     69  O   UNL A   1      46.403  37.693  28.258  1.00  0.00    -0.237 OA
ATOM     70  O   UNL A   1      47.318  37.143  30.486  1.00  0.00    -0.237 OA
ATOM     71  O   UNL A   1      48.783  37.083  28.504  1.00  0.00    -0.744 OA
ENDBRANCH  67  68
ENDBRANCH  46  60
BRANCH  47  72
ATOM     72  C   UNL A   1      43.319  23.168  26.919  1.00  0.00     0.058 A 
ATOM     73  C   UNL A   1      43.249  22.651  25.617  1.00  0.00     0.135 A 
ATOM     74  C   UNL A   1      43.004  22.310  27.984  1.00  0.00     0.135 A 
ATOM     75  F   UNL A   1      43.530  23.437  24.567  1.00  0.00    -0.206 F 
ATOM     76  C   UNL A   1      42.886  21.331  25.379  1.00  0.00     0.059 A 
ATOM     77  C   UNL A   1      42.662  20.979  27.771  1.00  0.00     0.059 A 
ATOM     78  F   UNL A   1      43.069  22.755  29.249  1.00  0.00    -0.206 F 
ATOM     79  C   UNL A   1      42.601  20.499  26.464  1.00  0.00     0.060 A 
BRANCH  79  80
ATOM     80  S   UNL A   1      42.214  18.763  26.154  1.00  0.00     0.124 S 
ATOM     81  O   UNL A   1      43.138  18.444  25.073  1.00  0.00    -0.237 OA
ATOM     82  O   UNL A   1      42.505  18.144  27.444  1.00  0.00    -0.237 OA
ATOM     83  O   UNL A   1      40.800  18.796  25.790  1.00  0.00    -0.744 OA
ENDBRANCH  79  80
ENDBRANCH  47  72
BRANCH  59  84
ATOM     84  C   UNL A   1      49.459  26.429  26.443  1.00  0.00     0.058 A 
ATOM     85  C   UNL A   1      49.955  26.565  25.137  1.00  0.00     0.135 A 
ATOM     86  C   UNL A   1      50.303  25.863  27.411  1.00  0.00     0.135 A 
ATOM     87  F   UNL A   1      49.182  27.093  24.173  1.00  0.00    -0.206 F 
ATOM     88  C   UNL A   1      51.233  26.136  24.797  1.00  0.00     0.059 A 
ATOM     89  C   UNL A   1      51.594  25.445  27.098  1.00  0.00     0.059 A 
ATOM     90  F   UNL A   1      49.880  25.718  28.675  1.00  0.00    -0.206 F 
ATOM     91  C   UNL A   1      52.045  25.575  25.784  1.00  0.00     0.060 A 
BRANCH  91  92
ATOM     92  S   UNL A   1      53.713  25.042  25.341  1.00  0.00     0.124 S 
ATOM     93  O   UNL A   1      54.461  25.386  26.545  1.00  0.00    -0.237 OA
ATOM     94  O   UNL A   1      53.532  23.614  25.093  1.00  0.00    -0.237 OA
ATOM     95  O   UNL A   1      54.021  25.841  24.159  1.00  0.00    -0.744 OA
ENDBRANCH  91  92
ENDBRANCH  59  84
ENDBRANCH  33  34
ENDBRANCH  26  28
ENDBRANCH  25  26
ENDBRANCH  24  25
ENDBRANCH   1  24
TORSDOF 17
ENDMDL
MODEL 3
REMARK VINA RESULT:     -11.1      7.015     13.395
REMARK SMILES C[C@@H]1C(=O)NC(=O)CN1C(=O)NC1(CC(=O)OCCOC(=O)c2ccc(-c3c4nc(c(-c5c(F)cc(S(=O)(=O)[O-])cc5F)c5ccc([nH]5)c(-c5c(F)cc(S(=O)(=O)[O-])cc5F)c5nc(c(-c6c(F)cc(S(=O)(=O)[O-])cc6F)c6ccc3[nH]6)C=C5)C=C4)cc2)CCC1
REMARK SMILES IDX 18 1 17 2 15 3 16 4 14 5 13 6 89 7 91 8 90 9 12 10 10 11
REMARK SMILES IDX 11 12 9 14 1 15 2 16 3 17 4 18 5 19 8 20 6 21 7 23 19 24
REMARK SMILES IDX 20 25 21 26 22 27 23 28 24 29 88 30 25 31 87 32 26 33 27 34
REMARK SMILES IDX 28 35 81 36 29 37 86 38 80 39 82 40 30 41 85 42 79 43 78 44
REMARK SMILES IDX 31 46 65 47 44 48 64 49 45 50 48 51 63 52 83 53 46 54 47 55
REMARK SMILES IDX 62 57 84 58 49 59 32 60 33 61 42 62 34 63 35 64 41 65 43 66
REMARK SMILES IDX 36 67 37 68 38 69 39 70 40 71 66 72 67 73 76 74 68 75 69 76
REMARK SMILES IDX 75 77 77 78 70 79 71 80 72 81 73 82 74 83 50 84 51 85 60 86
REMARK SMILES IDX 52 87 53 88 59 89 61 90 54 91 55 92 56 93 57 94 58 95
REMARK H PARENT 12 13 5 22 82 45 48 56
REMARK Flexibility Score: inf
ROOT
ATOM      1  C   UNL A   1      34.917  32.412  27.966  1.00  0.00     0.274 C 
ENDROOT
BRANCH   1   2
ATOM      2  O   UNL A   1      33.854  33.284  28.402  1.00  0.00    -0.462 OA
BRANCH   2   3
ATOM      3  C   UNL A   1      34.212  34.463  28.962  1.00  0.00     0.308 C 
ATOM      4  O   UNL A   1      34.839  35.342  28.384  1.00  0.00    -0.252 OA
BRANCH   3   5
ATOM      5  C   UNL A   1      33.862  34.574  30.427  1.00  0.00     0.151 C 
BRANCH   5   6
ATOM      6  C   UNL A   1      34.894  34.164  31.488  1.00  0.00     0.052 C 
ATOM      7  C   UNL A   1      34.711  32.782  32.233  1.00  0.00     0.029 C 
ATOM      8  C   UNL A   1      34.642  34.784  32.923  1.00  0.00     0.029 C 
ATOM      9  C   UNL A   1      33.877  33.507  33.293  1.00  0.00     0.005 C 
BRANCH   6  10
ATOM     10  N   UNL A   1      36.284  34.398  31.032  1.00  0.00    -0.332 N 
ATOM     11  C   UNL A   1      37.547  34.272  31.499  1.00  0.00     0.318 C 
ATOM     12  O   UNL A   1      38.418  34.715  30.743  1.00  0.00    -0.249 OA
ATOM     13  H   UNL A   1      36.291  34.752  30.113  1.00  0.00     0.165 HD
BRANCH  11  14
ATOM     14  N   UNL A   1      37.894  33.677  32.676  1.00  0.00    -0.304 N 
ATOM     15  C   UNL A   1      39.152  34.575  34.607  1.00  0.00     0.042 C 
ATOM     16  C   UNL A   1      37.787  34.182  34.043  1.00  0.00     0.174 C 
ATOM     17  C   UNL A   1      37.121  33.161  34.970  1.00  0.00     0.249 C 
ATOM     18  O   UNL A   1      36.610  33.493  36.039  1.00  0.00    -0.272 OA
ATOM     19  N   UNL A   1      37.281  31.841  34.644  1.00  0.00    -0.293 N 
ATOM     20  C   UNL A   1      38.544  32.356  32.580  1.00  0.00     0.222 C 
ATOM     21  C   UNL A   1      38.003  31.347  33.588  1.00  0.00     0.246 C 
ATOM     22  H   UNL A   1      36.834  31.183  35.224  1.00  0.00     0.173 HD
ATOM     23  O   UNL A   1      38.281  30.152  33.542  1.00  0.00    -0.273 OA
ENDBRANCH  11  14
ENDBRANCH   6  10
ENDBRANCH   5   6
ENDBRANCH   3   5
ENDBRANCH   2   3
ENDBRANCH   1   2
BRANCH   1  24
ATOM     24  C   UNL A   1      34.432  30.969  27.857  1.00  0.00     0.275 C 
BRANCH  24  25
ATOM     25  O   UNL A   1      35.543  30.062  27.930  1.00  0.00    -0.458 OA
BRANCH  25  26
ATOM     26  C   UNL A   1      36.129  29.982  29.148  1.00  0.00     0.338 C 
ATOM     27  O   UNL A   1      35.576  29.970  30.233  1.00  0.00    -0.246 OA
BRANCH  26  28
ATOM     28  C   UNL A   1      37.574  29.794  28.958  1.00  0.00     0.060 A 
ATOM     29  C   UNL A   1      38.070  29.731  27.656  1.00  0.00     0.016 A 
ATOM     30  C   UNL A   1      38.411  29.579  30.051  1.00  0.00     0.016 A 
ATOM     31  C   UNL A   1      39.399  29.374  27.443  1.00  0.00     0.010 A 
ATOM     32  C   UNL A   1      39.760  29.279  29.831  1.00  0.00     0.010 A 
ATOM     33  C   UNL A   1      40.261  29.135  28.524  1.00  0.00    -0.014 A 
BRANCH  33  34
ATOM     34  C   UNL A   1      41.667  28.704  28.288  1.00  0.00     0.031 A 
ATOM     35  C   UNL A   1      42.797  29.700  28.375  1.00  0.00     0.074 A 
ATOM     36  C   UNL A   1      41.942  27.416  27.999  1.00  0.00     0.049 A 
ATOM     37  N   UNL A   1      44.055  29.558  28.040  1.00  0.00    -0.248 NA
ATOM     38  C   UNL A   1      42.463  31.039  28.887  1.00  0.00     0.031 C 
ATOM     39  C   UNL A   1      40.956  26.337  27.917  1.00  0.00     0.029 A 
ATOM     40  N   UNL A   1      43.135  26.795  27.722  1.00  0.00    -0.354 N 
ATOM     41  C   UNL A   1      44.653  30.794  28.258  1.00  0.00     0.074 A 
ATOM     42  C   UNL A   1      43.616  31.680  28.744  1.00  0.00     0.031 C 
ATOM     43  C   UNL A   1      41.586  25.185  27.642  1.00  0.00     0.029 A 
ATOM     44  C   UNL A   1      43.007  25.453  27.452  1.00  0.00     0.049 A 
ATOM     45  H   UNL A   1      43.999  27.266  27.717  1.00  0.00     0.167 HD
ATOM     46  C   UNL A   1      45.945  31.158  28.070  1.00  0.00     0.037 A 
ATOM     47  C   UNL A   1      43.920  24.544  27.061  1.00  0.00     0.037 A 
ATOM     48  C   UNL A   1      46.987  30.258  27.642  1.00  0.00     0.049 A 
ATOM     49  C   UNL A   1      45.343  24.970  26.843  1.00  0.00     0.074 A 
ATOM     50  C   UNL A   1      48.331  30.529  27.441  1.00  0.00     0.029 A 
ATOM     51  N   UNL A   1      46.809  28.911  27.368  1.00  0.00    -0.354 N 
ATOM     52  N   UNL A   1      45.880  26.156  26.997  1.00  0.00    -0.248 NA
ATOM     53  C   UNL A   1      46.282  23.939  26.380  1.00  0.00     0.031 C 
ATOM     54  C   UNL A   1      48.959  29.352  27.016  1.00  0.00     0.029 A 
ATOM     55  C   UNL A   1      48.014  28.340  26.987  1.00  0.00     0.049 A 
ATOM     56  H   UNL A   1      45.953  28.430  27.433  1.00  0.00     0.167 HD
ATOM     57  C   UNL A   1      47.219  26.014  26.657  1.00  0.00     0.074 A 
ATOM     58  C   UNL A   1      47.416  24.622  26.305  1.00  0.00     0.031 C 
ATOM     59  C   UNL A   1      48.196  26.954  26.636  1.00  0.00     0.037 A 
BRANCH  46  60
ATOM     60  C   UNL A   1      46.303  32.601  28.294  1.00  0.00     0.058 A 
ATOM     61  C   UNL A   1      46.749  33.074  29.538  1.00  0.00     0.135 A 
ATOM     62  C   UNL A   1      46.229  33.520  27.234  1.00  0.00     0.135 A 
ATOM     63  F   UNL A   1      46.827  32.244  30.589  1.00  0.00    -0.206 F 
ATOM     64  C   UNL A   1      47.080  34.414  29.730  1.00  0.00     0.059 A 
ATOM     65  C   UNL A   1      46.578  34.857  27.397  1.00  0.00     0.059 A 
ATOM     66  F   UNL A   1      45.813  33.120  26.021  1.00  0.00    -0.206 F 
ATOM     67  C   UNL A   1      46.987  35.298  28.654  1.00  0.00     0.060 A 
BRANCH  67  68
ATOM     68  S   UNL A   1      47.416  37.034  28.914  1.00  0.00     0.124 S 
ATOM     69  O   UNL A   1      46.098  37.659  28.939  1.00  0.00    -0.237 OA
ATOM     70  O   UNL A   1      48.123  36.997  30.190  1.00  0.00    -0.237 OA
ATOM     71  O   UNL A   1      48.242  37.356  27.754  1.00  0.00    -0.744 OA
ENDBRANCH  67  68
ENDBRANCH  46  60
BRANCH  47  72
ATOM     72  C   UNL A   1      43.495  23.141  26.820  1.00  0.00     0.058 A 
ATOM     73  C   UNL A   1      43.452  22.614  25.521  1.00  0.00     0.135 A 
ATOM     74  C   UNL A   1      43.171  22.287  27.887  1.00  0.00     0.135 A 
ATOM     75  F   UNL A   1      43.744  23.395  24.471  1.00  0.00    -0.206 F 
ATOM     76  C   UNL A   1      43.106  21.288  25.287  1.00  0.00     0.059 A 
ATOM     77  C   UNL A   1      42.844  20.952  27.678  1.00  0.00     0.059 A 
ATOM     78  F   UNL A   1      43.210  22.743  29.149  1.00  0.00    -0.206 F 
ATOM     79  C   UNL A   1      42.810  20.462  26.373  1.00  0.00     0.060 A 
BRANCH  79  80
ATOM     80  S   UNL A   1      42.446  18.720  26.070  1.00  0.00     0.124 S 
ATOM     81  O   UNL A   1      42.744  18.127  27.367  1.00  0.00    -0.237 OA
ATOM     82  O   UNL A   1      41.035  18.758  25.696  1.00  0.00    -0.237 OA
ATOM     83  O   UNL A   1      43.362  18.371  24.987  1.00  0.00    -0.744 OA
ENDBRANCH  79  80
ENDBRANCH  47  72
BRANCH  59  84
ATOM     84  C   UNL A   1      49.571  26.503  26.235  1.00  0.00     0.058 A 
ATOM     85  C   UNL A   1      50.044  26.667  24.924  1.00  0.00     0.135 A 
ATOM     86  C   UNL A   1      50.438  25.931  27.180  1.00  0.00     0.135 A 
ATOM     87  F   UNL A   1      49.250  27.200  23.981  1.00  0.00    -0.206 F 
ATOM     88  C   UNL A   1      51.322  26.260  24.557  1.00  0.00     0.059 A 
ATOM     89  C   UNL A   1      51.728  25.535  26.840  1.00  0.00     0.059 A 
ATOM     90  F   UNL A   1      50.036  25.759  28.448  1.00  0.00    -0.206 F 
ATOM     91  C   UNL A   1      52.157  25.692  25.521  1.00  0.00     0.060 A 
BRANCH  91  92
ATOM     92  S   UNL A   1      53.823  25.188  25.043  1.00  0.00     0.124 S 
ATOM     93  O   UNL A   1      54.609  25.649  26.182  1.00  0.00    -0.237 OA
ATOM     94  O   UNL A   1      53.689  23.739  24.910  1.00  0.00    -0.237 OA
ATOM     95  O   UNL A   1      54.049  25.905  23.792  1.00  0.00    -0.744 OA
ENDBRANCH  91  92
ENDBRANCH  59  84
ENDBRANCH  33  34
ENDBRANCH  26  28
ENDBRANCH  25  26
ENDBRANCH  24  25
ENDBRANCH   1  24
TORSDOF 17
ENDMDL
