MODEL 1
REMARK VINA RESULT:      -9.9      0.000      0.000
REMARK SMILES C[C@@H]([NH2+]C1(CO)CCCCC1)[C@@H](C)C(=O)OCCOC(=O)c1ccc(-c2c3nc(c(-c4c(F)cc(S(=O)(=O)[O-])cc4F)c4ccc([nH]4)c(-c4c(F)cc(S(=O)(=O)[O-])cc4F)c4nc(c(-c5c(F)cc(S(=O)(=O)[O-])cc5F)c5ccc2[nH]5)C=C4)C=C3)cc1
REMARK SMILES IDX 17 1 16 2 14 3 15 4 12 5 13 6 2 7 1 8 3 9 4 12 7 13 11 14
REMARK SMILES IDX 8 15 10 16 9 17 5 18 6 19 18 21 19 22 20 23 21 24 22 25
REMARK SMILES IDX 23 26 87 27 24 28 86 29 25 30 26 31 27 32 80 33 28 34 85 35
REMARK SMILES IDX 79 36 81 37 29 38 84 39 78 40 77 41 30 43 64 44 43 45 63 46
REMARK SMILES IDX 44 47 47 48 62 49 82 50 45 51 46 52 61 54 83 55 48 56 31 57
REMARK SMILES IDX 32 58 41 59 33 60 34 61 40 62 42 63 35 64 36 65 37 66 38 67
REMARK SMILES IDX 39 68 65 69 66 70 75 71 67 72 68 73 74 74 76 75 69 76 70 77
REMARK SMILES IDX 71 78 72 79 73 80 49 81 50 82 59 83 51 84 52 85 58 86 60 87
REMARK SMILES IDX 53 88 54 89 55 90 56 91 57 92
REMARK H PARENT 3 10 3 11 6 20 81 42 47 53
REMARK Flexibility Score: inf
ROOT
ATOM      1  C   UNL A   1      32.146  29.773  25.928  1.00  0.00     0.274 C 
ENDROOT
BRANCH   1   2
ATOM      2  O   UNL A   1      33.060  29.533  24.827  1.00  0.00    -0.462 OA
BRANCH   2   3
ATOM      3  C   UNL A   1      33.176  28.243  24.431  1.00  0.00     0.314 C 
ATOM      4  O   UNL A   1      33.537  27.925  23.300  1.00  0.00    -0.252 OA
BRANCH   3   5
ATOM      5  C   UNL A   1      32.688  27.183  25.423  1.00  0.00     0.154 C 
ATOM      6  C   UNL A   1      34.023  26.585  25.939  1.00  0.00     0.026 C 
BRANCH   5   7
ATOM      7  C   UNL A   1      31.661  26.034  25.083  1.00  0.00     0.193 C 
ATOM      8  C   UNL A   1      30.234  26.662  25.132  1.00  0.00     0.076 C 
BRANCH   7   9
ATOM      9  N   UNL A   1      31.633  25.364  23.760  1.00  0.00    -0.337 N 
ATOM     10  H   UNL A   1      32.000  26.039  23.088  1.00  0.00     0.347 HD
ATOM     11  H   UNL A   1      30.657  25.074  23.686  1.00  0.00     0.347 HD
BRANCH   9  12
ATOM     12  C   UNL A   1      32.352  24.098  23.509  1.00  0.00     0.120 C 
ATOM     13  C   UNL A   1      33.010  23.559  24.801  1.00  0.00     0.071 C 
ATOM     14  C   UNL A   1      31.348  22.970  23.096  1.00  0.00     0.071 C 
ATOM     15  C   UNL A   1      33.785  22.264  24.589  1.00  0.00     0.007 C 
ATOM     16  C   UNL A   1      32.084  21.652  22.785  1.00  0.00     0.007 C 
ATOM     17  C   UNL A   1      32.933  21.169  23.960  1.00  0.00     0.001 C 
BRANCH  12  18
ATOM     18  C   UNL A   1      33.279  24.331  22.293  1.00  0.00     0.224 C 
BRANCH  18  19
ATOM     19  O   UNL A   1      34.393  25.161  22.644  1.00  0.00    -0.390 OA
ATOM     20  H   UNL A   1      35.209  24.639  22.602  1.00  0.00     0.210 HD
ENDBRANCH  18  19
ENDBRANCH  12  18
ENDBRANCH   9  12
ENDBRANCH   7   9
ENDBRANCH   5   7
ENDBRANCH   3   5
ENDBRANCH   2   3
ENDBRANCH   1   2
BRANCH   1  21
ATOM     21  C   UNL A   1      32.728  30.642  27.051  1.00  0.00     0.275 C 
BRANCH  21  22
ATOM     22  O   UNL A   1      33.996  30.130  27.475  1.00  0.00    -0.458 OA
BRANCH  22  23
ATOM     23  C   UNL A   1      34.726  30.925  28.291  1.00  0.00     0.338 C 
ATOM     24  O   UNL A   1      34.306  31.909  28.893  1.00  0.00    -0.246 OA
BRANCH  23  25
ATOM     25  C   UNL A   1      36.090  30.359  28.474  1.00  0.00     0.060 A 
ATOM     26  C   UNL A   1      36.950  30.159  27.386  1.00  0.00     0.016 A 
ATOM     27  C   UNL A   1      36.488  29.926  29.743  1.00  0.00     0.016 A 
ATOM     28  C   UNL A   1      38.185  29.534  27.558  1.00  0.00     0.010 A 
ATOM     29  C   UNL A   1      37.763  29.378  29.930  1.00  0.00     0.010 A 
ATOM     30  C   UNL A   1      38.636  29.214  28.843  1.00  0.00    -0.014 A 
BRANCH  30  31
ATOM     31  C   UNL A   1      40.071  28.921  29.089  1.00  0.00     0.031 A 
ATOM     32  C   UNL A   1      41.050  30.003  29.432  1.00  0.00     0.074 A 
ATOM     33  C   UNL A   1      40.502  27.663  28.859  1.00  0.00     0.049 A 
ATOM     34  N   UNL A   1      42.357  29.978  29.369  1.00  0.00    -0.248 NA
ATOM     35  C   UNL A   1      40.493  31.282  29.896  1.00  0.00     0.031 C 
ATOM     36  C   UNL A   1      39.642  26.520  28.535  1.00  0.00     0.029 A 
ATOM     37  N   UNL A   1      41.770  27.140  28.819  1.00  0.00    -0.354 N 
ATOM     38  C   UNL A   1      42.784  31.245  29.747  1.00  0.00     0.074 A 
ATOM     39  C   UNL A   1      41.592  32.015  30.045  1.00  0.00     0.031 C 
ATOM     40  C   UNL A   1      40.402  25.441  28.313  1.00  0.00     0.029 A 
ATOM     41  C   UNL A   1      41.801  25.833  28.394  1.00  0.00     0.049 A 
ATOM     42  H   UNL A   1      42.575  27.649  29.070  1.00  0.00     0.167 HD
ATOM     43  C   UNL A   1      44.054  31.714  29.825  1.00  0.00     0.037 A 
ATOM     44  C   UNL A   1      42.831  25.046  28.034  1.00  0.00     0.037 A 
ATOM     45  C   UNL A   1      45.227  30.919  29.549  1.00  0.00     0.049 A 
ATOM     46  C   UNL A   1      44.220  25.598  28.083  1.00  0.00     0.074 A 
ATOM     47  C   UNL A   1      46.559  31.289  29.635  1.00  0.00     0.029 A 
ATOM     48  N   UNL A   1      45.213  29.594  29.134  1.00  0.00    -0.354 N 
ATOM     49  N   UNL A   1      44.610  26.806  28.413  1.00  0.00    -0.248 NA
ATOM     50  C   UNL A   1      45.308  24.692  27.700  1.00  0.00     0.031 C 
ATOM     51  C   UNL A   1      47.346  30.203  29.238  1.00  0.00     0.029 A 
ATOM     52  C   UNL A   1      46.509  29.140  28.944  1.00  0.00     0.049 A 
ATOM     53  H   UNL A   1      44.400  29.055  28.995  1.00  0.00     0.167 HD
ATOM     54  C   UNL A   1      45.993  26.801  28.293  1.00  0.00     0.074 A 
ATOM     55  C   UNL A   1      46.371  25.467  27.870  1.00  0.00     0.031 C 
ATOM     56  C   UNL A   1      46.868  27.811  28.516  1.00  0.00     0.037 A 
BRANCH  43  57
ATOM     57  C   UNL A   1      44.256  33.157  30.198  1.00  0.00     0.058 A 
ATOM     58  C   UNL A   1      44.329  34.171  29.232  1.00  0.00     0.135 A 
ATOM     59  C   UNL A   1      44.302  33.538  31.550  1.00  0.00     0.135 A 
ATOM     60  F   UNL A   1      44.298  33.864  27.926  1.00  0.00    -0.206 F 
ATOM     61  C   UNL A   1      44.454  35.511  29.591  1.00  0.00     0.059 A 
ATOM     62  C   UNL A   1      44.406  34.873  31.932  1.00  0.00     0.059 A 
ATOM     63  F   UNL A   1      44.233  32.609  32.516  1.00  0.00    -0.206 F 
ATOM     64  C   UNL A   1      44.492  35.853  30.945  1.00  0.00     0.060 A 
BRANCH  64  65
ATOM     65  S   UNL A   1      44.634  37.595  31.398  1.00  0.00     0.124 S 
ATOM     66  O   UNL A   1      44.539  37.527  32.854  1.00  0.00    -0.237 OA
ATOM     67  O   UNL A   1      45.945  37.953  30.867  1.00  0.00    -0.237 OA
ATOM     68  O   UNL A   1      43.497  38.216  30.725  1.00  0.00    -0.744 OA
ENDBRANCH  64  65
ENDBRANCH  43  57
BRANCH  44  69
ATOM     69  C   UNL A   1      42.558  23.668  27.555  1.00  0.00     0.058 A 
ATOM     70  C   UNL A   1      42.424  23.398  26.188  1.00  0.00     0.135 A 
ATOM     71  C   UNL A   1      42.502  22.586  28.449  1.00  0.00     0.135 A 
ATOM     72  F   UNL A   1      42.469  24.401  25.299  1.00  0.00    -0.206 F 
ATOM     73  C   UNL A   1      42.245  22.101  25.719  1.00  0.00     0.059 A 
ATOM     74  C   UNL A   1      42.348  21.278  28.002  1.00  0.00     0.059 A 
ATOM     75  F   UNL A   1      42.648  22.793  29.768  1.00  0.00    -0.206 F 
ATOM     76  C   UNL A   1      42.215  21.047  26.634  1.00  0.00     0.060 A 
BRANCH  76  77
ATOM     77  S   UNL A   1      42.066  19.359  26.010  1.00  0.00     0.124 S 
ATOM     78  O   UNL A   1      42.995  19.379  24.886  1.00  0.00    -0.237 OA
ATOM     79  O   UNL A   1      42.478  18.564  27.164  1.00  0.00    -0.237 OA
ATOM     80  O   UNL A   1      40.652  19.255  25.662  1.00  0.00    -0.744 OA
ENDBRANCH  76  77
ENDBRANCH  44  69
BRANCH  56  81
ATOM     81  C   UNL A   1      48.324  27.495  28.336  1.00  0.00     0.058 A 
ATOM     82  C   UNL A   1      48.994  27.775  27.136  1.00  0.00     0.135 A 
ATOM     83  C   UNL A   1      49.061  26.922  29.384  1.00  0.00     0.135 A 
ATOM     84  F   UNL A   1      48.329  28.311  26.100  1.00  0.00    -0.206 F 
ATOM     85  C   UNL A   1      50.343  27.479  26.972  1.00  0.00     0.059 A 
ATOM     86  C   UNL A   1      50.415  26.637  29.250  1.00  0.00     0.059 A 
ATOM     87  F   UNL A   1      48.465  26.637  30.553  1.00  0.00    -0.206 F 
ATOM     88  C   UNL A   1      51.045  26.907  28.036  1.00  0.00     0.060 A 
BRANCH  88  89
ATOM     89  S   UNL A   1      52.801  26.547  27.822  1.00  0.00     0.124 S 
ATOM     90  O   UNL A   1      53.280  27.777  27.201  1.00  0.00    -0.237 OA
ATOM     91  O   UNL A   1      53.245  26.315  29.192  1.00  0.00    -0.237 OA
ATOM     92  O   UNL A   1      52.802  25.367  26.962  1.00  0.00    -0.744 OA
ENDBRANCH  88  89
ENDBRANCH  56  81
ENDBRANCH  30  31
ENDBRANCH  23  25
ENDBRANCH  22  23
ENDBRANCH  21  22
ENDBRANCH   1  21
TORSDOF 19
ENDMDL
MODEL 2
REMARK VINA RESULT:      -9.8      4.527     10.403
REMARK SMILES C[C@@H]([NH2+]C1(CO)CCCCC1)[C@@H](C)C(=O)OCCOC(=O)c1ccc(-c2c3nc(c(-c4c(F)cc(S(=O)(=O)[O-])cc4F)c4ccc([nH]4)c(-c4c(F)cc(S(=O)(=O)[O-])cc4F)c4nc(c(-c5c(F)cc(S(=O)(=O)[O-])cc5F)c5ccc2[nH]5)C=C4)C=C3)cc1
REMARK SMILES IDX 17 1 16 2 14 3 15 4 12 5 13 6 2 7 1 8 3 9 4 12 7 13 11 14
REMARK SMILES IDX 8 15 10 16 9 17 5 18 6 19 18 21 19 22 20 23 21 24 22 25
REMARK SMILES IDX 23 26 87 27 24 28 86 29 25 30 26 31 27 32 80 33 28 34 85 35
REMARK SMILES IDX 79 36 81 37 29 38 84 39 78 40 77 41 30 43 64 44 43 45 63 46
REMARK SMILES IDX 44 47 47 48 62 49 82 50 45 51 46 52 61 54 83 55 48 56 31 57
REMARK SMILES IDX 32 58 41 59 33 60 34 61 40 62 42 63 35 64 36 65 37 66 38 67
REMARK SMILES IDX 39 68 65 69 66 70 75 71 67 72 68 73 74 74 76 75 69 76 70 77
REMARK SMILES IDX 71 78 72 79 73 80 49 81 50 82 59 83 51 84 52 85 58 86 60 87
REMARK SMILES IDX 53 88 54 89 55 90 56 91 57 92
REMARK H PARENT 3 10 3 11 6 20 81 42 47 53
REMARK Flexibility Score: inf
ROOT
ATOM      1  C   UNL A   1      37.268  21.269  24.452  1.00  0.00     0.274 C 
ENDROOT
BRANCH   1   2
ATOM      2  O   UNL A   1      35.992  21.958  24.402  1.00  0.00    -0.462 OA
BRANCH   2   3
ATOM      3  C   UNL A   1      35.887  22.930  23.465  1.00  0.00     0.314 C 
ATOM      4  O   UNL A   1      36.593  22.964  22.460  1.00  0.00    -0.252 OA
BRANCH   3   5
ATOM      5  C   UNL A   1      34.936  24.085  23.792  1.00  0.00     0.154 C 
ATOM      6  C   UNL A   1      34.477  23.729  25.230  1.00  0.00     0.026 C 
BRANCH   5   7
ATOM      7  C   UNL A   1      33.702  24.516  22.906  1.00  0.00     0.193 C 
ATOM      8  C   UNL A   1      33.158  23.228  22.216  1.00  0.00     0.076 C 
BRANCH   7   9
ATOM      9  N   UNL A   1      32.460  25.071  23.496  1.00  0.00    -0.337 N 
ATOM     10  H   UNL A   1      32.404  24.704  24.447  1.00  0.00     0.347 HD
ATOM     11  H   UNL A   1      31.754  24.790  22.815  1.00  0.00     0.347 HD
BRANCH   9  12
ATOM     12  C   UNL A   1      32.227  26.526  23.601  1.00  0.00     0.120 C 
ATOM     13  C   UNL A   1      31.994  26.955  25.069  1.00  0.00     0.071 C 
ATOM     14  C   UNL A   1      33.508  27.319  23.173  1.00  0.00     0.071 C 
ATOM     15  C   UNL A   1      31.725  28.447  25.227  1.00  0.00     0.007 C 
ATOM     16  C   UNL A   1      33.269  28.840  23.232  1.00  0.00     0.007 C 
ATOM     17  C   UNL A   1      32.825  29.307  24.617  1.00  0.00     0.001 C 
BRANCH  12  18
ATOM     18  C   UNL A   1      31.122  26.888  22.580  1.00  0.00     0.224 C 
BRANCH  18  19
ATOM     19  O   UNL A   1      31.516  26.536  21.248  1.00  0.00    -0.390 OA
ATOM     20  H   UNL A   1      31.969  27.288  20.836  1.00  0.00     0.210 HD
ENDBRANCH  18  19
ENDBRANCH  12  18
ENDBRANCH   9  12
ENDBRANCH   7   9
ENDBRANCH   5   7
ENDBRANCH   3   5
ENDBRANCH   2   3
ENDBRANCH   1   2
BRANCH   1  21
ATOM     21  C   UNL A   1      38.077  21.537  25.729  1.00  0.00     0.275 C 
BRANCH  21  22
ATOM     22  O   UNL A   1      38.627  22.859  25.707  1.00  0.00    -0.458 OA
BRANCH  22  23
ATOM     23  C   UNL A   1      39.899  22.990  26.145  1.00  0.00     0.338 C 
ATOM     24  O   UNL A   1      40.835  22.250  25.856  1.00  0.00    -0.246 OA
BRANCH  23  25
ATOM     25  C   UNL A   1      40.047  24.250  26.922  1.00  0.00     0.060 A 
ATOM     26  C   UNL A   1      39.191  24.555  27.989  1.00  0.00     0.016 A 
ATOM     27  C   UNL A   1      40.997  25.196  26.521  1.00  0.00     0.016 A 
ATOM     28  C   UNL A   1      39.275  25.784  28.644  1.00  0.00     0.010 A 
ATOM     29  C   UNL A   1      41.139  26.394  27.234  1.00  0.00     0.010 A 
ATOM     30  C   UNL A   1      40.303  26.679  28.325  1.00  0.00    -0.014 A 
BRANCH  30  31
ATOM     31  C   UNL A   1      40.651  27.789  29.249  1.00  0.00     0.031 A 
ATOM     32  C   UNL A   1      41.761  27.666  30.249  1.00  0.00     0.074 A 
ATOM     33  C   UNL A   1      39.845  28.871  29.258  1.00  0.00     0.049 A 
ATOM     34  N   UNL A   1      41.990  28.390  31.314  1.00  0.00    -0.248 NA
ATOM     35  C   UNL A   1      42.735  26.586  30.032  1.00  0.00     0.031 C 
ATOM     36  C   UNL A   1      38.741  29.112  28.323  1.00  0.00     0.029 A 
ATOM     37  N   UNL A   1      39.797  29.950  30.105  1.00  0.00    -0.354 N 
ATOM     38  C   UNL A   1      43.110  27.836  31.922  1.00  0.00     0.074 A 
ATOM     39  C   UNL A   1      43.519  26.714  31.098  1.00  0.00     0.031 C 
ATOM     40  C   UNL A   1      38.118  30.250  28.655  1.00  0.00     0.029 A 
ATOM     41  C   UNL A   1      38.720  30.772  29.872  1.00  0.00     0.049 A 
ATOM     42  H   UNL A   1      40.467  30.118  30.807  1.00  0.00     0.167 HD
ATOM     43  C   UNL A   1      43.724  28.228  33.064  1.00  0.00     0.037 A 
ATOM     44  C   UNL A   1      38.216  31.791  30.590  1.00  0.00     0.037 A 
ATOM     45  C   UNL A   1      43.314  29.365  33.854  1.00  0.00     0.049 A 
ATOM     46  C   UNL A   1      38.882  32.177  31.873  1.00  0.00     0.074 A 
ATOM     47  C   UNL A   1      43.893  29.868  35.008  1.00  0.00     0.029 A 
ATOM     48  N   UNL A   1      42.225  30.178  33.574  1.00  0.00    -0.354 N 
ATOM     49  N   UNL A   1      39.922  31.627  32.452  1.00  0.00    -0.248 NA
ATOM     50  C   UNL A   1      38.305  33.308  32.605  1.00  0.00     0.031 C 
ATOM     51  C   UNL A   1      43.134  30.959  35.444  1.00  0.00     0.029 A 
ATOM     52  C   UNL A   1      42.105  31.166  34.540  1.00  0.00     0.049 A 
ATOM     53  H   UNL A   1      41.624  30.070  32.800  1.00  0.00     0.167 HD
ATOM     54  C   UNL A   1      40.135  32.357  33.614  1.00  0.00     0.074 A 
ATOM     55  C   UNL A   1      39.121  33.393  33.647  1.00  0.00     0.031 C 
ATOM     56  C   UNL A   1      41.086  32.185  34.563  1.00  0.00     0.037 A 
BRANCH  43  57
ATOM     57  C   UNL A   1      44.891  27.416  33.557  1.00  0.00     0.058 A 
ATOM     58  C   UNL A   1      44.725  26.320  34.417  1.00  0.00     0.135 A 
ATOM     59  C   UNL A   1      46.190  27.696  33.100  1.00  0.00     0.135 A 
ATOM     60  F   UNL A   1      43.507  26.012  34.889  1.00  0.00    -0.206 F 
ATOM     61  C   UNL A   1      45.805  25.538  34.817  1.00  0.00     0.059 A 
ATOM     62  C   UNL A   1      47.282  26.915  33.471  1.00  0.00     0.059 A 
ATOM     63  F   UNL A   1      46.408  28.732  32.274  1.00  0.00    -0.206 F 
ATOM     64  C   UNL A   1      47.081  25.844  34.339  1.00  0.00     0.060 A 
BRANCH  64  65
ATOM     65  S   UNL A   1      48.472  24.809  34.849  1.00  0.00     0.124 S 
ATOM     66  O   UNL A   1      49.158  25.688  35.792  1.00  0.00    -0.237 OA
ATOM     67  O   UNL A   1      47.804  23.651  35.435  1.00  0.00    -0.237 OA
ATOM     68  O   UNL A   1      49.182  24.554  33.600  1.00  0.00    -0.744 OA
ENDBRANCH  64  65
ENDBRANCH  43  57
BRANCH  44  69
ATOM     69  C   UNL A   1      36.987  32.475  30.115  1.00  0.00     0.058 A 
ATOM     70  C   UNL A   1      35.728  32.107  30.605  1.00  0.00     0.135 A 
ATOM     71  C   UNL A   1      37.057  33.558  29.223  1.00  0.00     0.135 A 
ATOM     72  F   UNL A   1      35.614  31.078  31.457  1.00  0.00    -0.206 F 
ATOM     73  C   UNL A   1      34.576  32.789  30.228  1.00  0.00     0.059 A 
ATOM     74  C   UNL A   1      35.922  34.270  28.851  1.00  0.00     0.059 A 
ATOM     75  F   UNL A   1      38.245  33.961  28.745  1.00  0.00    -0.206 F 
ATOM     76  C   UNL A   1      34.685  33.874  29.356  1.00  0.00     0.060 A 
BRANCH  76  77
ATOM     77  S   UNL A   1      33.195  34.805  28.937  1.00  0.00     0.124 S 
ATOM     78  O   UNL A   1      33.761  36.021  28.363  1.00  0.00    -0.237 OA
ATOM     79  O   UNL A   1      32.523  33.910  27.999  1.00  0.00    -0.237 OA
ATOM     80  O   UNL A   1      32.528  34.965  30.225  1.00  0.00    -0.744 OA
ENDBRANCH  76  77
ENDBRANCH  44  69
BRANCH  56  81
ATOM     81  C   UNL A   1      41.090  33.163  35.702  1.00  0.00     0.058 A 
ATOM     82  C   UNL A   1      40.378  32.915  36.885  1.00  0.00     0.135 A 
ATOM     83  C   UNL A   1      41.829  34.353  35.613  1.00  0.00     0.135 A 
ATOM     84  F   UNL A   1      39.646  31.797  37.012  1.00  0.00    -0.206 F 
ATOM     85  C   UNL A   1      40.382  33.825  37.937  1.00  0.00     0.059 A 
ATOM     86  C   UNL A   1      41.864  35.267  36.661  1.00  0.00     0.059 A 
ATOM     87  F   UNL A   1      42.528  34.634  34.502  1.00  0.00    -0.206 F 
ATOM     88  C   UNL A   1      41.127  35.000  37.814  1.00  0.00     0.060 A 
BRANCH  88  89
ATOM     89  S   UNL A   1      41.144  36.164  39.194  1.00  0.00     0.124 S 
ATOM     90  O   UNL A   1      42.553  36.149  39.573  1.00  0.00    -0.237 OA
ATOM     91  O   UNL A   1      40.669  37.396  38.573  1.00  0.00    -0.237 OA
ATOM     92  O   UNL A   1      40.227  35.561  40.156  1.00  0.00    -0.744 OA
ENDBRANCH  88  89
ENDBRANCH  56  81
ENDBRANCH  30  31
ENDBRANCH  23  25
ENDBRANCH  22  23
ENDBRANCH  21  22
ENDBRANCH   1  21
TORSDOF 19
ENDMDL
MODEL 3
REMARK VINA RESULT:      -9.8      4.260     10.120
REMARK SMILES C[C@@H]([NH2+]C1(CO)CCCCC1)[C@@H](C)C(=O)OCCOC(=O)c1ccc(-c2c3nc(c(-c4c(F)cc(S(=O)(=O)[O-])cc4F)c4ccc([nH]4)c(-c4c(F)cc(S(=O)(=O)[O-])cc4F)c4nc(c(-c5c(F)cc(S(=O)(=O)[O-])cc5F)c5ccc2[nH]5)C=C4)C=C3)cc1
REMARK SMILES IDX 17 1 16 2 14 3 15 4 12 5 13 6 2 7 1 8 3 9 4 12 7 13 11 14
REMARK SMILES IDX 8 15 10 16 9 17 5 18 6 19 18 21 19 22 20 23 21 24 22 25
REMARK SMILES IDX 23 26 87 27 24 28 86 29 25 30 26 31 27 32 80 33 28 34 85 35
REMARK SMILES IDX 79 36 81 37 29 38 84 39 78 40 77 41 30 43 64 44 43 45 63 46
REMARK SMILES IDX 44 47 47 48 62 49 82 50 45 51 46 52 61 54 83 55 48 56 31 57
REMARK SMILES IDX 32 58 41 59 33 60 34 61 40 62 42 63 35 64 36 65 37 66 38 67
REMARK SMILES IDX 39 68 65 69 66 70 75 71 67 72 68 73 74 74 76 75 69 76 70 77
REMARK SMILES IDX 71 78 72 79 73 80 49 81 50 82 59 83 51 84 52 85 58 86 60 87
REMARK SMILES IDX 53 88 54 89 55 90 56 91 57 92
REMARK H PARENT 3 10 3 11 6 20 81 42 47 53
REMARK Flexibility Score: inf
ROOT
ATOM      1  C   UNL A   1      36.750  22.281  23.972  1.00  0.00     0.274 C 
ENDROOT
BRANCH   1   2
ATOM      2  O   UNL A   1      35.325  22.122  24.195  1.00  0.00    -0.462 OA
BRANCH   2   3
ATOM      3  C   UNL A   1      34.964  21.054  24.944  1.00  0.00     0.314 C 
ATOM      4  O   UNL A   1      35.634  20.025  25.002  1.00  0.00    -0.252 OA
BRANCH   3   5
ATOM      5  C   UNL A   1      33.587  21.128  25.611  1.00  0.00     0.154 C 
ATOM      6  C   UNL A   1      32.693  20.377  24.590  1.00  0.00     0.026 C 
BRANCH   5   7
ATOM      7  C   UNL A   1      32.887  22.460  26.088  1.00  0.00     0.193 C 
ATOM      8  C   UNL A   1      33.113  22.574  27.626  1.00  0.00     0.076 C 
BRANCH   7   9
ATOM      9  N   UNL A   1      33.336  23.797  25.632  1.00  0.00    -0.337 N 
ATOM     10  H   UNL A   1      34.176  23.643  25.073  1.00  0.00     0.347 HD
ATOM     11  H   UNL A   1      33.415  24.309  26.511  1.00  0.00     0.347 HD
BRANCH   9  12
ATOM     12  C   UNL A   1      32.466  24.684  24.833  1.00  0.00     0.120 C 
ATOM     13  C   UNL A   1      31.196  23.944  24.352  1.00  0.00     0.071 C 
ATOM     14  C   UNL A   1      31.911  25.851  25.718  1.00  0.00     0.071 C 
ATOM     15  C   UNL A   1      30.276  24.812  23.502  1.00  0.00     0.007 C 
ATOM     16  C   UNL A   1      31.037  26.814  24.892  1.00  0.00     0.007 C 
ATOM     17  C   UNL A   1      29.872  26.101  24.207  1.00  0.00     0.001 C 
BRANCH  12  18
ATOM     18  C   UNL A   1      33.352  25.338  23.747  1.00  0.00     0.224 C 
BRANCH  18  19
ATOM     19  O   UNL A   1      33.967  24.346  22.916  1.00  0.00    -0.390 OA
ATOM     20  H   UNL A   1      33.792  24.551  21.985  1.00  0.00     0.210 HD
ENDBRANCH  18  19
ENDBRANCH  12  18
ENDBRANCH   9  12
ENDBRANCH   7   9
ENDBRANCH   5   7
ENDBRANCH   3   5
ENDBRANCH   2   3
ENDBRANCH   1   2
BRANCH   1  21
ATOM     21  C   UNL A   1      37.413  23.332  24.872  1.00  0.00     0.275 C 
BRANCH  21  22
ATOM     22  O   UNL A   1      37.982  22.714  26.031  1.00  0.00    -0.458 OA
BRANCH  22  23
ATOM     23  C   UNL A   1      39.310  22.890  26.219  1.00  0.00     0.338 C 
ATOM     24  O   UNL A   1      40.197  22.173  25.764  1.00  0.00    -0.246 OA
BRANCH  23  25
ATOM     25  C   UNL A   1      39.563  24.165  26.943  1.00  0.00     0.060 A 
ATOM     26  C   UNL A   1      38.891  24.473  28.135  1.00  0.00     0.016 A 
ATOM     27  C   UNL A   1      40.414  25.119  26.376  1.00  0.00     0.016 A 
ATOM     28  C   UNL A   1      39.061  25.713  28.749  1.00  0.00     0.010 A 
ATOM     29  C   UNL A   1      40.651  26.330  27.038  1.00  0.00     0.010 A 
ATOM     30  C   UNL A   1      40.004  26.619  28.250  1.00  0.00    -0.014 A 
BRANCH  30  31
ATOM     31  C   UNL A   1      40.481  27.750  29.088  1.00  0.00     0.031 A 
ATOM     32  C   UNL A   1      41.683  27.624  29.976  1.00  0.00     0.074 A 
ATOM     33  C   UNL A   1      39.717  28.862  29.132  1.00  0.00     0.049 A 
ATOM     34  N   UNL A   1      42.042  28.379  30.982  1.00  0.00    -0.248 NA
ATOM     35  C   UNL A   1      42.592  26.500  29.708  1.00  0.00     0.031 C 
ATOM     36  C   UNL A   1      38.533  29.109  28.302  1.00  0.00     0.029 A 
ATOM     37  N   UNL A   1      39.792  29.973  29.934  1.00  0.00    -0.354 N 
ATOM     38  C   UNL A   1      43.199  27.806  31.497  1.00  0.00     0.074 A 
ATOM     39  C   UNL A   1      43.484  26.639  30.684  1.00  0.00     0.031 C 
ATOM     40  C   UNL A   1      37.986  30.280  28.647  1.00  0.00     0.029 A 
ATOM     41  C   UNL A   1      38.725  30.825  29.776  1.00  0.00     0.049 A 
ATOM     42  H   UNL A   1      40.535  30.143  30.558  1.00  0.00     0.167 HD
ATOM     43  C   UNL A   1      43.939  28.218  32.555  1.00  0.00     0.037 A 
ATOM     44  C   UNL A   1      38.331  31.890  30.497  1.00  0.00     0.037 A 
ATOM     45  C   UNL A   1      43.650  29.399  33.333  1.00  0.00     0.049 A 
ATOM     46  C   UNL A   1      39.137  32.299  31.690  1.00  0.00     0.074 A 
ATOM     47  C   UNL A   1      44.359  29.923  34.402  1.00  0.00     0.029 A 
ATOM     48  N   UNL A   1      42.565  30.242  33.130  1.00  0.00    -0.354 N 
ATOM     49  N   UNL A   1      40.211  31.733  32.185  1.00  0.00    -0.248 NA
ATOM     50  C   UNL A   1      38.675  33.478  32.428  1.00  0.00     0.031 C 
ATOM     51  C   UNL A   1      43.685  31.058  34.866  1.00  0.00     0.029 A 
ATOM     52  C   UNL A   1      42.577  31.269  34.062  1.00  0.00     0.049 A 
ATOM     53  H   UNL A   1      41.886  30.127  32.426  1.00  0.00     0.167 HD
ATOM     54  C   UNL A   1      40.565  32.498  33.287  1.00  0.00     0.074 A 
ATOM     55  C   UNL A   1      39.595  33.572  33.379  1.00  0.00     0.031 C 
ATOM     56  C   UNL A   1      41.602  32.326  34.143  1.00  0.00     0.037 A 
BRANCH  43  57
ATOM     57  C   UNL A   1      45.122  27.382  32.963  1.00  0.00     0.058 A 
ATOM     58  C   UNL A   1      46.412  27.630  32.472  1.00  0.00     0.135 A 
ATOM     59  C   UNL A   1      44.972  26.364  33.920  1.00  0.00     0.135 A 
ATOM     60  F   UNL A   1      46.612  28.586  31.551  1.00  0.00    -0.206 F 
ATOM     61  C   UNL A   1      47.510  26.890  32.904  1.00  0.00     0.059 A 
ATOM     62  C   UNL A   1      46.058  25.625  34.381  1.00  0.00     0.059 A 
ATOM     63  F   UNL A   1      43.760  26.086  34.426  1.00  0.00    -0.206 F 
ATOM     64  C   UNL A   1      47.323  25.889  33.859  1.00  0.00     0.060 A 
BRANCH  64  65
ATOM     65  S   UNL A   1      48.758  24.950  34.427  1.00  0.00     0.124 S 
ATOM     66  O   UNL A   1      49.554  24.866  33.205  1.00  0.00    -0.237 OA
ATOM     67  O   UNL A   1      49.300  25.806  35.477  1.00  0.00    -0.237 OA
ATOM     68  O   UNL A   1      48.181  23.690  34.885  1.00  0.00    -0.744 OA
ENDBRANCH  64  65
ENDBRANCH  43  57
BRANCH  44  69
ATOM     69  C   UNL A   1      37.085  32.601  30.119  1.00  0.00     0.058 A 
ATOM     70  C   UNL A   1      35.853  32.231  30.673  1.00  0.00     0.135 A 
ATOM     71  C   UNL A   1      37.113  33.710  29.258  1.00  0.00     0.135 A 
ATOM     72  F   UNL A   1      35.778  31.177  31.499  1.00  0.00    -0.206 F 
ATOM     73  C   UNL A   1      34.689  32.936  30.389  1.00  0.00     0.059 A 
ATOM     74  C   UNL A   1      35.967  34.446  28.978  1.00  0.00     0.059 A 
ATOM     75  F   UNL A   1      38.275  34.116  28.721  1.00  0.00    -0.206 F 
ATOM     76  C   UNL A   1      34.758  34.047  29.545  1.00  0.00     0.060 A 
BRANCH  76  77
ATOM     77  S   UNL A   1      33.257  35.006  29.247  1.00  0.00     0.124 S 
ATOM     78  O   UNL A   1      32.527  34.132  28.336  1.00  0.00    -0.237 OA
ATOM     79  O   UNL A   1      32.700  35.136  30.591  1.00  0.00    -0.237 OA
ATOM     80  O   UNL A   1      33.762  36.246  28.666  1.00  0.00    -0.744 OA
ENDBRANCH  76  77
ENDBRANCH  44  69
BRANCH  56  81
ATOM     81  C   UNL A   1      41.753  33.346  35.234  1.00  0.00     0.058 A 
ATOM     82  C   UNL A   1      42.371  34.584  35.002  1.00  0.00     0.135 A 
ATOM     83  C   UNL A   1      41.258  33.087  36.521  1.00  0.00     0.135 A 
ATOM     84  F   UNL A   1      42.872  34.873  33.790  1.00  0.00    -0.206 F 
ATOM     85  C   UNL A   1      42.511  35.526  36.016  1.00  0.00     0.059 A 
ATOM     86  C   UNL A   1      41.368  34.022  37.545  1.00  0.00     0.059 A 
ATOM     87  F   UNL A   1      40.657  31.918  36.792  1.00  0.00    -0.206 F 
ATOM     88  C   UNL A   1      42.007  35.234  37.286  1.00  0.00     0.060 A 
BRANCH  88  89
ATOM     89  S   UNL A   1      42.174  36.471  38.590  1.00  0.00     0.124 S 
ATOM     90  O   UNL A   1      40.918  37.203  38.463  1.00  0.00    -0.237 OA
ATOM     91  O   UNL A   1      42.311  35.650  39.788  1.00  0.00    -0.237 OA
ATOM     92  O   UNL A   1      43.373  37.209  38.204  1.00  0.00    -0.744 OA
ENDBRANCH  88  89
ENDBRANCH  56  81
ENDBRANCH  30  31
ENDBRANCH  23  25
ENDBRANCH  22  23
ENDBRANCH  21  22
ENDBRANCH   1  21
TORSDOF 19
ENDMDL
