MODEL 1
REMARK VINA RESULT:     -11.3      0.000      0.000
REMARK SMILES O=C(OCCOC(=O)c1ccc(-c2c3nc(c(-c4c(F)cc(S(=O)(=O)[O-])cc4F)c4ccc([nH]4)c(-c4c(F)cc(S(=O)(=O)[O-])cc4F)c4nc(c(-c5c(F)cc(S(=O)(=O)[O-])cc5F)c5ccc2[nH]5)C=C4)C=C3)cc1)c1ccc(NC(=O)[C@@H]2CCS(=O)(=O)C2)cc1
REMARK SMILES IDX 5 1 4 2 3 3 2 4 1 5 75 6 76 7 90 8 77 9 89 10 78 11 79 12
REMARK SMILES IDX 80 13 81 15 82 16 83 17 88 18 84 19 85 20 86 21 87 22 6 23
REMARK SMILES IDX 7 24 8 25 9 26 10 27 74 28 11 29 73 30 12 31 13 32 14 33
REMARK SMILES IDX 67 34 15 35 72 36 66 37 68 38 16 39 71 40 65 41 64 42 17 44
REMARK SMILES IDX 51 45 30 46 50 47 31 48 34 49 49 50 69 51 32 52 33 53 48 55
REMARK SMILES IDX 70 56 35 57 18 58 19 59 28 60 20 61 21 62 27 63 29 64 22 65
REMARK SMILES IDX 23 66 24 67 25 68 26 69 52 70 53 71 62 72 54 73 55 74 61 75
REMARK SMILES IDX 63 76 56 77 57 78 58 79 59 80 60 81 36 82 37 83 46 84 38 85
REMARK SMILES IDX 39 86 45 87 47 88 40 89 41 90 42 91 43 92 44 93
REMARK H PARENT 79 14 68 43 34 54
REMARK Flexibility Score: inf
ROOT
ATOM      1  C   UNL A   1      43.133  23.284  25.494  1.00  0.00     0.275 C 
ENDROOT
BRANCH   1   2
ATOM      2  C   UNL A   1      43.055  21.779  25.799  1.00  0.00     0.275 C 
BRANCH   2   3
ATOM      3  O   UNL A   1      41.739  21.201  25.698  1.00  0.00    -0.458 OA
BRANCH   3   4
ATOM      4  C   UNL A   1      40.685  21.225  26.554  1.00  0.00     0.338 C 
ATOM      5  O   UNL A   1      40.780  20.612  27.616  1.00  0.00    -0.246 OA
BRANCH   4   6
ATOM      6  C   UNL A   1      39.355  21.828  26.218  1.00  0.00     0.060 A 
ATOM      7  C   UNL A   1      38.959  23.117  26.532  1.00  0.00     0.018 A 
ATOM      8  C   UNL A   1      38.448  21.060  25.470  1.00  0.00     0.018 A 
ATOM      9  C   UNL A   1      37.848  23.703  25.924  1.00  0.00     0.027 A 
ATOM     10  C   UNL A   1      37.280  21.632  24.934  1.00  0.00     0.027 A 
ATOM     11  C   UNL A   1      37.039  23.001  25.050  1.00  0.00     0.041 A 
BRANCH  11  12
ATOM     12  N   UNL A   1      36.018  23.568  24.264  1.00  0.00    -0.326 N 
ATOM     13  C   UNL A   1      34.759  24.024  24.552  1.00  0.00     0.228 C 
ATOM     14  H   UNL A   1      36.258  23.655  23.312  1.00  0.00     0.169 HD
ATOM     15  O   UNL A   1      34.066  24.455  23.629  1.00  0.00    -0.274 OA
BRANCH  13  16
ATOM     16  C   UNL A   1      34.202  24.019  25.966  1.00  0.00     0.095 C 
ATOM     17  C   UNL A   1      33.652  22.628  26.320  1.00  0.00     0.030 C 
ATOM     18  C   UNL A   1      33.049  25.017  26.154  1.00  0.00     0.150 C 
ATOM     19  C   UNL A   1      32.268  22.510  25.706  1.00  0.00     0.138 C 
ATOM     20  S   UNL A   1      31.528  24.103  25.948  1.00  0.00     0.151 S 
ATOM     21  O   UNL A   1      30.849  24.499  24.740  1.00  0.00    -0.229 OA
ATOM     22  O   UNL A   1      30.850  24.069  27.234  1.00  0.00    -0.229 OA
ENDBRANCH  13  16
ENDBRANCH  11  12
ENDBRANCH   4   6
ENDBRANCH   3   4
ENDBRANCH   2   3
ENDBRANCH   1   2
BRANCH   1  23
ATOM     23  O   UNL A   1      42.581  24.115  26.529  1.00  0.00    -0.458 OA
BRANCH  23  24
ATOM     24  C   UNL A   1      42.124  25.326  26.110  1.00  0.00     0.338 C 
ATOM     25  O   UNL A   1      41.911  25.649  24.954  1.00  0.00    -0.246 OA
BRANCH  24  26
ATOM     26  C   UNL A   1      41.775  26.173  27.277  1.00  0.00     0.060 A 
ATOM     27  C   UNL A   1      42.543  27.320  27.515  1.00  0.00     0.016 A 
ATOM     28  C   UNL A   1      40.721  25.856  28.137  1.00  0.00     0.016 A 
ATOM     29  C   UNL A   1      42.265  28.147  28.613  1.00  0.00     0.010 A 
ATOM     30  C   UNL A   1      40.437  26.693  29.227  1.00  0.00     0.010 A 
ATOM     31  C   UNL A   1      41.217  27.838  29.488  1.00  0.00    -0.014 A 
BRANCH  31  32
ATOM     32  C   UNL A   1      40.988  28.617  30.744  1.00  0.00     0.031 A 
ATOM     33  C   UNL A   1      39.933  29.689  30.759  1.00  0.00     0.074 A 
ATOM     34  C   UNL A   1      41.723  28.425  31.858  1.00  0.00     0.049 A 
ATOM     35  N   UNL A   1      39.637  30.546  31.702  1.00  0.00    -0.248 NA
ATOM     36  C   UNL A   1      39.099  29.798  29.555  1.00  0.00     0.031 C 
ATOM     37  C   UNL A   1      42.716  27.378  32.042  1.00  0.00     0.029 A 
ATOM     38  N   UNL A   1      41.769  29.132  33.038  1.00  0.00    -0.354 N 
ATOM     39  C   UNL A   1      38.582  31.300  31.207  1.00  0.00     0.074 A 
ATOM     40  C   UNL A   1      38.326  30.829  29.860  1.00  0.00     0.031 C 
ATOM     41  C   UNL A   1      43.346  27.559  33.215  1.00  0.00     0.029 A 
ATOM     42  C   UNL A   1      42.778  28.730  33.884  1.00  0.00     0.049 A 
ATOM     43  H   UNL A   1      41.140  29.856  33.257  1.00  0.00     0.167 HD
ATOM     44  C   UNL A   1      37.873  32.277  31.820  1.00  0.00     0.037 A 
ATOM     45  C   UNL A   1      43.207  29.238  35.059  1.00  0.00     0.037 A 
ATOM     46  C   UNL A   1      38.122  32.756  33.154  1.00  0.00     0.049 A 
ATOM     47  C   UNL A   1      42.473  30.391  35.692  1.00  0.00     0.074 A 
ATOM     48  C   UNL A   1      37.423  33.717  33.864  1.00  0.00     0.029 A 
ATOM     49  N   UNL A   1      39.161  32.336  33.972  1.00  0.00    -0.354 N 
ATOM     50  N   UNL A   1      41.434  31.051  35.238  1.00  0.00    -0.248 NA
ATOM     51  C   UNL A   1      42.942  30.849  37.008  1.00  0.00     0.031 C 
ATOM     52  C   UNL A   1      38.077  33.925  35.083  1.00  0.00     0.029 A 
ATOM     53  C   UNL A   1      39.143  33.043  35.164  1.00  0.00     0.049 A 
ATOM     54  H   UNL A   1      39.814  31.636  33.740  1.00  0.00     0.167 HD
ATOM     55  C   UNL A   1      41.100  31.970  36.231  1.00  0.00     0.074 A 
ATOM     56  C   UNL A   1      42.052  31.788  37.305  1.00  0.00     0.031 C 
ATOM     57  C   UNL A   1      40.081  32.864  36.248  1.00  0.00     0.037 A 
BRANCH  44  58
ATOM     58  C   UNL A   1      36.775  32.921  31.020  1.00  0.00     0.058 A 
ATOM     59  C   UNL A   1      37.038  33.912  30.061  1.00  0.00     0.135 A 
ATOM     60  C   UNL A   1      35.436  32.557  31.238  1.00  0.00     0.135 A 
ATOM     61  F   UNL A   1      38.300  34.307  29.823  1.00  0.00    -0.206 F 
ATOM     62  C   UNL A   1      36.009  34.564  29.391  1.00  0.00     0.059 A 
ATOM     63  C   UNL A   1      34.393  33.171  30.553  1.00  0.00     0.059 A 
ATOM     64  F   UNL A   1      35.129  31.610  32.138  1.00  0.00    -0.206 F 
ATOM     65  C   UNL A   1      34.688  34.194  29.654  1.00  0.00     0.060 A 
BRANCH  65  66
ATOM     66  S   UNL A   1      33.361  35.093  28.826  1.00  0.00     0.124 S 
ATOM     67  O   UNL A   1      32.792  34.049  27.980  1.00  0.00    -0.237 OA
ATOM     68  O   UNL A   1      32.530  35.525  29.945  1.00  0.00    -0.237 OA
ATOM     69  O   UNL A   1      34.062  36.161  28.120  1.00  0.00    -0.744 OA
ENDBRANCH  65  66
ENDBRANCH  44  58
BRANCH  45  70
ATOM     70  C   UNL A   1      44.397  28.639  35.723  1.00  0.00     0.058 A 
ATOM     71  C   UNL A   1      44.267  27.604  36.661  1.00  0.00     0.135 A 
ATOM     72  C   UNL A   1      45.694  29.071  35.404  1.00  0.00     0.135 A 
ATOM     73  F   UNL A   1      43.048  27.165  37.010  1.00  0.00    -0.206 F 
ATOM     74  C   UNL A   1      45.380  27.014  37.253  1.00  0.00     0.059 A 
ATOM     75  C   UNL A   1      46.822  28.485  35.969  1.00  0.00     0.059 A 
ATOM     76  F   UNL A   1      45.873  30.051  34.504  1.00  0.00    -0.206 F 
ATOM     77  C   UNL A   1      46.654  27.454  36.891  1.00  0.00     0.060 A 
BRANCH  77  78
ATOM     78  S   UNL A   1      48.091  26.609  37.590  1.00  0.00     0.124 S 
ATOM     79  O   UNL A   1      47.907  25.250  37.093  1.00  0.00    -0.237 OA
ATOM     80  O   UNL A   1      49.197  27.360  37.004  1.00  0.00    -0.237 OA
ATOM     81  O   UNL A   1      47.917  26.785  39.029  1.00  0.00    -0.744 OA
ENDBRANCH  77  78
ENDBRANCH  45  70
BRANCH  57  82
ATOM     82  C   UNL A   1      39.882  33.702  37.484  1.00  0.00     0.058 A 
ATOM     83  C   UNL A   1      40.507  34.947  37.652  1.00  0.00     0.135 A 
ATOM     84  C   UNL A   1      38.967  33.295  38.471  1.00  0.00     0.135 A 
ATOM     85  F   UNL A   1      41.397  35.384  36.748  1.00  0.00    -0.206 F 
ATOM     86  C   UNL A   1      40.233  35.758  38.752  1.00  0.00     0.059 A 
ATOM     87  C   UNL A   1      38.658  34.100  39.564  1.00  0.00     0.059 A 
ATOM     88  F   UNL A   1      38.335  32.116  38.361  1.00  0.00    -0.206 F 
ATOM     89  C   UNL A   1      39.299  35.330  39.699  1.00  0.00     0.060 A 
BRANCH  89  90
ATOM     90  S   UNL A   1      38.899  36.422  41.081  1.00  0.00     0.124 S 
ATOM     91  O   UNL A   1      38.518  37.649  40.388  1.00  0.00    -0.237 OA
ATOM     92  O   UNL A   1      37.814  35.704  41.742  1.00  0.00    -0.237 OA
ATOM     93  O   UNL A   1      40.148  36.490  41.835  1.00  0.00    -0.744 OA
ENDBRANCH  89  90
ENDBRANCH  57  82
ENDBRANCH  31  32
ENDBRANCH  24  26
ENDBRANCH  23  24
ENDBRANCH   1  23
TORSDOF 16
ENDMDL
MODEL 2
REMARK VINA RESULT:     -11.2      6.420     11.987
REMARK SMILES O=C(OCCOC(=O)c1ccc(-c2c3nc(c(-c4c(F)cc(S(=O)(=O)[O-])cc4F)c4ccc([nH]4)c(-c4c(F)cc(S(=O)(=O)[O-])cc4F)c4nc(c(-c5c(F)cc(S(=O)(=O)[O-])cc5F)c5ccc2[nH]5)C=C4)C=C3)cc1)c1ccc(NC(=O)[C@@H]2CCS(=O)(=O)C2)cc1
REMARK SMILES IDX 5 1 4 2 3 3 2 4 1 5 75 6 76 7 90 8 77 9 89 10 78 11 79 12
REMARK SMILES IDX 80 13 81 15 82 16 83 17 88 18 84 19 85 20 86 21 87 22 6 23
REMARK SMILES IDX 7 24 8 25 9 26 10 27 74 28 11 29 73 30 12 31 13 32 14 33
REMARK SMILES IDX 67 34 15 35 72 36 66 37 68 38 16 39 71 40 65 41 64 42 17 44
REMARK SMILES IDX 51 45 30 46 50 47 31 48 34 49 49 50 69 51 32 52 33 53 48 55
REMARK SMILES IDX 70 56 35 57 18 58 19 59 28 60 20 61 21 62 27 63 29 64 22 65
REMARK SMILES IDX 23 66 24 67 25 68 26 69 52 70 53 71 62 72 54 73 55 74 61 75
REMARK SMILES IDX 63 76 56 77 57 78 58 79 59 80 60 81 36 82 37 83 46 84 38 85
REMARK SMILES IDX 39 86 45 87 47 88 40 89 41 90 42 91 43 92 44 93
REMARK H PARENT 79 14 68 43 34 54
REMARK Flexibility Score: inf
ROOT
ATOM      1  C   UNL A   1      34.715  32.312  28.980  1.00  0.00     0.275 C 
ENDROOT
BRANCH   1   2
ATOM      2  C   UNL A   1      34.427  31.570  27.665  1.00  0.00     0.275 C 
BRANCH   2   3
ATOM      3  O   UNL A   1      33.288  30.686  27.697  1.00  0.00    -0.458 OA
BRANCH   3   4
ATOM      4  C   UNL A   1      32.255  30.529  26.829  1.00  0.00     0.338 C 
ATOM      5  O   UNL A   1      31.623  31.526  26.485  1.00  0.00    -0.246 OA
BRANCH   4   6
ATOM      6  C   UNL A   1      31.744  29.193  26.381  1.00  0.00     0.060 A 
ATOM      7  C   UNL A   1      31.462  28.843  25.071  1.00  0.00     0.018 A 
ATOM      8  C   UNL A   1      31.590  28.184  27.345  1.00  0.00     0.018 A 
ATOM      9  C   UNL A   1      31.290  27.510  24.698  1.00  0.00     0.027 A 
ATOM     10  C   UNL A   1      31.327  26.854  26.969  1.00  0.00     0.027 A 
ATOM     11  C   UNL A   1      31.306  26.484  25.625  1.00  0.00     0.041 A 
BRANCH  11  12
ATOM     12  N   UNL A   1      31.322  25.112  25.309  1.00  0.00    -0.326 N 
ATOM     13  C   UNL A   1      32.264  24.129  25.458  1.00  0.00     0.228 C 
ATOM     14  H   UNL A   1      30.486  24.795  24.897  1.00  0.00     0.169 HD
ATOM     15  O   UNL A   1      31.997  22.996  25.054  1.00  0.00    -0.274 OA
BRANCH  13  16
ATOM     16  C   UNL A   1      33.612  24.393  26.107  1.00  0.00     0.095 C 
ATOM     17  C   UNL A   1      34.571  25.054  25.103  1.00  0.00     0.030 C 
ATOM     18  C   UNL A   1      34.297  23.108  26.600  1.00  0.00     0.150 C 
ATOM     19  C   UNL A   1      35.139  23.957  24.219  1.00  0.00     0.138 C 
ATOM     20  S   UNL A   1      35.431  22.597  25.317  1.00  0.00     0.151 S 
ATOM     21  O   UNL A   1      34.983  21.377  24.692  1.00  0.00    -0.229 OA
ATOM     22  O   UNL A   1      36.782  22.744  25.831  1.00  0.00    -0.229 OA
ENDBRANCH  13  16
ENDBRANCH  11  12
ENDBRANCH   4   6
ENDBRANCH   3   4
ENDBRANCH   2   3
ENDBRANCH   1   2
BRANCH   1  23
ATOM     23  O   UNL A   1      36.100  32.298  29.364  1.00  0.00    -0.458 OA
BRANCH  23  24
ATOM     24  C   UNL A   1      36.430  31.353  30.287  1.00  0.00     0.338 C 
ATOM     25  O   UNL A   1      35.723  30.971  31.204  1.00  0.00    -0.246 OA
BRANCH  24  26
ATOM     26  C   UNL A   1      37.733  30.735  29.942  1.00  0.00     0.060 A 
ATOM     27  C   UNL A   1      38.622  30.438  30.983  1.00  0.00     0.016 A 
ATOM     28  C   UNL A   1      38.095  30.452  28.622  1.00  0.00     0.016 A 
ATOM     29  C   UNL A   1      39.872  29.865  30.710  1.00  0.00     0.010 A 
ATOM     30  C   UNL A   1      39.342  29.867  28.353  1.00  0.00     0.010 A 
ATOM     31  C   UNL A   1      40.252  29.583  29.392  1.00  0.00    -0.014 A 
BRANCH  31  32
ATOM     32  C   UNL A   1      41.630  29.110  29.057  1.00  0.00     0.031 A 
ATOM     33  C   UNL A   1      42.748  30.112  28.973  1.00  0.00     0.074 A 
ATOM     34  C   UNL A   1      41.906  27.818  28.784  1.00  0.00     0.049 A 
ATOM     35  N   UNL A   1      43.991  29.938  28.604  1.00  0.00    -0.248 NA
ATOM     36  C   UNL A   1      42.420  31.489  29.368  1.00  0.00     0.031 C 
ATOM     37  C   UNL A   1      40.967  26.713  28.906  1.00  0.00     0.029 A 
ATOM     38  N   UNL A   1      43.054  27.223  28.314  1.00  0.00    -0.354 N 
ATOM     39  C   UNL A   1      44.596  31.181  28.720  1.00  0.00     0.074 A 
ATOM     40  C   UNL A   1      43.567  32.110  29.145  1.00  0.00     0.031 C 
ATOM     41  C   UNL A   1      41.533  25.591  28.432  1.00  0.00     0.029 A 
ATOM     42  C   UNL A   1      42.896  25.893  27.994  1.00  0.00     0.049 A 
ATOM     43  H   UNL A   1      43.908  27.702  28.216  1.00  0.00     0.167 HD
ATOM     44  C   UNL A   1      45.891  31.521  28.516  1.00  0.00     0.037 A 
ATOM     45  C   UNL A   1      43.740  25.014  27.414  1.00  0.00     0.037 A 
ATOM     46  C   UNL A   1      46.919  30.608  28.089  1.00  0.00     0.049 A 
ATOM     47  C   UNL A   1      45.154  25.425  27.098  1.00  0.00     0.074 A 
ATOM     48  C   UNL A   1      48.266  30.863  27.896  1.00  0.00     0.029 A 
ATOM     49  N   UNL A   1      46.718  29.275  27.760  1.00  0.00    -0.354 N 
ATOM     50  N   UNL A   1      45.729  26.591  27.274  1.00  0.00    -0.248 NA
ATOM     51  C   UNL A   1      46.046  24.399  26.537  1.00  0.00     0.031 C 
ATOM     52  C   UNL A   1      48.865  29.706  27.389  1.00  0.00     0.029 A 
ATOM     53  C   UNL A   1      47.907  28.706  27.332  1.00  0.00     0.049 A 
ATOM     54  H   UNL A   1      45.856  28.802  27.823  1.00  0.00     0.167 HD
ATOM     55  C   UNL A   1      47.057  26.425  26.889  1.00  0.00     0.074 A 
ATOM     56  C   UNL A   1      47.199  25.051  26.460  1.00  0.00     0.031 C 
ATOM     57  C   UNL A   1      48.065  27.334  26.912  1.00  0.00     0.037 A 
BRANCH  44  58
ATOM     58  C   UNL A   1      46.254  32.965  28.720  1.00  0.00     0.058 A 
ATOM     59  C   UNL A   1      46.158  33.908  27.684  1.00  0.00     0.135 A 
ATOM     60  C   UNL A   1      46.730  33.405  29.966  1.00  0.00     0.135 A 
ATOM     61  F   UNL A   1      45.721  33.538  26.469  1.00  0.00    -0.206 F 
ATOM     62  C   UNL A   1      46.580  35.221  27.858  1.00  0.00     0.059 A 
ATOM     63  C   UNL A   1      47.123  34.722  30.172  1.00  0.00     0.059 A 
ATOM     64  F   UNL A   1      46.834  32.546  30.992  1.00  0.00    -0.206 F 
ATOM     65  C   UNL A   1      47.074  35.615  29.103  1.00  0.00     0.060 A 
BRANCH  65  66
ATOM     66  S   UNL A   1      47.678  37.304  29.296  1.00  0.00     0.124 S 
ATOM     67  O   UNL A   1      46.807  38.027  28.374  1.00  0.00    -0.237 OA
ATOM     68  O   UNL A   1      47.449  37.559  30.714  1.00  0.00    -0.237 OA
ATOM     69  O   UNL A   1      49.078  37.212  28.896  1.00  0.00    -0.744 OA
ENDBRANCH  65  66
ENDBRANCH  44  58
BRANCH  45  70
ATOM     70  C   UNL A   1      43.262  23.638  27.106  1.00  0.00     0.058 A 
ATOM     71  C   UNL A   1      42.911  23.260  25.801  1.00  0.00     0.135 A 
ATOM     72  C   UNL A   1      43.179  22.662  28.112  1.00  0.00     0.135 A 
ATOM     73  F   UNL A   1      42.960  24.161  24.807  1.00  0.00    -0.206 F 
ATOM     74  C   UNL A   1      42.503  21.964  25.503  1.00  0.00     0.059 A 
ATOM     75  C   UNL A   1      42.791  21.355  27.835  1.00  0.00     0.059 A 
ATOM     76  F   UNL A   1      43.516  22.969  29.375  1.00  0.00    -0.206 F 
ATOM     77  C   UNL A   1      42.458  21.015  26.526  1.00  0.00     0.060 A 
BRANCH  77  78
ATOM     78  S   UNL A   1      42.026  19.311  26.105  1.00  0.00     0.124 S 
ATOM     79  O   UNL A   1      42.451  18.592  27.301  1.00  0.00    -0.237 OA
ATOM     80  O   UNL A   1      40.585  19.408  25.895  1.00  0.00    -0.237 OA
ATOM     81  O   UNL A   1      42.810  19.054  24.900  1.00  0.00    -0.744 OA
ENDBRANCH  77  78
ENDBRANCH  45  70
BRANCH  57  82
ATOM     82  C   UNL A   1      49.446  26.883  26.513  1.00  0.00     0.058 A 
ATOM     83  C   UNL A   1      50.320  26.262  27.417  1.00  0.00     0.135 A 
ATOM     84  C   UNL A   1      49.860  26.985  25.174  1.00  0.00     0.135 A 
ATOM     85  F   UNL A   1      49.983  26.145  28.711  1.00  0.00    -0.206 F 
ATOM     86  C   UNL A   1      51.554  25.757  27.011  1.00  0.00     0.059 A 
ATOM     87  C   UNL A   1      51.076  26.464  24.739  1.00  0.00     0.059 A 
ATOM     88  F   UNL A   1      49.064  27.565  24.262  1.00  0.00    -0.206 F 
ATOM     89  C   UNL A   1      51.920  25.854  25.666  1.00  0.00     0.060 A 
BRANCH  89  90
ATOM     90  S   UNL A   1      53.488  25.132  25.136  1.00  0.00     0.124 S 
ATOM     91  O   UNL A   1      54.416  25.689  26.116  1.00  0.00    -0.237 OA
ATOM     92  O   UNL A   1      53.228  23.700  25.253  1.00  0.00    -0.237 OA
ATOM     93  O   UNL A   1      53.647  25.624  23.771  1.00  0.00    -0.744 OA
ENDBRANCH  89  90
ENDBRANCH  57  82
ENDBRANCH  31  32
ENDBRANCH  24  26
ENDBRANCH  23  24
ENDBRANCH   1  23
TORSDOF 16
ENDMDL
MODEL 3
REMARK VINA RESULT:     -11.2      0.461      8.330
REMARK SMILES O=C(OCCOC(=O)c1ccc(-c2c3nc(c(-c4c(F)cc(S(=O)(=O)[O-])cc4F)c4ccc([nH]4)c(-c4c(F)cc(S(=O)(=O)[O-])cc4F)c4nc(c(-c5c(F)cc(S(=O)(=O)[O-])cc5F)c5ccc2[nH]5)C=C4)C=C3)cc1)c1ccc(NC(=O)[C@@H]2CCS(=O)(=O)C2)cc1
REMARK SMILES IDX 5 1 4 2 3 3 2 4 1 5 75 6 76 7 90 8 77 9 89 10 78 11 79 12
REMARK SMILES IDX 80 13 81 15 82 16 83 17 88 18 84 19 85 20 86 21 87 22 6 23
REMARK SMILES IDX 7 24 8 25 9 26 10 27 74 28 11 29 73 30 12 31 13 32 14 33
REMARK SMILES IDX 67 34 15 35 72 36 66 37 68 38 16 39 71 40 65 41 64 42 17 44
REMARK SMILES IDX 51 45 30 46 50 47 31 48 34 49 49 50 69 51 32 52 33 53 48 55
REMARK SMILES IDX 70 56 35 57 18 58 19 59 28 60 20 61 21 62 27 63 29 64 22 65
REMARK SMILES IDX 23 66 24 67 25 68 26 69 52 70 53 71 62 72 54 73 55 74 61 75
REMARK SMILES IDX 63 76 56 77 57 78 58 79 59 80 60 81 36 82 37 83 46 84 38 85
REMARK SMILES IDX 39 86 45 87 47 88 40 89 41 90 42 91 43 92 44 93
REMARK H PARENT 79 14 68 43 34 54
REMARK Flexibility Score: inf
ROOT
ATOM      1  C   UNL A   1      42.827  23.143  26.478  1.00  0.00     0.275 C 
ENDROOT
BRANCH   1   2
ATOM      2  C   UNL A   1      42.814  21.877  25.606  1.00  0.00     0.275 C 
BRANCH   2   3
ATOM      3  O   UNL A   1      41.643  21.048  25.746  1.00  0.00    -0.458 OA
BRANCH   3   4
ATOM      4  C   UNL A   1      40.575  21.146  26.580  1.00  0.00     0.338 C 
ATOM      5  O   UNL A   1      40.635  20.590  27.676  1.00  0.00    -0.246 OA
BRANCH   4   6
ATOM      6  C   UNL A   1      39.267  21.762  26.185  1.00  0.00     0.060 A 
ATOM      7  C   UNL A   1      38.862  23.049  26.500  1.00  0.00     0.018 A 
ATOM      8  C   UNL A   1      38.396  21.012  25.380  1.00  0.00     0.018 A 
ATOM      9  C   UNL A   1      37.787  23.650  25.846  1.00  0.00     0.027 A 
ATOM     10  C   UNL A   1      37.260  21.600  24.794  1.00  0.00     0.027 A 
ATOM     11  C   UNL A   1      37.021  22.967  24.919  1.00  0.00     0.041 A 
BRANCH  11  12
ATOM     12  N   UNL A   1      36.044  23.554  24.092  1.00  0.00    -0.326 N 
ATOM     13  C   UNL A   1      34.857  24.186  24.348  1.00  0.00     0.228 C 
ATOM     14  H   UNL A   1      36.258  23.497  23.132  1.00  0.00     0.169 HD
ATOM     15  O   UNL A   1      34.185  24.583  23.394  1.00  0.00    -0.274 OA
BRANCH  13  16
ATOM     16  C   UNL A   1      34.354  24.417  25.764  1.00  0.00     0.095 C 
ATOM     17  C   UNL A   1      34.138  23.074  26.481  1.00  0.00     0.030 C 
ATOM     18  C   UNL A   1      33.012  25.166  25.803  1.00  0.00     0.150 C 
ATOM     19  C   UNL A   1      32.799  22.520  26.026  1.00  0.00     0.138 C 
ATOM     20  S   UNL A   1      31.729  23.931  25.944  1.00  0.00     0.151 S 
ATOM     21  O   UNL A   1      30.946  23.863  24.735  1.00  0.00    -0.229 OA
ATOM     22  O   UNL A   1      31.111  24.077  27.252  1.00  0.00    -0.229 OA
ENDBRANCH  13  16
ENDBRANCH  11  12
ENDBRANCH   4   6
ENDBRANCH   3   4
ENDBRANCH   2   3
ENDBRANCH   1   2
BRANCH   1  23
ATOM     23  O   UNL A   1      41.806  24.095  26.135  1.00  0.00    -0.458 OA
BRANCH  23  24
ATOM     24  C   UNL A   1      42.258  25.351  25.873  1.00  0.00     0.338 C 
ATOM     25  O   UNL A   1      42.641  25.763  24.792  1.00  0.00    -0.246 OA
BRANCH  24  26
ATOM     26  C   UNL A   1      42.086  26.215  27.067  1.00  0.00     0.060 A 
ATOM     27  C   UNL A   1      41.000  25.963  27.915  1.00  0.00     0.016 A 
ATOM     28  C   UNL A   1      42.962  27.264  27.358  1.00  0.00     0.016 A 
ATOM     29  C   UNL A   1      40.784  26.758  29.050  1.00  0.00     0.010 A 
ATOM     30  C   UNL A   1      42.749  28.051  28.500  1.00  0.00     0.010 A 
ATOM     31  C   UNL A   1      41.648  27.818  29.350  1.00  0.00    -0.014 A 
BRANCH  31  32
ATOM     32  C   UNL A   1      41.363  28.771  30.466  1.00  0.00     0.031 A 
ATOM     33  C   UNL A   1      42.102  28.618  31.767  1.00  0.00     0.074 A 
ATOM     34  C   UNL A   1      40.432  29.742  30.369  1.00  0.00     0.049 A 
ATOM     35  N   UNL A   1      41.942  29.266  32.892  1.00  0.00    -0.248 NA
ATOM     36  C   UNL A   1      43.168  27.608  31.795  1.00  0.00     0.031 C 
ATOM     37  C   UNL A   1      39.694  30.082  29.161  1.00  0.00     0.029 A 
ATOM     38  N   UNL A   1      39.924  30.600  31.317  1.00  0.00    -0.354 N 
ATOM     39  C   UNL A   1      42.886  28.743  33.765  1.00  0.00     0.074 A 
ATOM     40  C   UNL A   1      43.578  27.689  33.051  1.00  0.00     0.031 C 
ATOM     41  C   UNL A   1      38.761  31.004  29.453  1.00  0.00     0.029 A 
ATOM     42  C   UNL A   1      38.853  31.343  30.873  1.00  0.00     0.049 A 
ATOM     43  H   UNL A   1      40.292  30.677  32.226  1.00  0.00     0.167 HD
ATOM     44  C   UNL A   1      43.170  29.116  35.035  1.00  0.00     0.037 A 
ATOM     45  C   UNL A   1      38.034  32.195  31.525  1.00  0.00     0.037 A 
ATOM     46  C   UNL A   1      42.484  30.158  35.755  1.00  0.00     0.049 A 
ATOM     47  C   UNL A   1      38.295  32.534  32.969  1.00  0.00     0.074 A 
ATOM     48  C   UNL A   1      42.737  30.625  37.033  1.00  0.00     0.029 A 
ATOM     49  N   UNL A   1      41.397  30.875  35.279  1.00  0.00    -0.354 N 
ATOM     50  N   UNL A   1      39.235  32.077  33.762  1.00  0.00    -0.248 NA
ATOM     51  C   UNL A   1      37.413  33.527  33.599  1.00  0.00     0.031 C 
ATOM     52  C   UNL A   1      41.764  31.577  37.354  1.00  0.00     0.029 A 
ATOM     53  C   UNL A   1      40.946  31.756  36.250  1.00  0.00     0.049 A 
ATOM     54  H   UNL A   1      41.004  30.775  34.381  1.00  0.00     0.167 HD
ATOM     55  C   UNL A   1      39.083  32.758  34.968  1.00  0.00     0.074 A 
ATOM     56  C   UNL A   1      37.956  33.651  34.804  1.00  0.00     0.031 C 
ATOM     57  C   UNL A   1      39.829  32.658  36.096  1.00  0.00     0.037 A 
BRANCH  44  58
ATOM     58  C   UNL A   1      44.256  28.354  35.739  1.00  0.00     0.058 A 
ATOM     59  C   UNL A   1      43.980  27.226  36.529  1.00  0.00     0.135 A 
ATOM     60  C   UNL A   1      45.593  28.775  35.641  1.00  0.00     0.135 A 
ATOM     61  F   UNL A   1      42.718  26.788  36.667  1.00  0.00    -0.206 F 
ATOM     62  C   UNL A   1      44.981  26.581  37.248  1.00  0.00     0.059 A 
ATOM     63  C   UNL A   1      46.615  28.123  36.323  1.00  0.00     0.059 A 
ATOM     64  F   UNL A   1      45.913  29.842  34.894  1.00  0.00    -0.206 F 
ATOM     65  C   UNL A   1      46.293  27.046  37.147  1.00  0.00     0.060 A 
BRANCH  65  66
ATOM     66  S   UNL A   1      47.570  26.240  38.135  1.00  0.00     0.124 S 
ATOM     67  O   UNL A   1      47.095  24.860  38.147  1.00  0.00    -0.237 OA
ATOM     68  O   UNL A   1      48.775  26.488  37.351  1.00  0.00    -0.237 OA
ATOM     69  O   UNL A   1      47.502  26.939  39.414  1.00  0.00    -0.744 OA
ENDBRANCH  65  66
ENDBRANCH  44  58
BRANCH  45  70
ATOM     70  C   UNL A   1      36.884  32.802  30.798  1.00  0.00     0.058 A 
ATOM     71  C   UNL A   1      35.594  32.260  30.888  1.00  0.00     0.135 A 
ATOM     72  C   UNL A   1      37.054  33.961  30.023  1.00  0.00     0.135 A 
ATOM     73  F   UNL A   1      35.384  31.145  31.604  1.00  0.00    -0.206 F 
ATOM     74  C   UNL A   1      34.510  32.848  30.242  1.00  0.00     0.059 A 
ATOM     75  C   UNL A   1      35.983  34.577  29.383  1.00  0.00     0.059 A 
ATOM     76  F   UNL A   1      38.266  34.526  29.915  1.00  0.00    -0.206 F 
ATOM     77  C   UNL A   1      34.713  34.015  29.502  1.00  0.00     0.060 A 
BRANCH  77  78
ATOM     78  S   UNL A   1      33.280  34.825  28.756  1.00  0.00     0.124 S 
ATOM     79  O   UNL A   1      33.909  35.895  27.990  1.00  0.00    -0.237 OA
ATOM     80  O   UNL A   1      32.694  33.740  27.975  1.00  0.00    -0.237 OA
ATOM     81  O   UNL A   1      32.496  35.250  29.911  1.00  0.00    -0.744 OA
ENDBRANCH  77  78
ENDBRANCH  45  70
BRANCH  57  82
ATOM     82  C   UNL A   1      39.507  33.569  37.253  1.00  0.00     0.058 A 
ATOM     83  C   UNL A   1      38.665  33.174  38.302  1.00  0.00     0.135 A 
ATOM     84  C   UNL A   1      40.137  34.821  37.360  1.00  0.00     0.135 A 
ATOM     85  F   UNL A   1      38.028  31.994  38.251  1.00  0.00    -0.206 F 
ATOM     86  C   UNL A   1      38.458  33.986  39.417  1.00  0.00     0.059 A 
ATOM     87  C   UNL A   1      39.967  35.637  38.475  1.00  0.00     0.059 A 
ATOM     88  F   UNL A   1      40.958  35.249  36.388  1.00  0.00    -0.206 F 
ATOM     89  C   UNL A   1      39.122  35.213  39.499  1.00  0.00     0.060 A 
BRANCH  89  90
ATOM     90  S   UNL A   1      38.903  36.223  40.980  1.00  0.00     0.124 S 
ATOM     91  O   UNL A   1      38.567  37.522  40.405  1.00  0.00    -0.237 OA
ATOM     92  O   UNL A   1      37.817  35.534  41.670  1.00  0.00    -0.237 OA
ATOM     93  O   UNL A   1      40.204  36.147  41.639  1.00  0.00    -0.744 OA
ENDBRANCH  89  90
ENDBRANCH  57  82
ENDBRANCH  31  32
ENDBRANCH  24  26
ENDBRANCH  23  24
ENDBRANCH   1  23
TORSDOF 16
ENDMDL
