MODEL 1
REMARK VINA RESULT:     -12.2      0.000      0.000
REMARK SMILES COC(=O)[C@@H]1CN(C(=O)NC(=O)CCCC(=O)OCCOC(=O)c2ccc(-c3c4nc(c(-c5c(F)cc(S(=O)(=O)[O-])cc5F)c5ccc([nH]5)c(-c5c(F)cc(S(=O)(=O)[O-])cc5F)c5nc(c(-c6c(F)cc(S(=O)(=O)[O-])cc6F)c6ccc3[nH]6)C=C5)C=C4)cc2)C[C@H]1C
REMARK SMILES IDX 18 1 16 2 17 3 15 4 14 5 13 6 11 7 8 8 9 9 10 10 12 12 7 13
REMARK SMILES IDX 5 14 6 15 91 16 90 17 92 18 3 19 4 20 2 21 1 22 19 23 20 24
REMARK SMILES IDX 21 25 22 26 23 27 24 28 25 29 89 30 26 31 88 32 27 33 28 34
REMARK SMILES IDX 29 35 82 36 30 37 87 38 81 39 83 40 31 41 86 42 80 43 79 44
REMARK SMILES IDX 32 46 66 47 45 48 65 49 46 50 49 51 64 52 84 53 47 54 48 55
REMARK SMILES IDX 63 57 85 58 50 59 33 60 34 61 43 62 35 63 36 64 42 65 44 66
REMARK SMILES IDX 37 67 38 68 39 69 40 70 41 71 67 72 68 73 77 74 69 75 70 76
REMARK SMILES IDX 76 77 78 78 71 79 72 80 73 81 74 82 75 83 51 84 52 85 61 86
REMARK SMILES IDX 53 87 54 88 60 89 62 90 55 91 56 92 57 93 58 94 59 95
REMARK H PARENT 10 11 83 45 49 56
REMARK Flexibility Score: inf
ROOT
ATOM      1  O   UNL A   1      31.779  29.506  25.780  1.00  0.00    -0.462 OA
ENDROOT
BRANCH   1   2
ATOM      2  C   UNL A   1      31.823  27.634  26.216  1.00  0.00     0.305 C 
ATOM      3  O   UNL A   1      31.015  27.078  27.001  1.00  0.00    -0.252 OA
BRANCH   2   4
ATOM      4  C   UNL A   1      32.767  26.470  25.629  1.00  0.00     0.123 C 
BRANCH   4   5
ATOM      5  C   UNL A   1      32.114  25.090  25.402  1.00  0.00     0.022 C 
BRANCH   5   6
ATOM      6  C   UNL A   1      31.142  24.882  24.243  1.00  0.00     0.101 C 
BRANCH   6   7
ATOM      7  C   UNL A   1      31.521  25.403  22.885  1.00  0.00     0.228 C 
ATOM      8  C   UNL A   1      33.177  23.676  21.859  1.00  0.00     0.324 C 
ATOM      9  O   UNL A   1      33.301  23.324  20.682  1.00  0.00    -0.248 OA
ATOM     10  N   UNL A   1      32.512  24.859  22.090  1.00  0.00    -0.278 N 
ATOM     11  H   UNL A   1      32.859  25.552  21.483  1.00  0.00     0.174 HD
ATOM     12  O   UNL A   1      30.940  26.406  22.450  1.00  0.00    -0.275 OA
BRANCH   8  13
ATOM     13  N   UNL A   1      33.503  22.828  22.871  1.00  0.00    -0.323 N 
ATOM     14  C   UNL A   1      33.741  20.413  24.920  1.00  0.00     0.123 C 
ATOM     15  C   UNL A   1      32.520  21.433  23.667  1.00  0.00     0.137 C 
ATOM     16  C   UNL A   1      35.596  21.453  24.822  1.00  0.00     0.021 C 
ATOM     17  C   UNL A   1      35.263  22.970  23.527  1.00  0.00     0.125 C 
ATOM     18  C   UNL A   1      36.445  22.428  25.866  1.00  0.00     0.010 C 
BRANCH  14  19
ATOM     19  C   UNL A   1      33.206  18.956  24.836  1.00  0.00     0.310 C 
ATOM     20  O   UNL A   1      32.144  18.560  25.295  1.00  0.00    -0.252 OA
BRANCH  19  21
ATOM     21  O   UNL A   1      33.838  18.315  23.820  1.00  0.00    -0.469 OA
ATOM     22  C   UNL A   1      33.303  17.061  23.435  1.00  0.00     0.282 C 
ENDBRANCH  19  21
ENDBRANCH  14  19
ENDBRANCH   8  13
ENDBRANCH   6   7
ENDBRANCH   5   6
ENDBRANCH   4   5
ENDBRANCH   2   4
ENDBRANCH   1   2
BRANCH   1  23
ATOM     23  C   UNL A   1      31.750  31.092  26.653  1.00  0.00     0.274 C 
BRANCH  23  24
ATOM     24  C   UNL A   1      33.286  31.800  27.288  1.00  0.00     0.275 C 
BRANCH  24  25
ATOM     25  O   UNL A   1      34.151  31.025  28.286  1.00  0.00    -0.458 OA
BRANCH  25  26
ATOM     26  C   UNL A   1      34.816  29.841  28.102  1.00  0.00     0.338 C 
ATOM     27  O   UNL A   1      34.343  28.813  27.653  1.00  0.00    -0.246 OA
BRANCH  26  28
ATOM     28  C   UNL A   1      36.287  29.828  28.415  1.00  0.00     0.060 A 
ATOM     29  C   UNL A   1      37.225  29.851  27.366  1.00  0.00     0.016 A 
ATOM     30  C   UNL A   1      36.754  29.447  29.672  1.00  0.00     0.016 A 
ATOM     31  C   UNL A   1      38.592  29.656  27.555  1.00  0.00     0.010 A 
ATOM     32  C   UNL A   1      38.125  29.158  29.862  1.00  0.00     0.010 A 
ATOM     33  C   UNL A   1      39.049  29.277  28.808  1.00  0.00    -0.014 A 
BRANCH  33  34
ATOM     34  C   UNL A   1      40.477  28.917  28.958  1.00  0.00     0.031 A 
ATOM     35  C   UNL A   1      41.469  29.967  29.359  1.00  0.00     0.074 A 
ATOM     36  C   UNL A   1      40.852  27.635  28.794  1.00  0.00     0.049 A 
ATOM     37  N   UNL A   1      42.772  29.926  29.337  1.00  0.00    -0.248 NA
ATOM     38  C   UNL A   1      40.913  31.232  29.869  1.00  0.00     0.031 C 
ATOM     39  C   UNL A   1      39.932  26.516  28.580  1.00  0.00     0.029 A 
ATOM     40  N   UNL A   1      42.095  27.058  28.761  1.00  0.00    -0.354 N 
ATOM     41  C   UNL A   1      43.198  31.176  29.776  1.00  0.00     0.074 A 
ATOM     42  C   UNL A   1      42.010  31.941  30.090  1.00  0.00     0.031 C 
ATOM     43  C   UNL A   1      40.644  25.398  28.373  1.00  0.00     0.029 A 
ATOM     44  C   UNL A   1      42.063  25.738  28.374  1.00  0.00     0.049 A 
ATOM     45  H   UNL A   1      42.922  27.538  28.991  1.00  0.00     0.167 HD
ATOM     46  C   UNL A   1      44.469  31.637  29.867  1.00  0.00     0.037 A 
ATOM     47  C   UNL A   1      43.065  24.929  27.984  1.00  0.00     0.037 A 
ATOM     48  C   UNL A   1      45.617  30.832  29.530  1.00  0.00     0.049 A 
ATOM     49  C   UNL A   1      44.463  25.486  27.987  1.00  0.00     0.074 A 
ATOM     50  C   UNL A   1      46.955  31.178  29.547  1.00  0.00     0.029 A 
ATOM     51  N   UNL A   1      45.550  29.509  29.105  1.00  0.00    -0.354 N 
ATOM     52  N   UNL A   1      44.865  26.689  28.328  1.00  0.00    -0.248 NA
ATOM     53  C   UNL A   1      45.538  24.591  27.545  1.00  0.00     0.031 C 
ATOM     54  C   UNL A   1      47.690  30.084  29.075  1.00  0.00     0.029 A 
ATOM     55  C   UNL A   1      46.818  29.033  28.824  1.00  0.00     0.049 A 
ATOM     56  H   UNL A   1      44.721  28.988  29.016  1.00  0.00     0.167 HD
ATOM     57  C   UNL A   1      46.242  26.695  28.158  1.00  0.00     0.074 A 
ATOM     58  C   UNL A   1      46.604  25.366  27.697  1.00  0.00     0.031 C 
ATOM     59  C   UNL A   1      47.131  27.701  28.362  1.00  0.00     0.037 A 
BRANCH  46  60
ATOM     60  C   UNL A   1      44.666  33.083  30.243  1.00  0.00     0.058 A 
ATOM     61  C   UNL A   1      44.838  34.099  29.289  1.00  0.00     0.135 A 
ATOM     62  C   UNL A   1      44.694  33.458  31.599  1.00  0.00     0.135 A 
ATOM     63  F   UNL A   1      44.841  33.803  27.980  1.00  0.00    -0.206 F 
ATOM     64  C   UNL A   1      45.064  35.423  29.664  1.00  0.00     0.059 A 
ATOM     65  C   UNL A   1      44.891  34.778  31.996  1.00  0.00     0.059 A 
ATOM     66  F   UNL A   1      44.541  32.531  32.558  1.00  0.00    -0.206 F 
ATOM     67  C   UNL A   1      45.093  35.753  31.020  1.00  0.00     0.060 A 
BRANCH  67  68
ATOM     68  S   UNL A   1      45.407  37.467  31.492  1.00  0.00     0.124 S 
ATOM     69  O   UNL A   1      45.040  37.454  32.905  1.00  0.00    -0.237 OA
ATOM     70  O   UNL A   1      46.831  37.612  31.211  1.00  0.00    -0.237 OA
ATOM     71  O   UNL A   1      44.519  38.230  30.621  1.00  0.00    -0.744 OA
ENDBRANCH  67  68
ENDBRANCH  46  60
BRANCH  47  72
ATOM     72  C   UNL A   1      42.759  23.556  27.496  1.00  0.00     0.058 A 
ATOM     73  C   UNL A   1      42.671  23.270  26.127  1.00  0.00     0.135 A 
ATOM     74  C   UNL A   1      42.603  22.486  28.395  1.00  0.00     0.135 A 
ATOM     75  F   UNL A   1      42.799  24.255  25.227  1.00  0.00    -0.206 F 
ATOM     76  C   UNL A   1      42.448  21.974  25.665  1.00  0.00     0.059 A 
ATOM     77  C   UNL A   1      42.408  21.179  27.958  1.00  0.00     0.059 A 
ATOM     78  F   UNL A   1      42.685  22.700  29.718  1.00  0.00    -0.206 F 
ATOM     79  C   UNL A   1      42.329  20.934  26.590  1.00  0.00     0.060 A 
BRANCH  79  80
ATOM     80  S   UNL A   1      42.121  19.247  25.975  1.00  0.00     0.124 S 
ATOM     81  O   UNL A   1      40.694  19.216  25.673  1.00  0.00    -0.237 OA
ATOM     82  O   UNL A   1      43.017  19.229  24.823  1.00  0.00    -0.237 OA
ATOM     83  O   UNL A   1      42.545  18.423  27.103  1.00  0.00    -0.744 OA
ENDBRANCH  79  80
ENDBRANCH  47  72
BRANCH  59  84
ATOM     84  C   UNL A   1      48.579  27.386  28.110  1.00  0.00     0.058 A 
ATOM     85  C   UNL A   1      49.394  26.827  29.106  1.00  0.00     0.135 A 
ATOM     86  C   UNL A   1      49.138  27.599  26.841  1.00  0.00     0.135 A 
ATOM     87  F   UNL A   1      48.909  26.615  30.339  1.00  0.00    -0.206 F 
ATOM     88  C   UNL A   1      50.726  26.511  28.856  1.00  0.00     0.059 A 
ATOM     89  C   UNL A   1      50.456  27.261  26.560  1.00  0.00     0.059 A 
ATOM     90  F   UNL A   1      48.394  28.122  25.853  1.00  0.00    -0.206 F 
ATOM     91  C   UNL A   1      51.246  26.730  27.579  1.00  0.00     0.060 A 
BRANCH  91  92
ATOM     92  S   UNL A   1      52.963  26.281  27.259  1.00  0.00     0.124 S 
ATOM     93  O   UNL A   1      53.514  26.247  28.610  1.00  0.00    -0.237 OA
ATOM     94  O   UNL A   1      52.829  24.989  26.594  1.00  0.00    -0.237 OA
ATOM     95  O   UNL A   1      53.446  27.368  26.411  1.00  0.00    -0.744 OA
ENDBRANCH  91  92
ENDBRANCH  59  84
ENDBRANCH  33  34
ENDBRANCH  26  28
ENDBRANCH  25  26
ENDBRANCH  24  25
ENDBRANCH  23  24
ENDBRANCH   1  23
TORSDOF 20
ENDMDL
MODEL 2
REMARK VINA RESULT:     -12.2      1.191      2.820
REMARK SMILES COC(=O)[C@@H]1CN(C(=O)NC(=O)CCCC(=O)OCCOC(=O)c2ccc(-c3c4nc(c(-c5c(F)cc(S(=O)(=O)[O-])cc5F)c5ccc([nH]5)c(-c5c(F)cc(S(=O)(=O)[O-])cc5F)c5nc(c(-c6c(F)cc(S(=O)(=O)[O-])cc6F)c6ccc3[nH]6)C=C5)C=C4)cc2)C[C@H]1C
REMARK SMILES IDX 18 1 16 2 17 3 15 4 14 5 13 6 11 7 8 8 9 9 10 10 12 12 7 13
REMARK SMILES IDX 5 14 6 15 91 16 90 17 92 18 3 19 4 20 2 21 1 22 19 23 20 24
REMARK SMILES IDX 21 25 22 26 23 27 24 28 25 29 89 30 26 31 88 32 27 33 28 34
REMARK SMILES IDX 29 35 82 36 30 37 87 38 81 39 83 40 31 41 86 42 80 43 79 44
REMARK SMILES IDX 32 46 66 47 45 48 65 49 46 50 49 51 64 52 84 53 47 54 48 55
REMARK SMILES IDX 63 57 85 58 50 59 33 60 34 61 43 62 35 63 36 64 42 65 44 66
REMARK SMILES IDX 37 67 38 68 39 69 40 70 41 71 67 72 68 73 77 74 69 75 70 76
REMARK SMILES IDX 76 77 78 78 71 79 72 80 73 81 74 82 75 83 51 84 52 85 61 86
REMARK SMILES IDX 53 87 54 88 60 89 62 90 55 91 56 92 57 93 58 94 59 95
REMARK H PARENT 10 11 83 45 49 56
REMARK Flexibility Score: inf
ROOT
ATOM      1  O   UNL A   1      31.593  29.672  25.770  1.00  0.00    -0.462 OA
ENDROOT
BRANCH   1   2
ATOM      2  C   UNL A   1      31.279  27.878  26.385  1.00  0.00     0.305 C 
ATOM      3  O   UNL A   1      31.088  27.573  27.589  1.00  0.00    -0.252 OA
BRANCH   2   4
ATOM      4  C   UNL A   1      31.109  26.522  25.536  1.00  0.00     0.123 C 
BRANCH   4   5
ATOM      5  C   UNL A   1      30.221  25.420  26.151  1.00  0.00     0.022 C 
BRANCH   5   6
ATOM      6  C   UNL A   1      30.856  24.272  26.934  1.00  0.00     0.101 C 
BRANCH   6   7
ATOM      7  C   UNL A   1      30.228  22.909  26.847  1.00  0.00     0.228 C 
ATOM      8  C   UNL A   1      31.639  21.548  25.133  1.00  0.00     0.324 C 
ATOM      9  O   UNL A   1      31.921  20.346  25.139  1.00  0.00    -0.248 OA
ATOM     10  N   UNL A   1      30.582  21.947  25.920  1.00  0.00    -0.278 N 
ATOM     11  H   UNL A   1      29.820  21.340  25.773  1.00  0.00     0.174 HD
ATOM     12  O   UNL A   1      29.308  22.626  27.626  1.00  0.00    -0.275 OA
BRANCH   8  13
ATOM     13  N   UNL A   1      32.467  22.448  24.537  1.00  0.00    -0.323 N 
ATOM     14  C   UNL A   1      33.764  24.797  22.838  1.00  0.00     0.123 C 
ATOM     15  C   UNL A   1      32.255  23.451  22.957  1.00  0.00     0.137 C 
ATOM     16  C   UNL A   1      34.968  24.402  24.549  1.00  0.00     0.021 C 
ATOM     17  C   UNL A   1      34.040  22.869  25.484  1.00  0.00     0.125 C 
ATOM     18  C   UNL A   1      36.472  23.740  24.790  1.00  0.00     0.010 C 
BRANCH  14  19
ATOM     19  C   UNL A   1      33.109  26.009  22.117  1.00  0.00     0.310 C 
ATOM     20  O   UNL A   1      31.972  26.418  22.304  1.00  0.00    -0.252 OA
BRANCH  19  21
ATOM     21  O   UNL A   1      34.089  26.802  21.615  1.00  0.00    -0.469 OA
ATOM     22  C   UNL A   1      33.992  28.186  21.906  1.00  0.00     0.282 C 
ENDBRANCH  19  21
ENDBRANCH  14  19
ENDBRANCH   8  13
ENDBRANCH   6   7
ENDBRANCH   5   6
ENDBRANCH   4   5
ENDBRANCH   2   4
ENDBRANCH   1   2
BRANCH   1  23
ATOM     23  C   UNL A   1      31.693  31.339  26.472  1.00  0.00     0.274 C 
BRANCH  23  24
ATOM     24  C   UNL A   1      33.209  31.881  27.293  1.00  0.00     0.275 C 
BRANCH  24  25
ATOM     25  O   UNL A   1      33.928  30.967  28.289  1.00  0.00    -0.458 OA
BRANCH  25  26
ATOM     26  C   UNL A   1      34.630  29.817  28.040  1.00  0.00     0.338 C 
ATOM     27  O   UNL A   1      34.196  28.810  27.512  1.00  0.00    -0.246 OA
BRANCH  26  28
ATOM     28  C   UNL A   1      36.094  29.822  28.386  1.00  0.00     0.060 A 
ATOM     29  C   UNL A   1      37.053  29.924  27.360  1.00  0.00     0.016 A 
ATOM     30  C   UNL A   1      36.545  29.384  29.630  1.00  0.00     0.016 A 
ATOM     31  C   UNL A   1      38.420  29.751  27.569  1.00  0.00     0.010 A 
ATOM     32  C   UNL A   1      37.918  29.118  29.834  1.00  0.00     0.010 A 
ATOM     33  C   UNL A   1      38.861  29.316  28.810  1.00  0.00    -0.014 A 
BRANCH  33  34
ATOM     34  C   UNL A   1      40.293  28.981  28.972  1.00  0.00     0.031 A 
ATOM     35  C   UNL A   1      41.260  30.047  29.395  1.00  0.00     0.074 A 
ATOM     36  C   UNL A   1      40.695  27.709  28.800  1.00  0.00     0.049 A 
ATOM     37  N   UNL A   1      42.564  30.032  29.386  1.00  0.00    -0.248 NA
ATOM     38  C   UNL A   1      40.674  31.295  29.910  1.00  0.00     0.031 C 
ATOM     39  C   UNL A   1      39.800  26.575  28.564  1.00  0.00     0.029 A 
ATOM     40  N   UNL A   1      41.949  27.157  28.775  1.00  0.00    -0.354 N 
ATOM     41  C   UNL A   1      42.960  31.285  29.842  1.00  0.00     0.074 A 
ATOM     42  C   UNL A   1      41.755  32.024  30.150  1.00  0.00     0.031 C 
ATOM     43  C   UNL A   1      40.536  25.472  28.354  1.00  0.00     0.029 A 
ATOM     44  C   UNL A   1      41.947  25.841  28.374  1.00  0.00     0.049 A 
ATOM     45  H   UNL A   1      42.765  27.651  29.018  1.00  0.00     0.167 HD
ATOM     46  C   UNL A   1      44.221  31.770  29.952  1.00  0.00     0.037 A 
ATOM     47  C   UNL A   1      42.970  25.055  27.987  1.00  0.00     0.037 A 
ATOM     48  C   UNL A   1      45.388  30.991  29.620  1.00  0.00     0.049 A 
ATOM     49  C   UNL A   1      44.356  25.639  28.011  1.00  0.00     0.074 A 
ATOM     50  C   UNL A   1      46.719  31.362  29.655  1.00  0.00     0.029 A 
ATOM     51  N   UNL A   1      45.352  29.671  29.181  1.00  0.00    -0.354 N 
ATOM     52  N   UNL A   1      44.731  26.846  28.369  1.00  0.00    -0.248 NA
ATOM     53  C   UNL A   1      45.453  24.770  27.573  1.00  0.00     0.031 C 
ATOM     54  C   UNL A   1      47.481  30.288  29.180  1.00  0.00     0.029 A 
ATOM     55  C   UNL A   1      46.632  29.223  28.910  1.00  0.00     0.049 A 
ATOM     56  H   UNL A   1      44.534  29.134  29.077  1.00  0.00     0.167 HD
ATOM     57  C   UNL A   1      46.109  26.881  28.214  1.00  0.00     0.074 A 
ATOM     58  C   UNL A   1      46.502  25.564  27.744  1.00  0.00     0.031 C 
ATOM     59  C   UNL A   1      46.976  27.901  28.437  1.00  0.00     0.037 A 
BRANCH  46  60
ATOM     60  C   UNL A   1      44.386  33.216  30.345  1.00  0.00     0.058 A 
ATOM     61  C   UNL A   1      44.581  33.623  31.674  1.00  0.00     0.135 A 
ATOM     62  C   UNL A   1      44.338  34.220  29.361  1.00  0.00     0.135 A 
ATOM     63  F   UNL A   1      44.616  32.713  32.661  1.00  0.00    -0.206 F 
ATOM     64  C   UNL A   1      44.686  34.969  32.018  1.00  0.00     0.059 A 
ATOM     65  C   UNL A   1      44.468  35.570  29.679  1.00  0.00     0.059 A 
ATOM     66  F   UNL A   1      44.149  33.895  28.073  1.00  0.00    -0.206 F 
ATOM     67  C   UNL A   1      44.624  35.937  31.014  1.00  0.00     0.060 A 
BRANCH  67  68
ATOM     68  S   UNL A   1      44.742  37.679  31.475  1.00  0.00     0.124 S 
ATOM     69  O   UNL A   1      46.182  37.838  31.654  1.00  0.00    -0.237 OA
ATOM     70  O   UNL A   1      44.172  38.349  30.311  1.00  0.00    -0.237 OA
ATOM     71  O   UNL A   1      43.946  37.765  32.695  1.00  0.00    -0.744 OA
ENDBRANCH  67  68
ENDBRANCH  46  60
BRANCH  47  72
ATOM     72  C   UNL A   1      42.695  23.681  27.482  1.00  0.00     0.058 A 
ATOM     73  C   UNL A   1      42.674  23.398  26.110  1.00  0.00     0.135 A 
ATOM     74  C   UNL A   1      42.503  22.608  28.371  1.00  0.00     0.135 A 
ATOM     75  F   UNL A   1      42.840  24.386  25.219  1.00  0.00    -0.206 F 
ATOM     76  C   UNL A   1      42.482  22.102  25.636  1.00  0.00     0.059 A 
ATOM     77  C   UNL A   1      42.338  21.301  27.922  1.00  0.00     0.059 A 
ATOM     78  F   UNL A   1      42.521  22.820  29.697  1.00  0.00    -0.206 F 
ATOM     79  C   UNL A   1      42.325  21.058  26.551  1.00  0.00     0.060 A 
BRANCH  79  80
ATOM     80  S   UNL A   1      42.158  19.372  25.924  1.00  0.00     0.124 S 
ATOM     81  O   UNL A   1      43.019  19.408  24.747  1.00  0.00    -0.237 OA
ATOM     82  O   UNL A   1      42.644  18.578  27.047  1.00  0.00    -0.237 OA
ATOM     83  O   UNL A   1      40.727  19.254  25.655  1.00  0.00    -0.744 OA
ENDBRANCH  79  80
ENDBRANCH  47  72
BRANCH  59  84
ATOM     84  C   UNL A   1      48.433  27.617  28.199  1.00  0.00     0.058 A 
ATOM     85  C   UNL A   1      49.051  27.917  26.976  1.00  0.00     0.135 A 
ATOM     86  C   UNL A   1      49.226  27.084  29.227  1.00  0.00     0.135 A 
ATOM     87  F   UNL A   1      48.332  28.417  25.959  1.00  0.00    -0.206 F 
ATOM     88  C   UNL A   1      50.406  27.678  26.774  1.00  0.00     0.059 A 
ATOM     89  C   UNL A   1      50.588  26.868  29.058  1.00  0.00     0.059 A 
ATOM     90  F   UNL A   1      48.681  26.790  30.419  1.00  0.00    -0.206 F 
ATOM     91  C   UNL A   1      51.166  27.156  27.822  1.00  0.00     0.060 A 
BRANCH  91  92
ATOM     92  S   UNL A   1      52.929  26.886  27.558  1.00  0.00     0.124 S 
ATOM     93  O   UNL A   1      52.972  25.448  27.314  1.00  0.00    -0.237 OA
ATOM     94  O   UNL A   1      53.205  27.735  26.403  1.00  0.00    -0.237 OA
ATOM     95  O   UNL A   1      53.533  27.328  28.812  1.00  0.00    -0.744 OA
ENDBRANCH  91  92
ENDBRANCH  59  84
ENDBRANCH  33  34
ENDBRANCH  26  28
ENDBRANCH  25  26
ENDBRANCH  24  25
ENDBRANCH  23  24
ENDBRANCH   1  23
TORSDOF 20
ENDMDL
MODEL 3
REMARK VINA RESULT:     -12.1      4.516     10.178
REMARK SMILES COC(=O)[C@@H]1CN(C(=O)NC(=O)CCCC(=O)OCCOC(=O)c2ccc(-c3c4nc(c(-c5c(F)cc(S(=O)(=O)[O-])cc5F)c5ccc([nH]5)c(-c5c(F)cc(S(=O)(=O)[O-])cc5F)c5nc(c(-c6c(F)cc(S(=O)(=O)[O-])cc6F)c6ccc3[nH]6)C=C5)C=C4)cc2)C[C@H]1C
REMARK SMILES IDX 18 1 16 2 17 3 15 4 14 5 13 6 11 7 8 8 9 9 10 10 12 12 7 13
REMARK SMILES IDX 5 14 6 15 91 16 90 17 92 18 3 19 4 20 2 21 1 22 19 23 20 24
REMARK SMILES IDX 21 25 22 26 23 27 24 28 25 29 89 30 26 31 88 32 27 33 28 34
REMARK SMILES IDX 29 35 82 36 30 37 87 38 81 39 83 40 31 41 86 42 80 43 79 44
REMARK SMILES IDX 32 46 66 47 45 48 65 49 46 50 49 51 64 52 84 53 47 54 48 55
REMARK SMILES IDX 63 57 85 58 50 59 33 60 34 61 43 62 35 63 36 64 42 65 44 66
REMARK SMILES IDX 37 67 38 68 39 69 40 70 41 71 67 72 68 73 77 74 69 75 70 76
REMARK SMILES IDX 76 77 78 78 71 79 72 80 73 81 74 82 75 83 51 84 52 85 61 86
REMARK SMILES IDX 53 87 54 88 60 89 62 90 55 91 56 92 57 93 58 94 59 95
REMARK H PARENT 10 11 83 45 49 56
REMARK Flexibility Score: inf
ROOT
ATOM      1  O   UNL A   1      35.557  21.506  24.756  1.00  0.00    -0.462 OA
ENDROOT
BRANCH   1   2
ATOM      2  C   UNL A   1      35.302  23.148  23.789  1.00  0.00     0.305 C 
ATOM      3  O   UNL A   1      35.713  23.344  22.618  1.00  0.00    -0.252 OA
BRANCH   2   4
ATOM      4  C   UNL A   1      34.483  24.466  24.214  1.00  0.00     0.123 C 
BRANCH   4   5
ATOM      5  C   UNL A   1      33.928  25.342  23.071  1.00  0.00     0.022 C 
BRANCH   5   6
ATOM      6  C   UNL A   1      32.972  24.743  22.040  1.00  0.00     0.101 C 
BRANCH   6   7
ATOM      7  C   UNL A   1      32.369  25.652  21.006  1.00  0.00     0.228 C 
ATOM      8  C   UNL A   1      30.961  27.420  22.300  1.00  0.00     0.324 C 
ATOM      9  O   UNL A   1      30.784  28.614  22.041  1.00  0.00    -0.248 OA
ATOM     10  N   UNL A   1      31.419  26.619  21.279  1.00  0.00    -0.278 N 
ATOM     11  H   UNL A   1      30.891  26.794  20.466  1.00  0.00     0.174 HD
ATOM     12  O   UNL A   1      32.710  25.518  19.824  1.00  0.00    -0.275 OA
BRANCH   8  13
ATOM     13  N   UNL A   1      30.900  26.977  23.585  1.00  0.00    -0.323 N 
ATOM     14  C   UNL A   1      30.629  25.280  26.256  1.00  0.00     0.123 C 
ATOM     15  C   UNL A   1      30.061  25.460  24.320  1.00  0.00     0.137 C 
ATOM     16  C   UNL A   1      31.879  26.968  26.604  1.00  0.00     0.021 C 
ATOM     17  C   UNL A   1      31.907  27.955  24.840  1.00  0.00     0.125 C 
ATOM     18  C   UNL A   1      31.727  28.374  27.476  1.00  0.00     0.010 C 
BRANCH  14  19
ATOM     19  C   UNL A   1      30.641  23.743  26.487  1.00  0.00     0.310 C 
ATOM     20  O   UNL A   1      31.563  22.989  26.212  1.00  0.00    -0.252 OA
BRANCH  19  21
ATOM     21  O   UNL A   1      29.711  23.434  27.426  1.00  0.00    -0.469 OA
ATOM     22  C   UNL A   1      28.961  22.252  27.207  1.00  0.00     0.282 C 
ENDBRANCH  19  21
ENDBRANCH  14  19
ENDBRANCH   8  13
ENDBRANCH   6   7
ENDBRANCH   5   6
ENDBRANCH   4   5
ENDBRANCH   2   4
ENDBRANCH   1   2
BRANCH   1  23
ATOM     23  C   UNL A   1      36.919  20.392  25.181  1.00  0.00     0.274 C 
BRANCH  23  24
ATOM     24  C   UNL A   1      38.590  21.048  25.386  1.00  0.00     0.275 C 
BRANCH  24  25
ATOM     25  O   UNL A   1      38.850  22.258  26.287  1.00  0.00    -0.458 OA
BRANCH  25  26
ATOM     26  C   UNL A   1      38.645  23.585  26.016  1.00  0.00     0.338 C 
ATOM     27  O   UNL A   1      37.899  24.038  25.167  1.00  0.00    -0.246 OA
BRANCH  26  28
ATOM     28  C   UNL A   1      39.350  24.580  26.897  1.00  0.00     0.060 A 
ATOM     29  C   UNL A   1      38.928  24.756  28.228  1.00  0.00     0.016 A 
ATOM     30  C   UNL A   1      40.166  25.572  26.357  1.00  0.00     0.016 A 
ATOM     31  C   UNL A   1      39.397  25.777  29.052  1.00  0.00     0.010 A 
ATOM     32  C   UNL A   1      40.580  26.663  27.155  1.00  0.00     0.010 A 
ATOM     33  C   UNL A   1      40.210  26.760  28.508  1.00  0.00    -0.014 A 
BRANCH  33  34
ATOM     34  C   UNL A   1      40.569  27.923  29.350  1.00  0.00     0.031 A 
ATOM     35  C   UNL A   1      41.810  27.876  30.189  1.00  0.00     0.074 A 
ATOM     36  C   UNL A   1      39.809  29.032  29.298  1.00  0.00     0.049 A 
ATOM     37  N   UNL A   1      42.193  28.674  31.147  1.00  0.00    -0.248 NA
ATOM     38  C   UNL A   1      42.756  26.786  29.897  1.00  0.00     0.031 C 
ATOM     39  C   UNL A   1      38.687  29.234  28.379  1.00  0.00     0.029 A 
ATOM     40  N   UNL A   1      39.845  30.183  30.040  1.00  0.00    -0.354 N 
ATOM     41  C   UNL A   1      43.397  28.155  31.614  1.00  0.00     0.074 A 
ATOM     42  C   UNL A   1      43.697  26.992  30.808  1.00  0.00     0.031 C 
ATOM     43  C   UNL A   1      38.101  30.410  28.654  1.00  0.00     0.029 A 
ATOM     44  C   UNL A   1      38.765  31.004  29.809  1.00  0.00     0.049 A 
ATOM     45  H   UNL A   1      40.568  30.400  30.672  1.00  0.00     0.167 HD
ATOM     46  C   UNL A   1      44.150  28.604  32.647  1.00  0.00     0.037 A 
ATOM     47  C   UNL A   1      38.323  32.066  30.509  1.00  0.00     0.037 A 
ATOM     48  C   UNL A   1      43.797  29.766  33.424  1.00  0.00     0.049 A 
ATOM     49  C   UNL A   1      39.109  32.490  31.719  1.00  0.00     0.074 A 
ATOM     50  C   UNL A   1      44.449  30.315  34.512  1.00  0.00     0.029 A 
ATOM     51  N   UNL A   1      42.676  30.556  33.188  1.00  0.00    -0.354 N 
ATOM     52  N   UNL A   1      40.206  31.960  32.211  1.00  0.00    -0.248 NA
ATOM     53  C   UNL A   1      38.602  33.640  32.474  1.00  0.00     0.031 C 
ATOM     54  C   UNL A   1      43.691  31.399  34.970  1.00  0.00     0.029 A 
ATOM     55  C   UNL A   1      42.599  31.568  34.129  1.00  0.00     0.049 A 
ATOM     56  H   UNL A   1      42.031  30.416  32.459  1.00  0.00     0.167 HD
ATOM     57  C   UNL A   1      40.532  32.719  33.326  1.00  0.00     0.074 A 
ATOM     58  C   UNL A   1      39.521  33.757  33.425  1.00  0.00     0.031 C 
ATOM     59  C   UNL A   1      41.568  32.578  34.192  1.00  0.00     0.037 A 
BRANCH  46  60
ATOM     60  C   UNL A   1      45.351  27.786  33.048  1.00  0.00     0.058 A 
ATOM     61  C   UNL A   1      46.648  28.066  32.588  1.00  0.00     0.135 A 
ATOM     62  C   UNL A   1      45.194  26.685  33.909  1.00  0.00     0.135 A 
ATOM     63  F   UNL A   1      46.860  29.092  31.748  1.00  0.00    -0.206 F 
ATOM     64  C   UNL A   1      47.735  27.267  32.937  1.00  0.00     0.059 A 
ATOM     65  C   UNL A   1      46.271  25.889  34.293  1.00  0.00     0.059 A 
ATOM     66  F   UNL A   1      43.978  26.362  34.378  1.00  0.00    -0.206 F 
ATOM     67  C   UNL A   1      47.537  26.177  33.787  1.00  0.00     0.060 A 
BRANCH  67  68
ATOM     68  S   UNL A   1      48.951  25.139  34.216  1.00  0.00     0.124 S 
ATOM     69  O   UNL A   1      49.967  26.140  34.524  1.00  0.00    -0.237 OA
ATOM     70  O   UNL A   1      48.446  24.380  35.355  1.00  0.00    -0.237 OA
ATOM     71  O   UNL A   1      49.185  24.362  33.004  1.00  0.00    -0.744 OA
ENDBRANCH  67  68
ENDBRANCH  46  60
BRANCH  47  72
ATOM     72  C   UNL A   1      37.048  32.729  30.118  1.00  0.00     0.058 A 
ATOM     73  C   UNL A   1      35.832  32.389  30.725  1.00  0.00     0.135 A 
ATOM     74  C   UNL A   1      37.033  33.763  29.164  1.00  0.00     0.135 A 
ATOM     75  F   UNL A   1      35.788  31.403  31.632  1.00  0.00    -0.206 F 
ATOM     76  C   UNL A   1      34.648  33.053  30.408  1.00  0.00     0.059 A 
ATOM     77  C   UNL A   1      35.869  34.458  28.851  1.00  0.00     0.059 A 
ATOM     78  F   UNL A   1      38.171  34.135  28.557  1.00  0.00    -0.206 F 
ATOM     79  C   UNL A   1      34.679  34.093  29.477  1.00  0.00     0.060 A 
BRANCH  79  80
ATOM     80  S   UNL A   1      33.153  34.997  29.135  1.00  0.00     0.124 S 
ATOM     81  O   UNL A   1      32.503  34.124  28.165  1.00  0.00    -0.237 OA
ATOM     82  O   UNL A   1      32.533  35.060  30.454  1.00  0.00    -0.237 OA
ATOM     83  O   UNL A   1      33.628  36.276  28.613  1.00  0.00    -0.744 OA
ENDBRANCH  79  80
ENDBRANCH  47  72
BRANCH  59  84
ATOM     84  C   UNL A   1      41.666  33.588  35.301  1.00  0.00     0.058 A 
ATOM     85  C   UNL A   1      42.286  34.832  35.110  1.00  0.00     0.135 A 
ATOM     86  C   UNL A   1      41.086  33.322  36.551  1.00  0.00     0.135 A 
ATOM     87  F   UNL A   1      42.864  35.129  33.936  1.00  0.00    -0.206 F 
ATOM     88  C   UNL A   1      42.346  35.773  36.133  1.00  0.00     0.059 A 
ATOM     89  C   UNL A   1      41.107  34.260  37.576  1.00  0.00     0.059 A 
ATOM     90  F   UNL A   1      40.473  32.149  36.777  1.00  0.00    -0.206 F 
ATOM     91  C   UNL A   1      41.751  35.478  37.361  1.00  0.00     0.060 A 
BRANCH  91  92
ATOM     92  S   UNL A   1      41.804  36.721  38.667  1.00  0.00     0.124 S 
ATOM     93  O   UNL A   1      41.814  35.888  39.865  1.00  0.00    -0.237 OA
ATOM     94  O   UNL A   1      43.047  37.428  38.374  1.00  0.00    -0.237 OA
ATOM     95  O   UNL A   1      40.584  37.495  38.450  1.00  0.00    -0.744 OA
ENDBRANCH  91  92
ENDBRANCH  59  84
ENDBRANCH  33  34
ENDBRANCH  26  28
ENDBRANCH  25  26
ENDBRANCH  24  25
ENDBRANCH  23  24
ENDBRANCH   1  23
TORSDOF 20
ENDMDL
