MODEL 1
REMARK VINA RESULT:     -10.2      0.000      0.000
REMARK SMILES CC[C@@H](C)[NH2+][C@H](Cc1c[nH]c2ccccc12)C(=O)OCCOC(=O)c1ccc(-c2c3nc(c(-c4c(F)cc(S(=O)(=O)[O-])cc4F)c4ccc([nH]4)c(-c4c(F)cc(S(=O)(=O)[O-])cc4F)c4nc(c(-c5c(F)cc(S(=O)(=O)[O-])cc5F)c5ccc2[nH]5)C=C4)C=C3)cc1
REMARK SMILES IDX 20 1 19 2 17 3 18 4 6 5 5 6 3 9 4 10 2 11 1 12 7 13 8 14
REMARK SMILES IDX 9 15 16 16 10 17 11 18 15 19 12 21 14 22 13 23 21 24 22 25
REMARK SMILES IDX 23 26 24 27 25 28 26 29 90 30 27 31 89 32 28 33 29 34 30 35
REMARK SMILES IDX 83 36 31 37 88 38 82 39 84 40 32 41 87 42 81 43 80 44 33 46
REMARK SMILES IDX 67 47 46 48 66 49 47 50 50 51 65 52 85 53 48 54 49 55 64 57
REMARK SMILES IDX 86 58 51 59 34 60 35 61 44 62 36 63 37 64 43 65 45 66 38 67
REMARK SMILES IDX 39 68 40 69 41 70 42 71 68 72 69 73 78 74 70 75 71 76 77 77
REMARK SMILES IDX 79 78 72 79 73 80 74 81 75 82 76 83 52 84 53 85 62 86 54 87
REMARK SMILES IDX 55 88 61 89 63 90 56 91 57 92 58 93 59 94 60 95
REMARK H PARENT 5 7 5 8 10 20 84 45 50 56
REMARK Flexibility Score: inf
ROOT
ATOM      1  C   UNL A   1      31.790  28.008  26.587  1.00  0.00     0.274 C 
ENDROOT
BRANCH   1   2
ATOM      2  O   UNL A   1      31.640  27.025  25.539  1.00  0.00    -0.458 OA
BRANCH   2   3
ATOM      3  C   UNL A   1      31.390  25.761  25.966  1.00  0.00     0.365 C 
ATOM      4  O   UNL A   1      30.368  25.438  26.575  1.00  0.00    -0.245 OA
BRANCH   3   5
ATOM      5  C   UNL A   1      32.547  24.749  25.779  1.00  0.00     0.298 C 
BRANCH   5   6
ATOM      6  N   UNL A   1      32.418  24.285  24.367  1.00  0.00    -0.332 N 
ATOM      7  H   UNL A   1      32.352  23.268  24.380  1.00  0.00     0.347 HD
ATOM      8  H   UNL A   1      31.593  24.764  24.005  1.00  0.00     0.347 HD
BRANCH   6   9
ATOM      9  C   UNL A   1      33.504  24.646  23.446  1.00  0.00     0.179 C 
ATOM     10  C   UNL A   1      33.113  25.733  22.435  1.00  0.00     0.075 C 
BRANCH   9  11
ATOM     11  C   UNL A   1      33.860  23.342  22.693  1.00  0.00     0.061 C 
ATOM     12  C   UNL A   1      32.862  22.215  22.912  1.00  0.00     0.010 C 
ENDBRANCH   9  11
ENDBRANCH   6   9
ENDBRANCH   5   6
BRANCH   5  13
ATOM     13  C   UNL A   1      32.660  23.650  26.877  1.00  0.00     0.115 C 
BRANCH  13  14
ATOM     14  C   UNL A   1      33.673  22.572  26.520  1.00  0.00    -0.016 A 
ATOM     15  C   UNL A   1      33.440  21.208  26.501  1.00  0.00     0.087 A 
ATOM     16  C   UNL A   1      35.048  22.736  26.126  1.00  0.00     0.003 A 
ATOM     17  N   UNL A   1      34.525  20.582  25.946  1.00  0.00    -0.361 N 
ATOM     18  C   UNL A   1      35.511  21.498  25.679  1.00  0.00     0.046 A 
ATOM     19  C   UNL A   1      35.946  23.818  26.072  1.00  0.00     0.010 A 
ATOM     20  H   UNL A   1      34.588  19.616  25.765  1.00  0.00     0.166 HD
ATOM     21  C   UNL A   1      36.771  21.316  25.091  1.00  0.00     0.026 A 
ATOM     22  C   UNL A   1      37.206  23.664  25.478  1.00  0.00     0.001 A 
ATOM     23  C   UNL A   1      37.605  22.430  24.979  1.00  0.00     0.002 A 
ENDBRANCH  13  14
ENDBRANCH   5  13
ENDBRANCH   3   5
ENDBRANCH   2   3
ENDBRANCH   1   2
BRANCH   1  24
ATOM     24  C   UNL A   1      33.071  28.841  26.454  1.00  0.00     0.275 C 
BRANCH  24  25
ATOM     25  O   UNL A   1      33.861  28.838  27.661  1.00  0.00    -0.458 OA
BRANCH  25  26
ATOM     26  C   UNL A   1      34.474  30.023  27.886  1.00  0.00     0.338 C 
ATOM     27  O   UNL A   1      33.927  31.111  27.862  1.00  0.00    -0.246 OA
BRANCH  26  28
ATOM     28  C   UNL A   1      35.896  29.871  28.223  1.00  0.00     0.060 A 
ATOM     29  C   UNL A   1      36.853  30.005  27.215  1.00  0.00     0.016 A 
ATOM     30  C   UNL A   1      36.263  29.423  29.491  1.00  0.00     0.016 A 
ATOM     31  C   UNL A   1      38.186  29.690  27.467  1.00  0.00     0.010 A 
ATOM     32  C   UNL A   1      37.605  29.127  29.751  1.00  0.00     0.010 A 
ATOM     33  C   UNL A   1      38.573  29.253  28.740  1.00  0.00    -0.014 A 
BRANCH  33  34
ATOM     34  C   UNL A   1      40.001  28.976  29.020  1.00  0.00     0.031 A 
ATOM     35  C   UNL A   1      40.897  30.040  29.577  1.00  0.00     0.074 A 
ATOM     36  C   UNL A   1      40.482  27.746  28.762  1.00  0.00     0.049 A 
ATOM     37  N   UNL A   1      42.185  29.998  29.801  1.00  0.00    -0.248 NA
ATOM     38  C   UNL A   1      40.265  31.319  29.935  1.00  0.00     0.031 C 
ATOM     39  C   UNL A   1      39.690  26.622  28.257  1.00  0.00     0.029 A 
ATOM     40  N   UNL A   1      41.749  27.236  28.879  1.00  0.00    -0.354 N 
ATOM     41  C   UNL A   1      42.526  31.244  30.312  1.00  0.00     0.074 A 
ATOM     42  C   UNL A   1      41.306  32.026  30.358  1.00  0.00     0.031 C 
ATOM     43  C   UNL A   1      40.491  25.558  28.100  1.00  0.00     0.029 A 
ATOM     44  C   UNL A   1      41.857  25.937  28.448  1.00  0.00     0.049 A 
ATOM     45  H   UNL A   1      42.508  27.751  29.237  1.00  0.00     0.167 HD
ATOM     46  C   UNL A   1      43.744  31.689  30.703  1.00  0.00     0.037 A 
ATOM     47  C   UNL A   1      42.939  25.148  28.313  1.00  0.00     0.037 A 
ATOM     48  C   UNL A   1      44.950  30.900  30.652  1.00  0.00     0.049 A 
ATOM     49  C   UNL A   1      44.289  25.687  28.688  1.00  0.00     0.074 A 
ATOM     50  C   UNL A   1      46.230  31.255  31.046  1.00  0.00     0.029 A 
ATOM     51  N   UNL A   1      45.027  29.600  30.174  1.00  0.00    -0.354 N 
ATOM     52  N   UNL A   1      44.597  26.869  29.168  1.00  0.00    -0.248 NA
ATOM     53  C   UNL A   1      45.437  24.793  28.496  1.00  0.00     0.031 C 
ATOM     54  C   UNL A   1      47.086  30.181  30.769  1.00  0.00     0.029 A 
ATOM     55  C   UNL A   1      46.336  29.147  30.238  1.00  0.00     0.049 A 
ATOM     56  H   UNL A   1      44.265  29.076  29.837  1.00  0.00     0.167 HD
ATOM     57  C   UNL A   1      45.974  26.857  29.346  1.00  0.00     0.074 A 
ATOM     58  C   UNL A   1      46.438  25.548  28.933  1.00  0.00     0.031 C 
ATOM     59  C   UNL A   1      46.780  27.843  29.811  1.00  0.00     0.037 A 
BRANCH  46  60
ATOM     60  C   UNL A   1      43.844  33.105  31.195  1.00  0.00     0.058 A 
ATOM     61  C   UNL A   1      44.130  34.169  30.326  1.00  0.00     0.135 A 
ATOM     62  C   UNL A   1      43.607  33.405  32.546  1.00  0.00     0.135 A 
ATOM     63  F   UNL A   1      44.379  33.935  29.028  1.00  0.00    -0.206 F 
ATOM     64  C   UNL A   1      44.197  35.482  30.783  1.00  0.00     0.059 A 
ATOM     65  C   UNL A   1      43.652  34.712  33.022  1.00  0.00     0.059 A 
ATOM     66  F   UNL A   1      43.330  32.423  33.418  1.00  0.00    -0.206 F 
ATOM     67  C   UNL A   1      43.960  35.743  32.135  1.00  0.00     0.060 A 
BRANCH  67  68
ATOM     68  S   UNL A   1      44.050  37.450  32.717  1.00  0.00     0.124 S 
ATOM     69  O   UNL A   1      43.798  38.190  31.484  1.00  0.00    -0.237 OA
ATOM     70  O   UNL A   1      42.985  37.500  33.713  1.00  0.00    -0.237 OA
ATOM     71  O   UNL A   1      45.405  37.556  33.248  1.00  0.00    -0.744 OA
ENDBRANCH  67  68
ENDBRANCH  46  60
BRANCH  47  72
ATOM     72  C   UNL A   1      42.778  23.776  27.770  1.00  0.00     0.058 A 
ATOM     73  C   UNL A   1      42.610  22.677  28.623  1.00  0.00     0.135 A 
ATOM     74  C   UNL A   1      42.736  23.548  26.385  1.00  0.00     0.135 A 
ATOM     75  F   UNL A   1      42.652  22.849  29.953  1.00  0.00    -0.206 F 
ATOM     76  C   UNL A   1      42.401  21.397  28.123  1.00  0.00     0.059 A 
ATOM     77  C   UNL A   1      42.506  22.281  25.862  1.00  0.00     0.059 A 
ATOM     78  F   UNL A   1      42.878  24.574  25.531  1.00  0.00    -0.206 F 
ATOM     79  C   UNL A   1      42.344  21.210  26.740  1.00  0.00     0.060 A 
BRANCH  79  80
ATOM     80  S   UNL A   1      41.990  19.560  26.097  1.00  0.00     0.124 S 
ATOM     81  O   UNL A   1      42.367  18.718  27.225  1.00  0.00    -0.237 OA
ATOM     82  O   UNL A   1      40.561  19.639  25.808  1.00  0.00    -0.237 OA
ATOM     83  O   UNL A   1      42.853  19.469  24.922  1.00  0.00    -0.744 OA
ENDBRANCH  79  80
ENDBRANCH  47  72
BRANCH  59  84
ATOM     84  C   UNL A   1      48.245  27.531  29.909  1.00  0.00     0.058 A 
ATOM     85  C   UNL A   1      49.107  27.721  28.817  1.00  0.00     0.135 A 
ATOM     86  C   UNL A   1      48.797  27.064  31.111  1.00  0.00     0.135 A 
ATOM     87  F   UNL A   1      48.625  28.157  27.644  1.00  0.00    -0.206 F 
ATOM     88  C   UNL A   1      50.466  27.437  28.909  1.00  0.00     0.059 A 
ATOM     89  C   UNL A   1      50.156  26.791  31.230  1.00  0.00     0.059 A 
ATOM     90  F   UNL A   1      48.014  26.872  32.185  1.00  0.00    -0.206 F 
ATOM     91  C   UNL A   1      50.981  26.969  30.119  1.00  0.00     0.060 A 
BRANCH  91  92
ATOM     92  S   UNL A   1      52.748  26.623  30.239  1.00  0.00     0.124 S 
ATOM     93  O   UNL A   1      53.268  27.909  30.693  1.00  0.00    -0.237 OA
ATOM     94  O   UNL A   1      52.794  25.540  31.218  1.00  0.00    -0.237 OA
ATOM     95  O   UNL A   1      53.110  26.243  28.877  1.00  0.00    -0.744 OA
ENDBRANCH  91  92
ENDBRANCH  59  84
ENDBRANCH  33  34
ENDBRANCH  26  28
ENDBRANCH  25  26
ENDBRANCH  24  25
ENDBRANCH   1  24
TORSDOF 19
ENDMDL
MODEL 2
REMARK VINA RESULT:     -10.1      0.944      2.467
REMARK SMILES CC[C@@H](C)[NH2+][C@H](Cc1c[nH]c2ccccc12)C(=O)OCCOC(=O)c1ccc(-c2c3nc(c(-c4c(F)cc(S(=O)(=O)[O-])cc4F)c4ccc([nH]4)c(-c4c(F)cc(S(=O)(=O)[O-])cc4F)c4nc(c(-c5c(F)cc(S(=O)(=O)[O-])cc5F)c5ccc2[nH]5)C=C4)C=C3)cc1
REMARK SMILES IDX 20 1 19 2 17 3 18 4 6 5 5 6 3 9 4 10 2 11 1 12 7 13 8 14
REMARK SMILES IDX 9 15 16 16 10 17 11 18 15 19 12 21 14 22 13 23 21 24 22 25
REMARK SMILES IDX 23 26 24 27 25 28 26 29 90 30 27 31 89 32 28 33 29 34 30 35
REMARK SMILES IDX 83 36 31 37 88 38 82 39 84 40 32 41 87 42 81 43 80 44 33 46
REMARK SMILES IDX 67 47 46 48 66 49 47 50 50 51 65 52 85 53 48 54 49 55 64 57
REMARK SMILES IDX 86 58 51 59 34 60 35 61 44 62 36 63 37 64 43 65 45 66 38 67
REMARK SMILES IDX 39 68 40 69 41 70 42 71 68 72 69 73 78 74 70 75 71 76 77 77
REMARK SMILES IDX 79 78 72 79 73 80 74 81 75 82 76 83 52 84 53 85 62 86 54 87
REMARK SMILES IDX 55 88 61 89 63 90 56 91 57 92 58 93 59 94 60 95
REMARK H PARENT 5 7 5 8 10 20 84 45 50 56
REMARK Flexibility Score: inf
ROOT
ATOM      1  C   UNL A   1      33.645  28.170  25.272  1.00  0.00     0.274 C 
ENDROOT
BRANCH   1   2
ATOM      2  O   UNL A   1      33.989  26.830  25.689  1.00  0.00    -0.458 OA
BRANCH   2   3
ATOM      3  C   UNL A   1      33.952  25.893  24.706  1.00  0.00     0.365 C 
ATOM      4  O   UNL A   1      33.640  26.143  23.541  1.00  0.00    -0.245 OA
BRANCH   3   5
ATOM      5  C   UNL A   1      34.182  24.432  25.163  1.00  0.00     0.298 C 
BRANCH   5   6
ATOM      6  N   UNL A   1      34.940  23.802  24.043  1.00  0.00    -0.332 N 
ATOM      7  H   UNL A   1      34.455  22.943  23.786  1.00  0.00     0.347 HD
ATOM      8  H   UNL A   1      34.973  24.512  23.312  1.00  0.00     0.347 HD
BRANCH   6   9
ATOM      9  C   UNL A   1      36.344  23.455  24.301  1.00  0.00     0.179 C 
ATOM     10  C   UNL A   1      36.673  21.982  24.020  1.00  0.00     0.075 C 
BRANCH   9  11
ATOM     11  C   UNL A   1      36.578  23.761  25.800  1.00  0.00     0.061 C 
ATOM     12  C   UNL A   1      38.044  23.760  26.205  1.00  0.00     0.010 C 
ENDBRANCH   9  11
ENDBRANCH   6   9
ENDBRANCH   5   6
BRANCH   5  13
ATOM     13  C   UNL A   1      32.916  23.681  25.670  1.00  0.00     0.115 C 
BRANCH  13  14
ATOM     14  C   UNL A   1      33.154  22.189  25.848  1.00  0.00    -0.016 A 
ATOM     15  C   UNL A   1      33.628  21.569  26.990  1.00  0.00     0.087 A 
ATOM     16  C   UNL A   1      32.932  21.131  24.897  1.00  0.00     0.003 A 
ATOM     17  N   UNL A   1      33.522  20.212  26.833  1.00  0.00    -0.361 N 
ATOM     18  C   UNL A   1      33.069  19.918  25.572  1.00  0.00     0.046 A 
ATOM     19  C   UNL A   1      32.596  21.075  23.531  1.00  0.00     0.010 A 
ATOM     20  H   UNL A   1      33.738  19.545  27.525  1.00  0.00     0.166 HD
ATOM     21  C   UNL A   1      32.787  18.676  24.985  1.00  0.00     0.026 A 
ATOM     22  C   UNL A   1      32.298  19.847  22.925  1.00  0.00     0.001 A 
ATOM     23  C   UNL A   1      32.377  18.665  23.651  1.00  0.00     0.002 A 
ENDBRANCH  13  14
ENDBRANCH   5  13
ENDBRANCH   3   5
ENDBRANCH   2   3
ENDBRANCH   1   2
BRANCH   1  24
ATOM     24  C   UNL A   1      33.041  29.016  26.400  1.00  0.00     0.275 C 
BRANCH  24  25
ATOM     25  O   UNL A   1      33.797  28.926  27.625  1.00  0.00    -0.458 OA
BRANCH  25  26
ATOM     26  C   UNL A   1      34.387  30.096  27.962  1.00  0.00     0.338 C 
ATOM     27  O   UNL A   1      33.816  31.167  28.053  1.00  0.00    -0.246 OA
BRANCH  26  28
ATOM     28  C   UNL A   1      35.816  29.944  28.267  1.00  0.00     0.060 A 
ATOM     29  C   UNL A   1      36.749  30.059  27.234  1.00  0.00     0.016 A 
ATOM     30  C   UNL A   1      36.213  29.516  29.533  1.00  0.00     0.016 A 
ATOM     31  C   UNL A   1      38.087  29.742  27.458  1.00  0.00     0.010 A 
ATOM     32  C   UNL A   1      37.560  29.219  29.765  1.00  0.00     0.010 A 
ATOM     33  C   UNL A   1      38.503  29.325  28.729  1.00  0.00    -0.014 A 
BRANCH  33  34
ATOM     34  C   UNL A   1      39.937  29.048  28.978  1.00  0.00     0.031 A 
ATOM     35  C   UNL A   1      40.840  30.105  29.537  1.00  0.00     0.074 A 
ATOM     36  C   UNL A   1      40.416  27.823  28.691  1.00  0.00     0.049 A 
ATOM     37  N   UNL A   1      42.132  30.063  29.737  1.00  0.00    -0.248 NA
ATOM     38  C   UNL A   1      40.211  31.376  29.927  1.00  0.00     0.031 C 
ATOM     39  C   UNL A   1      39.617  26.706  28.182  1.00  0.00     0.029 A 
ATOM     40  N   UNL A   1      41.686  27.315  28.778  1.00  0.00    -0.354 N 
ATOM     41  C   UNL A   1      42.478  31.301  30.262  1.00  0.00     0.074 A 
ATOM     42  C   UNL A   1      41.258  32.079  30.343  1.00  0.00     0.031 C 
ATOM     43  C   UNL A   1      40.418  25.646  27.994  1.00  0.00     0.029 A 
ATOM     44  C   UNL A   1      41.789  26.023  28.324  1.00  0.00     0.049 A 
ATOM     45  H   UNL A   1      42.450  27.826  29.130  1.00  0.00     0.167 HD
ATOM     46  C   UNL A   1      43.702  31.743  30.638  1.00  0.00     0.037 A 
ATOM     47  C   UNL A   1      42.871  25.240  28.156  1.00  0.00     0.037 A 
ATOM     48  C   UNL A   1      44.909  30.958  30.553  1.00  0.00     0.049 A 
ATOM     49  C   UNL A   1      44.226  25.777  28.516  1.00  0.00     0.074 A 
ATOM     50  C   UNL A   1      46.195  31.310  30.929  1.00  0.00     0.029 A 
ATOM     51  N   UNL A   1      44.981  29.666  30.052  1.00  0.00    -0.354 N 
ATOM     52  N   UNL A   1      44.539  26.951  29.009  1.00  0.00    -0.248 NA
ATOM     53  C   UNL A   1      45.373  24.889  28.288  1.00  0.00     0.031 C 
ATOM     54  C   UNL A   1      47.049  30.244  30.620  1.00  0.00     0.029 A 
ATOM     55  C   UNL A   1      46.292  29.216  30.085  1.00  0.00     0.049 A 
ATOM     56  H   UNL A   1      44.214  29.146  29.721  1.00  0.00     0.167 HD
ATOM     57  C   UNL A   1      45.919  26.941  29.162  1.00  0.00     0.074 A 
ATOM     58  C   UNL A   1      46.380  25.639  28.719  1.00  0.00     0.031 C 
ATOM     59  C   UNL A   1      46.732  27.921  29.629  1.00  0.00     0.037 A 
BRANCH  46  60
ATOM     60  C   UNL A   1      43.807  33.151  31.151  1.00  0.00     0.058 A 
ATOM     61  C   UNL A   1      43.630  33.456  32.509  1.00  0.00     0.135 A 
ATOM     62  C   UNL A   1      44.131  34.202  30.279  1.00  0.00     0.135 A 
ATOM     63  F   UNL A   1      43.305  32.490  33.384  1.00  0.00    -0.206 F 
ATOM     64  C   UNL A   1      43.752  34.760  32.983  1.00  0.00     0.059 A 
ATOM     65  C   UNL A   1      44.274  35.510  30.732  1.00  0.00     0.059 A 
ATOM     66  F   UNL A   1      44.310  33.963  28.970  1.00  0.00    -0.206 F 
ATOM     67  C   UNL A   1      44.071  35.780  32.085  1.00  0.00     0.060 A 
BRANCH  67  68
ATOM     68  S   UNL A   1      44.226  37.468  32.710  1.00  0.00     0.124 S 
ATOM     69  O   UNL A   1      43.916  38.249  31.516  1.00  0.00    -0.237 OA
ATOM     70  O   UNL A   1      43.222  37.505  33.768  1.00  0.00    -0.237 OA
ATOM     71  O   UNL A   1      45.612  37.536  33.163  1.00  0.00    -0.744 OA
ENDBRANCH  67  68
ENDBRANCH  46  60
BRANCH  47  72
ATOM     72  C   UNL A   1      42.704  23.877  27.594  1.00  0.00     0.058 A 
ATOM     73  C   UNL A   1      42.795  23.649  26.214  1.00  0.00     0.135 A 
ATOM     74  C   UNL A   1      42.504  22.769  28.433  1.00  0.00     0.135 A 
ATOM     75  F   UNL A   1      42.979  24.680  25.375  1.00  0.00    -0.206 F 
ATOM     76  C   UNL A   1      42.698  22.367  25.683  1.00  0.00     0.059 A 
ATOM     77  C   UNL A   1      42.425  21.477  27.928  1.00  0.00     0.059 A 
ATOM     78  F   UNL A   1      42.424  22.939  29.762  1.00  0.00    -0.206 F 
ATOM     79  C   UNL A   1      42.519  21.286  26.549  1.00  0.00     0.060 A 
BRANCH  79  80
ATOM     80  S   UNL A   1      42.475  19.617  25.863  1.00  0.00     0.124 S 
ATOM     81  O   UNL A   1      43.451  19.717  24.784  1.00  0.00    -0.237 OA
ATOM     82  O   UNL A   1      42.869  18.800  27.007  1.00  0.00    -0.237 OA
ATOM     83  O   UNL A   1      41.084  19.465  25.446  1.00  0.00    -0.744 OA
ENDBRANCH  79  80
ENDBRANCH  47  72
BRANCH  59  84
ATOM     84  C   UNL A   1      48.199  27.612  29.695  1.00  0.00     0.058 A 
ATOM     85  C   UNL A   1      48.754  26.937  30.793  1.00  0.00     0.135 A 
ATOM     86  C   UNL A   1      49.053  27.971  28.642  1.00  0.00     0.135 A 
ATOM     87  F   UNL A   1      47.980  26.581  31.830  1.00  0.00    -0.206 F 
ATOM     88  C   UNL A   1      50.114  26.646  30.853  1.00  0.00     0.059 A 
ATOM     89  C   UNL A   1      50.412  27.674  28.672  1.00  0.00     0.059 A 
ATOM     90  F   UNL A   1      48.567  28.613  27.567  1.00  0.00    -0.206 F 
ATOM     91  C   UNL A   1      50.935  27.022  29.788  1.00  0.00     0.060 A 
BRANCH  91  92
ATOM     92  S   UNL A   1      52.694  26.623  29.861  1.00  0.00     0.124 S 
ATOM     93  O   UNL A   1      52.743  25.723  31.010  1.00  0.00    -0.237 OA
ATOM     94  O   UNL A   1      52.934  26.004  28.561  1.00  0.00    -0.237 OA
ATOM     95  O   UNL A   1      53.327  27.924  30.055  1.00  0.00    -0.744 OA
ENDBRANCH  91  92
ENDBRANCH  59  84
ENDBRANCH  33  34
ENDBRANCH  26  28
ENDBRANCH  25  26
ENDBRANCH  24  25
ENDBRANCH   1  24
TORSDOF 19
ENDMDL
MODEL 3
REMARK VINA RESULT:     -10.0      2.769      4.440
REMARK SMILES CC[C@@H](C)[NH2+][C@H](Cc1c[nH]c2ccccc12)C(=O)OCCOC(=O)c1ccc(-c2c3nc(c(-c4c(F)cc(S(=O)(=O)[O-])cc4F)c4ccc([nH]4)c(-c4c(F)cc(S(=O)(=O)[O-])cc4F)c4nc(c(-c5c(F)cc(S(=O)(=O)[O-])cc5F)c5ccc2[nH]5)C=C4)C=C3)cc1
REMARK SMILES IDX 20 1 19 2 17 3 18 4 6 5 5 6 3 9 4 10 2 11 1 12 7 13 8 14
REMARK SMILES IDX 9 15 16 16 10 17 11 18 15 19 12 21 14 22 13 23 21 24 22 25
REMARK SMILES IDX 23 26 24 27 25 28 26 29 90 30 27 31 89 32 28 33 29 34 30 35
REMARK SMILES IDX 83 36 31 37 88 38 82 39 84 40 32 41 87 42 81 43 80 44 33 46
REMARK SMILES IDX 67 47 46 48 66 49 47 50 50 51 65 52 85 53 48 54 49 55 64 57
REMARK SMILES IDX 86 58 51 59 34 60 35 61 44 62 36 63 37 64 43 65 45 66 38 67
REMARK SMILES IDX 39 68 40 69 41 70 42 71 68 72 69 73 78 74 70 75 71 76 77 77
REMARK SMILES IDX 79 78 72 79 73 80 74 81 75 82 76 83 52 84 53 85 62 86 54 87
REMARK SMILES IDX 55 88 61 89 63 90 56 91 57 92 58 93 59 94 60 95
REMARK H PARENT 5 7 5 8 10 20 84 45 50 56
REMARK Flexibility Score: inf
ROOT
ATOM      1  C   UNL A   1      33.715  29.288  26.397  1.00  0.00     0.274 C 
ENDROOT
BRANCH   1   2
ATOM      2  O   UNL A   1      33.713  27.873  26.692  1.00  0.00    -0.458 OA
BRANCH   2   3
ATOM      3  C   UNL A   1      32.543  27.233  26.436  1.00  0.00     0.365 C 
ATOM      4  O   UNL A   1      31.593  27.214  27.221  1.00  0.00    -0.245 OA
BRANCH   3   5
ATOM      5  C   UNL A   1      32.512  26.382  25.143  1.00  0.00     0.298 C 
BRANCH   5   6
ATOM      6  N   UNL A   1      33.863  25.753  25.074  1.00  0.00    -0.332 N 
ATOM      7  H   UNL A   1      34.341  26.136  24.259  1.00  0.00     0.347 HD
ATOM      8  H   UNL A   1      34.302  25.967  25.969  1.00  0.00     0.347 HD
BRANCH   6   9
ATOM      9  C   UNL A   1      33.911  24.289  24.967  1.00  0.00     0.179 C 
ATOM     10  C   UNL A   1      34.453  23.600  26.227  1.00  0.00     0.075 C 
BRANCH   9  11
ATOM     11  C   UNL A   1      34.846  23.991  23.770  1.00  0.00     0.061 C 
ATOM     12  C   UNL A   1      35.775  22.808  23.997  1.00  0.00     0.010 C 
ENDBRANCH   9  11
ENDBRANCH   6   9
ENDBRANCH   5   6
BRANCH   5  13
ATOM     13  C   UNL A   1      32.009  27.119  23.867  1.00  0.00     0.115 C 
BRANCH  13  14
ATOM     14  C   UNL A   1      30.496  27.055  23.715  1.00  0.00    -0.016 A 
ATOM     15  C   UNL A   1      29.688  25.981  24.040  1.00  0.00     0.087 A 
ATOM     16  C   UNL A   1      29.606  28.075  23.225  1.00  0.00     0.003 A 
ATOM     17  N   UNL A   1      28.377  26.369  23.948  1.00  0.00    -0.361 N 
ATOM     18  C   UNL A   1      28.299  27.657  23.481  1.00  0.00     0.046 A 
ATOM     19  C   UNL A   1      29.772  29.333  22.614  1.00  0.00     0.010 A 
ATOM     20  H   UNL A   1      27.604  25.807  24.184  1.00  0.00     0.166 HD
ATOM     21  C   UNL A   1      27.176  28.465  23.258  1.00  0.00     0.026 A 
ATOM     22  C   UNL A   1      28.666  30.164  22.392  1.00  0.00     0.001 A 
ATOM     23  C   UNL A   1      27.386  29.739  22.727  1.00  0.00     0.002 A 
ENDBRANCH  13  14
ENDBRANCH   5  13
ENDBRANCH   3   5
ENDBRANCH   2   3
ENDBRANCH   1   2
BRANCH   1  24
ATOM     24  C   UNL A   1      34.279  30.141  27.539  1.00  0.00     0.275 C 
BRANCH  24  25
ATOM     25  O   UNL A   1      35.304  29.456  28.289  1.00  0.00    -0.458 OA
BRANCH  25  26
ATOM     26  C   UNL A   1      36.085  30.302  28.999  1.00  0.00     0.338 C 
ATOM     27  O   UNL A   1      35.676  31.176  29.742  1.00  0.00    -0.246 OA
BRANCH  26  28
ATOM     28  C   UNL A   1      37.518  30.030  28.826  1.00  0.00     0.060 A 
ATOM     29  C   UNL A   1      38.009  29.746  27.550  1.00  0.00     0.016 A 
ATOM     30  C   UNL A   1      38.336  29.885  29.946  1.00  0.00     0.016 A 
ATOM     31  C   UNL A   1      39.321  29.310  27.384  1.00  0.00     0.010 A 
ATOM     32  C   UNL A   1      39.660  29.468  29.778  1.00  0.00     0.010 A 
ATOM     33  C   UNL A   1      40.159  29.173  28.497  1.00  0.00    -0.014 A 
BRANCH  33  34
ATOM     34  C   UNL A   1      41.571  28.766  28.310  1.00  0.00     0.031 A 
ATOM     35  C   UNL A   1      42.678  29.774  28.379  1.00  0.00     0.074 A 
ATOM     36  C   UNL A   1      41.843  27.470  28.073  1.00  0.00     0.049 A 
ATOM     37  N   UNL A   1      43.956  29.610  28.155  1.00  0.00    -0.248 NA
ATOM     38  C   UNL A   1      42.304  31.146  28.753  1.00  0.00     0.031 C 
ATOM     39  C   UNL A   1      40.846  26.397  28.025  1.00  0.00     0.029 A 
ATOM     40  N   UNL A   1      43.031  26.834  27.821  1.00  0.00    -0.354 N 
ATOM     41  C   UNL A   1      44.541  30.855  28.345  1.00  0.00     0.074 A 
ATOM     42  C   UNL A   1      43.474  31.770  28.697  1.00  0.00     0.031 C 
ATOM     43  C   UNL A   1      41.465  25.238  27.752  1.00  0.00     0.029 A 
ATOM     44  C   UNL A   1      42.889  25.494  27.559  1.00  0.00     0.049 A 
ATOM     45  H   UNL A   1      43.901  27.294  27.826  1.00  0.00     0.167 HD
ATOM     46  C   UNL A   1      45.847  31.197  28.234  1.00  0.00     0.037 A 
ATOM     47  C   UNL A   1      43.796  24.578  27.173  1.00  0.00     0.037 A 
ATOM     48  C   UNL A   1      46.900  30.275  27.884  1.00  0.00     0.049 A 
ATOM     49  C   UNL A   1      45.226  24.997  26.990  1.00  0.00     0.074 A 
ATOM     50  C   UNL A   1      48.258  30.522  27.767  1.00  0.00     0.029 A 
ATOM     51  N   UNL A   1      46.713  28.932  27.589  1.00  0.00    -0.354 N 
ATOM     52  N   UNL A   1      45.765  26.179  27.171  1.00  0.00    -0.248 NA
ATOM     53  C   UNL A   1      46.167  23.964  26.541  1.00  0.00     0.031 C 
ATOM     54  C   UNL A   1      48.885  29.336  27.364  1.00  0.00     0.029 A 
ATOM     55  C   UNL A   1      47.925  28.343  27.265  1.00  0.00     0.049 A 
ATOM     56  H   UNL A   1      45.846  28.467  27.606  1.00  0.00     0.167 HD
ATOM     57  C   UNL A   1      47.112  26.030  26.870  1.00  0.00     0.074 A 
ATOM     58  C   UNL A   1      47.308  24.641  26.505  1.00  0.00     0.031 C 
ATOM     59  C   UNL A   1      48.098  26.961  26.894  1.00  0.00     0.037 A 
BRANCH  46  60
ATOM     60  C   UNL A   1      46.212  32.635  28.465  1.00  0.00     0.058 A 
ATOM     61  C   UNL A   1      46.589  33.106  29.732  1.00  0.00     0.135 A 
ATOM     62  C   UNL A   1      46.226  33.545  27.396  1.00  0.00     0.135 A 
ATOM     63  F   UNL A   1      46.579  32.281  30.792  1.00  0.00    -0.206 F 
ATOM     64  C   UNL A   1      46.950  34.435  29.936  1.00  0.00     0.059 A 
ATOM     65  C   UNL A   1      46.599  34.874  27.572  1.00  0.00     0.059 A 
ATOM     66  F   UNL A   1      45.873  33.145  26.164  1.00  0.00    -0.206 F 
ATOM     67  C   UNL A   1      46.948  35.313  28.849  1.00  0.00     0.060 A 
BRANCH  67  68
ATOM     68  S   UNL A   1      47.417  37.035  29.125  1.00  0.00     0.124 S 
ATOM     69  O   UNL A   1      48.785  36.888  29.612  1.00  0.00    -0.237 OA
ATOM     70  O   UNL A   1      47.279  37.616  27.793  1.00  0.00    -0.237 OA
ATOM     71  O   UNL A   1      46.445  37.497  30.111  1.00  0.00    -0.744 OA
ENDBRANCH  67  68
ENDBRANCH  46  60
BRANCH  47  72
ATOM     72  C   UNL A   1      43.359  23.185  26.909  1.00  0.00     0.058 A 
ATOM     73  C   UNL A   1      43.307  22.679  25.603  1.00  0.00     0.135 A 
ATOM     74  C   UNL A   1      43.037  22.317  27.964  1.00  0.00     0.135 A 
ATOM     75  F   UNL A   1      43.600  23.476  24.564  1.00  0.00    -0.206 F 
ATOM     76  C   UNL A   1      42.954  21.358  25.350  1.00  0.00     0.059 A 
ATOM     77  C   UNL A   1      42.702  20.987  27.738  1.00  0.00     0.059 A 
ATOM     78  F   UNL A   1      43.086  22.754  29.233  1.00  0.00    -0.206 F 
ATOM     79  C   UNL A   1      42.659  20.517  26.425  1.00  0.00     0.060 A 
BRANCH  79  80
ATOM     80  S   UNL A   1      42.282  18.783  26.098  1.00  0.00     0.124 S 
ATOM     81  O   UNL A   1      42.582  18.169  27.387  1.00  0.00    -0.237 OA
ATOM     82  O   UNL A   1      40.871  18.835  25.728  1.00  0.00    -0.237 OA
ATOM     83  O   UNL A   1      43.194  18.444  25.009  1.00  0.00    -0.744 OA
ENDBRANCH  79  80
ENDBRANCH  47  72
BRANCH  59  84
ATOM     84  C   UNL A   1      49.478  26.497  26.529  1.00  0.00     0.058 A 
ATOM     85  C   UNL A   1      49.972  26.632  25.222  1.00  0.00     0.135 A 
ATOM     86  C   UNL A   1      50.323  25.936  27.498  1.00  0.00     0.135 A 
ATOM     87  F   UNL A   1      49.199  27.154  24.258  1.00  0.00    -0.206 F 
ATOM     88  C   UNL A   1      51.253  26.207  24.885  1.00  0.00     0.059 A 
ATOM     89  C   UNL A   1      51.614  25.522  27.187  1.00  0.00     0.059 A 
ATOM     90  F   UNL A   1      49.897  25.792  28.764  1.00  0.00    -0.206 F 
ATOM     91  C   UNL A   1      52.066  25.650  25.874  1.00  0.00     0.060 A 
BRANCH  91  92
ATOM     92  S   UNL A   1      53.735  25.120  25.435  1.00  0.00     0.124 S 
ATOM     93  O   UNL A   1      53.583  23.668  25.409  1.00  0.00    -0.237 OA
ATOM     94  O   UNL A   1      53.940  25.760  24.139  1.00  0.00    -0.237 OA
ATOM     95  O   UNL A   1      54.552  25.647  26.523  1.00  0.00    -0.744 OA
ENDBRANCH  91  92
ENDBRANCH  59  84
ENDBRANCH  33  34
ENDBRANCH  26  28
ENDBRANCH  25  26
ENDBRANCH  24  25
ENDBRANCH   1  24
TORSDOF 19
ENDMDL
