MODEL 1
REMARK VINA RESULT:     -11.6      0.000      0.000
REMARK SMILES CCC(C)(C)[C@@H]1CCc2c(sc(=O)n2CCCC(=O)OCCOC(=O)c2ccc(-c3c4nc(c(-c5c(F)cc(S(=O)(=O)[O-])cc5F)c5ccc([nH]5)c(-c5c(F)cc(S(=O)(=O)[O-])cc5F)c5nc(c(-c6c(F)cc(S(=O)(=O)[O-])cc6F)c6ccc3[nH]6)C=C5)C=C4)cc2)C1
REMARK SMILES IDX 21 1 20 2 18 3 19 4 17 5 16 6 15 7 14 8 6 9 7 10 92 11 8 12
REMARK SMILES IDX 10 13 9 14 11 15 12 16 13 17 3 18 4 19 5 20 2 21 1 22 22 23
REMARK SMILES IDX 23 24 24 25 25 26 26 27 27 28 91 29 28 30 90 31 29 32 30 33
REMARK SMILES IDX 31 34 84 35 32 36 89 37 83 38 85 39 33 40 88 41 82 42 81 43
REMARK SMILES IDX 34 45 68 46 47 47 67 48 48 49 51 50 66 51 86 52 49 53 50 54
REMARK SMILES IDX 65 56 87 57 52 58 35 59 36 60 45 61 37 62 38 63 44 64 46 65
REMARK SMILES IDX 39 66 40 67 41 68 42 69 43 70 69 71 70 72 79 73 71 74 72 75
REMARK SMILES IDX 78 76 80 77 73 78 74 79 75 80 76 81 77 82 53 83 54 84 63 85
REMARK SMILES IDX 55 86 56 87 62 88 64 89 57 90 58 91 59 92 60 93 61 94
REMARK H PARENT 85 44 51 55
REMARK Flexibility Score: inf
ROOT
ATOM      1  C   UNL A   1      36.996  22.146  24.451  1.00  0.00     0.274 C 
ENDROOT
BRANCH   1   2
ATOM      2  O   UNL A   1      35.722  21.515  24.639  1.00  0.00    -0.462 OA
BRANCH   2   3
ATOM      3  C   UNL A   1      34.994  21.809  25.740  1.00  0.00     0.305 C 
ATOM      4  O   UNL A   1      34.594  20.982  26.552  1.00  0.00    -0.252 OA
BRANCH   3   5
ATOM      5  C   UNL A   1      34.682  23.293  25.864  1.00  0.00     0.124 C 
BRANCH   5   6
ATOM      6  C   UNL A   1      33.232  23.770  25.748  1.00  0.00     0.034 C 
BRANCH   6   7
ATOM      7  C   UNL A   1      32.388  23.237  24.591  1.00  0.00     0.127 C 
BRANCH   7   8
ATOM      8  N   UNL A   1      32.268  24.152  23.461  1.00  0.00    -0.303 N 
ATOM      9  C   UNL A   1      30.539  27.912  23.702  1.00  0.00     0.000 C 
ATOM     10  C   UNL A   1      29.680  26.837  24.412  1.00  0.00     0.011 C 
ATOM     11  C   UNL A   1      30.882  27.354  22.295  1.00  0.00     0.053 C 
ATOM     12  C   UNL A   1      30.346  25.453  24.515  1.00  0.00     0.055 C 
ATOM     13  C   UNL A   1      31.543  26.032  22.404  1.00  0.00     0.030 A 
ATOM     14  C   UNL A   1      31.347  25.190  23.427  1.00  0.00     0.035 A 
ATOM     15  S   UNL A   1      32.814  25.535  21.354  1.00  0.00    -0.079 S 
ATOM     16  C   UNL A   1      33.202  24.186  22.425  1.00  0.00     0.307 A 
ATOM     17  O   UNL A   1      34.170  23.473  22.209  1.00  0.00    -0.257 OA
BRANCH   9  18
ATOM     18  C   UNL A   1      31.744  28.546  24.545  1.00  0.00    -0.032 C 
ATOM     19  C   UNL A   1      31.249  29.901  25.105  1.00  0.00     0.011 C 
ATOM     20  C   UNL A   1      32.940  28.875  23.611  1.00  0.00     0.011 C 
BRANCH  18  21
ATOM     21  C   UNL A   1      32.346  27.707  25.720  1.00  0.00     0.003 C 
ATOM     22  C   UNL A   1      33.860  27.500  25.750  1.00  0.00     0.004 C 
ENDBRANCH  18  21
ENDBRANCH   9  18
ENDBRANCH   7   8
ENDBRANCH   6   7
ENDBRANCH   5   6
ENDBRANCH   3   5
ENDBRANCH   2   3
ENDBRANCH   1   2
BRANCH   1  23
ATOM     23  C   UNL A   1      37.915  21.782  25.602  1.00  0.00     0.275 C 
BRANCH  23  24
ATOM     24  O   UNL A   1      38.485  22.969  26.138  1.00  0.00    -0.458 OA
BRANCH  24  25
ATOM     25  C   UNL A   1      39.627  22.792  26.840  1.00  0.00     0.338 C 
ATOM     26  O   UNL A   1      40.010  21.773  27.388  1.00  0.00    -0.246 OA
BRANCH  25  27
ATOM     27  C   UNL A   1      40.285  24.086  26.992  1.00  0.00     0.060 A 
ATOM     28  C   UNL A   1      41.414  24.151  27.814  1.00  0.00     0.016 A 
ATOM     29  C   UNL A   1      39.577  25.227  26.592  1.00  0.00     0.016 A 
ATOM     30  C   UNL A   1      41.691  25.350  28.430  1.00  0.00     0.010 A 
ATOM     31  C   UNL A   1      39.845  26.412  27.216  1.00  0.00     0.010 A 
ATOM     32  C   UNL A   1      40.828  26.427  28.200  1.00  0.00    -0.014 A 
BRANCH  32  33
ATOM     33  C   UNL A   1      40.994  27.639  28.962  1.00  0.00     0.031 A 
ATOM     34  C   UNL A   1      42.074  28.491  28.429  1.00  0.00     0.074 A 
ATOM     35  C   UNL A   1      40.133  27.989  29.937  1.00  0.00     0.049 A 
ATOM     36  N   UNL A   1      43.233  28.701  28.955  1.00  0.00    -0.248 NA
ATOM     37  C   UNL A   1      41.941  28.984  27.047  1.00  0.00     0.031 C 
ATOM     38  C   UNL A   1      38.883  27.338  30.341  1.00  0.00     0.029 A 
ATOM     39  N   UNL A   1      40.162  29.092  30.724  1.00  0.00    -0.354 N 
ATOM     40  C   UNL A   1      43.875  29.572  28.084  1.00  0.00     0.074 A 
ATOM     41  C   UNL A   1      43.147  29.516  26.844  1.00  0.00     0.031 C 
ATOM     42  C   UNL A   1      38.171  28.183  31.125  1.00  0.00     0.029 A 
ATOM     43  C   UNL A   1      38.972  29.366  31.387  1.00  0.00     0.049 A 
ATOM     44  H   UNL A   1      40.964  29.655  30.819  1.00  0.00     0.167 HD
ATOM     45  C   UNL A   1      44.776  30.480  28.544  1.00  0.00     0.037 A 
ATOM     46  C   UNL A   1      38.675  30.528  32.028  1.00  0.00     0.037 A 
ATOM     47  C   UNL A   1      45.210  30.152  29.879  1.00  0.00     0.049 A 
ATOM     48  C   UNL A   1      39.977  31.191  32.329  1.00  0.00     0.074 A 
ATOM     49  C   UNL A   1      45.844  29.065  30.450  1.00  0.00     0.029 A 
ATOM     50  N   UNL A   1      44.630  30.838  30.922  1.00  0.00    -0.354 N 
ATOM     51  N   UNL A   1      40.862  30.694  33.154  1.00  0.00    -0.248 NA
ATOM     52  C   UNL A   1      40.508  32.114  31.335  1.00  0.00     0.031 C 
ATOM     53  C   UNL A   1      45.214  28.891  31.717  1.00  0.00     0.029 A 
ATOM     54  C   UNL A   1      44.286  29.920  31.883  1.00  0.00     0.049 A 
ATOM     55  H   UNL A   1      44.488  31.811  30.970  1.00  0.00     0.167 HD
ATOM     56  C   UNL A   1      42.088  30.896  32.533  1.00  0.00     0.074 A 
ATOM     57  C   UNL A   1      41.811  31.833  31.444  1.00  0.00     0.031 C 
ATOM     58  C   UNL A   1      43.148  30.065  32.766  1.00  0.00     0.037 A 
BRANCH  45  59
ATOM     59  C   UNL A   1      44.949  31.853  27.952  1.00  0.00     0.058 A 
ATOM     60  C   UNL A   1      46.188  32.198  27.378  1.00  0.00     0.135 A 
ATOM     61  C   UNL A   1      44.055  32.927  28.172  1.00  0.00     0.135 A 
ATOM     62  F   UNL A   1      47.114  31.255  27.138  1.00  0.00    -0.206 F 
ATOM     63  C   UNL A   1      46.541  33.519  27.113  1.00  0.00     0.059 A 
ATOM     64  C   UNL A   1      44.364  34.243  27.858  1.00  0.00     0.059 A 
ATOM     65  F   UNL A   1      42.881  32.770  28.795  1.00  0.00    -0.206 F 
ATOM     66  C   UNL A   1      45.624  34.535  27.370  1.00  0.00     0.060 A 
BRANCH  66  67
ATOM     67  S   UNL A   1      46.116  36.249  27.128  1.00  0.00     0.124 S 
ATOM     68  O   UNL A   1      44.832  36.935  27.226  1.00  0.00    -0.237 OA
ATOM     69  O   UNL A   1      47.041  36.456  28.236  1.00  0.00    -0.237 OA
ATOM     70  O   UNL A   1      46.728  36.238  25.802  1.00  0.00    -0.744 OA
ENDBRANCH  66  67
ENDBRANCH  45  59
BRANCH  46  71
ATOM     71  C   UNL A   1      37.381  31.268  32.001  1.00  0.00     0.058 A 
ATOM     72  C   UNL A   1      36.775  31.733  33.183  1.00  0.00     0.135 A 
ATOM     73  C   UNL A   1      36.856  31.783  30.796  1.00  0.00     0.135 A 
ATOM     74  F   UNL A   1      37.225  31.318  34.377  1.00  0.00    -0.206 F 
ATOM     75  C   UNL A   1      35.743  32.681  33.174  1.00  0.00     0.059 A 
ATOM     76  C   UNL A   1      35.825  32.722  30.763  1.00  0.00     0.059 A 
ATOM     77  F   UNL A   1      37.393  31.456  29.612  1.00  0.00    -0.206 F 
ATOM     78  C   UNL A   1      35.287  33.186  31.956  1.00  0.00     0.060 A 
BRANCH  78  79
ATOM     79  S   UNL A   1      34.075  34.530  31.938  1.00  0.00     0.124 S 
ATOM     80  O   UNL A   1      33.658  34.544  30.540  1.00  0.00    -0.237 OA
ATOM     81  O   UNL A   1      33.079  34.062  32.896  1.00  0.00    -0.237 OA
ATOM     82  O   UNL A   1      34.849  35.692  32.368  1.00  0.00    -0.744 OA
ENDBRANCH  78  79
ENDBRANCH  46  71
BRANCH  58  83
ATOM     83  C   UNL A   1      43.045  29.079  33.904  1.00  0.00     0.058 A 
ATOM     84  C   UNL A   1      43.296  29.386  35.255  1.00  0.00     0.135 A 
ATOM     85  C   UNL A   1      42.516  27.810  33.630  1.00  0.00     0.135 A 
ATOM     86  F   UNL A   1      43.699  30.612  35.618  1.00  0.00    -0.206 F 
ATOM     87  C   UNL A   1      43.073  28.460  36.276  1.00  0.00     0.059 A 
ATOM     88  C   UNL A   1      42.258  26.881  34.634  1.00  0.00     0.059 A 
ATOM     89  F   UNL A   1      42.192  27.476  32.369  1.00  0.00    -0.206 F 
ATOM     90  C   UNL A   1      42.553  27.206  35.956  1.00  0.00     0.060 A 
BRANCH  90  91
ATOM     91  S   UNL A   1      42.207  26.027  37.279  1.00  0.00     0.124 S 
ATOM     92  O   UNL A   1      43.120  26.466  38.329  1.00  0.00    -0.237 OA
ATOM     93  O   UNL A   1      40.787  26.250  37.541  1.00  0.00    -0.237 OA
ATOM     94  O   UNL A   1      42.523  24.735  36.676  1.00  0.00    -0.744 OA
ENDBRANCH  90  91
ENDBRANCH  58  83
ENDBRANCH  32  33
ENDBRANCH  25  27
ENDBRANCH  24  25
ENDBRANCH  23  24
ENDBRANCH   1  23
TORSDOF 19
ENDMDL
MODEL 2
REMARK VINA RESULT:     -11.4      2.576      3.648
REMARK SMILES CCC(C)(C)[C@@H]1CCc2c(sc(=O)n2CCCC(=O)OCCOC(=O)c2ccc(-c3c4nc(c(-c5c(F)cc(S(=O)(=O)[O-])cc5F)c5ccc([nH]5)c(-c5c(F)cc(S(=O)(=O)[O-])cc5F)c5nc(c(-c6c(F)cc(S(=O)(=O)[O-])cc6F)c6ccc3[nH]6)C=C5)C=C4)cc2)C1
REMARK SMILES IDX 21 1 20 2 18 3 19 4 17 5 16 6 15 7 14 8 6 9 7 10 92 11 8 12
REMARK SMILES IDX 10 13 9 14 11 15 12 16 13 17 3 18 4 19 5 20 2 21 1 22 22 23
REMARK SMILES IDX 23 24 24 25 25 26 26 27 27 28 91 29 28 30 90 31 29 32 30 33
REMARK SMILES IDX 31 34 84 35 32 36 89 37 83 38 85 39 33 40 88 41 82 42 81 43
REMARK SMILES IDX 34 45 68 46 47 47 67 48 48 49 51 50 66 51 86 52 49 53 50 54
REMARK SMILES IDX 65 56 87 57 52 58 35 59 36 60 45 61 37 62 38 63 44 64 46 65
REMARK SMILES IDX 39 66 40 67 41 68 42 69 43 70 69 71 70 72 79 73 71 74 72 75
REMARK SMILES IDX 78 76 80 77 73 78 74 79 75 80 76 81 77 82 53 83 54 84 63 85
REMARK SMILES IDX 55 86 56 87 62 88 64 89 57 90 58 91 59 92 60 93 61 94
REMARK H PARENT 85 44 51 55
REMARK Flexibility Score: inf
ROOT
ATOM      1  C   UNL A   1      41.294  20.742  26.635  1.00  0.00     0.274 C 
ENDROOT
BRANCH   1   2
ATOM      2  O   UNL A   1      40.016  20.650  25.990  1.00  0.00    -0.462 OA
BRANCH   2   3
ATOM      3  C   UNL A   1      39.153  21.687  26.079  1.00  0.00     0.305 C 
ATOM      4  O   UNL A   1      39.307  22.661  26.809  1.00  0.00    -0.252 OA
BRANCH   3   5
ATOM      5  C   UNL A   1      37.928  21.515  25.193  1.00  0.00     0.124 C 
BRANCH   5   6
ATOM      6  C   UNL A   1      36.538  21.800  25.767  1.00  0.00     0.034 C 
BRANCH   6   7
ATOM      7  C   UNL A   1      35.952  23.198  25.579  1.00  0.00     0.127 C 
BRANCH   7   8
ATOM      8  N   UNL A   1      34.808  23.256  24.676  1.00  0.00    -0.303 N 
ATOM      9  C   UNL A   1      31.212  25.091  25.613  1.00  0.00     0.000 C 
ATOM     10  C   UNL A   1      31.722  24.201  26.772  1.00  0.00     0.011 C 
ATOM     11  C   UNL A   1      31.279  24.231  24.323  1.00  0.00     0.053 C 
ATOM     12  C   UNL A   1      33.136  23.629  26.562  1.00  0.00     0.055 C 
ATOM     13  C   UNL A   1      32.648  23.704  24.118  1.00  0.00     0.030 A 
ATOM     14  C   UNL A   1      33.511  23.478  25.116  1.00  0.00     0.035 A 
ATOM     15  S   UNL A   1      33.365  23.550  22.559  1.00  0.00    -0.079 S 
ATOM     16  C   UNL A   1      34.954  23.302  23.289  1.00  0.00     0.307 A 
ATOM     17  O   UNL A   1      35.955  23.219  22.595  1.00  0.00    -0.257 OA
BRANCH   9  18
ATOM     18  C   UNL A   1      31.807  26.576  25.527  1.00  0.00    -0.032 C 
ATOM     19  C   UNL A   1      31.516  27.266  26.881  1.00  0.00     0.011 C 
ATOM     20  C   UNL A   1      31.050  27.399  24.449  1.00  0.00     0.011 C 
BRANCH  18  21
ATOM     21  C   UNL A   1      33.327  26.745  25.194  1.00  0.00     0.003 C 
ATOM     22  C   UNL A   1      33.707  27.144  23.768  1.00  0.00     0.004 C 
ENDBRANCH  18  21
ENDBRANCH   9  18
ENDBRANCH   7   8
ENDBRANCH   6   7
ENDBRANCH   5   6
ENDBRANCH   3   5
ENDBRANCH   2   3
ENDBRANCH   1   2
BRANCH   1  23
ATOM     23  C   UNL A   1      42.235  19.712  26.039  1.00  0.00     0.275 C 
BRANCH  23  24
ATOM     24  O   UNL A   1      43.569  20.199  26.115  1.00  0.00    -0.458 OA
BRANCH  24  25
ATOM     25  C   UNL A   1      44.060  20.714  24.966  1.00  0.00     0.338 C 
ATOM     26  O   UNL A   1      44.352  20.111  23.948  1.00  0.00    -0.246 OA
BRANCH  25  27
ATOM     27  C   UNL A   1      44.354  22.128  25.178  1.00  0.00     0.060 A 
ATOM     28  C   UNL A   1      45.302  22.459  26.151  1.00  0.00     0.016 A 
ATOM     29  C   UNL A   1      43.456  23.066  24.652  1.00  0.00     0.016 A 
ATOM     30  C   UNL A   1      45.186  23.683  26.769  1.00  0.00     0.010 A 
ATOM     31  C   UNL A   1      43.334  24.274  25.277  1.00  0.00     0.010 A 
ATOM     32  C   UNL A   1      44.130  24.518  26.391  1.00  0.00    -0.014 A 
BRANCH  32  33
ATOM     33  C   UNL A   1      43.884  25.727  27.137  1.00  0.00     0.031 A 
ATOM     34  C   UNL A   1      44.891  26.770  26.860  1.00  0.00     0.074 A 
ATOM     35  C   UNL A   1      42.763  25.897  27.863  1.00  0.00     0.049 A 
ATOM     36  N   UNL A   1      45.829  27.177  27.647  1.00  0.00    -0.248 NA
ATOM     37  C   UNL A   1      45.013  27.256  25.475  1.00  0.00     0.031 C 
ATOM     38  C   UNL A   1      41.590  25.024  27.968  1.00  0.00     0.029 A 
ATOM     39  N   UNL A   1      42.400  26.973  28.603  1.00  0.00    -0.354 N 
ATOM     40  C   UNL A   1      46.496  28.165  26.935  1.00  0.00     0.074 A 
ATOM     41  C   UNL A   1      46.116  28.000  25.557  1.00  0.00     0.031 C 
ATOM     42  C   UNL A   1      40.568  25.711  28.531  1.00  0.00     0.029 A 
ATOM     43  C   UNL A   1      41.054  27.015  28.949  1.00  0.00     0.049 A 
ATOM     44  H   UNL A   1      43.039  27.670  28.876  1.00  0.00     0.167 HD
ATOM     45  C   UNL A   1      47.079  29.212  27.577  1.00  0.00     0.037 A 
ATOM     46  C   UNL A   1      40.406  28.092  29.467  1.00  0.00     0.037 A 
ATOM     47  C   UNL A   1      47.225  28.945  28.986  1.00  0.00     0.049 A 
ATOM     48  C   UNL A   1      41.453  28.975  30.058  1.00  0.00     0.074 A 
ATOM     49  C   UNL A   1      47.886  27.980  29.722  1.00  0.00     0.029 A 
ATOM     50  N   UNL A   1      46.295  29.496  29.837  1.00  0.00    -0.354 N 
ATOM     51  N   UNL A   1      42.184  28.631  31.086  1.00  0.00    -0.248 NA
ATOM     52  C   UNL A   1      42.037  29.996  29.198  1.00  0.00     0.031 C 
ATOM     53  C   UNL A   1      47.007  27.672  30.802  1.00  0.00     0.029 A 
ATOM     54  C   UNL A   1      45.897  28.512  30.709  1.00  0.00     0.049 A 
ATOM     55  H   UNL A   1      45.972  30.425  29.822  1.00  0.00     0.167 HD
ATOM     56  C   UNL A   1      43.468  29.063  30.778  1.00  0.00     0.074 A 
ATOM     57  C   UNL A   1      43.302  29.953  29.629  1.00  0.00     0.031 C 
ATOM     58  C   UNL A   1      44.571  28.434  31.284  1.00  0.00     0.037 A 
BRANCH  45  59
ATOM     59  C   UNL A   1      47.142  30.605  27.007  1.00  0.00     0.058 A 
ATOM     60  C   UNL A   1      48.364  31.302  27.044  1.00  0.00     0.135 A 
ATOM     61  C   UNL A   1      46.002  31.380  26.687  1.00  0.00     0.135 A 
ATOM     62  F   UNL A   1      49.505  30.664  27.349  1.00  0.00    -0.206 F 
ATOM     63  C   UNL A   1      48.438  32.681  26.851  1.00  0.00     0.059 A 
ATOM     64  C   UNL A   1      46.063  32.742  26.432  1.00  0.00     0.059 A 
ATOM     65  F   UNL A   1      44.762  30.878  26.707  1.00  0.00    -0.206 F 
ATOM     66  C   UNL A   1      47.277  33.392  26.559  1.00  0.00     0.060 A 
BRANCH  66  67
ATOM     67  S   UNL A   1      47.353  35.183  26.414  1.00  0.00     0.124 S 
ATOM     68  O   UNL A   1      48.536  35.356  25.578  1.00  0.00    -0.237 OA
ATOM     69  O   UNL A   1      46.073  35.489  25.786  1.00  0.00    -0.237 OA
ATOM     70  O   UNL A   1      47.487  35.627  27.799  1.00  0.00    -0.744 OA
ENDBRANCH  66  67
ENDBRANCH  45  59
BRANCH  46  71
ATOM     71  C   UNL A   1      39.046  28.587  29.105  1.00  0.00     0.058 A 
ATOM     72  C   UNL A   1      38.023  28.692  30.065  1.00  0.00     0.135 A 
ATOM     73  C   UNL A   1      38.805  29.233  27.874  1.00  0.00     0.135 A 
ATOM     74  F   UNL A   1      38.175  28.130  31.275  1.00  0.00    -0.206 F 
ATOM     75  C   UNL A   1      36.852  29.428  29.836  1.00  0.00     0.059 A 
ATOM     76  C   UNL A   1      37.645  29.966  27.622  1.00  0.00     0.059 A 
ATOM     77  F   UNL A   1      39.733  29.249  26.907  1.00  0.00    -0.206 F 
ATOM     78  C   UNL A   1      36.682  30.080  28.615  1.00  0.00     0.060 A 
BRANCH  78  79
ATOM     79  S   UNL A   1      35.256  31.169  28.370  1.00  0.00     0.124 S 
ATOM     80  O   UNL A   1      35.806  32.196  27.492  1.00  0.00    -0.237 OA
ATOM     81  O   UNL A   1      34.280  30.269  27.766  1.00  0.00    -0.237 OA
ATOM     82  O   UNL A   1      34.933  31.615  29.723  1.00  0.00    -0.744 OA
ENDBRANCH  78  79
ENDBRANCH  46  71
BRANCH  58  83
ATOM     83  C   UNL A   1      44.372  27.424  32.389  1.00  0.00     0.058 A 
ATOM     84  C   UNL A   1      44.191  27.749  33.747  1.00  0.00     0.135 A 
ATOM     85  C   UNL A   1      44.200  26.080  32.030  1.00  0.00     0.135 A 
ATOM     86  F   UNL A   1      44.229  29.024  34.160  1.00  0.00    -0.206 F 
ATOM     87  C   UNL A   1      43.897  26.777  34.706  1.00  0.00     0.059 A 
ATOM     88  C   UNL A   1      43.878  25.098  32.963  1.00  0.00     0.059 A 
ATOM     89  F   UNL A   1      44.293  25.713  30.741  1.00  0.00    -0.206 F 
ATOM     90  C   UNL A   1      43.743  25.451  34.304  1.00  0.00     0.060 A 
BRANCH  90  91
ATOM     91  S   UNL A   1      43.305  24.199  35.530  1.00  0.00     0.124 S 
ATOM     92  O   UNL A   1      43.697  24.843  36.780  1.00  0.00    -0.237 OA
ATOM     93  O   UNL A   1      41.867  24.041  35.324  1.00  0.00    -0.237 OA
ATOM     94  O   UNL A   1      44.110  23.044  35.143  1.00  0.00    -0.744 OA
ENDBRANCH  90  91
ENDBRANCH  58  83
ENDBRANCH  32  33
ENDBRANCH  25  27
ENDBRANCH  24  25
ENDBRANCH  23  24
ENDBRANCH   1  23
TORSDOF 19
ENDMDL
MODEL 3
REMARK VINA RESULT:     -11.3      3.021      9.343
REMARK SMILES CCC(C)(C)[C@@H]1CCc2c(sc(=O)n2CCCC(=O)OCCOC(=O)c2ccc(-c3c4nc(c(-c5c(F)cc(S(=O)(=O)[O-])cc5F)c5ccc([nH]5)c(-c5c(F)cc(S(=O)(=O)[O-])cc5F)c5nc(c(-c6c(F)cc(S(=O)(=O)[O-])cc6F)c6ccc3[nH]6)C=C5)C=C4)cc2)C1
REMARK SMILES IDX 21 1 20 2 18 3 19 4 17 5 16 6 15 7 14 8 6 9 7 10 92 11 8 12
REMARK SMILES IDX 10 13 9 14 11 15 12 16 13 17 3 18 4 19 5 20 2 21 1 22 22 23
REMARK SMILES IDX 23 24 24 25 25 26 26 27 27 28 91 29 28 30 90 31 29 32 30 33
REMARK SMILES IDX 31 34 84 35 32 36 89 37 83 38 85 39 33 40 88 41 82 42 81 43
REMARK SMILES IDX 34 45 68 46 47 47 67 48 48 49 51 50 66 51 86 52 49 53 50 54
REMARK SMILES IDX 65 56 87 57 52 58 35 59 36 60 45 61 37 62 38 63 44 64 46 65
REMARK SMILES IDX 39 66 40 67 41 68 42 69 43 70 69 71 70 72 79 73 71 74 72 75
REMARK SMILES IDX 78 76 80 77 73 78 74 79 75 80 76 81 77 82 53 83 54 84 63 85
REMARK SMILES IDX 55 86 56 87 62 88 64 89 57 90 58 91 59 92 60 93 61 94
REMARK H PARENT 85 44 51 55
REMARK Flexibility Score: inf
ROOT
ATOM      1  C   UNL A   1      32.398  30.744  26.248  1.00  0.00     0.274 C 
ENDROOT
BRANCH   1   2
ATOM      2  O   UNL A   1      31.542  29.674  25.827  1.00  0.00    -0.462 OA
BRANCH   2   3
ATOM      3  C   UNL A   1      31.875  28.950  24.734  1.00  0.00     0.305 C 
ATOM      4  O   UNL A   1      32.602  29.348  23.830  1.00  0.00    -0.252 OA
BRANCH   3   5
ATOM      5  C   UNL A   1      31.223  27.576  24.713  1.00  0.00     0.124 C 
BRANCH   5   6
ATOM      6  C   UNL A   1      30.876  26.886  26.034  1.00  0.00     0.034 C 
BRANCH   6   7
ATOM      7  C   UNL A   1      31.838  25.828  26.570  1.00  0.00     0.127 C 
BRANCH   7   8
ATOM      8  N   UNL A   1      31.712  24.522  25.933  1.00  0.00    -0.303 N 
ATOM      9  C   UNL A   1      34.817  22.588  23.983  1.00  0.00     0.000 C 
ATOM     10  C   UNL A   1      34.726  24.080  23.581  1.00  0.00     0.011 C 
ATOM     11  C   UNL A   1      33.388  21.999  23.846  1.00  0.00     0.053 C 
ATOM     12  C   UNL A   1      33.709  24.900  24.397  1.00  0.00     0.055 C 
ATOM     13  C   UNL A   1      32.421  22.780  24.652  1.00  0.00     0.030 A 
ATOM     14  C   UNL A   1      32.582  24.076  24.949  1.00  0.00     0.035 A 
ATOM     15  S   UNL A   1      31.106  22.053  25.495  1.00  0.00    -0.079 S 
ATOM     16  C   UNL A   1      30.839  23.541  26.408  1.00  0.00     0.307 A 
ATOM     17  O   UNL A   1      30.012  23.586  27.304  1.00  0.00    -0.257 OA
BRANCH   9  18
ATOM     18  C   UNL A   1      35.615  22.251  25.331  1.00  0.00    -0.032 C 
ATOM     19  C   UNL A   1      36.250  23.570  25.830  1.00  0.00     0.011 C 
ATOM     20  C   UNL A   1      36.796  21.288  25.030  1.00  0.00     0.011 C 
BRANCH  18  21
ATOM     21  C   UNL A   1      34.826  21.594  26.511  1.00  0.00     0.003 C 
ATOM     22  C   UNL A   1      34.357  22.500  27.649  1.00  0.00     0.004 C 
ENDBRANCH  18  21
ENDBRANCH   9  18
ENDBRANCH   7   8
ENDBRANCH   6   7
ENDBRANCH   5   6
ENDBRANCH   3   5
ENDBRANCH   2   3
ENDBRANCH   1   2
BRANCH   1  23
ATOM     23  C   UNL A   1      33.222  30.293  27.440  1.00  0.00     0.275 C 
BRANCH  23  24
ATOM     24  O   UNL A   1      34.603  30.426  27.131  1.00  0.00    -0.458 OA
BRANCH  24  25
ATOM     25  C   UNL A   1      35.240  31.433  27.769  1.00  0.00     0.338 C 
ATOM     26  O   UNL A   1      35.110  32.630  27.581  1.00  0.00    -0.246 OA
BRANCH  25  27
ATOM     27  C   UNL A   1      36.264  30.860  28.636  1.00  0.00     0.060 A 
ATOM     28  C   UNL A   1      37.190  31.732  29.217  1.00  0.00     0.016 A 
ATOM     29  C   UNL A   1      36.469  29.475  28.575  1.00  0.00     0.016 A 
ATOM     30  C   UNL A   1      38.436  31.233  29.525  1.00  0.00     0.010 A 
ATOM     31  C   UNL A   1      37.710  28.986  28.867  1.00  0.00     0.010 A 
ATOM     32  C   UNL A   1      38.701  29.890  29.235  1.00  0.00    -0.014 A 
BRANCH  32  33
ATOM     33  C   UNL A   1      40.043  29.388  29.387  1.00  0.00     0.031 A 
ATOM     34  C   UNL A   1      40.398  29.157  30.800  1.00  0.00     0.074 A 
ATOM     35  C   UNL A   1      40.791  29.029  28.326  1.00  0.00     0.049 A 
ATOM     36  N   UNL A   1      41.208  29.852  31.524  1.00  0.00    -0.248 NA
ATOM     37  C   UNL A   1      39.593  28.185  31.560  1.00  0.00     0.031 C 
ATOM     38  C   UNL A   1      40.414  28.967  26.910  1.00  0.00     0.029 A 
ATOM     39  N   UNL A   1      42.055  28.540  28.319  1.00  0.00    -0.354 N 
ATOM     40  C   UNL A   1      41.208  29.233  32.767  1.00  0.00     0.074 A 
ATOM     41  C   UNL A   1      40.043  28.387  32.799  1.00  0.00     0.031 C 
ATOM     42  C   UNL A   1      41.343  28.254  26.230  1.00  0.00     0.029 A 
ATOM     43  C   UNL A   1      42.438  27.933  27.129  1.00  0.00     0.049 A 
ATOM     44  H   UNL A   1      42.656  28.610  29.096  1.00  0.00     0.167 HD
ATOM     45  C   UNL A   1      42.317  29.246  33.553  1.00  0.00     0.037 A 
ATOM     46  C   UNL A   1      43.545  27.163  26.957  1.00  0.00     0.037 A 
ATOM     47  C   UNL A   1      43.257  30.246  33.111  1.00  0.00     0.049 A 
ATOM     48  C   UNL A   1      44.485  27.517  28.060  1.00  0.00     0.074 A 
ATOM     49  C   UNL A   1      43.208  31.619  32.961  1.00  0.00     0.029 A 
ATOM     50  N   UNL A   1      44.324  29.823  32.351  1.00  0.00    -0.354 N 
ATOM     51  N   UNL A   1      45.041  28.695  28.178  1.00  0.00    -0.248 NA
ATOM     52  C   UNL A   1      44.393  26.750  29.295  1.00  0.00     0.031 C 
ATOM     53  C   UNL A   1      43.928  31.887  31.760  1.00  0.00     0.029 A 
ATOM     54  C   UNL A   1      44.437  30.679  31.283  1.00  0.00     0.049 A 
ATOM     55  H   UNL A   1      44.900  29.048  32.540  1.00  0.00     0.167 HD
ATOM     56  C   UNL A   1      44.981  28.989  29.534  1.00  0.00     0.074 A 
ATOM     57  C   UNL A   1      44.628  27.725  30.181  1.00  0.00     0.031 C 
ATOM     58  C   UNL A   1      44.927  30.280  29.981  1.00  0.00     0.037 A 
BRANCH  45  59
ATOM     59  C   UNL A   1      42.714  28.104  34.451  1.00  0.00     0.058 A 
ATOM     60  C   UNL A   1      42.901  28.350  35.824  1.00  0.00     0.135 A 
ATOM     61  C   UNL A   1      43.186  26.857  33.980  1.00  0.00     0.135 A 
ATOM     62  F   UNL A   1      42.499  29.508  36.371  1.00  0.00    -0.206 F 
ATOM     63  C   UNL A   1      43.574  27.454  36.653  1.00  0.00     0.059 A 
ATOM     64  C   UNL A   1      43.805  25.925  34.802  1.00  0.00     0.059 A 
ATOM     65  F   UNL A   1      43.165  26.521  32.685  1.00  0.00    -0.206 F 
ATOM     66  C   UNL A   1      44.034  26.250  36.126  1.00  0.00     0.060 A 
BRANCH  66  67
ATOM     67  S   UNL A   1      44.995  25.141  37.167  1.00  0.00     0.124 S 
ATOM     68  O   UNL A   1      44.985  23.918  36.373  1.00  0.00    -0.237 OA
ATOM     69  O   UNL A   1      46.271  25.840  37.254  1.00  0.00    -0.237 OA
ATOM     70  O   UNL A   1      44.226  25.096  38.408  1.00  0.00    -0.744 OA
ENDBRANCH  66  67
ENDBRANCH  45  59
BRANCH  46  71
ATOM     71  C   UNL A   1      43.647  25.887  26.191  1.00  0.00     0.058 A 
ATOM     72  C   UNL A   1      44.733  25.629  25.333  1.00  0.00     0.135 A 
ATOM     73  C   UNL A   1      42.831  24.779  26.500  1.00  0.00     0.135 A 
ATOM     74  F   UNL A   1      45.579  26.619  25.003  1.00  0.00    -0.206 F 
ATOM     75  C   UNL A   1      45.017  24.346  24.847  1.00  0.00     0.059 A 
ATOM     76  C   UNL A   1      43.091  23.494  26.024  1.00  0.00     0.059 A 
ATOM     77  F   UNL A   1      41.803  24.894  27.354  1.00  0.00    -0.206 F 
ATOM     78  C   UNL A   1      44.199  23.278  25.216  1.00  0.00     0.060 A 
BRANCH  78  79
ATOM     79  S   UNL A   1      44.651  21.593  24.734  1.00  0.00     0.124 S 
ATOM     80  O   UNL A   1      45.968  21.445  25.344  1.00  0.00    -0.237 OA
ATOM     81  O   UNL A   1      43.579  20.802  25.329  1.00  0.00    -0.237 OA
ATOM     82  O   UNL A   1      44.645  21.645  23.273  1.00  0.00    -0.744 OA
ENDBRANCH  78  79
ENDBRANCH  46  71
BRANCH  58  83
ATOM     83  C   UNL A   1      45.195  31.388  28.991  1.00  0.00     0.058 A 
ATOM     84  C   UNL A   1      46.475  31.772  28.547  1.00  0.00     0.135 A 
ATOM     85  C   UNL A   1      44.097  31.978  28.349  1.00  0.00     0.135 A 
ATOM     86  F   UNL A   1      47.577  31.180  29.029  1.00  0.00    -0.206 F 
ATOM     87  C   UNL A   1      46.653  32.728  27.544  1.00  0.00     0.059 A 
ATOM     88  C   UNL A   1      44.249  32.911  27.327  1.00  0.00     0.059 A 
ATOM     89  F   UNL A   1      42.849  31.608  28.679  1.00  0.00    -0.206 F 
ATOM     90  C   UNL A   1      45.531  33.295  26.939  1.00  0.00     0.060 A 
BRANCH  90  91
ATOM     91  S   UNL A   1      45.755  34.487  25.601  1.00  0.00     0.124 S 
ATOM     92  O   UNL A   1      47.188  34.393  25.342  1.00  0.00    -0.237 OA
ATOM     93  O   UNL A   1      44.886  33.956  24.553  1.00  0.00    -0.237 OA
ATOM     94  O   UNL A   1      45.308  35.747  26.187  1.00  0.00    -0.744 OA
ENDBRANCH  90  91
ENDBRANCH  58  83
ENDBRANCH  32  33
ENDBRANCH  25  27
ENDBRANCH  24  25
ENDBRANCH  23  24
ENDBRANCH   1  23
TORSDOF 19
ENDMDL
