MODEL 1
REMARK VINA RESULT:     -10.7      0.000      0.000
REMARK SMILES CC(=O)O[C@H]1C[C@@H](C(=O)OCCOC(=O)c2ccc(-c3c4nc(c(-c5c(F)cc(S(=O)(=O)[O-])cc5F)c5ccc([nH]5)c(-c5c(F)cc(S(=O)(=O)[O-])cc5F)c5nc(c(-c6c(F)cc(S(=O)(=O)[O-])cc6F)c6ccc3[nH]6)C=C5)C=C4)cc2)N(S(=O)(=O)c2ccc(F)cc2)C1
REMARK SMILES IDX 12 1 11 2 10 3 8 4 9 5 7 6 5 7 6 8 93 9 82 10 4 11 2 12 1 13
REMARK SMILES IDX 3 14 83 15 84 16 85 17 86 18 87 19 92 20 88 21 91 22 89 23
REMARK SMILES IDX 90 24 13 25 14 26 15 27 16 28 17 29 81 30 18 31 80 32 19 33
REMARK SMILES IDX 20 34 21 35 74 36 22 37 79 38 73 39 75 40 23 41 78 42 72 43
REMARK SMILES IDX 71 44 24 46 58 47 37 48 57 49 38 50 41 51 56 52 76 53 39 54
REMARK SMILES IDX 40 55 55 57 77 58 42 59 25 60 26 61 35 62 27 63 28 64 34 65
REMARK SMILES IDX 36 66 29 67 30 68 31 69 32 70 33 71 59 72 60 73 69 74 61 75
REMARK SMILES IDX 62 76 68 77 70 78 63 79 64 80 65 81 66 82 67 83 43 84 44 85
REMARK SMILES IDX 53 86 45 87 46 88 52 89 54 90 47 91 48 92 49 93 50 94 51 95
REMARK H PARENT 75 45 41 56
REMARK Flexibility Score: inf
ROOT
ATOM      1  C   UNL A   1      36.608  22.758  25.522  1.00  0.00     0.275 C 
ENDROOT
BRANCH   1   2
ATOM      2  C   UNL A   1      35.501  23.592  26.174  1.00  0.00     0.274 C 
BRANCH   2   3
ATOM      3  O   UNL A   1      34.282  23.329  25.452  1.00  0.00    -0.461 OA
BRANCH   3   4
ATOM      4  C   UNL A   1      33.313  24.277  25.511  1.00  0.00     0.324 C 
ATOM      5  O   UNL A   1      32.185  24.078  25.938  1.00  0.00    -0.250 OA
BRANCH   4   6
ATOM      6  C   UNL A   1      33.889  25.625  25.142  1.00  0.00     0.187 C 
ATOM      7  C   UNL A   1      33.812  27.999  25.373  1.00  0.00     0.194 C 
ATOM      8  C   UNL A   1      33.189  26.733  25.925  1.00  0.00     0.079 C 
ATOM      9  C   UNL A   1      34.046  27.661  23.891  1.00  0.00     0.148 C 
ATOM     10  N   UNL A   1      33.980  26.161  23.750  1.00  0.00    -0.180 NA
BRANCH   7  11
ATOM     11  O   UNL A   1      32.885  29.098  25.466  1.00  0.00    -0.461 OA
BRANCH  11  12
ATOM     12  C   UNL A   1      32.726  29.867  26.568  1.00  0.00     0.302 C 
ATOM     13  C   UNL A   1      33.964  30.389  27.233  1.00  0.00     0.139 C 
ATOM     14  O   UNL A   1      31.603  30.165  26.965  1.00  0.00    -0.253 OA
ENDBRANCH  11  12
ENDBRANCH   7  11
BRANCH  10  15
ATOM     15  S   UNL A   1      32.860  25.638  22.583  1.00  0.00     0.243 S 
ATOM     16  O   UNL A   1      33.341  26.080  21.294  1.00  0.00    -0.207 OA
ATOM     17  O   UNL A   1      32.586  24.238  22.836  1.00  0.00    -0.207 OA
BRANCH  15  18
ATOM     18  C   UNL A   1      31.339  26.493  22.939  1.00  0.00     0.082 A 
ATOM     19  C   UNL A   1      30.334  25.836  23.662  1.00  0.00     0.025 A 
ATOM     20  C   UNL A   1      31.091  27.748  22.370  1.00  0.00     0.025 A 
ATOM     21  C   UNL A   1      29.102  26.466  23.863  1.00  0.00     0.040 A 
ATOM     22  C   UNL A   1      29.871  28.386  22.602  1.00  0.00     0.040 A 
ATOM     23  C   UNL A   1      28.890  27.741  23.346  1.00  0.00     0.123 A 
ATOM     24  F   UNL A   1      27.716  28.352  23.556  1.00  0.00    -0.207 F 
ENDBRANCH  15  18
ENDBRANCH  10  15
ENDBRANCH   4   6
ENDBRANCH   3   4
ENDBRANCH   2   3
ENDBRANCH   1   2
BRANCH   1  25
ATOM     25  O   UNL A   1      37.781  23.574  25.364  1.00  0.00    -0.458 OA
BRANCH  25  26
ATOM     26  C   UNL A   1      38.889  23.152  26.028  1.00  0.00     0.338 C 
ATOM     27  O   UNL A   1      39.547  22.156  25.818  1.00  0.00    -0.246 OA
BRANCH  26  28
ATOM     28  C   UNL A   1      39.348  24.296  26.842  1.00  0.00     0.060 A 
ATOM     29  C   UNL A   1      40.146  25.265  26.220  1.00  0.00     0.016 A 
ATOM     30  C   UNL A   1      38.906  24.474  28.155  1.00  0.00     0.016 A 
ATOM     31  C   UNL A   1      40.479  26.434  26.895  1.00  0.00     0.010 A 
ATOM     32  C   UNL A   1      39.244  25.640  28.832  1.00  0.00     0.010 A 
ATOM     33  C   UNL A   1      40.026  26.623  28.204  1.00  0.00    -0.014 A 
BRANCH  33  34
ATOM     34  C   UNL A   1      40.434  27.811  28.975  1.00  0.00     0.031 A 
ATOM     35  C   UNL A   1      41.711  27.745  29.754  1.00  0.00     0.074 A 
ATOM     36  C   UNL A   1      39.639  28.895  29.012  1.00  0.00     0.049 A 
ATOM     37  N   UNL A   1      42.178  28.573  30.645  1.00  0.00    -0.248 NA
ATOM     38  C   UNL A   1      42.570  26.575  29.501  1.00  0.00     0.031 C 
ATOM     39  C   UNL A   1      38.401  29.061  28.251  1.00  0.00     0.029 A 
ATOM     40  N   UNL A   1      39.742  30.049  29.744  1.00  0.00    -0.354 N 
ATOM     41  C   UNL A   1      43.374  28.017  31.079  1.00  0.00     0.074 A 
ATOM     42  C   UNL A   1      43.554  26.773  30.365  1.00  0.00     0.031 C 
ATOM     43  C   UNL A   1      37.843  30.240  28.576  1.00  0.00     0.029 A 
ATOM     44  C   UNL A   1      38.658  30.882  29.604  1.00  0.00     0.049 A 
ATOM     45  H   UNL A   1      40.516  30.260  30.313  1.00  0.00     0.167 HD
ATOM     46  C   UNL A   1      44.239  28.509  31.997  1.00  0.00     0.037 A 
ATOM     47  C   UNL A   1      38.342  32.010  30.270  1.00  0.00     0.037 A 
ATOM     48  C   UNL A   1      44.029  29.749  32.693  1.00  0.00     0.049 A 
ATOM     49  C   UNL A   1      39.279  32.496  31.344  1.00  0.00     0.074 A 
ATOM     50  C   UNL A   1      44.845  30.360  33.627  1.00  0.00     0.029 A 
ATOM     51  N   UNL A   1      42.913  30.561  32.539  1.00  0.00    -0.354 N 
ATOM     52  N   UNL A   1      40.419  31.977  31.739  1.00  0.00    -0.248 NA
ATOM     53  C   UNL A   1      38.886  33.708  32.075  1.00  0.00     0.031 C 
ATOM     54  C   UNL A   1      44.198  31.519  34.072  1.00  0.00     0.029 A 
ATOM     55  C   UNL A   1      43.002  31.653  33.382  1.00  0.00     0.049 A 
ATOM     56  H   UNL A   1      42.169  30.385  31.919  1.00  0.00     0.167 HD
ATOM     57  C   UNL A   1      40.885  32.804  32.755  1.00  0.00     0.074 A 
ATOM     58  C   UNL A   1      39.911  33.867  32.902  1.00  0.00     0.031 C 
ATOM     59  C   UNL A   1      42.011  32.695  33.502  1.00  0.00     0.037 A 
BRANCH  46  60
ATOM     60  C   UNL A   1      45.455  27.689  32.313  1.00  0.00     0.058 A 
ATOM     61  C   UNL A   1      46.665  27.860  31.620  1.00  0.00     0.135 A 
ATOM     62  C   UNL A   1      45.415  26.722  33.330  1.00  0.00     0.135 A 
ATOM     63  F   UNL A   1      46.750  28.754  30.621  1.00  0.00    -0.206 F 
ATOM     64  C   UNL A   1      47.783  27.084  31.907  1.00  0.00     0.059 A 
ATOM     65  C   UNL A   1      46.528  25.952  33.651  1.00  0.00     0.059 A 
ATOM     66  F   UNL A   1      44.281  26.509  34.015  1.00  0.00    -0.206 F 
ATOM     67  C   UNL A   1      47.704  26.132  32.924  1.00  0.00     0.060 A 
BRANCH  67  68
ATOM     68  S   UNL A   1      49.164  25.130  33.280  1.00  0.00     0.124 S 
ATOM     69  O   UNL A   1      49.733  24.962  31.946  1.00  0.00    -0.237 OA
ATOM     70  O   UNL A   1      49.918  25.990  34.186  1.00  0.00    -0.237 OA
ATOM     71  O   UNL A   1      48.610  23.923  33.881  1.00  0.00    -0.744 OA
ENDBRANCH  67  68
ENDBRANCH  46  60
BRANCH  47  72
ATOM     72  C   UNL A   1      37.071  32.724  29.972  1.00  0.00     0.058 A 
ATOM     73  C   UNL A   1      35.891  32.419  30.665  1.00  0.00     0.135 A 
ATOM     74  C   UNL A   1      37.013  33.735  29.000  1.00  0.00     0.135 A 
ATOM     75  F   UNL A   1      35.892  31.452  31.596  1.00  0.00    -0.206 F 
ATOM     76  C   UNL A   1      34.698  33.083  30.401  1.00  0.00     0.059 A 
ATOM     77  C   UNL A   1      35.837  34.432  28.735  1.00  0.00     0.059 A 
ATOM     78  F   UNL A   1      38.117  34.073  28.314  1.00  0.00    -0.206 F 
ATOM     79  C   UNL A   1      34.681  34.092  29.436  1.00  0.00     0.060 A 
BRANCH  79  80
ATOM     80  S   UNL A   1      33.139  34.983  29.137  1.00  0.00     0.124 S 
ATOM     81  O   UNL A   1      32.522  34.953  30.459  1.00  0.00    -0.237 OA
ATOM     82  O   UNL A   1      33.619  36.284  28.685  1.00  0.00    -0.237 OA
ATOM     83  O   UNL A   1      32.479  34.176  28.114  1.00  0.00    -0.744 OA
ENDBRANCH  79  80
ENDBRANCH  47  72
BRANCH  59  84
ATOM     84  C   UNL A   1      42.257  33.753  34.539  1.00  0.00     0.058 A 
ATOM     85  C   UNL A   1      41.822  33.592  35.863  1.00  0.00     0.135 A 
ATOM     86  C   UNL A   1      43.014  34.893  34.226  1.00  0.00     0.135 A 
ATOM     87  F   UNL A   1      41.087  32.522  36.208  1.00  0.00    -0.206 F 
ATOM     88  C   UNL A   1      42.129  34.528  36.843  1.00  0.00     0.059 A 
ATOM     89  C   UNL A   1      43.354  35.830  35.197  1.00  0.00     0.059 A 
ATOM     90  F   UNL A   1      43.459  35.087  32.975  1.00  0.00    -0.206 F 
ATOM     91  C   UNL A   1      42.902  35.639  36.502  1.00  0.00     0.060 A 
BRANCH  91  92
ATOM     92  S   UNL A   1      43.353  36.809  37.802  1.00  0.00     0.124 S 
ATOM     93  O   UNL A   1      42.086  36.966  38.507  1.00  0.00    -0.237 OA
ATOM     94  O   UNL A   1      44.395  36.084  38.523  1.00  0.00    -0.237 OA
ATOM     95  O   UNL A   1      43.811  37.980  37.061  1.00  0.00    -0.744 OA
ENDBRANCH  91  92
ENDBRANCH  59  84
ENDBRANCH  33  34
ENDBRANCH  26  28
ENDBRANCH  25  26
ENDBRANCH   1  25
TORSDOF 18
ENDMDL
MODEL 2
REMARK VINA RESULT:     -10.7      3.556      9.454
REMARK SMILES CC(=O)O[C@H]1C[C@@H](C(=O)OCCOC(=O)c2ccc(-c3c4nc(c(-c5c(F)cc(S(=O)(=O)[O-])cc5F)c5ccc([nH]5)c(-c5c(F)cc(S(=O)(=O)[O-])cc5F)c5nc(c(-c6c(F)cc(S(=O)(=O)[O-])cc6F)c6ccc3[nH]6)C=C5)C=C4)cc2)N(S(=O)(=O)c2ccc(F)cc2)C1
REMARK SMILES IDX 12 1 11 2 10 3 8 4 9 5 7 6 5 7 6 8 93 9 82 10 4 11 2 12 1 13
REMARK SMILES IDX 3 14 83 15 84 16 85 17 86 18 87 19 92 20 88 21 91 22 89 23
REMARK SMILES IDX 90 24 13 25 14 26 15 27 16 28 17 29 81 30 18 31 80 32 19 33
REMARK SMILES IDX 20 34 21 35 74 36 22 37 79 38 73 39 75 40 23 41 78 42 72 43
REMARK SMILES IDX 71 44 24 46 58 47 37 48 57 49 38 50 41 51 56 52 76 53 39 54
REMARK SMILES IDX 40 55 55 57 77 58 42 59 25 60 26 61 35 62 27 63 28 64 34 65
REMARK SMILES IDX 36 66 29 67 30 68 31 69 32 70 33 71 59 72 60 73 69 74 61 75
REMARK SMILES IDX 62 76 68 77 70 78 63 79 64 80 65 81 66 82 67 83 43 84 44 85
REMARK SMILES IDX 53 86 45 87 46 88 52 89 54 90 47 91 48 92 49 93 50 94 51 95
REMARK H PARENT 75 45 41 56
REMARK Flexibility Score: inf
ROOT
ATOM      1  C   UNL A   1      33.200  29.434  26.248  1.00  0.00     0.275 C 
ENDROOT
BRANCH   1   2
ATOM      2  C   UNL A   1      33.695  28.707  24.994  1.00  0.00     0.274 C 
BRANCH   2   3
ATOM      3  O   UNL A   1      32.608  28.692  24.048  1.00  0.00    -0.461 OA
BRANCH   3   4
ATOM      4  C   UNL A   1      32.686  27.795  23.034  1.00  0.00     0.324 C 
ATOM      5  O   UNL A   1      33.611  27.740  22.236  1.00  0.00    -0.250 OA
BRANCH   4   6
ATOM      6  C   UNL A   1      31.568  26.785  23.153  1.00  0.00     0.187 C 
ATOM      7  C   UNL A   1      29.869  25.782  24.496  1.00  0.00     0.194 C 
ATOM      8  C   UNL A   1      30.880  26.910  24.510  1.00  0.00     0.079 C 
ATOM      9  C   UNL A   1      30.588  24.672  23.711  1.00  0.00     0.148 C 
ATOM     10  N   UNL A   1      31.726  25.312  22.956  1.00  0.00    -0.180 NA
BRANCH   7  11
ATOM     11  O   UNL A   1      29.610  25.322  25.836  1.00  0.00    -0.461 OA
BRANCH  11  12
ATOM     12  C   UNL A   1      30.432  24.500  26.531  1.00  0.00     0.302 C 
ATOM     13  C   UNL A   1      29.979  23.087  26.745  1.00  0.00     0.139 C 
ATOM     14  O   UNL A   1      31.529  24.894  26.916  1.00  0.00    -0.253 OA
ENDBRANCH  11  12
ENDBRANCH   7  11
BRANCH  10  15
ATOM     15  S   UNL A   1      33.234  24.589  23.265  1.00  0.00     0.243 S 
ATOM     16  O   UNL A   1      33.982  24.604  22.028  1.00  0.00    -0.207 OA
ATOM     17  O   UNL A   1      33.771  25.194  24.467  1.00  0.00    -0.207 OA
BRANCH  15  18
ATOM     18  C   UNL A   1      32.893  22.895  23.696  1.00  0.00     0.082 A 
ATOM     19  C   UNL A   1      33.244  22.426  24.969  1.00  0.00     0.025 A 
ATOM     20  C   UNL A   1      32.423  22.007  22.722  1.00  0.00     0.025 A 
ATOM     21  C   UNL A   1      33.066  21.075  25.281  1.00  0.00     0.040 A 
ATOM     22  C   UNL A   1      32.216  20.665  23.051  1.00  0.00     0.040 A 
ATOM     23  C   UNL A   1      32.538  20.212  24.325  1.00  0.00     0.123 A 
ATOM     24  F   UNL A   1      32.349  18.922  24.631  1.00  0.00    -0.207 F 
ENDBRANCH  15  18
ENDBRANCH  10  15
ENDBRANCH   4   6
ENDBRANCH   3   4
ENDBRANCH   2   3
ENDBRANCH   1   2
BRANCH   1  25
ATOM     25  O   UNL A   1      34.124  29.197  27.325  1.00  0.00    -0.458 OA
BRANCH  25  26
ATOM     26  C   UNL A   1      34.629  30.306  27.924  1.00  0.00     0.338 C 
ATOM     27  O   UNL A   1      34.018  31.246  28.386  1.00  0.00    -0.246 OA
BRANCH  26  28
ATOM     28  C   UNL A   1      36.048  30.013  28.215  1.00  0.00     0.060 A 
ATOM     29  C   UNL A   1      36.371  29.537  29.492  1.00  0.00     0.016 A 
ATOM     30  C   UNL A   1      37.022  30.092  27.217  1.00  0.00     0.016 A 
ATOM     31  C   UNL A   1      37.662  29.103  29.769  1.00  0.00     0.010 A 
ATOM     32  C   UNL A   1      38.315  29.664  27.496  1.00  0.00     0.010 A 
ATOM     33  C   UNL A   1      38.637  29.166  28.769  1.00  0.00    -0.014 A 
BRANCH  33  34
ATOM     34  C   UNL A   1      40.034  28.796  29.059  1.00  0.00     0.031 A 
ATOM     35  C   UNL A   1      40.956  29.859  29.569  1.00  0.00     0.074 A 
ATOM     36  C   UNL A   1      40.465  27.547  28.809  1.00  0.00     0.049 A 
ATOM     37  N   UNL A   1      42.251  29.829  29.713  1.00  0.00    -0.248 NA
ATOM     38  C   UNL A   1      40.331  31.134  29.957  1.00  0.00     0.031 C 
ATOM     39  C   UNL A   1      39.625  26.438  28.353  1.00  0.00     0.029 A 
ATOM     40  N   UNL A   1      41.723  27.009  28.878  1.00  0.00    -0.354 N 
ATOM     41  C   UNL A   1      42.603  31.086  30.185  1.00  0.00     0.074 A 
ATOM     42  C   UNL A   1      41.387  31.861  30.290  1.00  0.00     0.031 C 
ATOM     43  C   UNL A   1      40.398  25.357  28.156  1.00  0.00     0.029 A 
ATOM     44  C   UNL A   1      41.789  25.714  28.422  1.00  0.00     0.049 A 
ATOM     45  H   UNL A   1      42.503  27.502  29.220  1.00  0.00     0.167 HD
ATOM     46  C   UNL A   1      43.837  31.544  30.499  1.00  0.00     0.037 A 
ATOM     47  C   UNL A   1      42.861  24.929  28.201  1.00  0.00     0.037 A 
ATOM     48  C   UNL A   1      45.028  30.749  30.380  1.00  0.00     0.049 A 
ATOM     49  C   UNL A   1      44.231  25.487  28.481  1.00  0.00     0.074 A 
ATOM     50  C   UNL A   1      46.330  31.097  30.689  1.00  0.00     0.029 A 
ATOM     51  N   UNL A   1      45.061  29.446  29.901  1.00  0.00    -0.354 N 
ATOM     52  N   UNL A   1      44.559  26.671  28.946  1.00  0.00    -0.248 NA
ATOM     53  C   UNL A   1      45.379  24.616  28.195  1.00  0.00     0.031 C 
ATOM     54  C   UNL A   1      47.156  30.019  30.351  1.00  0.00     0.029 A 
ATOM     55  C   UNL A   1      46.364  28.985  29.876  1.00  0.00     0.049 A 
ATOM     56  H   UNL A   1      44.272  28.927  29.622  1.00  0.00     0.167 HD
ATOM     57  C   UNL A   1      45.947  26.685  29.018  1.00  0.00     0.074 A 
ATOM     58  C   UNL A   1      46.397  25.383  28.566  1.00  0.00     0.031 C 
ATOM     59  C   UNL A   1      46.776  27.680  29.418  1.00  0.00     0.037 A 
BRANCH  46  60
ATOM     60  C   UNL A   1      43.950  32.968  30.962  1.00  0.00     0.058 A 
ATOM     61  C   UNL A   1      44.110  34.030  30.058  1.00  0.00     0.135 A 
ATOM     62  C   UNL A   1      43.891  33.277  32.331  1.00  0.00     0.135 A 
ATOM     63  F   UNL A   1      44.199  33.789  28.740  1.00  0.00    -0.206 F 
ATOM     64  C   UNL A   1      44.232  35.345  30.496  1.00  0.00     0.059 A 
ATOM     65  C   UNL A   1      43.986  34.586  32.790  1.00  0.00     0.059 A 
ATOM     66  F   UNL A   1      43.751  32.297  33.238  1.00  0.00    -0.206 F 
ATOM     67  C   UNL A   1      44.169  35.613  31.864  1.00  0.00     0.060 A 
BRANCH  67  68
ATOM     68  S   UNL A   1      44.335  37.324  32.415  1.00  0.00     0.124 S 
ATOM     69  O   UNL A   1      43.316  37.393  33.458  1.00  0.00    -0.237 OA
ATOM     70  O   UNL A   1      45.718  37.370  32.878  1.00  0.00    -0.237 OA
ATOM     71  O   UNL A   1      44.053  38.098  31.212  1.00  0.00    -0.744 OA
ENDBRANCH  67  68
ENDBRANCH  46  60
BRANCH  47  72
ATOM     72  C   UNL A   1      42.683  23.558  27.651  1.00  0.00     0.058 A 
ATOM     73  C   UNL A   1      42.786  23.313  26.274  1.00  0.00     0.135 A 
ATOM     74  C   UNL A   1      42.422  22.463  28.490  1.00  0.00     0.135 A 
ATOM     75  F   UNL A   1      43.023  24.327  25.429  1.00  0.00    -0.206 F 
ATOM     76  C   UNL A   1      42.629  22.035  25.747  1.00  0.00     0.059 A 
ATOM     77  C   UNL A   1      42.286  21.171  27.990  1.00  0.00     0.059 A 
ATOM     78  F   UNL A   1      42.324  22.640  29.817  1.00  0.00    -0.206 F 
ATOM     79  C   UNL A   1      42.382  20.968  26.614  1.00  0.00     0.060 A 
BRANCH  79  80
ATOM     80  S   UNL A   1      42.230  19.306  25.924  1.00  0.00     0.124 S 
ATOM     81  O   UNL A   1      40.793  19.217  25.689  1.00  0.00    -0.237 OA
ATOM     82  O   UNL A   1      43.068  19.392  24.732  1.00  0.00    -0.237 OA
ATOM     83  O   UNL A   1      42.751  18.452  26.988  1.00  0.00    -0.744 OA
ENDBRANCH  79  80
ENDBRANCH  47  72
BRANCH  59  84
ATOM     84  C   UNL A   1      48.252  27.400  29.392  1.00  0.00     0.058 A 
ATOM     85  C   UNL A   1      49.046  27.778  28.299  1.00  0.00     0.135 A 
ATOM     86  C   UNL A   1      48.889  26.836  30.508  1.00  0.00     0.135 A 
ATOM     87  F   UNL A   1      48.481  28.314  27.205  1.00  0.00    -0.206 F 
ATOM     88  C   UNL A   1      50.425  27.603  28.314  1.00  0.00     0.059 A 
ATOM     89  C   UNL A   1      50.269  26.675  30.554  1.00  0.00     0.059 A 
ATOM     90  F   UNL A   1      48.171  26.466  31.581  1.00  0.00    -0.206 F 
ATOM     91  C   UNL A   1      51.028  27.059  29.449  1.00  0.00     0.060 A 
BRANCH  91  92
ATOM     92  S   UNL A   1      52.827  26.905  29.481  1.00  0.00     0.124 S 
ATOM     93  O   UNL A   1      53.237  28.295  29.649  1.00  0.00    -0.237 OA
ATOM     94  O   UNL A   1      53.043  26.035  30.633  1.00  0.00    -0.237 OA
ATOM     95  O   UNL A   1      53.140  26.309  28.186  1.00  0.00    -0.744 OA
ENDBRANCH  91  92
ENDBRANCH  59  84
ENDBRANCH  33  34
ENDBRANCH  26  28
ENDBRANCH  25  26
ENDBRANCH   1  25
TORSDOF 18
ENDMDL
MODEL 3
REMARK VINA RESULT:     -10.7      5.145     10.178
REMARK SMILES CC(=O)O[C@H]1C[C@@H](C(=O)OCCOC(=O)c2ccc(-c3c4nc(c(-c5c(F)cc(S(=O)(=O)[O-])cc5F)c5ccc([nH]5)c(-c5c(F)cc(S(=O)(=O)[O-])cc5F)c5nc(c(-c6c(F)cc(S(=O)(=O)[O-])cc6F)c6ccc3[nH]6)C=C5)C=C4)cc2)N(S(=O)(=O)c2ccc(F)cc2)C1
REMARK SMILES IDX 12 1 11 2 10 3 8 4 9 5 7 6 5 7 6 8 93 9 82 10 4 11 2 12 1 13
REMARK SMILES IDX 3 14 83 15 84 16 85 17 86 18 87 19 92 20 88 21 91 22 89 23
REMARK SMILES IDX 90 24 13 25 14 26 15 27 16 28 17 29 81 30 18 31 80 32 19 33
REMARK SMILES IDX 20 34 21 35 74 36 22 37 79 38 73 39 75 40 23 41 78 42 72 43
REMARK SMILES IDX 71 44 24 46 58 47 37 48 57 49 38 50 41 51 56 52 76 53 39 54
REMARK SMILES IDX 40 55 55 57 77 58 42 59 25 60 26 61 35 62 27 63 28 64 34 65
REMARK SMILES IDX 36 66 29 67 30 68 31 69 32 70 33 71 59 72 60 73 69 74 61 75
REMARK SMILES IDX 62 76 68 77 70 78 63 79 64 80 65 81 66 82 67 83 43 84 44 85
REMARK SMILES IDX 53 86 45 87 46 88 52 89 54 90 47 91 48 92 49 93 50 94 51 95
REMARK H PARENT 75 45 41 56
REMARK Flexibility Score: inf
ROOT
ATOM      1  C   UNL A   1      39.291  20.310  25.646  1.00  0.00     0.275 C 
ENDROOT
BRANCH   1   2
ATOM      2  C   UNL A   1      38.746  21.737  25.759  1.00  0.00     0.274 C 
BRANCH   2   3
ATOM      3  O   UNL A   1      37.518  21.789  25.007  1.00  0.00    -0.461 OA
BRANCH   3   4
ATOM      4  C   UNL A   1      36.564  22.650  25.442  1.00  0.00     0.324 C 
ATOM      5  O   UNL A   1      36.760  23.837  25.661  1.00  0.00    -0.250 OA
BRANCH   4   6
ATOM      6  C   UNL A   1      35.215  21.969  25.440  1.00  0.00     0.187 C 
ATOM      7  C   UNL A   1      33.930  20.008  24.995  1.00  0.00     0.194 C 
ATOM      8  C   UNL A   1      35.361  20.503  25.038  1.00  0.00     0.079 C 
ATOM      9  C   UNL A   1      33.147  21.229  24.486  1.00  0.00     0.148 C 
ATOM     10  N   UNL A   1      34.022  22.442  24.675  1.00  0.00    -0.180 NA
BRANCH   7  11
ATOM     11  O   UNL A   1      33.798  18.932  24.047  1.00  0.00    -0.461 OA
BRANCH  11  12
ATOM     12  C   UNL A   1      33.676  17.627  24.388  1.00  0.00     0.302 C 
ATOM     13  C   UNL A   1      34.029  16.604  23.350  1.00  0.00     0.139 C 
ATOM     14  O   UNL A   1      33.343  17.307  25.525  1.00  0.00    -0.253 OA
ENDBRANCH  11  12
ENDBRANCH   7  11
BRANCH  10  15
ATOM     15  S   UNL A   1      34.252  23.340  23.249  1.00  0.00     0.243 S 
ATOM     16  O   UNL A   1      35.622  23.147  22.833  1.00  0.00    -0.207 OA
ATOM     17  O   UNL A   1      33.153  23.032  22.357  1.00  0.00    -0.207 OA
BRANCH  15  18
ATOM     18  C   UNL A   1      34.035  25.049  23.699  1.00  0.00     0.082 A 
ATOM     19  C   UNL A   1      33.961  25.400  25.053  1.00  0.00     0.025 A 
ATOM     20  C   UNL A   1      33.788  26.007  22.708  1.00  0.00     0.025 A 
ATOM     21  C   UNL A   1      33.697  26.726  25.411  1.00  0.00     0.040 A 
ATOM     22  C   UNL A   1      33.557  27.336  23.072  1.00  0.00     0.040 A 
ATOM     23  C   UNL A   1      33.515  27.683  24.417  1.00  0.00     0.123 A 
ATOM     24  F   UNL A   1      33.281  28.956  24.761  1.00  0.00    -0.207 F 
ENDBRANCH  15  18
ENDBRANCH  10  15
ENDBRANCH   4   6
ENDBRANCH   3   4
ENDBRANCH   2   3
ENDBRANCH   1   2
BRANCH   1  25
ATOM     25  O   UNL A   1      40.322  20.121  26.630  1.00  0.00    -0.458 OA
BRANCH  25  26
ATOM     26  C   UNL A   1      41.587  20.005  26.146  1.00  0.00     0.338 C 
ATOM     27  O   UNL A   1      42.003  19.202  25.339  1.00  0.00    -0.246 OA
BRANCH  26  28
ATOM     28  C   UNL A   1      42.294  21.245  26.527  1.00  0.00     0.060 A 
ATOM     29  C   UNL A   1      42.574  22.176  25.518  1.00  0.00     0.016 A 
ATOM     30  C   UNL A   1      42.570  21.539  27.863  1.00  0.00     0.016 A 
ATOM     31  C   UNL A   1      43.099  23.422  25.844  1.00  0.00     0.010 A 
ATOM     32  C   UNL A   1      43.102  22.782  28.188  1.00  0.00     0.010 A 
ATOM     33  C   UNL A   1      43.363  23.726  27.182  1.00  0.00    -0.014 A 
BRANCH  33  34
ATOM     34  C   UNL A   1      44.001  25.003  27.549  1.00  0.00     0.031 A 
ATOM     35  C   UNL A   1      43.128  26.112  28.048  1.00  0.00     0.074 A 
ATOM     36  C   UNL A   1      45.325  25.168  27.379  1.00  0.00     0.049 A 
ATOM     37  N   UNL A   1      43.420  27.366  28.249  1.00  0.00    -0.248 NA
ATOM     38  C   UNL A   1      41.730  25.758  28.347  1.00  0.00     0.031 C 
ATOM     39  C   UNL A   1      46.257  24.128  26.940  1.00  0.00     0.029 A 
ATOM     40  N   UNL A   1      46.109  26.281  27.528  1.00  0.00    -0.354 N 
ATOM     41  C   UNL A   1      42.240  27.960  28.676  1.00  0.00     0.074 A 
ATOM     42  C   UNL A   1      41.223  26.932  28.690  1.00  0.00     0.031 C 
ATOM     43  C   UNL A   1      47.485  24.661  26.829  1.00  0.00     0.029 A 
ATOM     44  C   UNL A   1      47.413  26.087  27.138  1.00  0.00     0.049 A 
ATOM     45  H   UNL A   1      45.772  27.136  27.880  1.00  0.00     0.167 HD
ATOM     46  C   UNL A   1      42.033  29.252  29.020  1.00  0.00     0.037 A 
ATOM     47  C   UNL A   1      48.416  26.976  27.002  1.00  0.00     0.037 A 
ATOM     48  C   UNL A   1      43.065  30.251  28.992  1.00  0.00     0.049 A 
ATOM     49  C   UNL A   1      48.142  28.423  27.314  1.00  0.00     0.074 A 
ATOM     50  C   UNL A   1      42.981  31.586  29.340  1.00  0.00     0.029 A 
ATOM     51  N   UNL A   1      44.371  30.024  28.578  1.00  0.00    -0.354 N 
ATOM     52  N   UNL A   1      47.028  28.978  27.735  1.00  0.00    -0.248 NA
ATOM     53  C   UNL A   1      49.249  29.369  27.120  1.00  0.00     0.031 C 
ATOM     54  C   UNL A   1      44.225  32.177  29.090  1.00  0.00     0.029 A 
ATOM     55  C   UNL A   1      45.096  31.200  28.631  1.00  0.00     0.049 A 
ATOM     56  H   UNL A   1      44.728  29.153  28.289  1.00  0.00     0.167 HD
ATOM     57  C   UNL A   1      47.302  30.334  27.867  1.00  0.00     0.074 A 
ATOM     58  C   UNL A   1      48.692  30.513  27.498  1.00  0.00     0.031 C 
ATOM     59  C   UNL A   1      46.482  31.342  28.254  1.00  0.00     0.037 A 
BRANCH  46  60
ATOM     60  C   UNL A   1      40.642  29.649  29.419  1.00  0.00     0.058 A 
ATOM     61  C   UNL A   1      39.607  29.768  28.477  1.00  0.00     0.135 A 
ATOM     62  C   UNL A   1      40.334  29.906  30.765  1.00  0.00     0.135 A 
ATOM     63  F   UNL A   1      39.852  29.558  27.174  1.00  0.00    -0.206 F 
ATOM     64  C   UNL A   1      38.324  30.153  28.852  1.00  0.00     0.059 A 
ATOM     65  C   UNL A   1      39.053  30.268  31.166  1.00  0.00     0.059 A 
ATOM     66  F   UNL A   1      41.289  29.818  31.704  1.00  0.00    -0.206 F 
ATOM     67  C   UNL A   1      38.057  30.402  30.199  1.00  0.00     0.060 A 
BRANCH  67  68
ATOM     68  S   UNL A   1      36.387  30.905  30.668  1.00  0.00     0.124 S 
ATOM     69  O   UNL A   1      35.735  30.994  29.365  1.00  0.00    -0.237 OA
ATOM     70  O   UNL A   1      35.956  29.800  31.517  1.00  0.00    -0.237 OA
ATOM     71  O   UNL A   1      36.595  32.176  31.353  1.00  0.00    -0.744 OA
ENDBRANCH  67  68
ENDBRANCH  46  60
BRANCH  47  72
ATOM     72  C   UNL A   1      49.748  26.530  26.511  1.00  0.00     0.058 A 
ATOM     73  C   UNL A   1      50.051  26.530  25.142  1.00  0.00     0.135 A 
ATOM     74  C   UNL A   1      50.750  26.109  27.399  1.00  0.00     0.135 A 
ATOM     75  F   UNL A   1      49.123  26.912  24.251  1.00  0.00    -0.206 F 
ATOM     76  C   UNL A   1      51.294  26.123  24.669  1.00  0.00     0.059 A 
ATOM     77  C   UNL A   1      52.011  25.721  26.953  1.00  0.00     0.059 A 
ATOM     78  F   UNL A   1      50.517  26.099  28.721  1.00  0.00    -0.206 F 
ATOM     79  C   UNL A   1      52.271  25.723  25.584  1.00  0.00     0.060 A 
BRANCH  79  80
ATOM     80  S   UNL A   1      53.898  25.244  24.963  1.00  0.00     0.124 S 
ATOM     81  O   UNL A   1      53.740  23.802  24.810  1.00  0.00    -0.237 OA
ATOM     82  O   UNL A   1      53.991  26.012  23.726  1.00  0.00    -0.237 OA
ATOM     83  O   UNL A   1      54.802  25.672  26.027  1.00  0.00    -0.744 OA
ENDBRANCH  79  80
ENDBRANCH  47  72
BRANCH  59  84
ATOM     84  C   UNL A   1      47.065  32.725  28.306  1.00  0.00     0.058 A 
ATOM     85  C   UNL A   1      47.807  33.163  29.414  1.00  0.00     0.135 A 
ATOM     86  C   UNL A   1      46.959  33.584  27.201  1.00  0.00     0.135 A 
ATOM     87  F   UNL A   1      47.928  32.380  30.498  1.00  0.00    -0.206 F 
ATOM     88  C   UNL A   1      48.423  34.408  29.424  1.00  0.00     0.059 A 
ATOM     89  C   UNL A   1      47.589  34.823  27.180  1.00  0.00     0.059 A 
ATOM     90  F   UNL A   1      46.266  33.206  26.115  1.00  0.00    -0.206 F 
ATOM     91  C   UNL A   1      48.316  35.228  28.299  1.00  0.00     0.060 A 
BRANCH  91  92
ATOM     92  S   UNL A   1      49.183  36.811  28.299  1.00  0.00     0.124 S 
ATOM     93  O   UNL A   1      48.279  37.641  29.089  1.00  0.00    -0.237 OA
ATOM     94  O   UNL A   1      50.452  36.471  28.936  1.00  0.00    -0.237 OA
ATOM     95  O   UNL A   1      49.271  37.150  26.882  1.00  0.00    -0.744 OA
ENDBRANCH  91  92
ENDBRANCH  59  84
ENDBRANCH  33  34
ENDBRANCH  26  28
ENDBRANCH  25  26
ENDBRANCH   1  25
TORSDOF 18
ENDMDL
