MODEL 1
REMARK VINA RESULT:     -12.6      0.000      0.000
REMARK SMILES CC(=O)n1cc2c3c(cccc31)C(=O)C[C@@H]2C(=O)OCCOC(=O)c1ccc(-c2c3nc(c(-c4c(F)cc(S(=O)(=O)[O-])cc4F)c4ccc([nH]4)c(-c4c(F)cc(S(=O)(=O)[O-])cc4F)c4nc(c(-c5c(F)cc(S(=O)(=O)[O-])cc5F)c5ccc2[nH]5)C=C4)C=C3)cc1
REMARK SMILES IDX 21 1 20 2 19 3 17 4 18 5 16 6 4 7 5 8 12 9 6 10 7 11 11 12
REMARK SMILES IDX 8 13 10 14 15 15 9 16 13 17 14 18 2 19 1 20 3 21 22 22 23 23
REMARK SMILES IDX 24 24 25 25 26 26 90 27 27 28 89 29 28 30 29 31 30 32 83 33
REMARK SMILES IDX 31 34 88 35 82 36 84 37 32 38 87 39 81 40 80 41 33 43 67 44
REMARK SMILES IDX 46 45 66 46 47 47 50 48 65 49 85 50 48 51 49 52 64 54 86 55
REMARK SMILES IDX 51 56 34 57 35 58 44 59 36 60 37 61 43 62 45 63 38 64 39 65
REMARK SMILES IDX 40 66 41 67 42 68 68 69 69 70 78 71 70 72 71 73 77 74 79 75
REMARK SMILES IDX 72 76 73 77 74 78 75 79 76 80 52 81 53 82 62 83 54 84 55 85
REMARK SMILES IDX 61 86 63 87 56 88 57 89 58 90 59 91 60 92
REMARK H PARENT 84 42 50 53
REMARK Flexibility Score: inf
ROOT
ATOM      1  C   UNL A   1      38.490  21.534  25.691  1.00  0.00     0.275 C 
ENDROOT
BRANCH   1   2
ATOM      2  C   UNL A   1      37.276  21.815  24.803  1.00  0.00     0.274 C 
BRANCH   2   3
ATOM      3  O   UNL A   1      36.034  21.868  25.536  1.00  0.00    -0.462 OA
BRANCH   3   4
ATOM      4  C   UNL A   1      35.458  23.101  25.649  1.00  0.00     0.314 C 
ATOM      5  O   UNL A   1      36.080  24.128  25.911  1.00  0.00    -0.252 OA
BRANCH   4   6
ATOM      6  C   UNL A   1      33.938  23.073  25.536  1.00  0.00     0.139 C 
ATOM      7  N   UNL A   1      33.200  25.767  23.059  1.00  0.00    -0.287 N 
ATOM      8  C   UNL A   1      34.016  24.723  23.489  1.00  0.00     0.100 A 
ATOM      9  C   UNL A   1      32.123  25.859  23.948  1.00  0.00     0.057 A 
ATOM     10  C   UNL A   1      33.496  24.187  24.642  1.00  0.00    -0.006 A 
ATOM     11  C   UNL A   1      32.303  24.869  24.900  1.00  0.00     0.015 A 
ATOM     12  C   UNL A   1      30.977  26.671  23.998  1.00  0.00     0.027 A 
ATOM     13  C   UNL A   1      31.372  24.641  25.908  1.00  0.00     0.027 A 
ATOM     14  C   UNL A   1      30.026  26.416  25.007  1.00  0.00     0.003 A 
ATOM     15  C   UNL A   1      33.178  23.090  26.889  1.00  0.00     0.101 C 
ATOM     16  C   UNL A   1      30.210  25.405  25.953  1.00  0.00     0.012 A 
ATOM     17  C   UNL A   1      31.715  23.554  26.847  1.00  0.00     0.164 C 
ATOM     18  O   UNL A   1      30.855  23.117  27.604  1.00  0.00    -0.294 OA
BRANCH   7  19
ATOM     19  C   UNL A   1      33.403  26.564  21.914  1.00  0.00     0.227 C 
ATOM     20  C   UNL A   1      33.792  27.986  22.194  1.00  0.00     0.115 C 
ATOM     21  O   UNL A   1      33.317  26.078  20.794  1.00  0.00    -0.274 OA
ENDBRANCH   7  19
ENDBRANCH   4   6
ENDBRANCH   3   4
ENDBRANCH   2   3
ENDBRANCH   1   2
BRANCH   1  22
ATOM     22  O   UNL A   1      38.768  22.610  26.587  1.00  0.00    -0.458 OA
BRANCH  22  23
ATOM     23  C   UNL A   1      40.047  22.599  27.025  1.00  0.00     0.338 C 
ATOM     24  O   UNL A   1      40.650  21.638  27.472  1.00  0.00    -0.246 OA
BRANCH  23  25
ATOM     25  C   UNL A   1      40.626  23.937  27.048  1.00  0.00     0.060 A 
ATOM     26  C   UNL A   1      41.685  24.134  27.941  1.00  0.00     0.016 A 
ATOM     27  C   UNL A   1      39.880  24.994  26.519  1.00  0.00     0.016 A 
ATOM     28  C   UNL A   1      41.856  25.386  28.478  1.00  0.00     0.010 A 
ATOM     29  C   UNL A   1      40.044  26.244  27.070  1.00  0.00     0.010 A 
ATOM     30  C   UNL A   1      40.972  26.400  28.098  1.00  0.00    -0.014 A 
BRANCH  30  31
ATOM     31  C   UNL A   1      41.081  27.654  28.805  1.00  0.00     0.031 A 
ATOM     32  C   UNL A   1      42.210  28.493  28.356  1.00  0.00     0.074 A 
ATOM     33  C   UNL A   1      40.199  28.043  29.740  1.00  0.00     0.049 A 
ATOM     34  N   UNL A   1      43.285  28.791  29.003  1.00  0.00    -0.248 NA
ATOM     35  C   UNL A   1      42.203  28.921  26.951  1.00  0.00     0.031 C 
ATOM     36  C   UNL A   1      38.896  27.460  30.066  1.00  0.00     0.029 A 
ATOM     37  N   UNL A   1      40.263  29.135  30.543  1.00  0.00    -0.354 N 
ATOM     38  C   UNL A   1      44.008  29.620  28.154  1.00  0.00     0.074 A 
ATOM     39  C   UNL A   1      43.390  29.517  26.857  1.00  0.00     0.031 C 
ATOM     40  C   UNL A   1      38.209  28.329  30.844  1.00  0.00     0.029 A 
ATOM     41  C   UNL A   1      39.071  29.454  31.171  1.00  0.00     0.049 A 
ATOM     42  H   UNL A   1      41.088  29.656  30.670  1.00  0.00     0.167 HD
ATOM     43  C   UNL A   1      44.922  30.506  28.630  1.00  0.00     0.037 A 
ATOM     44  C   UNL A   1      38.811  30.610  31.831  1.00  0.00     0.037 A 
ATOM     45  C   UNL A   1      45.333  30.175  29.970  1.00  0.00     0.049 A 
ATOM     46  C   UNL A   1      40.123  31.208  32.205  1.00  0.00     0.074 A 
ATOM     47  C   UNL A   1      45.953  29.086  30.552  1.00  0.00     0.029 A 
ATOM     48  N   UNL A   1      44.787  30.893  31.007  1.00  0.00    -0.354 N 
ATOM     49  N   UNL A   1      40.949  30.686  33.070  1.00  0.00    -0.248 NA
ATOM     50  C   UNL A   1      40.711  32.187  31.302  1.00  0.00     0.031 C 
ATOM     51  C   UNL A   1      45.361  28.962  31.843  1.00  0.00     0.029 A 
ATOM     52  C   UNL A   1      44.440  30.000  31.990  1.00  0.00     0.049 A 
ATOM     53  H   UNL A   1      44.667  31.870  31.038  1.00  0.00     0.167 HD
ATOM     54  C   UNL A   1      42.214  30.954  32.568  1.00  0.00     0.074 A 
ATOM     55  C   UNL A   1      42.007  31.967  31.539  1.00  0.00     0.031 C 
ATOM     56  C   UNL A   1      43.275  30.137  32.841  1.00  0.00     0.037 A 
BRANCH  43  57
ATOM     57  C   UNL A   1      45.180  31.853  28.004  1.00  0.00     0.058 A 
ATOM     58  C   UNL A   1      46.467  32.159  27.523  1.00  0.00     0.135 A 
ATOM     59  C   UNL A   1      44.288  32.948  28.100  1.00  0.00     0.135 A 
ATOM     60  F   UNL A   1      47.399  31.200  27.403  1.00  0.00    -0.206 F 
ATOM     61  C   UNL A   1      46.862  33.464  27.228  1.00  0.00     0.059 A 
ATOM     62  C   UNL A   1      44.641  34.244  27.751  1.00  0.00     0.059 A 
ATOM     63  F   UNL A   1      43.066  32.835  28.631  1.00  0.00    -0.206 F 
ATOM     64  C   UNL A   1      45.943  34.501  27.364  1.00  0.00     0.060 A 
BRANCH  64  65
ATOM     65  S   UNL A   1      46.480  36.202  27.110  1.00  0.00     0.124 S 
ATOM     66  O   UNL A   1      45.283  36.940  27.492  1.00  0.00    -0.237 OA
ATOM     67  O   UNL A   1      47.613  36.300  28.024  1.00  0.00    -0.237 OA
ATOM     68  O   UNL A   1      46.821  36.237  25.691  1.00  0.00    -0.744 OA
ENDBRANCH  64  65
ENDBRANCH  43  57
BRANCH  44  69
ATOM     69  C   UNL A   1      37.547  31.393  31.827  1.00  0.00     0.058 A 
ATOM     70  C   UNL A   1      36.861  31.657  33.026  1.00  0.00     0.135 A 
ATOM     71  C   UNL A   1      37.141  32.141  30.702  1.00  0.00     0.135 A 
ATOM     72  F   UNL A   1      37.194  31.005  34.150  1.00  0.00    -0.206 F 
ATOM     73  C   UNL A   1      35.878  32.646  33.119  1.00  0.00     0.059 A 
ATOM     74  C   UNL A   1      36.153  33.121  30.768  1.00  0.00     0.059 A 
ATOM     75  F   UNL A   1      37.760  32.013  29.519  1.00  0.00    -0.206 F 
ATOM     76  C   UNL A   1      35.547  33.391  31.988  1.00  0.00     0.060 A 
BRANCH  76  77
ATOM     77  S   UNL A   1      34.416  34.792  32.147  1.00  0.00     0.124 S 
ATOM     78  O   UNL A   1      35.239  35.765  32.857  1.00  0.00    -0.237 OA
ATOM     79  O   UNL A   1      34.118  35.103  30.753  1.00  0.00    -0.237 OA
ATOM     80  O   UNL A   1      33.300  34.242  32.913  1.00  0.00    -0.744 OA
ENDBRANCH  76  77
ENDBRANCH  44  69
BRANCH  56  81
ATOM     81  C   UNL A   1      43.132  29.129  33.952  1.00  0.00     0.058 A 
ATOM     82  C   UNL A   1      43.368  29.409  35.309  1.00  0.00     0.135 A 
ATOM     83  C   UNL A   1      42.576  27.876  33.645  1.00  0.00     0.135 A 
ATOM     84  F   UNL A   1      43.803  30.616  35.698  1.00  0.00    -0.206 F 
ATOM     85  C   UNL A   1      43.095  28.474  36.312  1.00  0.00     0.059 A 
ATOM     86  C   UNL A   1      42.268  26.942  34.629  1.00  0.00     0.059 A 
ATOM     87  F   UNL A   1      42.271  27.571  32.372  1.00  0.00    -0.206 F 
ATOM     88  C   UNL A   1      42.540  27.244  35.962  1.00  0.00     0.060 A 
BRANCH  88  89
ATOM     89  S   UNL A   1      42.101  26.074  37.267  1.00  0.00     0.124 S 
ATOM     90  O   UNL A   1      43.030  26.438  38.331  1.00  0.00    -0.237 OA
ATOM     91  O   UNL A   1      40.697  26.389  37.516  1.00  0.00    -0.237 OA
ATOM     92  O   UNL A   1      42.338  24.770  36.651  1.00  0.00    -0.744 OA
ENDBRANCH  88  89
ENDBRANCH  56  81
ENDBRANCH  30  31
ENDBRANCH  23  25
ENDBRANCH  22  23
ENDBRANCH   1  22
TORSDOF 15
ENDMDL
MODEL 2
REMARK VINA RESULT:     -12.6      1.047      1.959
REMARK SMILES CC(=O)n1cc2c3c(cccc31)C(=O)C[C@@H]2C(=O)OCCOC(=O)c1ccc(-c2c3nc(c(-c4c(F)cc(S(=O)(=O)[O-])cc4F)c4ccc([nH]4)c(-c4c(F)cc(S(=O)(=O)[O-])cc4F)c4nc(c(-c5c(F)cc(S(=O)(=O)[O-])cc5F)c5ccc2[nH]5)C=C4)C=C3)cc1
REMARK SMILES IDX 21 1 20 2 19 3 17 4 18 5 16 6 4 7 5 8 12 9 6 10 7 11 11 12
REMARK SMILES IDX 8 13 10 14 15 15 9 16 13 17 14 18 2 19 1 20 3 21 22 22 23 23
REMARK SMILES IDX 24 24 25 25 26 26 90 27 27 28 89 29 28 30 29 31 30 32 83 33
REMARK SMILES IDX 31 34 88 35 82 36 84 37 32 38 87 39 81 40 80 41 33 43 67 44
REMARK SMILES IDX 46 45 66 46 47 47 50 48 65 49 85 50 48 51 49 52 64 54 86 55
REMARK SMILES IDX 51 56 34 57 35 58 44 59 36 60 37 61 43 62 45 63 38 64 39 65
REMARK SMILES IDX 40 66 41 67 42 68 68 69 69 70 78 71 70 72 71 73 77 74 79 75
REMARK SMILES IDX 72 76 73 77 74 78 75 79 76 80 52 81 53 82 62 83 54 84 55 85
REMARK SMILES IDX 61 86 63 87 56 88 57 89 58 90 59 91 60 92
REMARK H PARENT 84 42 50 53
REMARK Flexibility Score: inf
ROOT
ATOM      1  C   UNL A   1      38.091  21.987  25.683  1.00  0.00     0.275 C 
ENDROOT
BRANCH   1   2
ATOM      2  C   UNL A   1      36.616  22.235  25.359  1.00  0.00     0.274 C 
BRANCH   2   3
ATOM      3  O   UNL A   1      36.208  23.603  25.569  1.00  0.00    -0.462 OA
BRANCH   3   4
ATOM      4  C   UNL A   1      34.872  23.854  25.450  1.00  0.00     0.314 C 
ATOM      5  O   UNL A   1      34.003  23.265  26.090  1.00  0.00    -0.252 OA
BRANCH   4   6
ATOM      6  C   UNL A   1      34.538  24.861  24.355  1.00  0.00     0.139 C 
ATOM      7  N   UNL A   1      32.344  27.336  26.087  1.00  0.00    -0.287 N 
ATOM      8  C   UNL A   1      33.443  26.480  26.115  1.00  0.00     0.100 A 
ATOM      9  C   UNL A   1      31.794  27.280  24.802  1.00  0.00     0.057 A 
ATOM     10  C   UNL A   1      33.569  25.862  24.894  1.00  0.00    -0.006 A 
ATOM     11  C   UNL A   1      32.568  26.392  24.074  1.00  0.00     0.015 A 
ATOM     12  C   UNL A   1      30.727  27.948  24.176  1.00  0.00     0.027 A 
ATOM     13  C   UNL A   1      32.330  26.145  22.725  1.00  0.00     0.027 A 
ATOM     14  C   UNL A   1      30.510  27.711  22.803  1.00  0.00     0.003 A 
ATOM     15  C   UNL A   1      34.038  24.241  23.023  1.00  0.00     0.101 C 
ATOM     16  C   UNL A   1      31.306  26.826  22.074  1.00  0.00     0.012 A 
ATOM     17  C   UNL A   1      33.239  25.167  22.094  1.00  0.00     0.164 C 
ATOM     18  O   UNL A   1      33.271  25.073  20.872  1.00  0.00    -0.294 OA
BRANCH   7  19
ATOM     19  C   UNL A   1      31.892  28.143  27.151  1.00  0.00     0.227 C 
ATOM     20  C   UNL A   1      32.396  29.556  27.131  1.00  0.00     0.115 C 
ATOM     21  O   UNL A   1      31.100  27.703  27.973  1.00  0.00    -0.274 OA
ENDBRANCH   7  19
ENDBRANCH   4   6
ENDBRANCH   3   4
ENDBRANCH   2   3
ENDBRANCH   1   2
BRANCH   1  22
ATOM     22  O   UNL A   1      38.576  22.861  26.702  1.00  0.00    -0.458 OA
BRANCH  22  23
ATOM     23  C   UNL A   1      39.912  22.751  26.882  1.00  0.00     0.338 C 
ATOM     24  O   UNL A   1      40.534  21.719  27.068  1.00  0.00    -0.246 OA
BRANCH  23  25
ATOM     25  C   UNL A   1      40.557  24.055  26.978  1.00  0.00     0.060 A 
ATOM     26  C   UNL A   1      41.524  24.191  27.980  1.00  0.00     0.016 A 
ATOM     27  C   UNL A   1      39.931  25.153  26.381  1.00  0.00     0.016 A 
ATOM     28  C   UNL A   1      41.705  25.430  28.542  1.00  0.00     0.010 A 
ATOM     29  C   UNL A   1      40.103  26.390  26.956  1.00  0.00     0.010 A 
ATOM     30  C   UNL A   1      40.923  26.492  28.079  1.00  0.00    -0.014 A 
BRANCH  30  31
ATOM     31  C   UNL A   1      41.025  27.737  28.803  1.00  0.00     0.031 A 
ATOM     32  C   UNL A   1      42.148  28.589  28.367  1.00  0.00     0.074 A 
ATOM     33  C   UNL A   1      40.140  28.107  29.744  1.00  0.00     0.049 A 
ATOM     34  N   UNL A   1      43.221  28.885  29.018  1.00  0.00    -0.248 NA
ATOM     35  C   UNL A   1      42.139  29.037  26.968  1.00  0.00     0.031 C 
ATOM     36  C   UNL A   1      38.841  27.511  30.061  1.00  0.00     0.029 A 
ATOM     37  N   UNL A   1      40.197  29.187  30.562  1.00  0.00    -0.354 N 
ATOM     38  C   UNL A   1      43.939  29.731  28.181  1.00  0.00     0.074 A 
ATOM     39  C   UNL A   1      43.322  29.642  26.883  1.00  0.00     0.031 C 
ATOM     40  C   UNL A   1      38.148  28.364  30.852  1.00  0.00     0.029 A 
ATOM     41  C   UNL A   1      39.003  29.490  31.195  1.00  0.00     0.049 A 
ATOM     42  H   UNL A   1      41.019  29.712  30.697  1.00  0.00     0.167 HD
ATOM     43  C   UNL A   1      44.848  30.615  28.670  1.00  0.00     0.037 A 
ATOM     44  C   UNL A   1      38.736  30.635  31.871  1.00  0.00     0.037 A 
ATOM     45  C   UNL A   1      45.260  30.267  30.005  1.00  0.00     0.049 A 
ATOM     46  C   UNL A   1      40.044  31.235  32.254  1.00  0.00     0.074 A 
ATOM     47  C   UNL A   1      45.887  29.174  30.572  1.00  0.00     0.029 A 
ATOM     48  N   UNL A   1      44.711  30.967  31.052  1.00  0.00    -0.354 N 
ATOM     49  N   UNL A   1      40.873  30.706  33.112  1.00  0.00    -0.248 NA
ATOM     50  C   UNL A   1      40.626  32.231  31.365  1.00  0.00     0.031 C 
ATOM     51  C   UNL A   1      45.297  29.028  31.861  1.00  0.00     0.029 A 
ATOM     52  C   UNL A   1      44.368  30.058  32.022  1.00  0.00     0.049 A 
ATOM     53  H   UNL A   1      44.585  31.943  31.097  1.00  0.00     0.167 HD
ATOM     54  C   UNL A   1      42.137  30.989  32.613  1.00  0.00     0.074 A 
ATOM     55  C   UNL A   1      41.923  32.015  31.599  1.00  0.00     0.031 C 
ATOM     56  C   UNL A   1      43.203  30.175  32.875  1.00  0.00     0.037 A 
BRANCH  43  57
ATOM     57  C   UNL A   1      45.097  31.973  28.063  1.00  0.00     0.058 A 
ATOM     58  C   UNL A   1      46.375  32.284  27.561  1.00  0.00     0.135 A 
ATOM     59  C   UNL A   1      44.211  33.068  28.197  1.00  0.00     0.135 A 
ATOM     60  F   UNL A   1      47.301  31.323  27.404  1.00  0.00    -0.206 F 
ATOM     61  C   UNL A   1      46.768  33.593  27.282  1.00  0.00     0.059 A 
ATOM     62  C   UNL A   1      44.561  34.370  27.865  1.00  0.00     0.059 A 
ATOM     63  F   UNL A   1      43.000  32.949  28.751  1.00  0.00    -0.206 F 
ATOM     64  C   UNL A   1      45.856  34.630  27.455  1.00  0.00     0.060 A 
BRANCH  64  65
ATOM     65  S   UNL A   1      46.394  36.333  27.222  1.00  0.00     0.124 S 
ATOM     66  O   UNL A   1      46.724  36.337  25.802  1.00  0.00    -0.237 OA
ATOM     67  O   UNL A   1      45.202  37.081  27.606  1.00  0.00    -0.237 OA
ATOM     68  O   UNL A   1      47.526  36.455  28.136  1.00  0.00    -0.744 OA
ENDBRANCH  64  65
ENDBRANCH  43  57
BRANCH  44  69
ATOM     69  C   UNL A   1      37.467  31.410  31.878  1.00  0.00     0.058 A 
ATOM     70  C   UNL A   1      36.859  31.782  33.090  1.00  0.00     0.135 A 
ATOM     71  C   UNL A   1      36.981  32.048  30.718  1.00  0.00     0.135 A 
ATOM     72  F   UNL A   1      37.271  31.239  34.246  1.00  0.00    -0.206 F 
ATOM     73  C   UNL A   1      35.875  32.773  33.157  1.00  0.00     0.059 A 
ATOM     74  C   UNL A   1      35.991  33.027  30.758  1.00  0.00     0.059 A 
ATOM     75  F   UNL A   1      37.523  31.814  29.514  1.00  0.00    -0.206 F 
ATOM     76  C   UNL A   1      35.463  33.407  31.986  1.00  0.00     0.060 A 
BRANCH  76  77
ATOM     77  S   UNL A   1      34.332  34.814  32.089  1.00  0.00     0.124 S 
ATOM     78  O   UNL A   1      33.186  34.230  32.776  1.00  0.00    -0.237 OA
ATOM     79  O   UNL A   1      35.114  35.778  32.857  1.00  0.00    -0.237 OA
ATOM     80  O   UNL A   1      34.107  35.171  30.690  1.00  0.00    -0.744 OA
ENDBRANCH  76  77
ENDBRANCH  44  69
BRANCH  56  81
ATOM     81  C   UNL A   1      43.066  29.150  33.971  1.00  0.00     0.058 A 
ATOM     82  C   UNL A   1      43.263  29.422  35.336  1.00  0.00     0.135 A 
ATOM     83  C   UNL A   1      42.557  27.885  33.638  1.00  0.00     0.135 A 
ATOM     84  F   UNL A   1      43.651  30.638  35.748  1.00  0.00    -0.206 F 
ATOM     85  C   UNL A   1      42.997  28.468  36.322  1.00  0.00     0.059 A 
ATOM     86  C   UNL A   1      42.255  26.930  34.605  1.00  0.00     0.059 A 
ATOM     87  F   UNL A   1      42.290  27.585  32.355  1.00  0.00    -0.206 F 
ATOM     88  C   UNL A   1      42.488  27.225  35.946  1.00  0.00     0.060 A 
BRANCH  88  89
ATOM     89  S   UNL A   1      42.056  26.027  37.228  1.00  0.00     0.124 S 
ATOM     90  O   UNL A   1      43.035  26.324  38.269  1.00  0.00    -0.237 OA
ATOM     91  O   UNL A   1      40.673  26.380  37.539  1.00  0.00    -0.237 OA
ATOM     92  O   UNL A   1      42.225  24.737  36.562  1.00  0.00    -0.744 OA
ENDBRANCH  88  89
ENDBRANCH  56  81
ENDBRANCH  30  31
ENDBRANCH  23  25
ENDBRANCH  22  23
ENDBRANCH   1  22
TORSDOF 15
ENDMDL
MODEL 3
REMARK VINA RESULT:     -12.6      2.969      9.382
REMARK SMILES CC(=O)n1cc2c3c(cccc31)C(=O)C[C@@H]2C(=O)OCCOC(=O)c1ccc(-c2c3nc(c(-c4c(F)cc(S(=O)(=O)[O-])cc4F)c4ccc([nH]4)c(-c4c(F)cc(S(=O)(=O)[O-])cc4F)c4nc(c(-c5c(F)cc(S(=O)(=O)[O-])cc5F)c5ccc2[nH]5)C=C4)C=C3)cc1
REMARK SMILES IDX 21 1 20 2 19 3 17 4 18 5 16 6 4 7 5 8 12 9 6 10 7 11 11 12
REMARK SMILES IDX 8 13 10 14 15 15 9 16 13 17 14 18 2 19 1 20 3 21 22 22 23 23
REMARK SMILES IDX 24 24 25 25 26 26 90 27 27 28 89 29 28 30 29 31 30 32 83 33
REMARK SMILES IDX 31 34 88 35 82 36 84 37 32 38 87 39 81 40 80 41 33 43 67 44
REMARK SMILES IDX 46 45 66 46 47 47 50 48 65 49 85 50 48 51 49 52 64 54 86 55
REMARK SMILES IDX 51 56 34 57 35 58 44 59 36 60 37 61 43 62 45 63 38 64 39 65
REMARK SMILES IDX 40 66 41 67 42 68 68 69 69 70 78 71 70 72 71 73 77 74 79 75
REMARK SMILES IDX 72 76 73 77 74 78 75 79 76 80 52 81 53 82 62 83 54 84 55 85
REMARK SMILES IDX 61 86 63 87 56 88 57 89 58 90 59 91 60 92
REMARK H PARENT 84 42 50 53
REMARK Flexibility Score: inf
ROOT
ATOM      1  C   UNL A   1      33.237  31.010  27.294  1.00  0.00     0.275 C 
ENDROOT
BRANCH   1   2
ATOM      2  C   UNL A   1      32.363  29.846  26.822  1.00  0.00     0.274 C 
BRANCH   2   3
ATOM      3  O   UNL A   1      32.728  29.352  25.517  1.00  0.00    -0.462 OA
BRANCH   3   4
ATOM      4  C   UNL A   1      33.252  28.092  25.480  1.00  0.00     0.314 C 
ATOM      5  O   UNL A   1      34.162  27.705  26.209  1.00  0.00    -0.252 OA
BRANCH   4   6
ATOM      6  C   UNL A   1      32.682  27.230  24.359  1.00  0.00     0.139 C 
ATOM      7  N   UNL A   1      31.833  24.023  26.071  1.00  0.00    -0.287 N 
ATOM      8  C   UNL A   1      31.898  25.414  26.092  1.00  0.00     0.100 A 
ATOM      9  C   UNL A   1      32.266  23.596  24.810  1.00  0.00     0.057 A 
ATOM     10  C   UNL A   1      32.394  25.864  24.893  1.00  0.00    -0.006 A 
ATOM     11  C   UNL A   1      32.583  24.736  24.089  1.00  0.00     0.015 A 
ATOM     12  C   UNL A   1      32.369  22.335  24.198  1.00  0.00     0.027 A 
ATOM     13  C   UNL A   1      32.994  24.674  22.761  1.00  0.00     0.027 A 
ATOM     14  C   UNL A   1      32.760  22.284  22.845  1.00  0.00     0.003 A 
ATOM     15  C   UNL A   1      33.547  27.170  23.071  1.00  0.00     0.101 C 
ATOM     16  C   UNL A   1      33.062  23.440  22.122  1.00  0.00     0.012 A 
ATOM     17  C   UNL A   1      33.302  25.976  22.137  1.00  0.00     0.164 C 
ATOM     18  O   UNL A   1      33.425  26.048  20.919  1.00  0.00    -0.294 OA
BRANCH   7  19
ATOM     19  C   UNL A   1      31.379  23.195  27.117  1.00  0.00     0.227 C 
ATOM     20  C   UNL A   1      29.929  22.817  27.040  1.00  0.00     0.115 C 
ATOM     21  O   UNL A   1      32.155  22.789  27.972  1.00  0.00    -0.274 OA
ENDBRANCH   7  19
ENDBRANCH   4   6
ENDBRANCH   3   4
ENDBRANCH   2   3
ENDBRANCH   1   2
BRANCH   1  22
ATOM     22  O   UNL A   1      34.631  30.727  27.170  1.00  0.00    -0.458 OA
BRANCH  22  23
ATOM     23  C   UNL A   1      35.400  31.640  27.803  1.00  0.00     0.338 C 
ATOM     24  O   UNL A   1      35.406  32.843  27.606  1.00  0.00    -0.246 OA
BRANCH  23  25
ATOM     25  C   UNL A   1      36.372  31.011  28.690  1.00  0.00     0.060 A 
ATOM     26  C   UNL A   1      37.476  31.793  29.047  1.00  0.00     0.016 A 
ATOM     27  C   UNL A   1      36.369  29.618  28.799  1.00  0.00     0.016 A 
ATOM     28  C   UNL A   1      38.664  31.157  29.308  1.00  0.00     0.010 A 
ATOM     29  C   UNL A   1      37.564  28.983  29.046  1.00  0.00     0.010 A 
ATOM     30  C   UNL A   1      38.708  29.763  29.214  1.00  0.00    -0.014 A 
BRANCH  30  31
ATOM     31  C   UNL A   1      40.007  29.145  29.335  1.00  0.00     0.031 A 
ATOM     32  C   UNL A   1      40.484  29.031  30.726  1.00  0.00     0.074 A 
ATOM     33  C   UNL A   1      40.686  28.665  28.280  1.00  0.00     0.049 A 
ATOM     34  N   UNL A   1      41.462  29.659  31.286  1.00  0.00    -0.248 NA
ATOM     35  C   UNL A   1      39.667  28.230  31.647  1.00  0.00     0.031 C 
ATOM     36  C   UNL A   1      40.214  28.447  26.911  1.00  0.00     0.029 A 
ATOM     37  N   UNL A   1      41.950  28.173  28.257  1.00  0.00    -0.354 N 
ATOM     38  C   UNL A   1      41.512  29.179  32.589  1.00  0.00     0.074 A 
ATOM     39  C   UNL A   1      40.289  28.450  32.803  1.00  0.00     0.031 C 
ATOM     40  C   UNL A   1      41.110  27.673  26.256  1.00  0.00     0.029 A 
ATOM     41  C   UNL A   1      42.266  27.459  27.113  1.00  0.00     0.049 A 
ATOM     42  H   UNL A   1      42.591  28.314  28.991  1.00  0.00     0.167 HD
ATOM     43  C   UNL A   1      42.656  29.222  33.321  1.00  0.00     0.037 A 
ATOM     44  C   UNL A   1      43.364  26.682  26.945  1.00  0.00     0.037 A 
ATOM     45  C   UNL A   1      43.599  30.165  32.776  1.00  0.00     0.049 A 
ATOM     46  C   UNL A   1      44.379  27.134  27.938  1.00  0.00     0.074 A 
ATOM     47  C   UNL A   1      43.586  31.528  32.551  1.00  0.00     0.029 A 
ATOM     48  N   UNL A   1      44.645  29.674  32.034  1.00  0.00    -0.354 N 
ATOM     49  N   UNL A   1      44.971  28.297  27.906  1.00  0.00    -0.248 NA
ATOM     50  C   UNL A   1      44.437  26.446  29.220  1.00  0.00     0.031 C 
ATOM     51  C   UNL A   1      44.320  31.717  31.345  1.00  0.00     0.029 A 
ATOM     52  C   UNL A   1      44.768  30.466  30.919  1.00  0.00     0.049 A 
ATOM     53  H   UNL A   1      45.204  28.895  32.259  1.00  0.00     0.167 HD
ATOM     54  C   UNL A   1      45.115  28.665  29.237  1.00  0.00     0.074 A 
ATOM     55  C   UNL A   1      44.865  27.445  29.996  1.00  0.00     0.031 C 
ATOM     56  C   UNL A   1      45.154  29.978  29.611  1.00  0.00     0.037 A 
BRANCH  43  57
ATOM     57  C   UNL A   1      43.042  28.165  34.325  1.00  0.00     0.058 A 
ATOM     58  C   UNL A   1      43.243  28.527  35.670  1.00  0.00     0.135 A 
ATOM     59  C   UNL A   1      43.482  26.868  33.970  1.00  0.00     0.135 A 
ATOM     60  F   UNL A   1      42.875  29.739  36.115  1.00  0.00    -0.206 F 
ATOM     61  C   UNL A   1      43.897  27.692  36.577  1.00  0.00     0.059 A 
ATOM     62  C   UNL A   1      44.078  25.997  34.871  1.00  0.00     0.059 A 
ATOM     63  F   UNL A   1      43.451  26.417  32.710  1.00  0.00    -0.206 F 
ATOM     64  C   UNL A   1      44.325  26.435  36.160  1.00  0.00     0.060 A 
BRANCH  64  65
ATOM     65  S   UNL A   1      45.283  25.405  37.285  1.00  0.00     0.124 S 
ATOM     66  O   UNL A   1      44.752  25.822  38.577  1.00  0.00    -0.237 OA
ATOM     67  O   UNL A   1      44.921  24.062  36.846  1.00  0.00    -0.237 OA
ATOM     68  O   UNL A   1      46.661  25.800  37.009  1.00  0.00    -0.744 OA
ENDBRANCH  64  65
ENDBRANCH  43  57
BRANCH  44  69
ATOM     69  C   UNL A   1      43.450  25.367  26.256  1.00  0.00     0.058 A 
ATOM     70  C   UNL A   1      44.437  25.128  25.284  1.00  0.00     0.135 A 
ATOM     71  C   UNL A   1      42.764  24.233  26.736  1.00  0.00     0.135 A 
ATOM     72  F   UNL A   1      45.153  26.148  24.785  1.00  0.00    -0.206 F 
ATOM     73  C   UNL A   1      44.769  23.838  24.859  1.00  0.00     0.059 A 
ATOM     74  C   UNL A   1      43.066  22.939  26.316  1.00  0.00     0.059 A 
ATOM     75  F   UNL A   1      41.841  24.333  27.703  1.00  0.00    -0.206 F 
ATOM     76  C   UNL A   1      44.092  22.746  25.400  1.00  0.00     0.060 A 
BRANCH  76  77
ATOM     77  S   UNL A   1      44.643  21.072  24.997  1.00  0.00     0.124 S 
ATOM     78  O   UNL A   1      45.999  21.062  25.536  1.00  0.00    -0.237 OA
ATOM     79  O   UNL A   1      43.667  20.251  25.705  1.00  0.00    -0.237 OA
ATOM     80  O   UNL A   1      44.551  21.027  23.539  1.00  0.00    -0.744 OA
ENDBRANCH  76  77
ENDBRANCH  44  69
BRANCH  56  81
ATOM     81  C   UNL A   1      45.367  31.019  28.541  1.00  0.00     0.058 A 
ATOM     82  C   UNL A   1      44.334  31.587  27.775  1.00  0.00     0.135 A 
ATOM     83  C   UNL A   1      46.648  31.578  28.403  1.00  0.00     0.135 A 
ATOM     84  F   UNL A   1      43.065  31.181  27.920  1.00  0.00    -0.206 F 
ATOM     85  C   UNL A   1      44.571  32.641  26.888  1.00  0.00     0.059 A 
ATOM     86  C   UNL A   1      46.901  32.647  27.548  1.00  0.00     0.059 A 
ATOM     87  F   UNL A   1      47.665  31.118  29.152  1.00  0.00    -0.206 F 
ATOM     88  C   UNL A   1      45.858  33.168  26.785  1.00  0.00     0.060 A 
BRANCH  88  89
ATOM     89  S   UNL A   1      46.144  34.590  25.708  1.00  0.00     0.124 S 
ATOM     90  O   UNL A   1      47.571  34.476  25.421  1.00  0.00    -0.237 OA
ATOM     91  O   UNL A   1      45.248  34.323  24.586  1.00  0.00    -0.237 OA
ATOM     92  O   UNL A   1      45.764  35.730  26.539  1.00  0.00    -0.744 OA
ENDBRANCH  88  89
ENDBRANCH  56  81
ENDBRANCH  30  31
ENDBRANCH  23  25
ENDBRANCH  22  23
ENDBRANCH   1  22
TORSDOF 15
ENDMDL
