MODEL 1
REMARK VINA RESULT:     -11.6      0.000      0.000
REMARK SMILES COc1ccc(CCN2C(=O)CC[C@@H](C(=O)OCCOC(=O)c3ccc(-c4c5nc(c(-c6c(F)cc(S(=O)(=O)[O-])cc6F)c6ccc([nH]6)c(-c6c(F)cc(S(=O)(=O)[O-])cc6F)c6nc(c(-c7c(F)cc(S(=O)(=O)[O-])cc7F)c7ccc4[nH]7)C=C6)C=C5)cc3)[C@@H]2c2ccc(Cl)cc2)cc1OC
REMARK SMILES IDX 18 1 17 2 15 3 16 4 14 5 9 6 10 7 89 8 11 9 12 10 13 11 8 12
REMARK SMILES IDX 7 13 6 14 3 15 4 16 98 17 5 18 97 19 2 20 1 21 99 22 100 23
REMARK SMILES IDX 90 24 91 25 96 26 92 27 95 28 93 29 94 30 19 31 20 32 21 33
REMARK SMILES IDX 22 34 23 35 24 36 88 37 25 38 87 39 26 40 27 41 28 42 81 43
REMARK SMILES IDX 29 44 86 45 80 46 82 47 30 48 85 49 79 50 78 51 31 53 65 54
REMARK SMILES IDX 44 55 64 56 45 57 48 58 63 59 83 60 46 61 47 62 62 64 84 65
REMARK SMILES IDX 49 66 32 67 33 68 42 69 34 70 35 71 41 72 43 73 36 74 37 75
REMARK SMILES IDX 38 76 39 77 40 78 66 79 67 80 76 81 68 82 69 83 75 84 77 85
REMARK SMILES IDX 70 86 71 87 72 88 73 89 74 90 50 91 51 92 60 93 52 94 53 95
REMARK SMILES IDX 59 96 61 97 54 98 55 99 56 100 57 101 58 102
REMARK H PARENT 82 52 48 63
REMARK Flexibility Score: inf
ROOT
ATOM      1  C   UNL A   1      31.858  27.650  26.891  1.00  0.00     0.274 C 
ENDROOT
BRANCH   1   2
ATOM      2  O   UNL A   1      31.426  27.396  25.540  1.00  0.00    -0.462 OA
BRANCH   2   3
ATOM      3  C   UNL A   1      31.679  26.162  25.034  1.00  0.00     0.311 C 
ATOM      4  O   UNL A   1      30.818  25.411  24.590  1.00  0.00    -0.252 OA
BRANCH   3   5
ATOM      5  C   UNL A   1      33.162  25.792  25.032  1.00  0.00     0.127 C 
ATOM      6  N   UNL A   1      33.251  24.584  22.863  1.00  0.00    -0.334 N 
ATOM      7  C   UNL A   1      33.452  25.771  22.164  1.00  0.00     0.223 C 
ATOM      8  C   UNL A   1      33.487  24.487  24.305  1.00  0.00     0.129 C 
ATOM      9  O   UNL A   1      33.364  25.826  20.935  1.00  0.00    -0.275 OA
ATOM     10  C   UNL A   1      33.716  27.054  22.944  1.00  0.00     0.101 C 
ATOM     11  C   UNL A   1      33.985  26.921  24.430  1.00  0.00     0.028 C 
BRANCH   6  12
ATOM     12  C   UNL A   1      32.815  23.405  22.088  1.00  0.00     0.125 C 
BRANCH  12  13
ATOM     13  C   UNL A   1      31.697  22.480  22.621  1.00  0.00     0.057 C 
BRANCH  13  14
ATOM     14  C   UNL A   1      32.139  21.144  23.181  1.00  0.00    -0.042 A 
ATOM     15  C   UNL A   1      33.004  18.644  24.220  1.00  0.00     0.160 A 
ATOM     16  C   UNL A   1      32.505  18.750  22.922  1.00  0.00     0.051 A 
ATOM     17  C   UNL A   1      32.997  19.790  25.031  1.00  0.00     0.160 A 
ATOM     18  C   UNL A   1      32.049  19.974  22.423  1.00  0.00     0.008 A 
ATOM     19  C   UNL A   1      32.609  21.032  24.496  1.00  0.00     0.054 A 
BRANCH  15  20
ATOM     20  O   UNL A   1      33.537  17.493  24.736  1.00  0.00    -0.493 OA
ATOM     21  C   UNL A   1      34.852  17.131  24.333  1.00  0.00     0.278 C 
ENDBRANCH  15  20
BRANCH  17  22
ATOM     22  O   UNL A   1      33.369  19.845  26.354  1.00  0.00    -0.493 OA
ATOM     23  C   UNL A   1      33.639  21.151  26.858  1.00  0.00     0.278 C 
ENDBRANCH  17  22
ENDBRANCH  13  14
ENDBRANCH  12  13
ENDBRANCH   6  12
BRANCH   8  24
ATOM     24  C   UNL A   1      34.893  23.965  24.642  1.00  0.00    -0.024 A 
ATOM     25  C   UNL A   1      35.713  23.325  23.697  1.00  0.00     0.007 A 
ATOM     26  C   UNL A   1      35.386  24.115  25.953  1.00  0.00     0.007 A 
ATOM     27  C   UNL A   1      36.973  22.834  24.051  1.00  0.00     0.021 A 
ATOM     28  C   UNL A   1      36.649  23.626  26.307  1.00  0.00     0.021 A 
ATOM     29  C   UNL A   1      37.433  22.982  25.355  1.00  0.00     0.041 A 
ATOM     30  Cl  UNL A   1      38.975  22.354  25.793  1.00  0.00    -0.084 Cl
ENDBRANCH   8  24
ENDBRANCH   3   5
ENDBRANCH   2   3
ENDBRANCH   1   2
BRANCH   1  31
ATOM     31  C   UNL A   1      32.553  29.007  27.038  1.00  0.00     0.275 C 
BRANCH  31  32
ATOM     32  O   UNL A   1      33.865  28.897  27.618  1.00  0.00    -0.458 OA
BRANCH  32  33
ATOM     33  C   UNL A   1      34.431  30.075  27.965  1.00  0.00     0.338 C 
ATOM     34  O   UNL A   1      33.883  31.153  28.118  1.00  0.00    -0.246 OA
BRANCH  33  35
ATOM     35  C   UNL A   1      35.841  29.879  28.307  1.00  0.00     0.060 A 
ATOM     36  C   UNL A   1      36.769  30.057  27.280  1.00  0.00     0.016 A 
ATOM     37  C   UNL A   1      36.242  29.429  29.563  1.00  0.00     0.016 A 
ATOM     38  C   UNL A   1      38.105  29.774  27.488  1.00  0.00     0.010 A 
ATOM     39  C   UNL A   1      37.595  29.157  29.781  1.00  0.00     0.010 A 
ATOM     40  C   UNL A   1      38.526  29.324  28.742  1.00  0.00    -0.014 A 
BRANCH  40  41
ATOM     41  C   UNL A   1      39.958  29.036  28.939  1.00  0.00     0.031 A 
ATOM     42  C   UNL A   1      40.862  30.093  29.490  1.00  0.00     0.074 A 
ATOM     43  C   UNL A   1      40.406  27.798  28.663  1.00  0.00     0.049 A 
ATOM     44  N   UNL A   1      42.155  30.061  29.662  1.00  0.00    -0.248 NA
ATOM     45  C   UNL A   1      40.228  31.357  29.903  1.00  0.00     0.031 C 
ATOM     46  C   UNL A   1      39.574  26.689  28.184  1.00  0.00     0.029 A 
ATOM     47  N   UNL A   1      41.661  27.261  28.749  1.00  0.00    -0.354 N 
ATOM     48  C   UNL A   1      42.498  31.304  30.177  1.00  0.00     0.074 A 
ATOM     49  C   UNL A   1      41.277  32.071  30.288  1.00  0.00     0.031 C 
ATOM     50  C   UNL A   1      40.345  25.603  28.020  1.00  0.00     0.029 A 
ATOM     51  C   UNL A   1      41.726  25.955  28.327  1.00  0.00     0.049 A 
ATOM     52  H   UNL A   1      42.442  27.761  29.081  1.00  0.00     0.167 HD
ATOM     53  C   UNL A   1      43.729  31.754  30.516  1.00  0.00     0.037 A 
ATOM     54  C   UNL A   1      42.790  25.148  28.170  1.00  0.00     0.037 A 
ATOM     55  C   UNL A   1      44.925  30.961  30.401  1.00  0.00     0.049 A 
ATOM     56  C   UNL A   1      44.150  25.688  28.509  1.00  0.00     0.074 A 
ATOM     57  C   UNL A   1      46.228  31.313  30.704  1.00  0.00     0.029 A 
ATOM     58  N   UNL A   1      44.960  29.649  29.944  1.00  0.00    -0.354 N 
ATOM     59  N   UNL A   1      44.470  26.877  28.966  1.00  0.00    -0.248 NA
ATOM     60  C   UNL A   1      45.291  24.790  28.305  1.00  0.00     0.031 C 
ATOM     61  C   UNL A   1      47.054  30.225  30.398  1.00  0.00     0.029 A 
ATOM     62  C   UNL A   1      46.262  29.181  29.943  1.00  0.00     0.049 A 
ATOM     63  H   UNL A   1      44.172  29.128  29.664  1.00  0.00     0.167 HD
ATOM     64  C   UNL A   1      45.850  26.868  29.113  1.00  0.00     0.074 A 
ATOM     65  C   UNL A   1      46.301  25.549  28.712  1.00  0.00     0.031 C 
ATOM     66  C   UNL A   1      46.673  27.859  29.536  1.00  0.00     0.037 A 
BRANCH  53  67
ATOM     67  C   UNL A   1      43.842  33.174  30.994  1.00  0.00     0.058 A 
ATOM     68  C   UNL A   1      43.900  34.256  30.102  1.00  0.00     0.135 A 
ATOM     69  C   UNL A   1      43.884  33.457  32.369  1.00  0.00     0.135 A 
ATOM     70  F   UNL A   1      43.886  34.041  28.777  1.00  0.00    -0.206 F 
ATOM     71  C   UNL A   1      44.019  35.567  30.555  1.00  0.00     0.059 A 
ATOM     72  C   UNL A   1      43.982  34.760  32.846  1.00  0.00     0.059 A 
ATOM     73  F   UNL A   1      43.841  32.458  33.264  1.00  0.00    -0.206 F 
ATOM     74  C   UNL A   1      44.064  35.809  31.930  1.00  0.00     0.060 A 
BRANCH  74  75
ATOM     75  S   UNL A   1      44.233  37.511  32.506  1.00  0.00     0.124 S 
ATOM     76  O   UNL A   1      43.317  37.524  33.644  1.00  0.00    -0.237 OA
ATOM     77  O   UNL A   1      45.652  37.594  32.836  1.00  0.00    -0.237 OA
ATOM     78  O   UNL A   1      43.812  38.303  31.354  1.00  0.00    -0.744 OA
ENDBRANCH  74  75
ENDBRANCH  53  67
BRANCH  54  79
ATOM     79  C   UNL A   1      42.602  23.775  27.637  1.00  0.00     0.058 A 
ATOM     80  C   UNL A   1      42.681  23.513  26.262  1.00  0.00     0.135 A 
ATOM     81  C   UNL A   1      42.385  22.688  28.499  1.00  0.00     0.135 A 
ATOM     82  F   UNL A   1      42.883  24.519  25.398  1.00  0.00    -0.206 F 
ATOM     83  C   UNL A   1      42.547  22.222  25.759  1.00  0.00     0.059 A 
ATOM     84  C   UNL A   1      42.273  21.386  28.023  1.00  0.00     0.059 A 
ATOM     85  F   UNL A   1      42.319  22.885  29.825  1.00  0.00    -0.206 F 
ATOM     86  C   UNL A   1      42.348  21.164  26.649  1.00  0.00     0.060 A 
BRANCH  86  87
ATOM     87  S   UNL A   1      42.239  19.484  25.996  1.00  0.00     0.124 S 
ATOM     88  O   UNL A   1      43.105  19.570  24.826  1.00  0.00    -0.237 OA
ATOM     89  O   UNL A   1      42.747  18.686  27.108  1.00  0.00    -0.237 OA
ATOM     90  O   UNL A   1      40.814  19.324  25.720  1.00  0.00    -0.744 OA
ENDBRANCH  86  87
ENDBRANCH  54  79
BRANCH  66  91
ATOM     91  C   UNL A   1      48.137  27.541  29.604  1.00  0.00     0.058 A 
ATOM     92  C   UNL A   1      48.998  27.834  28.536  1.00  0.00     0.135 A 
ATOM     93  C   UNL A   1      48.688  26.983  30.767  1.00  0.00     0.135 A 
ATOM     94  F   UNL A   1      48.512  28.360  27.400  1.00  0.00    -0.206 F 
ATOM     95  C   UNL A   1      50.359  27.567  28.612  1.00  0.00     0.059 A 
ATOM     96  C   UNL A   1      50.050  26.729  30.873  1.00  0.00     0.059 A 
ATOM     97  F   UNL A   1      47.903  26.694  31.817  1.00  0.00    -0.206 F 
ATOM     98  C   UNL A   1      50.876  27.014  29.786  1.00  0.00     0.060 A 
BRANCH  98  99
ATOM     99  S   UNL A   1      52.652  26.709  29.891  1.00  0.00     0.124 S 
ATOM    100  O   UNL A   1      52.936  26.176  28.562  1.00  0.00    -0.237 OA
ATOM    101  O   UNL A   1      53.185  28.039  30.168  1.00  0.00    -0.237 OA
ATOM    102  O   UNL A   1      52.766  25.754  30.989  1.00  0.00    -0.744 OA
ENDBRANCH  98  99
ENDBRANCH  66  91
ENDBRANCH  40  41
ENDBRANCH  33  35
ENDBRANCH  32  33
ENDBRANCH  31  32
ENDBRANCH   1  31
TORSDOF 20
ENDMDL
MODEL 2
REMARK VINA RESULT:     -11.4      4.963     10.467
REMARK SMILES COc1ccc(CCN2C(=O)CC[C@@H](C(=O)OCCOC(=O)c3ccc(-c4c5nc(c(-c6c(F)cc(S(=O)(=O)[O-])cc6F)c6ccc([nH]6)c(-c6c(F)cc(S(=O)(=O)[O-])cc6F)c6nc(c(-c7c(F)cc(S(=O)(=O)[O-])cc7F)c7ccc4[nH]7)C=C6)C=C5)cc3)[C@@H]2c2ccc(Cl)cc2)cc1OC
REMARK SMILES IDX 18 1 17 2 15 3 16 4 14 5 9 6 10 7 89 8 11 9 12 10 13 11 8 12
REMARK SMILES IDX 7 13 6 14 3 15 4 16 98 17 5 18 97 19 2 20 1 21 99 22 100 23
REMARK SMILES IDX 90 24 91 25 96 26 92 27 95 28 93 29 94 30 19 31 20 32 21 33
REMARK SMILES IDX 22 34 23 35 24 36 88 37 25 38 87 39 26 40 27 41 28 42 81 43
REMARK SMILES IDX 29 44 86 45 80 46 82 47 30 48 85 49 79 50 78 51 31 53 65 54
REMARK SMILES IDX 44 55 64 56 45 57 48 58 63 59 83 60 46 61 47 62 62 64 84 65
REMARK SMILES IDX 49 66 32 67 33 68 42 69 34 70 35 71 41 72 43 73 36 74 37 75
REMARK SMILES IDX 38 76 39 77 40 78 66 79 67 80 76 81 68 82 69 83 75 84 77 85
REMARK SMILES IDX 70 86 71 87 72 88 73 89 74 90 50 91 51 92 60 93 52 94 53 95
REMARK SMILES IDX 59 96 61 97 54 98 55 99 56 100 57 101 58 102
REMARK H PARENT 82 52 48 63
REMARK Flexibility Score: inf
ROOT
ATOM      1  C   UNL A   1      38.075  22.993  26.005  1.00  0.00     0.274 C 
ENDROOT
BRANCH   1   2
ATOM      2  O   UNL A   1      37.507  22.403  24.819  1.00  0.00    -0.462 OA
BRANCH   2   3
ATOM      3  C   UNL A   1      36.593  23.142  24.140  1.00  0.00     0.311 C 
ATOM      4  O   UNL A   1      36.574  23.259  22.920  1.00  0.00    -0.252 OA
BRANCH   3   5
ATOM      5  C   UNL A   1      35.549  23.802  25.039  1.00  0.00     0.127 C 
ATOM      6  N   UNL A   1      33.592  23.663  23.514  1.00  0.00    -0.334 N 
ATOM      7  C   UNL A   1      33.290  22.377  23.953  1.00  0.00     0.223 C 
ATOM      8  C   UNL A   1      34.455  24.560  24.286  1.00  0.00     0.129 C 
ATOM      9  O   UNL A   1      32.475  21.662  23.364  1.00  0.00    -0.275 OA
ATOM     10  C   UNL A   1      34.042  21.808  25.151  1.00  0.00     0.101 C 
ATOM     11  C   UNL A   1      34.906  22.765  25.948  1.00  0.00     0.028 C 
BRANCH   6  12
ATOM     12  C   UNL A   1      32.981  24.108  22.245  1.00  0.00     0.125 C 
BRANCH  12  13
ATOM     13  C   UNL A   1      33.316  25.496  21.654  1.00  0.00     0.057 C 
BRANCH  13  14
ATOM     14  C   UNL A   1      32.496  26.662  22.169  1.00  0.00    -0.042 A 
ATOM     15  C   UNL A   1      30.950  28.859  23.097  1.00  0.00     0.160 A 
ATOM     16  C   UNL A   1      32.317  28.993  22.854  1.00  0.00     0.051 A 
ATOM     17  C   UNL A   1      30.368  27.589  22.946  1.00  0.00     0.160 A 
ATOM     18  C   UNL A   1      33.083  27.903  22.429  1.00  0.00     0.008 A 
ATOM     19  C   UNL A   1      31.130  26.518  22.445  1.00  0.00     0.054 A 
BRANCH  15  20
ATOM     20  O   UNL A   1      30.134  29.905  23.438  1.00  0.00    -0.493 OA
ATOM     21  C   UNL A   1      29.308  30.460  22.422  1.00  0.00     0.278 C 
ENDBRANCH  15  20
BRANCH  17  22
ATOM     22  O   UNL A   1      29.062  27.262  23.225  1.00  0.00    -0.493 OA
ATOM     23  C   UNL A   1      28.886  26.174  24.129  1.00  0.00     0.278 C 
ENDBRANCH  17  22
ENDBRANCH  13  14
ENDBRANCH  12  13
ENDBRANCH   6  12
BRANCH   8  24
ATOM     24  C   UNL A   1      33.661  25.504  25.203  1.00  0.00    -0.024 A 
ATOM     25  C   UNL A   1      32.361  25.212  25.650  1.00  0.00     0.007 A 
ATOM     26  C   UNL A   1      34.243  26.721  25.607  1.00  0.00     0.007 A 
ATOM     27  C   UNL A   1      31.658  26.113  26.456  1.00  0.00     0.021 A 
ATOM     28  C   UNL A   1      33.540  27.621  26.416  1.00  0.00     0.021 A 
ATOM     29  C   UNL A   1      32.248  27.315  26.832  1.00  0.00     0.041 A 
ATOM     30  Cl  UNL A   1      31.371  28.430  27.804  1.00  0.00    -0.084 Cl
ENDBRANCH   8  24
ENDBRANCH   3   5
ENDBRANCH   2   3
ENDBRANCH   1   2
BRANCH   1  31
ATOM     31  C   UNL A   1      39.559  22.655  26.174  1.00  0.00     0.275 C 
BRANCH  31  32
ATOM     32  O   UNL A   1      40.168  23.366  27.266  1.00  0.00    -0.458 OA
BRANCH  32  33
ATOM     33  C   UNL A   1      40.881  24.456  26.905  1.00  0.00     0.338 C 
ATOM     34  O   UNL A   1      41.511  24.632  25.876  1.00  0.00    -0.246 OA
BRANCH  33  35
ATOM     35  C   UNL A   1      40.684  25.537  27.873  1.00  0.00     0.060 A 
ATOM     36  C   UNL A   1      41.764  26.392  28.091  1.00  0.00     0.016 A 
ATOM     37  C   UNL A   1      39.519  25.650  28.628  1.00  0.00     0.016 A 
ATOM     38  C   UNL A   1      41.703  27.360  29.075  1.00  0.00     0.010 A 
ATOM     39  C   UNL A   1      39.447  26.639  29.612  1.00  0.00     0.010 A 
ATOM     40  C   UNL A   1      40.541  27.491  29.839  1.00  0.00    -0.014 A 
BRANCH  40  41
ATOM     41  C   UNL A   1      40.499  28.536  30.877  1.00  0.00     0.031 A 
ATOM     42  C   UNL A   1      41.456  28.486  32.026  1.00  0.00     0.074 A 
ATOM     43  C   UNL A   1      39.623  29.548  30.732  1.00  0.00     0.049 A 
ATOM     44  N   UNL A   1      41.525  29.262  33.073  1.00  0.00    -0.248 NA
ATOM     45  C   UNL A   1      42.472  27.420  31.995  1.00  0.00     0.031 C 
ATOM     46  C   UNL A   1      38.700  29.706  29.604  1.00  0.00     0.029 A 
ATOM     47  N   UNL A   1      39.370  30.632  31.525  1.00  0.00    -0.354 N 
ATOM     48  C   UNL A   1      42.570  28.767  33.841  1.00  0.00     0.074 A 
ATOM     49  C   UNL A   1      43.107  27.621  33.141  1.00  0.00     0.031 C 
ATOM     50  C   UNL A   1      37.981  30.825  29.780  1.00  0.00     0.029 A 
ATOM     51  C   UNL A   1      38.354  31.428  31.054  1.00  0.00     0.049 A 
ATOM     52  H   UNL A   1      39.867  30.825  32.354  1.00  0.00     0.167 HD
ATOM     53  C   UNL A   1      43.027  29.234  35.027  1.00  0.00     0.037 A 
ATOM     54  C   UNL A   1      37.765  32.501  31.612  1.00  0.00     0.037 A 
ATOM     55  C   UNL A   1      42.475  30.385  35.693  1.00  0.00     0.049 A 
ATOM     56  C   UNL A   1      38.260  32.970  32.949  1.00  0.00     0.074 A 
ATOM     57  C   UNL A   1      42.848  30.944  36.901  1.00  0.00     0.029 A 
ATOM     58  N   UNL A   1      41.427  31.153  35.201  1.00  0.00    -0.354 N 
ATOM     59  N   UNL A   1      39.228  32.476  33.685  1.00  0.00    -0.248 NA
ATOM     60  C   UNL A   1      37.581  34.129  33.540  1.00  0.00     0.031 C 
ATOM     61  C   UNL A   1      42.002  32.031  37.156  1.00  0.00     0.029 A 
ATOM     62  C   UNL A   1      41.130  32.173  36.088  1.00  0.00     0.049 A 
ATOM     63  H   UNL A   1      40.965  30.995  34.346  1.00  0.00     0.167 HD
ATOM     64  C   UNL A   1      39.284  33.269  34.823  1.00  0.00     0.074 A 
ATOM     65  C   UNL A   1      38.260  34.286  34.669  1.00  0.00     0.031 C 
ATOM     66  C   UNL A   1      40.101  33.168  35.900  1.00  0.00     0.037 A 
BRANCH  53  67
ATOM     67  C   UNL A   1      44.139  28.473  35.691  1.00  0.00     0.058 A 
ATOM     68  C   UNL A   1      45.489  28.757  35.434  1.00  0.00     0.135 A 
ATOM     69  C   UNL A   1      43.848  27.449  36.607  1.00  0.00     0.135 A 
ATOM     70  F   UNL A   1      45.824  29.710  34.551  1.00  0.00    -0.206 F 
ATOM     71  C   UNL A   1      46.512  28.036  36.045  1.00  0.00     0.059 A 
ATOM     72  C   UNL A   1      44.854  26.729  37.244  1.00  0.00     0.059 A 
ATOM     73  F   UNL A   1      42.573  27.132  36.881  1.00  0.00    -0.206 F 
ATOM     74  C   UNL A   1      46.184  27.020  36.945  1.00  0.00     0.060 A 
BRANCH  74  75
ATOM     75  S   UNL A   1      47.519  26.083  37.720  1.00  0.00     0.124 S 
ATOM     76  O   UNL A   1      47.835  25.112  36.675  1.00  0.00    -0.237 OA
ATOM     77  O   UNL A   1      48.529  27.109  37.956  1.00  0.00    -0.237 OA
ATOM     78  O   UNL A   1      46.896  25.532  38.919  1.00  0.00    -0.744 OA
ENDBRANCH  74  75
ENDBRANCH  53  67
BRANCH  54  79
ATOM     79  C   UNL A   1      36.631  33.164  30.918  1.00  0.00     0.058 A 
ATOM     80  C   UNL A   1      35.314  33.014  31.373  1.00  0.00     0.135 A 
ATOM     81  C   UNL A   1      36.850  33.999  29.810  1.00  0.00     0.135 A 
ATOM     82  F   UNL A   1      35.054  32.224  32.426  1.00  0.00    -0.206 F 
ATOM     83  C   UNL A   1      34.252  33.666  30.754  1.00  0.00     0.059 A 
ATOM     84  C   UNL A   1      35.809  34.680  29.189  1.00  0.00     0.059 A 
ATOM     85  F   UNL A   1      38.096  34.187  29.346  1.00  0.00    -0.206 F 
ATOM     86  C   UNL A   1      34.511  34.500  29.663  1.00  0.00     0.060 A 
BRANCH  86  87
ATOM     87  S   UNL A   1      33.137  35.393  28.903  1.00  0.00     0.124 S 
ATOM     88  O   UNL A   1      32.541  34.356  28.069  1.00  0.00    -0.237 OA
ATOM     89  O   UNL A   1      32.354  35.804  30.066  1.00  0.00    -0.237 OA
ATOM     90  O   UNL A   1      33.799  36.479  28.188  1.00  0.00    -0.744 OA
ENDBRANCH  86  87
ENDBRANCH  54  79
BRANCH  66  91
ATOM     91  C   UNL A   1      39.930  34.194  36.979  1.00  0.00     0.058 A 
ATOM     92  C   UNL A   1      40.478  35.479  36.860  1.00  0.00     0.135 A 
ATOM     93  C   UNL A   1      39.169  33.901  38.121  1.00  0.00     0.135 A 
ATOM     94  F   UNL A   1      41.221  35.801  35.788  1.00  0.00    -0.206 F 
ATOM     95  C   UNL A   1      40.291  36.439  37.847  1.00  0.00     0.059 A 
ATOM     96  C   UNL A   1      38.951  34.852  39.111  1.00  0.00     0.059 A 
ATOM     97  F   UNL A   1      38.619  32.686  38.274  1.00  0.00    -0.206 F 
ATOM     98  C   UNL A   1      39.525  36.115  38.970  1.00  0.00     0.060 A 
BRANCH  98  99
ATOM     99  S   UNL A   1      39.255  37.380  40.228  1.00  0.00     0.124 S 
ATOM    100  O   UNL A   1      40.623  37.791  40.528  1.00  0.00    -0.237 OA
ATOM    101  O   UNL A   1      38.440  38.361  39.518  1.00  0.00    -0.237 OA
ATOM    102  O   UNL A   1      38.567  36.656  41.292  1.00  0.00    -0.744 OA
ENDBRANCH  98  99
ENDBRANCH  66  91
ENDBRANCH  40  41
ENDBRANCH  33  35
ENDBRANCH  32  33
ENDBRANCH  31  32
ENDBRANCH   1  31
TORSDOF 20
ENDMDL
MODEL 3
REMARK VINA RESULT:     -11.4      2.306      3.190
REMARK SMILES COc1ccc(CCN2C(=O)CC[C@@H](C(=O)OCCOC(=O)c3ccc(-c4c5nc(c(-c6c(F)cc(S(=O)(=O)[O-])cc6F)c6ccc([nH]6)c(-c6c(F)cc(S(=O)(=O)[O-])cc6F)c6nc(c(-c7c(F)cc(S(=O)(=O)[O-])cc7F)c7ccc4[nH]7)C=C6)C=C5)cc3)[C@@H]2c2ccc(Cl)cc2)cc1OC
REMARK SMILES IDX 18 1 17 2 15 3 16 4 14 5 9 6 10 7 89 8 11 9 12 10 13 11 8 12
REMARK SMILES IDX 7 13 6 14 3 15 4 16 98 17 5 18 97 19 2 20 1 21 99 22 100 23
REMARK SMILES IDX 90 24 91 25 96 26 92 27 95 28 93 29 94 30 19 31 20 32 21 33
REMARK SMILES IDX 22 34 23 35 24 36 88 37 25 38 87 39 26 40 27 41 28 42 81 43
REMARK SMILES IDX 29 44 86 45 80 46 82 47 30 48 85 49 79 50 78 51 31 53 65 54
REMARK SMILES IDX 44 55 64 56 45 57 48 58 63 59 83 60 46 61 47 62 62 64 84 65
REMARK SMILES IDX 49 66 32 67 33 68 42 69 34 70 35 71 41 72 43 73 36 74 37 75
REMARK SMILES IDX 38 76 39 77 40 78 66 79 67 80 76 81 68 82 69 83 75 84 77 85
REMARK SMILES IDX 70 86 71 87 72 88 73 89 74 90 50 91 51 92 60 93 52 94 53 95
REMARK SMILES IDX 59 96 61 97 54 98 55 99 56 100 57 101 58 102
REMARK H PARENT 82 52 48 63
REMARK Flexibility Score: inf
ROOT
ATOM      1  C   UNL A   1      33.227  31.028  27.369  1.00  0.00     0.274 C 
ENDROOT
BRANCH   1   2
ATOM      2  O   UNL A   1      33.485  30.329  26.134  1.00  0.00    -0.462 OA
BRANCH   2   3
ATOM      3  C   UNL A   1      32.821  29.162  25.936  1.00  0.00     0.311 C 
ATOM      4  O   UNL A   1      31.660  28.966  26.276  1.00  0.00    -0.252 OA
BRANCH   3   5
ATOM      5  C   UNL A   1      33.647  28.102  25.209  1.00  0.00     0.127 C 
ATOM      6  N   UNL A   1      31.801  26.906  24.055  1.00  0.00    -0.334 N 
ATOM      7  C   UNL A   1      31.836  27.798  22.987  1.00  0.00     0.223 C 
ATOM      8  C   UNL A   1      32.920  26.775  24.990  1.00  0.00     0.129 C 
ATOM      9  O   UNL A   1      30.945  27.829  22.134  1.00  0.00    -0.275 OA
ATOM     10  C   UNL A   1      32.969  28.815  22.908  1.00  0.00     0.101 C 
ATOM     11  C   UNL A   1      34.128  28.639  23.869  1.00  0.00     0.028 C 
BRANCH   6  12
ATOM     12  C   UNL A   1      30.595  26.064  24.197  1.00  0.00     0.125 C 
BRANCH  12  13
ATOM     13  C   UNL A   1      30.492  25.021  25.333  1.00  0.00     0.057 C 
BRANCH  13  14
ATOM     14  C   UNL A   1      31.209  23.706  25.106  1.00  0.00    -0.042 A 
ATOM     15  C   UNL A   1      32.587  21.258  24.675  1.00  0.00     0.160 A 
ATOM     16  C   UNL A   1      31.935  21.911  23.629  1.00  0.00     0.051 A 
ATOM     17  C   UNL A   1      32.481  21.800  25.966  1.00  0.00     0.160 A 
ATOM     18  C   UNL A   1      31.230  23.099  23.849  1.00  0.00     0.008 A 
ATOM     19  C   UNL A   1      31.834  23.033  26.164  1.00  0.00     0.054 A 
BRANCH  15  20
ATOM     20  O   UNL A   1      33.358  20.138  24.507  1.00  0.00    -0.493 OA
ATOM     21  C   UNL A   1      32.736  18.872  24.689  1.00  0.00     0.278 C 
ENDBRANCH  15  20
BRANCH  17  22
ATOM     22  O   UNL A   1      32.984  21.243  27.118  1.00  0.00    -0.493 OA
ATOM     23  C   UNL A   1      34.296  21.669  27.480  1.00  0.00     0.278 C 
ENDBRANCH  17  22
ENDBRANCH  13  14
ENDBRANCH  12  13
ENDBRANCH   6  12
BRANCH   8  24
ATOM     24  C   UNL A   1      33.883  25.639  24.608  1.00  0.00    -0.024 A 
ATOM     25  C   UNL A   1      33.940  25.094  23.313  1.00  0.00     0.007 A 
ATOM     26  C   UNL A   1      34.736  25.101  25.591  1.00  0.00     0.007 A 
ATOM     27  C   UNL A   1      34.805  24.038  23.014  1.00  0.00     0.021 A 
ATOM     28  C   UNL A   1      35.604  24.045  25.290  1.00  0.00     0.021 A 
ATOM     29  C   UNL A   1      35.630  23.515  24.004  1.00  0.00     0.041 A 
ATOM     30  Cl  UNL A   1      36.676  22.199  23.637  1.00  0.00    -0.084 Cl
ENDBRANCH   8  24
ENDBRANCH   3   5
ENDBRANCH   2   3
ENDBRANCH   1   2
BRANCH   1  31
ATOM     31  C   UNL A   1      34.514  31.443  28.087  1.00  0.00     0.275 C 
BRANCH  31  32
ATOM     32  O   UNL A   1      35.441  30.353  28.235  1.00  0.00    -0.458 OA
BRANCH  32  33
ATOM     33  C   UNL A   1      36.265  30.452  29.302  1.00  0.00     0.338 C 
ATOM     34  O   UNL A   1      35.980  30.786  30.440  1.00  0.00    -0.246 OA
BRANCH  33  35
ATOM     35  C   UNL A   1      37.594  29.936  28.968  1.00  0.00     0.060 A 
ATOM     36  C   UNL A   1      38.477  29.738  30.030  1.00  0.00     0.016 A 
ATOM     37  C   UNL A   1      38.007  29.754  27.651  1.00  0.00     0.016 A 
ATOM     38  C   UNL A   1      39.787  29.371  29.791  1.00  0.00     0.010 A 
ATOM     39  C   UNL A   1      39.327  29.367  27.407  1.00  0.00     0.010 A 
ATOM     40  C   UNL A   1      40.219  29.181  28.476  1.00  0.00    -0.014 A 
BRANCH  40  41
ATOM     41  C   UNL A   1      41.619  28.782  28.249  1.00  0.00     0.031 A 
ATOM     42  C   UNL A   1      42.710  29.802  28.343  1.00  0.00     0.074 A 
ATOM     43  C   UNL A   1      41.886  27.484  28.011  1.00  0.00     0.049 A 
ATOM     44  N   UNL A   1      43.985  29.667  28.102  1.00  0.00    -0.248 NA
ATOM     45  C   UNL A   1      42.314  31.157  28.764  1.00  0.00     0.031 C 
ATOM     46  C   UNL A   1      40.885  26.414  27.969  1.00  0.00     0.029 A 
ATOM     47  N   UNL A   1      43.070  26.845  27.768  1.00  0.00    -0.354 N 
ATOM     48  C   UNL A   1      44.544  30.920  28.313  1.00  0.00     0.074 A 
ATOM     49  C   UNL A   1      43.468  31.806  28.702  1.00  0.00     0.031 C 
ATOM     50  C   UNL A   1      41.500  25.249  27.715  1.00  0.00     0.029 A 
ATOM     51  C   UNL A   1      42.923  25.500  27.523  1.00  0.00     0.049 A 
ATOM     52  H   UNL A   1      43.942  27.302  27.768  1.00  0.00     0.167 HD
ATOM     53  C   UNL A   1      45.841  31.287  28.185  1.00  0.00     0.037 A 
ATOM     54  C   UNL A   1      43.833  24.585  27.146  1.00  0.00     0.037 A 
ATOM     55  C   UNL A   1      46.890  30.377  27.805  1.00  0.00     0.049 A 
ATOM     56  C   UNL A   1      45.257  25.028  26.966  1.00  0.00     0.074 A 
ATOM     57  C   UNL A   1      48.237  30.635  27.634  1.00  0.00     0.029 A 
ATOM     58  N   UNL A   1      46.703  29.026  27.538  1.00  0.00    -0.354 N 
ATOM     59  N   UNL A   1      45.772  26.223  27.137  1.00  0.00    -0.248 NA
ATOM     60  C   UNL A   1      46.220  24.010  26.533  1.00  0.00     0.031 C 
ATOM     61  C   UNL A   1      48.859  29.448  27.229  1.00  0.00     0.029 A 
ATOM     62  C   UNL A   1      47.907  28.441  27.188  1.00  0.00     0.049 A 
ATOM     63  H   UNL A   1      45.840  28.555  27.591  1.00  0.00     0.167 HD
ATOM     64  C   UNL A   1      47.122  26.101  26.842  1.00  0.00     0.074 A 
ATOM     65  C   UNL A   1      47.346  24.710  26.497  1.00  0.00     0.031 C 
ATOM     66  C   UNL A   1      48.091  27.050  26.851  1.00  0.00     0.037 A 
BRANCH  53  67
ATOM     67  C   UNL A   1      46.180  32.733  28.412  1.00  0.00     0.058 A 
ATOM     68  C   UNL A   1      46.146  33.676  27.373  1.00  0.00     0.135 A 
ATOM     69  C   UNL A   1      46.536  33.184  29.694  1.00  0.00     0.135 A 
ATOM     70  F   UNL A   1      45.834  33.295  26.124  1.00  0.00    -0.206 F 
ATOM     71  C   UNL A   1      46.476  35.011  27.592  1.00  0.00     0.059 A 
ATOM     72  C   UNL A   1      46.850  34.517  29.940  1.00  0.00     0.059 A 
ATOM     73  F   UNL A   1      46.593  32.322  30.720  1.00  0.00    -0.206 F 
ATOM     74  C   UNL A   1      46.832  35.421  28.879  1.00  0.00     0.060 A 
BRANCH  74  75
ATOM     75  S   UNL A   1      47.271  37.151  29.147  1.00  0.00     0.124 S 
ATOM     76  O   UNL A   1      48.386  37.026  30.081  1.00  0.00    -0.237 OA
ATOM     77  O   UNL A   1      47.619  37.600  27.803  1.00  0.00    -0.237 OA
ATOM     78  O   UNL A   1      46.051  37.730  29.701  1.00  0.00    -0.744 OA
ENDBRANCH  74  75
ENDBRANCH  53  67
BRANCH  54  79
ATOM     79  C   UNL A   1      43.408  23.186  26.885  1.00  0.00     0.058 A 
ATOM     80  C   UNL A   1      43.365  22.672  25.582  1.00  0.00     0.135 A 
ATOM     81  C   UNL A   1      43.080  22.321  27.942  1.00  0.00     0.135 A 
ATOM     82  F   UNL A   1      43.666  23.460  24.539  1.00  0.00    -0.206 F 
ATOM     83  C   UNL A   1      43.008  21.350  25.333  1.00  0.00     0.059 A 
ATOM     84  C   UNL A   1      42.744  20.990  27.721  1.00  0.00     0.059 A 
ATOM     85  F   UNL A   1      43.122  22.762  29.209  1.00  0.00    -0.206 F 
ATOM     86  C   UNL A   1      42.703  20.515  26.411  1.00  0.00     0.060 A 
BRANCH  86  87
ATOM     87  S   UNL A   1      42.302  18.784  26.087  1.00  0.00     0.124 S 
ATOM     88  O   UNL A   1      40.904  18.879  25.683  1.00  0.00    -0.237 OA
ATOM     89  O   UNL A   1      43.249  18.440  25.030  1.00  0.00    -0.237 OA
ATOM     90  O   UNL A   1      42.548  18.138  27.373  1.00  0.00    -0.744 OA
ENDBRANCH  86  87
ENDBRANCH  54  79
BRANCH  66  91
ATOM     91  C   UNL A   1      49.478  26.605  26.495  1.00  0.00     0.058 A 
ATOM     92  C   UNL A   1      50.317  26.000  27.442  1.00  0.00     0.135 A 
ATOM     93  C   UNL A   1      49.951  26.743  25.181  1.00  0.00     0.135 A 
ATOM     94  F   UNL A   1      49.909  25.856  28.713  1.00  0.00    -0.206 F 
ATOM     95  C   UNL A   1      51.590  25.560  27.102  1.00  0.00     0.059 A 
ATOM     96  C   UNL A   1      51.213  26.290  24.814  1.00  0.00     0.059 A 
ATOM     97  F   UNL A   1      49.180  27.309  24.240  1.00  0.00    -0.206 F 
ATOM     98  C   UNL A   1      52.029  25.709  25.785  1.00  0.00     0.060 A 
BRANCH  98  99
ATOM     99  S   UNL A   1      53.669  25.098  25.344  1.00  0.00     0.124 S 
ATOM    100  O   UNL A   1      54.473  25.585  26.460  1.00  0.00    -0.237 OA
ATOM    101  O   UNL A   1      53.464  23.654  25.292  1.00  0.00    -0.237 OA
ATOM    102  O   UNL A   1      53.931  25.733  24.056  1.00  0.00    -0.744 OA
ENDBRANCH  98  99
ENDBRANCH  66  91
ENDBRANCH  40  41
ENDBRANCH  33  35
ENDBRANCH  32  33
ENDBRANCH  31  32
ENDBRANCH   1  31
TORSDOF 20
ENDMDL
