MODEL 1
REMARK VINA RESULT:     -11.2      0.000      0.000
REMARK SMILES Cc1ccc(OCC(=O)Oc2ccc(C(=O)OCCOC(=O)c3ccc(-c4c5nc(c(-c6c(F)cc(S(=O)(=O)[O-])cc6F)c6ccc([nH]6)c(-c6c(F)cc(S(=O)(=O)[O-])cc6F)c6nc(c(-c7c(F)cc(S(=O)(=O)[O-])cc7F)c7ccc4[nH]7)C=C6)C=C5)cc3)cc2)cc1C
REMARK SMILES IDX 18 1 17 2 15 3 16 4 14 5 11 6 12 7 90 8 13 9 89 10 10 11
REMARK SMILES IDX 8 12 9 13 7 14 6 15 5 16 1 17 2 18 3 19 92 20 4 21 91 22
REMARK SMILES IDX 93 23 19 24 20 25 21 26 22 27 23 28 24 29 88 30 25 31 87 32
REMARK SMILES IDX 26 33 27 34 28 35 81 36 29 37 86 38 80 39 82 40 30 41 85 42
REMARK SMILES IDX 79 43 78 44 31 46 65 47 44 48 64 49 45 50 48 51 63 52 83 53
REMARK SMILES IDX 46 54 47 55 62 57 84 58 49 59 32 60 33 61 42 62 34 63 35 64
REMARK SMILES IDX 41 65 43 66 36 67 37 68 38 69 39 70 40 71 66 72 67 73 76 74
REMARK SMILES IDX 68 75 69 76 75 77 77 78 70 79 71 80 72 81 73 82 74 83 50 84
REMARK SMILES IDX 51 85 60 86 52 87 53 88 59 89 61 90 54 91 55 92 56 93 57 94
REMARK SMILES IDX 58 95
REMARK H PARENT 82 45 48 56
REMARK Flexibility Score: inf
ROOT
ATOM      1  C   UNL A   1      38.062  22.823  26.102  1.00  0.00     0.275 C 
ENDROOT
BRANCH   1   2
ATOM      2  O   UNL A   1      37.353  21.925  25.222  1.00  0.00    -0.458 OA
BRANCH   2   3
ATOM      3  C   UNL A   1      36.509  22.514  24.337  1.00  0.00     0.338 C 
ATOM      4  O   UNL A   1      36.828  23.081  23.309  1.00  0.00    -0.246 OA
BRANCH   3   5
ATOM      5  C   UNL A   1      35.091  22.326  24.741  1.00  0.00     0.060 A 
ATOM      6  C   UNL A   1      32.392  22.138  25.421  1.00  0.00     0.131 A 
ATOM      7  C   UNL A   1      32.750  22.279  24.085  1.00  0.00     0.048 A 
ATOM      8  C   UNL A   1      33.365  22.038  26.417  1.00  0.00     0.048 A 
ATOM      9  C   UNL A   1      34.096  22.410  23.754  1.00  0.00     0.019 A 
ATOM     10  C   UNL A   1      34.721  22.131  26.076  1.00  0.00     0.019 A 
BRANCH   6  11
ATOM     11  O   UNL A   1      31.016  22.109  25.676  1.00  0.00    -0.424 OA
BRANCH  11  12
ATOM     12  C   UNL A   1      30.544  23.038  26.595  1.00  0.00     0.349 C 
ATOM     13  O   UNL A   1      30.174  22.814  27.742  1.00  0.00    -0.248 OA
BRANCH  12  14
ATOM     14  C   UNL A   1      30.530  24.427  25.966  1.00  0.00     0.352 C 
BRANCH  14  15
ATOM     15  O   UNL A   1      31.312  25.429  26.596  1.00  0.00    -0.482 OA
BRANCH  15  16
ATOM     16  C   UNL A   1      31.991  26.317  25.807  1.00  0.00     0.120 A 
ATOM     17  C   UNL A   1      34.356  28.758  23.123  1.00  0.00     0.044 C 
ATOM     18  C   UNL A   1      33.512  27.891  24.015  1.00  0.00    -0.048 A 
ATOM     19  C   UNL A   1      33.098  28.395  25.257  1.00  0.00     0.007 A 
ATOM     20  C   UNL A   1      33.130  26.588  23.652  1.00  0.00    -0.045 A 
ATOM     21  C   UNL A   1      32.336  27.622  26.139  1.00  0.00     0.047 A 
ATOM     22  C   UNL A   1      32.383  25.814  24.562  1.00  0.00     0.050 A 
ATOM     23  C   UNL A   1      33.484  25.968  22.327  1.00  0.00     0.045 C 
ENDBRANCH  15  16
ENDBRANCH  14  15
ENDBRANCH  12  14
ENDBRANCH  11  12
ENDBRANCH   6  11
ENDBRANCH   3   5
ENDBRANCH   2   3
ENDBRANCH   1   2
BRANCH   1  24
ATOM     24  C   UNL A   1      39.481  22.330  26.395  1.00  0.00     0.275 C 
BRANCH  24  25
ATOM     25  O   UNL A   1      40.112  23.139  27.404  1.00  0.00    -0.458 OA
BRANCH  25  26
ATOM     26  C   UNL A   1      40.792  24.208  26.931  1.00  0.00     0.338 C 
ATOM     27  O   UNL A   1      41.484  24.260  25.927  1.00  0.00    -0.246 OA
BRANCH  26  28
ATOM     28  C   UNL A   1      40.517  25.393  27.754  1.00  0.00     0.060 A 
ATOM     29  C   UNL A   1      41.461  26.412  27.744  1.00  0.00     0.016 A 
ATOM     30  C   UNL A   1      39.469  25.423  28.669  1.00  0.00     0.016 A 
ATOM     31  C   UNL A   1      41.448  27.395  28.726  1.00  0.00     0.010 A 
ATOM     32  C   UNL A   1      39.384  26.488  29.578  1.00  0.00     0.010 A 
ATOM     33  C   UNL A   1      40.395  27.465  29.648  1.00  0.00    -0.014 A 
BRANCH  33  34
ATOM     34  C   UNL A   1      40.376  28.545  30.680  1.00  0.00     0.031 A 
ATOM     35  C   UNL A   1      41.335  28.509  31.846  1.00  0.00     0.074 A 
ATOM     36  C   UNL A   1      39.508  29.574  30.568  1.00  0.00     0.049 A 
ATOM     37  N   UNL A   1      41.360  29.257  32.921  1.00  0.00    -0.248 NA
ATOM     38  C   UNL A   1      42.395  27.488  31.807  1.00  0.00     0.031 C 
ATOM     39  C   UNL A   1      38.553  29.762  29.472  1.00  0.00     0.029 A 
ATOM     40  N   UNL A   1      39.288  30.661  31.379  1.00  0.00    -0.354 N 
ATOM     41  C   UNL A   1      42.397  28.764  33.708  1.00  0.00     0.074 A 
ATOM     42  C   UNL A   1      42.969  27.644  32.992  1.00  0.00     0.031 C 
ATOM     43  C   UNL A   1      37.887  30.910  29.655  1.00  0.00     0.029 A 
ATOM     44  C   UNL A   1      38.281  31.486  30.932  1.00  0.00     0.049 A 
ATOM     45  H   UNL A   1      39.801  30.833  32.201  1.00  0.00     0.167 HD
ATOM     46  C   UNL A   1      42.831  29.208  34.914  1.00  0.00     0.037 A 
ATOM     47  C   UNL A   1      37.695  32.556  31.504  1.00  0.00     0.037 A 
ATOM     48  C   UNL A   1      42.283  30.354  35.595  1.00  0.00     0.049 A 
ATOM     49  C   UNL A   1      38.159  32.999  32.862  1.00  0.00     0.074 A 
ATOM     50  C   UNL A   1      42.665  30.897  36.809  1.00  0.00     0.029 A 
ATOM     51  N   UNL A   1      41.242  31.140  35.118  1.00  0.00    -0.354 N 
ATOM     52  N   UNL A   1      39.114  32.499  33.609  1.00  0.00    -0.248 NA
ATOM     53  C   UNL A   1      37.458  34.141  33.464  1.00  0.00     0.031 C 
ATOM     54  C   UNL A   1      41.822  31.978  37.092  1.00  0.00     0.029 A 
ATOM     55  C   UNL A   1      40.955  32.149  36.025  1.00  0.00     0.049 A 
ATOM     56  H   UNL A   1      40.777  31.003  34.262  1.00  0.00     0.167 HD
ATOM     57  C   UNL A   1      39.141  33.276  34.760  1.00  0.00     0.074 A 
ATOM     58  C   UNL A   1      38.120  34.291  34.602  1.00  0.00     0.031 C 
ATOM     59  C   UNL A   1      39.939  33.158  35.851  1.00  0.00     0.037 A 
BRANCH  46  60
ATOM     60  C   UNL A   1      43.929  28.434  35.598  1.00  0.00     0.058 A 
ATOM     61  C   UNL A   1      45.289  28.702  35.374  1.00  0.00     0.135 A 
ATOM     62  C   UNL A   1      43.611  27.432  36.532  1.00  0.00     0.135 A 
ATOM     63  F   UNL A   1      45.655  29.638  34.484  1.00  0.00    -0.206 F 
ATOM     64  C   UNL A   1      46.291  27.987  36.025  1.00  0.00     0.059 A 
ATOM     65  C   UNL A   1      44.596  26.726  37.219  1.00  0.00     0.059 A 
ATOM     66  F   UNL A   1      42.328  27.133  36.792  1.00  0.00    -0.206 F 
ATOM     67  C   UNL A   1      45.934  27.000  36.946  1.00  0.00     0.060 A 
BRANCH  67  68
ATOM     68  S   UNL A   1      47.245  26.085  37.784  1.00  0.00     0.124 S 
ATOM     69  O   UNL A   1      48.413  26.908  37.485  1.00  0.00    -0.237 OA
ATOM     70  O   UNL A   1      46.798  26.103  39.174  1.00  0.00    -0.237 OA
ATOM     71  O   UNL A   1      47.218  24.777  37.138  1.00  0.00    -0.744 OA
ENDBRANCH  67  68
ENDBRANCH  46  60
BRANCH  47  72
ATOM     72  C   UNL A   1      36.574  33.249  30.810  1.00  0.00     0.058 A 
ATOM     73  C   UNL A   1      35.252  33.122  31.261  1.00  0.00     0.135 A 
ATOM     74  C   UNL A   1      36.805  34.068  29.692  1.00  0.00     0.135 A 
ATOM     75  F   UNL A   1      34.977  32.343  32.317  1.00  0.00    -0.206 F 
ATOM     76  C   UNL A   1      34.200  33.774  30.626  1.00  0.00     0.059 A 
ATOM     77  C   UNL A   1      35.774  34.758  29.062  1.00  0.00     0.059 A 
ATOM     78  F   UNL A   1      38.053  34.234  29.226  1.00  0.00    -0.206 F 
ATOM     79  C   UNL A   1      34.472  34.595  29.530  1.00  0.00     0.060 A 
BRANCH  79  80
ATOM     80  S   UNL A   1      33.105  35.475  28.744  1.00  0.00     0.124 S 
ATOM     81  O   UNL A   1      33.816  36.452  27.927  1.00  0.00    -0.237 OA
ATOM     82  O   UNL A   1      32.430  34.405  28.017  1.00  0.00    -0.237 OA
ATOM     83  O   UNL A   1      32.362  36.020  29.876  1.00  0.00    -0.744 OA
ENDBRANCH  79  80
ENDBRANCH  47  72
BRANCH  59  84
ATOM     84  C   UNL A   1      39.769  34.180  36.941  1.00  0.00     0.058 A 
ATOM     85  C   UNL A   1      39.010  33.916  38.092  1.00  0.00     0.135 A 
ATOM     86  C   UNL A   1      40.407  35.427  36.848  1.00  0.00     0.135 A 
ATOM     87  F   UNL A   1      38.371  32.743  38.227  1.00  0.00    -0.206 F 
ATOM     88  C   UNL A   1      38.868  34.864  39.100  1.00  0.00     0.059 A 
ATOM     89  C   UNL A   1      40.304  36.377  37.858  1.00  0.00     0.059 A 
ATOM     90  F   UNL A   1      41.151  35.728  35.771  1.00  0.00    -0.206 F 
ATOM     91  C   UNL A   1      39.522  36.091  38.975  1.00  0.00     0.060 A 
BRANCH  91  92
ATOM     92  S   UNL A   1      39.355  37.299  40.306  1.00  0.00     0.124 S 
ATOM     93  O   UNL A   1      40.751  37.591  40.615  1.00  0.00    -0.237 OA
ATOM     94  O   UNL A   1      38.611  38.376  39.658  1.00  0.00    -0.237 OA
ATOM     95  O   UNL A   1      38.623  36.572  41.337  1.00  0.00    -0.744 OA
ENDBRANCH  91  92
ENDBRANCH  59  84
ENDBRANCH  33  34
ENDBRANCH  26  28
ENDBRANCH  25  26
ENDBRANCH  24  25
ENDBRANCH   1  24
TORSDOF 19
ENDMDL
MODEL 2
REMARK VINA RESULT:     -11.1      0.885      2.473
REMARK SMILES Cc1ccc(OCC(=O)Oc2ccc(C(=O)OCCOC(=O)c3ccc(-c4c5nc(c(-c6c(F)cc(S(=O)(=O)[O-])cc6F)c6ccc([nH]6)c(-c6c(F)cc(S(=O)(=O)[O-])cc6F)c6nc(c(-c7c(F)cc(S(=O)(=O)[O-])cc7F)c7ccc4[nH]7)C=C6)C=C5)cc3)cc2)cc1C
REMARK SMILES IDX 18 1 17 2 15 3 16 4 14 5 11 6 12 7 90 8 13 9 89 10 10 11
REMARK SMILES IDX 8 12 9 13 7 14 6 15 5 16 1 17 2 18 3 19 92 20 4 21 91 22
REMARK SMILES IDX 93 23 19 24 20 25 21 26 22 27 23 28 24 29 88 30 25 31 87 32
REMARK SMILES IDX 26 33 27 34 28 35 81 36 29 37 86 38 80 39 82 40 30 41 85 42
REMARK SMILES IDX 79 43 78 44 31 46 65 47 44 48 64 49 45 50 48 51 63 52 83 53
REMARK SMILES IDX 46 54 47 55 62 57 84 58 49 59 32 60 33 61 42 62 34 63 35 64
REMARK SMILES IDX 41 65 43 66 36 67 37 68 38 69 39 70 40 71 66 72 67 73 76 74
REMARK SMILES IDX 68 75 69 76 75 77 77 78 70 79 71 80 72 81 73 82 74 83 50 84
REMARK SMILES IDX 51 85 60 86 52 87 53 88 59 89 61 90 54 91 55 92 56 93 57 94
REMARK SMILES IDX 58 95
REMARK H PARENT 82 45 48 56
REMARK Flexibility Score: inf
ROOT
ATOM      1  C   UNL A   1      37.124  23.134  26.062  1.00  0.00     0.275 C 
ENDROOT
BRANCH   1   2
ATOM      2  O   UNL A   1      36.449  22.449  24.986  1.00  0.00    -0.458 OA
BRANCH   2   3
ATOM      3  C   UNL A   1      36.151  23.208  23.900  1.00  0.00     0.338 C 
ATOM      4  O   UNL A   1      36.668  23.126  22.803  1.00  0.00    -0.246 OA
BRANCH   3   5
ATOM      5  C   UNL A   1      35.033  24.143  24.191  1.00  0.00     0.060 A 
ATOM      6  C   UNL A   1      32.976  25.987  24.577  1.00  0.00     0.131 A 
ATOM      7  C   UNL A   1      32.988  25.211  23.424  1.00  0.00     0.048 A 
ATOM      8  C   UNL A   1      33.949  25.819  25.565  1.00  0.00     0.048 A 
ATOM      9  C   UNL A   1      34.037  24.319  23.218  1.00  0.00     0.019 A 
ATOM     10  C   UNL A   1      34.981  24.892  25.372  1.00  0.00     0.019 A 
BRANCH   6  11
ATOM     11  O   UNL A   1      31.939  26.925  24.662  1.00  0.00    -0.424 OA
BRANCH  11  12
ATOM     12  C   UNL A   1      31.201  26.915  25.839  1.00  0.00     0.349 C 
ATOM     13  O   UNL A   1      31.335  27.670  26.797  1.00  0.00    -0.248 OA
BRANCH  12  14
ATOM     14  C   UNL A   1      30.170  25.794  25.795  1.00  0.00     0.352 C 
BRANCH  14  15
ATOM     15  O   UNL A   1      30.352  24.713  26.694  1.00  0.00    -0.482 OA
BRANCH  15  16
ATOM     16  C   UNL A   1      31.067  23.626  26.270  1.00  0.00     0.120 A 
ATOM     17  C   UNL A   1      33.694  20.370  25.148  1.00  0.00     0.044 C 
ATOM     18  C   UNL A   1      32.786  21.486  25.585  1.00  0.00    -0.048 A 
ATOM     19  C   UNL A   1      31.714  21.852  24.758  1.00  0.00     0.007 A 
ATOM     20  C   UNL A   1      32.980  22.183  26.790  1.00  0.00    -0.045 A 
ATOM     21  C   UNL A   1      30.856  22.902  25.101  1.00  0.00     0.047 A 
ATOM     22  C   UNL A   1      32.122  23.254  27.109  1.00  0.00     0.050 A 
ATOM     23  C   UNL A   1      34.072  21.842  27.769  1.00  0.00     0.045 C 
ENDBRANCH  15  16
ENDBRANCH  14  15
ENDBRANCH  12  14
ENDBRANCH  11  12
ENDBRANCH   6  11
ENDBRANCH   3   5
ENDBRANCH   2   3
ENDBRANCH   1   2
BRANCH   1  24
ATOM     24  C   UNL A   1      38.629  23.248  25.810  1.00  0.00     0.275 C 
BRANCH  24  25
ATOM     25  O   UNL A   1      39.306  23.798  26.954  1.00  0.00    -0.458 OA
BRANCH  25  26
ATOM     26  C   UNL A   1      40.185  24.786  26.672  1.00  0.00     0.338 C 
ATOM     27  O   UNL A   1      40.701  25.033  25.594  1.00  0.00    -0.246 OA
BRANCH  26  28
ATOM     28  C   UNL A   1      40.393  25.637  27.851  1.00  0.00     0.060 A 
ATOM     29  C   UNL A   1      39.350  25.735  28.762  1.00  0.00     0.016 A 
ATOM     30  C   UNL A   1      41.495  26.479  27.962  1.00  0.00     0.016 A 
ATOM     31  C   UNL A   1      39.330  26.753  29.706  1.00  0.00     0.010 A 
ATOM     32  C   UNL A   1      41.534  27.424  28.998  1.00  0.00     0.010 A 
ATOM     33  C   UNL A   1      40.433  27.604  29.858  1.00  0.00    -0.014 A 
BRANCH  33  34
ATOM     34  C   UNL A   1      40.413  28.677  30.897  1.00  0.00     0.031 A 
ATOM     35  C   UNL A   1      41.372  28.633  32.063  1.00  0.00     0.074 A 
ATOM     36  C   UNL A   1      39.545  29.705  30.792  1.00  0.00     0.049 A 
ATOM     37  N   UNL A   1      41.398  29.374  33.143  1.00  0.00    -0.248 NA
ATOM     38  C   UNL A   1      42.433  27.613  32.016  1.00  0.00     0.031 C 
ATOM     39  C   UNL A   1      38.590  29.900  29.698  1.00  0.00     0.029 A 
ATOM     40  N   UNL A   1      39.324  30.788  31.610  1.00  0.00    -0.354 N 
ATOM     41  C   UNL A   1      42.436  28.876  33.925  1.00  0.00     0.074 A 
ATOM     42  C   UNL A   1      43.008  27.762  33.202  1.00  0.00     0.031 C 
ATOM     43  C   UNL A   1      37.922  31.047  29.889  1.00  0.00     0.029 A 
ATOM     44  C   UNL A   1      38.317  31.615  31.169  1.00  0.00     0.049 A 
ATOM     45  H   UNL A   1      39.837  30.954  32.434  1.00  0.00     0.167 HD
ATOM     46  C   UNL A   1      42.869  29.312  35.134  1.00  0.00     0.037 A 
ATOM     47  C   UNL A   1      37.731  32.681  31.749  1.00  0.00     0.037 A 
ATOM     48  C   UNL A   1      42.321  30.454  35.823  1.00  0.00     0.049 A 
ATOM     49  C   UNL A   1      38.194  33.115  33.110  1.00  0.00     0.074 A 
ATOM     50  C   UNL A   1      42.703  30.989  37.041  1.00  0.00     0.029 A 
ATOM     51  N   UNL A   1      41.280  31.243  35.352  1.00  0.00    -0.354 N 
ATOM     52  N   UNL A   1      39.150  32.610  33.853  1.00  0.00    -0.248 NA
ATOM     53  C   UNL A   1      37.493  34.252  33.719  1.00  0.00     0.031 C 
ATOM     54  C   UNL A   1      41.859  32.067  37.331  1.00  0.00     0.029 A 
ATOM     55  C   UNL A   1      40.992  32.245  36.266  1.00  0.00     0.049 A 
ATOM     56  H   UNL A   1      40.814  31.110  34.495  1.00  0.00     0.167 HD
ATOM     57  C   UNL A   1      39.177  33.380  35.009  1.00  0.00     0.074 A 
ATOM     58  C   UNL A   1      38.156  34.395  34.858  1.00  0.00     0.031 C 
ATOM     59  C   UNL A   1      39.976  33.255  36.099  1.00  0.00     0.037 A 
BRANCH  46  60
ATOM     60  C   UNL A   1      43.968  28.535  35.813  1.00  0.00     0.058 A 
ATOM     61  C   UNL A   1      45.327  28.831  35.621  1.00  0.00     0.135 A 
ATOM     62  C   UNL A   1      43.651  27.499  36.710  1.00  0.00     0.135 A 
ATOM     63  F   UNL A   1      45.693  29.800  34.767  1.00  0.00    -0.206 F 
ATOM     64  C   UNL A   1      46.329  28.111  36.267  1.00  0.00     0.059 A 
ATOM     65  C   UNL A   1      44.635  26.787  37.391  1.00  0.00     0.059 A 
ATOM     66  F   UNL A   1      42.368  27.172  36.937  1.00  0.00    -0.206 F 
ATOM     67  C   UNL A   1      45.973  27.090  37.150  1.00  0.00     0.060 A 
BRANCH  67  68
ATOM     68  S   UNL A   1      47.284  26.170  37.982  1.00  0.00     0.124 S 
ATOM     69  O   UNL A   1      47.805  25.353  36.890  1.00  0.00    -0.237 OA
ATOM     70  O   UNL A   1      48.165  27.235  38.451  1.00  0.00    -0.237 OA
ATOM     71  O   UNL A   1      46.578  25.438  39.029  1.00  0.00    -0.744 OA
ENDBRANCH  67  68
ENDBRANCH  46  60
BRANCH  47  72
ATOM     72  C   UNL A   1      36.608  33.377  31.060  1.00  0.00     0.058 A 
ATOM     73  C   UNL A   1      36.837  34.193  29.943  1.00  0.00     0.135 A 
ATOM     74  C   UNL A   1      35.280  33.223  31.494  1.00  0.00     0.135 A 
ATOM     75  F   UNL A   1      38.088  34.382  29.496  1.00  0.00    -0.206 F 
ATOM     76  C   UNL A   1      35.794  34.839  29.286  1.00  0.00     0.059 A 
ATOM     77  C   UNL A   1      34.218  33.830  30.833  1.00  0.00     0.059 A 
ATOM     78  F   UNL A   1      35.004  32.444  32.551  1.00  0.00    -0.206 F 
ATOM     79  C   UNL A   1      34.486  34.646  29.736  1.00  0.00     0.060 A 
BRANCH  79  80
ATOM     80  S   UNL A   1      33.136  35.448  28.845  1.00  0.00     0.124 S 
ATOM     81  O   UNL A   1      32.555  34.325  28.118  1.00  0.00    -0.237 OA
ATOM     82  O   UNL A   1      32.329  35.988  29.936  1.00  0.00    -0.237 OA
ATOM     83  O   UNL A   1      33.819  36.445  28.027  1.00  0.00    -0.744 OA
ENDBRANCH  79  80
ENDBRANCH  47  72
BRANCH  59  84
ATOM     84  C   UNL A   1      39.806  34.269  37.196  1.00  0.00     0.058 A 
ATOM     85  C   UNL A   1      38.950  34.045  38.287  1.00  0.00     0.135 A 
ATOM     86  C   UNL A   1      40.538  35.466  37.173  1.00  0.00     0.135 A 
ATOM     87  F   UNL A   1      38.219  32.921  38.353  1.00  0.00    -0.206 F 
ATOM     88  C   UNL A   1      38.809  34.984  39.302  1.00  0.00     0.059 A 
ATOM     89  C   UNL A   1      40.436  36.405  38.193  1.00  0.00     0.059 A 
ATOM     90  F   UNL A   1      41.376  35.727  36.157  1.00  0.00    -0.206 F 
ATOM     91  C   UNL A   1      39.558  36.161  39.248  1.00  0.00     0.060 A 
BRANCH  91  92
ATOM     92  S   UNL A   1      39.388  37.358  40.589  1.00  0.00     0.124 S 
ATOM     93  O   UNL A   1      38.273  38.172  40.116  1.00  0.00    -0.237 OA
ATOM     94  O   UNL A   1      39.105  36.502  41.737  1.00  0.00    -0.237 OA
ATOM     95  O   UNL A   1      40.685  38.025  40.616  1.00  0.00    -0.744 OA
ENDBRANCH  91  92
ENDBRANCH  59  84
ENDBRANCH  33  34
ENDBRANCH  26  28
ENDBRANCH  25  26
ENDBRANCH  24  25
ENDBRANCH   1  24
TORSDOF 19
ENDMDL
MODEL 3
REMARK VINA RESULT:     -11.0      1.456      3.274
REMARK SMILES Cc1ccc(OCC(=O)Oc2ccc(C(=O)OCCOC(=O)c3ccc(-c4c5nc(c(-c6c(F)cc(S(=O)(=O)[O-])cc6F)c6ccc([nH]6)c(-c6c(F)cc(S(=O)(=O)[O-])cc6F)c6nc(c(-c7c(F)cc(S(=O)(=O)[O-])cc7F)c7ccc4[nH]7)C=C6)C=C5)cc3)cc2)cc1C
REMARK SMILES IDX 18 1 17 2 15 3 16 4 14 5 11 6 12 7 90 8 13 9 89 10 10 11
REMARK SMILES IDX 8 12 9 13 7 14 6 15 5 16 1 17 2 18 3 19 92 20 4 21 91 22
REMARK SMILES IDX 93 23 19 24 20 25 21 26 22 27 23 28 24 29 88 30 25 31 87 32
REMARK SMILES IDX 26 33 27 34 28 35 81 36 29 37 86 38 80 39 82 40 30 41 85 42
REMARK SMILES IDX 79 43 78 44 31 46 65 47 44 48 64 49 45 50 48 51 63 52 83 53
REMARK SMILES IDX 46 54 47 55 62 57 84 58 49 59 32 60 33 61 42 62 34 63 35 64
REMARK SMILES IDX 41 65 43 66 36 67 37 68 38 69 39 70 40 71 66 72 67 73 76 74
REMARK SMILES IDX 68 75 69 76 75 77 77 78 70 79 71 80 72 81 73 82 74 83 50 84
REMARK SMILES IDX 51 85 60 86 52 87 53 88 59 89 61 90 54 91 55 92 56 93 57 94
REMARK SMILES IDX 58 95
REMARK H PARENT 82 45 48 56
REMARK Flexibility Score: inf
ROOT
ATOM      1  C   UNL A   1      40.152  21.899  26.899  1.00  0.00     0.275 C 
ENDROOT
BRANCH   1   2
ATOM      2  O   UNL A   1      39.021  22.585  26.323  1.00  0.00    -0.458 OA
BRANCH   2   3
ATOM      3  C   UNL A   1      38.227  21.835  25.516  1.00  0.00     0.338 C 
ATOM      4  O   UNL A   1      38.365  20.651  25.273  1.00  0.00    -0.246 OA
BRANCH   3   5
ATOM      5  C   UNL A   1      37.085  22.632  24.995  1.00  0.00     0.060 A 
ATOM      6  C   UNL A   1      34.842  24.064  24.161  1.00  0.00     0.131 A 
ATOM      7  C   UNL A   1      35.367  24.296  25.427  1.00  0.00     0.048 A 
ATOM      8  C   UNL A   1      35.453  23.164  23.286  1.00  0.00     0.048 A 
ATOM      9  C   UNL A   1      36.463  23.551  25.853  1.00  0.00     0.019 A 
ATOM     10  C   UNL A   1      36.580  22.445  23.703  1.00  0.00     0.019 A 
BRANCH   6  11
ATOM     11  O   UNL A   1      33.683  24.785  23.848  1.00  0.00    -0.424 OA
BRANCH  11  12
ATOM     12  C   UNL A   1      32.700  24.819  24.830  1.00  0.00     0.349 C 
ATOM     13  O   UNL A   1      32.180  25.819  25.315  1.00  0.00    -0.248 OA
BRANCH  12  14
ATOM     14  C   UNL A   1      32.345  23.400  25.256  1.00  0.00     0.352 C 
BRANCH  14  15
ATOM     15  O   UNL A   1      32.006  22.482  24.229  1.00  0.00    -0.482 OA
BRANCH  15  16
ATOM     16  C   UNL A   1      32.579  21.240  24.250  1.00  0.00     0.120 A 
ATOM     17  C   UNL A   1      34.007  17.154  24.108  1.00  0.00     0.044 C 
ATOM     18  C   UNL A   1      33.512  18.574  24.107  1.00  0.00    -0.048 A 
ATOM     19  C   UNL A   1      33.931  19.439  25.129  1.00  0.00     0.007 A 
ATOM     20  C   UNL A   1      32.637  19.063  23.123  1.00  0.00    -0.045 A 
ATOM     21  C   UNL A   1      33.480  20.761  25.194  1.00  0.00     0.047 A 
ATOM     22  C   UNL A   1      32.173  20.390  23.216  1.00  0.00     0.050 A 
ATOM     23  C   UNL A   1      32.162  18.233  21.960  1.00  0.00     0.045 C 
ENDBRANCH  15  16
ENDBRANCH  14  15
ENDBRANCH  12  14
ENDBRANCH  11  12
ENDBRANCH   6  11
ENDBRANCH   3   5
ENDBRANCH   2   3
ENDBRANCH   1   2
BRANCH   1  24
ATOM     24  C   UNL A   1      41.468  22.319  26.241  1.00  0.00     0.275 C 
BRANCH  24  25
ATOM     25  O   UNL A   1      42.134  23.333  27.014  1.00  0.00    -0.458 OA
BRANCH  25  26
ATOM     26  C   UNL A   1      42.212  24.543  26.415  1.00  0.00     0.338 C 
ATOM     27  O   UNL A   1      42.514  24.777  25.255  1.00  0.00    -0.246 OA
BRANCH  26  28
ATOM     28  C   UNL A   1      41.779  25.600  27.338  1.00  0.00     0.060 A 
ATOM     29  C   UNL A   1      42.517  26.775  27.358  1.00  0.00     0.016 A 
ATOM     30  C   UNL A   1      40.804  25.373  28.305  1.00  0.00     0.016 A 
ATOM     31  C   UNL A   1      42.389  27.672  28.411  1.00  0.00     0.010 A 
ATOM     32  C   UNL A   1      40.584  26.342  29.297  1.00  0.00     0.010 A 
ATOM     33  C   UNL A   1      41.403  27.484  29.389  1.00  0.00    -0.014 A 
BRANCH  33  34
ATOM     34  C   UNL A   1      41.253  28.471  30.500  1.00  0.00     0.031 A 
ATOM     35  C   UNL A   1      42.179  28.431  31.692  1.00  0.00     0.074 A 
ATOM     36  C   UNL A   1      40.295  29.421  30.437  1.00  0.00     0.049 A 
ATOM     37  N   UNL A   1      42.104  29.089  32.822  1.00  0.00    -0.248 NA
ATOM     38  C   UNL A   1      43.332  27.519  31.611  1.00  0.00     0.031 C 
ATOM     39  C   UNL A   1      39.356  29.607  29.327  1.00  0.00     0.029 A 
ATOM     40  N   UNL A   1      39.950  30.415  31.322  1.00  0.00    -0.354 N 
ATOM     41  C   UNL A   1      43.162  28.633  33.603  1.00  0.00     0.074 A 
ATOM     42  C   UNL A   1      43.857  27.632  32.823  1.00  0.00     0.031 C 
ATOM     43  C   UNL A   1      38.579  30.670  29.575  1.00  0.00     0.029 A 
ATOM     44  C   UNL A   1      38.882  31.177  30.906  1.00  0.00     0.049 A 
ATOM     45  H   UNL A   1      40.422  30.567  32.173  1.00  0.00     0.167 HD
ATOM     46  C   UNL A   1      43.519  29.017  34.854  1.00  0.00     0.037 A 
ATOM     47  C   UNL A   1      38.182  32.138  31.539  1.00  0.00     0.037 A 
ATOM     48  C   UNL A   1      42.846  30.050  35.602  1.00  0.00     0.049 A 
ATOM     49  C   UNL A   1      38.565  32.512  32.942  1.00  0.00     0.074 A 
ATOM     50  C   UNL A   1      43.142  30.527  36.867  1.00  0.00     0.029 A 
ATOM     51  N   UNL A   1      41.749  30.772  35.152  1.00  0.00    -0.354 N 
ATOM     52  N   UNL A   1      39.542  32.044  33.680  1.00  0.00    -0.248 NA
ATOM     53  C   UNL A   1      37.743  33.532  33.605  1.00  0.00     0.031 C 
ATOM     54  C   UNL A   1      42.193  31.499  37.204  1.00  0.00     0.029 A 
ATOM     55  C   UNL A   1      41.343  31.674  36.124  1.00  0.00     0.049 A 
ATOM     56  H   UNL A   1      41.322  30.661  34.272  1.00  0.00     0.167 HD
ATOM     57  C   UNL A   1      39.465  32.726  34.888  1.00  0.00     0.074 A 
ATOM     58  C   UNL A   1      38.357  33.652  34.773  1.00  0.00     0.031 C 
ATOM     59  C   UNL A   1      40.241  32.595  35.993  1.00  0.00     0.037 A 
BRANCH  46  60
ATOM     60  C   UNL A   1      44.667  28.297  35.514  1.00  0.00     0.058 A 
ATOM     61  C   UNL A   1      44.478  27.161  36.318  1.00  0.00     0.135 A 
ATOM     62  C   UNL A   1      45.988  28.728  35.302  1.00  0.00     0.135 A 
ATOM     63  F   UNL A   1      43.238  26.708  36.567  1.00  0.00    -0.206 F 
ATOM     64  C   UNL A   1      45.551  26.499  36.909  1.00  0.00     0.059 A 
ATOM     65  C   UNL A   1      47.078  28.063  35.857  1.00  0.00     0.059 A 
ATOM     66  F   UNL A   1      46.232  29.807  34.540  1.00  0.00    -0.206 F 
ATOM     67  C   UNL A   1      46.848  26.958  36.673  1.00  0.00     0.060 A 
BRANCH  67  68
ATOM     68  S   UNL A   1      48.228  26.086  37.444  1.00  0.00     0.124 S 
ATOM     69  O   UNL A   1      47.569  25.439  38.575  1.00  0.00    -0.237 OA
ATOM     70  O   UNL A   1      48.671  25.195  36.376  1.00  0.00    -0.237 OA
ATOM     71  O   UNL A   1      49.159  27.155  37.791  1.00  0.00    -0.744 OA
ENDBRANCH  67  68
ENDBRANCH  46  60
BRANCH  47  72
ATOM     72  C   UNL A   1      37.019  32.777  30.862  1.00  0.00     0.058 A 
ATOM     73  C   UNL A   1      37.190  33.875  30.006  1.00  0.00     0.135 A 
ATOM     74  C   UNL A   1      35.713  32.289  31.042  1.00  0.00     0.135 A 
ATOM     75  F   UNL A   1      38.414  34.386  29.809  1.00  0.00    -0.206 F 
ATOM     76  C   UNL A   1      36.111  34.471  29.361  1.00  0.00     0.059 A 
ATOM     77  C   UNL A   1      34.624  32.845  30.382  1.00  0.00     0.059 A 
ATOM     78  F   UNL A   1      35.495  31.233  31.842  1.00  0.00    -0.206 F 
ATOM     79  C   UNL A   1      34.832  33.945  29.551  1.00  0.00     0.060 A 
BRANCH  79  80
ATOM     80  S   UNL A   1      33.445  34.695  28.670  1.00  0.00     0.124 S 
ATOM     81  O   UNL A   1      32.545  35.028  29.768  1.00  0.00    -0.237 OA
ATOM     82  O   UNL A   1      34.084  35.825  28.002  1.00  0.00    -0.237 OA
ATOM     83  O   UNL A   1      32.993  33.627  27.784  1.00  0.00    -0.744 OA
ENDBRANCH  79  80
ENDBRANCH  47  72
BRANCH  59  84
ATOM     84  C   UNL A   1      39.945  33.506  37.153  1.00  0.00     0.058 A 
ATOM     85  C   UNL A   1      40.623  34.723  37.331  1.00  0.00     0.135 A 
ATOM     86  C   UNL A   1      38.943  33.172  38.077  1.00  0.00     0.135 A 
ATOM     87  F   UNL A   1      41.597  35.086  36.482  1.00  0.00    -0.206 F 
ATOM     88  C   UNL A   1      40.334  35.564  38.400  1.00  0.00     0.059 A 
ATOM     89  C   UNL A   1      38.616  34.013  39.136  1.00  0.00     0.059 A 
ATOM     90  F   UNL A   1      38.260  32.024  37.949  1.00  0.00    -0.206 F 
ATOM     91  C   UNL A   1      39.326  35.201  39.297  1.00  0.00     0.060 A 
BRANCH  91  92
ATOM     92  S   UNL A   1      38.941  36.317  40.662  1.00  0.00     0.124 S 
ATOM     93  O   UNL A   1      40.220  36.379  41.361  1.00  0.00    -0.237 OA
ATOM     94  O   UNL A   1      38.539  37.535  39.966  1.00  0.00    -0.237 OA
ATOM     95  O   UNL A   1      37.870  35.626  41.375  1.00  0.00    -0.744 OA
ENDBRANCH  91  92
ENDBRANCH  59  84
ENDBRANCH  33  34
ENDBRANCH  26  28
ENDBRANCH  25  26
ENDBRANCH  24  25
ENDBRANCH   1  24
TORSDOF 19
ENDMDL
