MODEL 1
REMARK VINA RESULT:     -11.4      0.000      0.000
REMARK SMILES O=C(CC1(NC(=O)c2ccccc2[N+](=O)[O-])CCC1)OCCOC(=O)c1ccc(-c2c3nc(c(-c4c(F)cc(S(=O)(=O)[O-])cc4F)c4ccc([nH]4)c(-c4c(F)cc(S(=O)(=O)[O-])cc4F)c4nc(c(-c5c(F)cc(S(=O)(=O)[O-])cc5F)c5ccc2[nH]5)C=C4)C=C3)cc1
REMARK SMILES IDX 21 1 20 2 2 3 1 4 3 5 4 6 17 7 19 8 18 9 5 10 6 11 7 13 8 14
REMARK SMILES IDX 9 15 13 16 10 17 12 18 11 19 14 20 15 21 16 22 22 23 23 24
REMARK SMILES IDX 24 25 25 26 26 27 27 28 91 29 28 30 90 31 29 32 30 33 31 34
REMARK SMILES IDX 84 35 32 36 89 37 83 38 85 39 33 40 88 41 82 42 81 43 34 45
REMARK SMILES IDX 68 46 47 47 67 48 48 49 51 50 66 51 86 52 49 53 50 54 65 56
REMARK SMILES IDX 87 57 52 58 35 59 36 60 45 61 37 62 38 63 44 64 46 65 39 66
REMARK SMILES IDX 40 67 41 68 42 69 43 70 69 71 70 72 79 73 71 74 72 75 78 76
REMARK SMILES IDX 80 77 73 78 74 79 75 80 76 81 77 82 53 83 54 84 63 85 55 86
REMARK SMILES IDX 56 87 62 88 64 89 57 90 58 91 59 92 60 93 61 94
REMARK H PARENT 5 12 85 44 51 55
REMARK Flexibility Score: inf
ROOT
ATOM      1  C   UNL A   1      38.219  22.190  25.560  1.00  0.00     0.274 C 
ENDROOT
BRANCH   1   2
ATOM      2  O   UNL A   1      37.022  21.521  26.017  1.00  0.00    -0.462 OA
BRANCH   2   3
ATOM      3  C   UNL A   1      36.285  20.694  25.238  1.00  0.00     0.308 C 
ATOM      4  O   UNL A   1      36.710  19.582  24.942  1.00  0.00    -0.252 OA
BRANCH   3   5
ATOM      5  C   UNL A   1      34.992  21.247  24.690  1.00  0.00     0.151 C 
BRANCH   5   6
ATOM      6  C   UNL A   1      33.719  20.641  25.285  1.00  0.00     0.051 C 
ATOM      7  C   UNL A   1      32.479  20.843  24.336  1.00  0.00     0.029 C 
ATOM      8  C   UNL A   1      33.526  19.113  25.039  1.00  0.00     0.029 C 
ATOM      9  C   UNL A   1      32.734  19.447  23.757  1.00  0.00     0.005 C 
BRANCH   6  10
ATOM     10  N   UNL A   1      33.390  21.097  26.659  1.00  0.00    -0.346 N 
ATOM     11  C   UNL A   1      32.958  22.256  27.248  1.00  0.00     0.258 C 
ATOM     12  H   UNL A   1      33.514  20.377  27.320  1.00  0.00     0.164 HD
ATOM     13  O   UNL A   1      32.893  22.315  28.475  1.00  0.00    -0.269 OA
BRANCH  11  14
ATOM     14  C   UNL A   1      32.612  23.477  26.514  1.00  0.00     0.117 A 
ATOM     15  C   UNL A   1      33.655  24.375  26.242  1.00  0.00     0.021 A 
ATOM     16  C   UNL A   1      31.298  23.918  26.335  1.00  0.00     0.282 A 
ATOM     17  C   UNL A   1      33.379  25.658  25.750  1.00  0.00     0.001 A 
ATOM     18  C   UNL A   1      31.013  25.184  25.798  1.00  0.00     0.086 A 
ATOM     19  C   UNL A   1      32.062  26.055  25.511  1.00  0.00     0.007 A 
BRANCH  16  20
ATOM     20  N   UNL A   1      30.172  23.113  26.755  1.00  0.00     0.063 N 
ATOM     21  O   UNL A   1      29.371  23.615  27.550  1.00  0.00    -0.258 OA
ATOM     22  O   UNL A   1      30.070  21.994  26.236  1.00  0.00    -0.258 OA
ENDBRANCH  16  20
ENDBRANCH  11  14
ENDBRANCH   6  10
ENDBRANCH   5   6
ENDBRANCH   3   5
ENDBRANCH   2   3
ENDBRANCH   1   2
BRANCH   1  23
ATOM     23  C   UNL A   1      39.149  22.574  26.709  1.00  0.00     0.275 C 
BRANCH  23  24
ATOM     24  O   UNL A   1      39.995  23.679  26.320  1.00  0.00    -0.458 OA
BRANCH  24  25
ATOM     25  C   UNL A   1      40.940  24.025  27.223  1.00  0.00     0.338 C 
ATOM     26  O   UNL A   1      41.994  23.449  27.447  1.00  0.00    -0.246 OA
BRANCH  25  27
ATOM     27  C   UNL A   1      40.596  25.304  27.866  1.00  0.00     0.060 A 
ATOM     28  C   UNL A   1      41.545  26.328  27.824  1.00  0.00     0.016 A 
ATOM     29  C   UNL A   1      39.441  25.450  28.635  1.00  0.00     0.016 A 
ATOM     30  C   UNL A   1      41.384  27.480  28.591  1.00  0.00     0.010 A 
ATOM     31  C   UNL A   1      39.282  26.603  29.415  1.00  0.00     0.010 A 
ATOM     32  C   UNL A   1      40.273  27.604  29.430  1.00  0.00    -0.014 A 
BRANCH  32  33
ATOM     33  C   UNL A   1      40.237  28.675  30.457  1.00  0.00     0.031 A 
ATOM     34  C   UNL A   1      41.197  28.598  31.616  1.00  0.00     0.074 A 
ATOM     35  C   UNL A   1      39.387  29.713  30.362  1.00  0.00     0.049 A 
ATOM     36  N   UNL A   1      41.256  29.333  32.696  1.00  0.00    -0.248 NA
ATOM     37  C   UNL A   1      42.230  27.553  31.540  1.00  0.00     0.031 C 
ATOM     38  C   UNL A   1      38.466  29.957  29.255  1.00  0.00     0.029 A 
ATOM     39  N   UNL A   1      39.160  30.754  31.228  1.00  0.00    -0.354 N 
ATOM     40  C   UNL A   1      42.303  28.815  33.448  1.00  0.00     0.074 A 
ATOM     41  C   UNL A   1      42.857  27.708  32.696  1.00  0.00     0.031 C 
ATOM     42  C   UNL A   1      37.759  31.070  29.516  1.00  0.00     0.029 A 
ATOM     43  C   UNL A   1      38.147  31.591  30.826  1.00  0.00     0.049 A 
ATOM     44  H   UNL A   1      39.673  30.889  32.057  1.00  0.00     0.167 HD
ATOM     45  C   UNL A   1      42.759  29.218  34.659  1.00  0.00     0.037 A 
ATOM     46  C   UNL A   1      37.575  32.635  31.460  1.00  0.00     0.037 A 
ATOM     47  C   UNL A   1      42.222  30.327  35.400  1.00  0.00     0.049 A 
ATOM     48  C   UNL A   1      38.059  33.034  32.829  1.00  0.00     0.074 A 
ATOM     49  C   UNL A   1      42.608  30.804  36.641  1.00  0.00     0.029 A 
ATOM     50  N   UNL A   1      41.186  31.140  34.966  1.00  0.00    -0.354 N 
ATOM     51  N   UNL A   1      39.021  32.508  33.551  1.00  0.00    -0.248 NA
ATOM     52  C   UNL A   1      37.375  34.165  33.474  1.00  0.00     0.031 C 
ATOM     53  C   UNL A   1      41.786  31.888  36.970  1.00  0.00     0.029 A 
ATOM     54  C   UNL A   1      40.914  32.110  35.917  1.00  0.00     0.049 A 
ATOM     55  H   UNL A   1      40.713  31.042  34.108  1.00  0.00     0.167 HD
ATOM     56  C   UNL A   1      39.078  33.264  34.718  1.00  0.00     0.074 A 
ATOM     57  C   UNL A   1      38.055  34.283  34.606  1.00  0.00     0.031 C 
ATOM     58  C   UNL A   1      39.905  33.130  35.784  1.00  0.00     0.037 A 
BRANCH  45  59
ATOM     59  C   UNL A   1      43.864  28.412  35.278  1.00  0.00     0.058 A 
ATOM     60  C   UNL A   1      45.217  28.716  35.061  1.00  0.00     0.135 A 
ATOM     61  C   UNL A   1      43.560  27.316  36.102  1.00  0.00     0.135 A 
ATOM     62  F   UNL A   1      45.560  29.740  34.263  1.00  0.00    -0.206 F 
ATOM     63  C   UNL A   1      46.232  27.941  35.614  1.00  0.00     0.059 A 
ATOM     64  C   UNL A   1      44.558  26.541  36.683  1.00  0.00     0.059 A 
ATOM     65  F   UNL A   1      42.281  26.981  36.336  1.00  0.00    -0.206 F 
ATOM     66  C   UNL A   1      45.891  26.851  36.418  1.00  0.00     0.060 A 
BRANCH  66  67
ATOM     67  S   UNL A   1      47.213  25.835  37.112  1.00  0.00     0.124 S 
ATOM     68  O   UNL A   1      48.093  25.681  35.958  1.00  0.00    -0.237 OA
ATOM     69  O   UNL A   1      47.724  26.676  38.190  1.00  0.00    -0.237 OA
ATOM     70  O   UNL A   1      46.519  24.625  37.540  1.00  0.00    -0.744 OA
ENDBRANCH  66  67
ENDBRANCH  45  59
BRANCH  46  71
ATOM     71  C   UNL A   1      36.457  33.371  30.815  1.00  0.00     0.058 A 
ATOM     72  C   UNL A   1      36.691  34.237  29.737  1.00  0.00     0.135 A 
ATOM     73  C   UNL A   1      35.137  33.229  31.266  1.00  0.00     0.135 A 
ATOM     74  F   UNL A   1      37.941  34.416  29.280  1.00  0.00    -0.206 F 
ATOM     75  C   UNL A   1      35.657  34.943  29.133  1.00  0.00     0.059 A 
ATOM     76  C   UNL A   1      34.082  33.907  30.665  1.00  0.00     0.059 A 
ATOM     77  F   UNL A   1      34.861  32.407  32.292  1.00  0.00    -0.206 F 
ATOM     78  C   UNL A   1      34.354  34.769  29.603  1.00  0.00     0.060 A 
BRANCH  78  79
ATOM     79  S   UNL A   1      33.007  35.642  28.776  1.00  0.00     0.124 S 
ATOM     80  O   UNL A   1      33.733  36.656  28.022  1.00  0.00    -0.237 OA
ATOM     81  O   UNL A   1      32.388  34.579  27.989  1.00  0.00    -0.237 OA
ATOM     82  O   UNL A   1      32.200  36.135  29.888  1.00  0.00    -0.744 OA
ENDBRANCH  78  79
ENDBRANCH  46  71
BRANCH  58  83
ATOM     83  C   UNL A   1      39.782  34.142  36.888  1.00  0.00     0.058 A 
ATOM     84  C   UNL A   1      38.941  33.936  37.993  1.00  0.00     0.135 A 
ATOM     85  C   UNL A   1      40.545  35.321  36.853  1.00  0.00     0.135 A 
ATOM     86  F   UNL A   1      38.189  32.828  38.070  1.00  0.00    -0.206 F 
ATOM     87  C   UNL A   1      38.841  34.877  39.013  1.00  0.00     0.059 A 
ATOM     88  C   UNL A   1      40.475  36.265  37.872  1.00  0.00     0.059 A 
ATOM     89  F   UNL A   1      41.373  35.560  35.825  1.00  0.00    -0.206 F 
ATOM     90  C   UNL A   1      39.607  36.042  38.942  1.00  0.00     0.060 A 
BRANCH  90  91
ATOM     91  S   UNL A   1      39.485  37.252  40.276  1.00  0.00     0.124 S 
ATOM     92  O   UNL A   1      38.782  36.488  41.301  1.00  0.00    -0.237 OA
ATOM     93  O   UNL A   1      40.886  37.553  40.559  1.00  0.00    -0.237 OA
ATOM     94  O   UNL A   1      38.727  38.344  39.674  1.00  0.00    -0.744 OA
ENDBRANCH  90  91
ENDBRANCH  58  83
ENDBRANCH  32  33
ENDBRANCH  25  27
ENDBRANCH  24  25
ENDBRANCH  23  24
ENDBRANCH   1  23
TORSDOF 18
ENDMDL
MODEL 2
REMARK VINA RESULT:     -11.3      1.692      2.179
REMARK SMILES O=C(CC1(NC(=O)c2ccccc2[N+](=O)[O-])CCC1)OCCOC(=O)c1ccc(-c2c3nc(c(-c4c(F)cc(S(=O)(=O)[O-])cc4F)c4ccc([nH]4)c(-c4c(F)cc(S(=O)(=O)[O-])cc4F)c4nc(c(-c5c(F)cc(S(=O)(=O)[O-])cc5F)c5ccc2[nH]5)C=C4)C=C3)cc1
REMARK SMILES IDX 21 1 20 2 2 3 1 4 3 5 4 6 17 7 19 8 18 9 5 10 6 11 7 13 8 14
REMARK SMILES IDX 9 15 13 16 10 17 12 18 11 19 14 20 15 21 16 22 22 23 23 24
REMARK SMILES IDX 24 25 25 26 26 27 27 28 91 29 28 30 90 31 29 32 30 33 31 34
REMARK SMILES IDX 84 35 32 36 89 37 83 38 85 39 33 40 88 41 82 42 81 43 34 45
REMARK SMILES IDX 68 46 47 47 67 48 48 49 51 50 66 51 86 52 49 53 50 54 65 56
REMARK SMILES IDX 87 57 52 58 35 59 36 60 45 61 37 62 38 63 44 64 46 65 39 66
REMARK SMILES IDX 40 67 41 68 42 69 43 70 69 71 70 72 79 73 71 74 72 75 78 76
REMARK SMILES IDX 80 77 73 78 74 79 75 80 76 81 77 82 53 83 54 84 63 85 55 86
REMARK SMILES IDX 56 87 62 88 64 89 57 90 58 91 59 92 60 93 61 94
REMARK H PARENT 5 12 85 44 51 55
REMARK Flexibility Score: inf
ROOT
ATOM      1  C   UNL A   1      38.062  23.009  26.067  1.00  0.00     0.274 C 
ENDROOT
BRANCH   1   2
ATOM      2  O   UNL A   1      37.371  22.398  24.955  1.00  0.00    -0.462 OA
BRANCH   2   3
ATOM      3  C   UNL A   1      36.474  23.054  24.181  1.00  0.00     0.308 C 
ATOM      4  O   UNL A   1      36.699  23.232  22.989  1.00  0.00    -0.252 OA
BRANCH   3   5
ATOM      5  C   UNL A   1      35.262  23.624  24.878  1.00  0.00     0.151 C 
BRANCH   5   6
ATOM      6  C   UNL A   1      33.977  23.636  24.047  1.00  0.00     0.051 C 
ATOM      7  C   UNL A   1      33.586  22.191  23.560  1.00  0.00     0.029 C 
ATOM      8  C   UNL A   1      32.649  23.605  24.866  1.00  0.00     0.029 C 
ATOM      9  C   UNL A   1      32.661  22.065  24.775  1.00  0.00     0.005 C 
BRANCH   6  10
ATOM     10  N   UNL A   1      33.979  24.578  22.900  1.00  0.00    -0.346 N 
ATOM     11  C   UNL A   1      33.621  25.883  22.681  1.00  0.00     0.258 C 
ATOM     12  H   UNL A   1      34.331  24.155  22.083  1.00  0.00     0.164 HD
ATOM     13  O   UNL A   1      33.655  26.327  21.534  1.00  0.00    -0.269 OA
BRANCH  11  14
ATOM     14  C   UNL A   1      33.137  26.793  23.723  1.00  0.00     0.117 A 
ATOM     15  C   UNL A   1      34.028  27.105  24.761  1.00  0.00     0.021 A 
ATOM     16  C   UNL A   1      31.789  27.121  23.889  1.00  0.00     0.282 A 
ATOM     17  C   UNL A   1      33.579  27.779  25.905  1.00  0.00     0.001 A 
ATOM     18  C   UNL A   1      31.338  27.838  25.009  1.00  0.00     0.086 A 
ATOM     19  C   UNL A   1      32.241  28.161  26.021  1.00  0.00     0.007 A 
BRANCH  16  20
ATOM     20  N   UNL A   1      30.787  26.680  22.944  1.00  0.00     0.063 N 
ATOM     21  O   UNL A   1      30.220  25.606  23.166  1.00  0.00    -0.258 OA
ATOM     22  O   UNL A   1      30.535  27.450  22.008  1.00  0.00    -0.258 OA
ENDBRANCH  16  20
ENDBRANCH  11  14
ENDBRANCH   6  10
ENDBRANCH   5   6
ENDBRANCH   3   5
ENDBRANCH   2   3
ENDBRANCH   1   2
BRANCH   1  23
ATOM     23  C   UNL A   1      39.417  22.360  26.343  1.00  0.00     0.275 C 
BRANCH  23  24
ATOM     24  O   UNL A   1      40.064  23.007  27.461  1.00  0.00    -0.458 OA
BRANCH  24  25
ATOM     25  C   UNL A   1      40.916  24.004  27.132  1.00  0.00     0.338 C 
ATOM     26  O   UNL A   1      41.831  23.958  26.324  1.00  0.00    -0.246 OA
BRANCH  25  27
ATOM     27  C   UNL A   1      40.532  25.255  27.809  1.00  0.00     0.060 A 
ATOM     28  C   UNL A   1      41.393  26.348  27.688  1.00  0.00     0.016 A 
ATOM     29  C   UNL A   1      39.441  25.314  28.676  1.00  0.00     0.016 A 
ATOM     30  C   UNL A   1      41.213  27.486  28.472  1.00  0.00     0.010 A 
ATOM     31  C   UNL A   1      39.263  26.454  29.471  1.00  0.00     0.010 A 
ATOM     32  C   UNL A   1      40.172  27.527  29.404  1.00  0.00    -0.014 A 
BRANCH  32  33
ATOM     33  C   UNL A   1      40.144  28.594  30.436  1.00  0.00     0.031 A 
ATOM     34  C   UNL A   1      41.104  28.507  31.594  1.00  0.00     0.074 A 
ATOM     35  C   UNL A   1      39.303  29.639  30.345  1.00  0.00     0.049 A 
ATOM     36  N   UNL A   1      41.168  29.237  32.676  1.00  0.00    -0.248 NA
ATOM     37  C   UNL A   1      42.129  27.453  31.514  1.00  0.00     0.031 C 
ATOM     38  C   UNL A   1      38.383  29.894  29.238  1.00  0.00     0.029 A 
ATOM     39  N   UNL A   1      39.083  30.679  31.214  1.00  0.00    -0.354 N 
ATOM     40  C   UNL A   1      42.212  28.708  33.427  1.00  0.00     0.074 A 
ATOM     41  C   UNL A   1      42.757  27.600  32.671  1.00  0.00     0.031 C 
ATOM     42  C   UNL A   1      37.684  31.012  29.503  1.00  0.00     0.029 A 
ATOM     43  C   UNL A   1      38.076  31.524  30.815  1.00  0.00     0.049 A 
ATOM     44  H   UNL A   1      39.597  30.807  32.043  1.00  0.00     0.167 HD
ATOM     45  C   UNL A   1      42.671  29.103  34.639  1.00  0.00     0.037 A 
ATOM     46  C   UNL A   1      37.512  32.570  31.453  1.00  0.00     0.037 A 
ATOM     47  C   UNL A   1      42.141  30.214  35.385  1.00  0.00     0.049 A 
ATOM     48  C   UNL A   1      37.999  32.960  32.824  1.00  0.00     0.074 A 
ATOM     49  C   UNL A   1      42.532  30.683  36.627  1.00  0.00     0.029 A 
ATOM     50  N   UNL A   1      41.111  31.036  34.954  1.00  0.00    -0.354 N 
ATOM     51  N   UNL A   1      38.957  32.425  33.543  1.00  0.00    -0.248 NA
ATOM     52  C   UNL A   1      37.323  34.094  33.472  1.00  0.00     0.031 C 
ATOM     53  C   UNL A   1      41.717  31.773  36.960  1.00  0.00     0.029 A 
ATOM     54  C   UNL A   1      40.847  32.004  35.908  1.00  0.00     0.049 A 
ATOM     55  H   UNL A   1      40.638  30.945  34.095  1.00  0.00     0.167 HD
ATOM     56  C   UNL A   1      39.019  33.177  34.713  1.00  0.00     0.074 A 
ATOM     57  C   UNL A   1      38.004  34.204  34.605  1.00  0.00     0.031 C 
ATOM     58  C   UNL A   1      39.846  33.032  35.779  1.00  0.00     0.037 A 
BRANCH  45  59
ATOM     59  C   UNL A   1      43.770  28.287  35.255  1.00  0.00     0.058 A 
ATOM     60  C   UNL A   1      45.124  28.562  35.013  1.00  0.00     0.135 A 
ATOM     61  C   UNL A   1      43.457  27.211  36.102  1.00  0.00     0.135 A 
ATOM     62  F   UNL A   1      45.474  29.565  34.192  1.00  0.00    -0.206 F 
ATOM     63  C   UNL A   1      46.133  27.777  35.564  1.00  0.00     0.059 A 
ATOM     64  C   UNL A   1      44.449  26.427  36.682  1.00  0.00     0.059 A 
ATOM     65  F   UNL A   1      42.176  26.905  36.362  1.00  0.00    -0.206 F 
ATOM     66  C   UNL A   1      45.784  26.707  36.391  1.00  0.00     0.060 A 
BRANCH  66  67
ATOM     67  S   UNL A   1      47.097  25.678  37.082  1.00  0.00     0.124 S 
ATOM     68  O   UNL A   1      46.966  25.963  38.508  1.00  0.00    -0.237 OA
ATOM     69  O   UNL A   1      46.700  24.337  36.666  1.00  0.00    -0.237 OA
ATOM     70  O   UNL A   1      48.303  26.198  36.445  1.00  0.00    -0.744 OA
ENDBRANCH  66  67
ENDBRANCH  45  59
BRANCH  46  71
ATOM     71  C   UNL A   1      36.400  33.317  30.811  1.00  0.00     0.058 A 
ATOM     72  C   UNL A   1      36.641  34.189  29.740  1.00  0.00     0.135 A 
ATOM     73  C   UNL A   1      35.077  33.179  31.258  1.00  0.00     0.135 A 
ATOM     74  F   UNL A   1      37.892  34.365  29.287  1.00  0.00    -0.206 F 
ATOM     75  C   UNL A   1      35.611  34.905  29.138  1.00  0.00     0.059 A 
ATOM     76  C   UNL A   1      34.028  33.866  30.660  1.00  0.00     0.059 A 
ATOM     77  F   UNL A   1      34.795  32.351  32.277  1.00  0.00    -0.206 F 
ATOM     78  C   UNL A   1      34.307  34.735  29.604  1.00  0.00     0.060 A 
BRANCH  78  79
ATOM     79  S   UNL A   1      32.966  35.621  28.780  1.00  0.00     0.124 S 
ATOM     80  O   UNL A   1      32.375  34.566  27.966  1.00  0.00    -0.237 OA
ATOM     81  O   UNL A   1      32.164  36.084  29.909  1.00  0.00    -0.237 OA
ATOM     82  O   UNL A   1      33.665  36.673  28.047  1.00  0.00    -0.744 OA
ENDBRANCH  78  79
ENDBRANCH  46  71
BRANCH  58  83
ATOM     83  C   UNL A   1      39.730  34.041  36.886  1.00  0.00     0.058 A 
ATOM     84  C   UNL A   1      38.995  33.781  38.053  1.00  0.00     0.135 A 
ATOM     85  C   UNL A   1      40.394  35.275  36.790  1.00  0.00     0.135 A 
ATOM     86  F   UNL A   1      38.339  32.618  38.192  1.00  0.00    -0.206 F 
ATOM     87  C   UNL A   1      38.901  34.720  39.076  1.00  0.00     0.059 A 
ATOM     88  C   UNL A   1      40.330  36.220  37.809  1.00  0.00     0.059 A 
ATOM     89  F   UNL A   1      41.119  35.568  35.700  1.00  0.00    -0.206 F 
ATOM     90  C   UNL A   1      39.567  35.939  38.943  1.00  0.00     0.060 A 
BRANCH  90  91
ATOM     91  S   UNL A   1      39.455  37.148  40.280  1.00  0.00     0.124 S 
ATOM     92  O   UNL A   1      40.688  37.907  40.093  1.00  0.00    -0.237 OA
ATOM     93  O   UNL A   1      38.220  37.858  39.960  1.00  0.00    -0.237 OA
ATOM     94  O   UNL A   1      39.401  36.321  41.480  1.00  0.00    -0.744 OA
ENDBRANCH  90  91
ENDBRANCH  58  83
ENDBRANCH  32  33
ENDBRANCH  25  27
ENDBRANCH  24  25
ENDBRANCH  23  24
ENDBRANCH   1  23
TORSDOF 18
ENDMDL
MODEL 3
REMARK VINA RESULT:     -11.3      6.547     12.164
REMARK SMILES O=C(CC1(NC(=O)c2ccccc2[N+](=O)[O-])CCC1)OCCOC(=O)c1ccc(-c2c3nc(c(-c4c(F)cc(S(=O)(=O)[O-])cc4F)c4ccc([nH]4)c(-c4c(F)cc(S(=O)(=O)[O-])cc4F)c4nc(c(-c5c(F)cc(S(=O)(=O)[O-])cc5F)c5ccc2[nH]5)C=C4)C=C3)cc1
REMARK SMILES IDX 21 1 20 2 2 3 1 4 3 5 4 6 17 7 19 8 18 9 5 10 6 11 7 13 8 14
REMARK SMILES IDX 9 15 13 16 10 17 12 18 11 19 14 20 15 21 16 22 22 23 23 24
REMARK SMILES IDX 24 25 25 26 26 27 27 28 91 29 28 30 90 31 29 32 30 33 31 34
REMARK SMILES IDX 84 35 32 36 89 37 83 38 85 39 33 40 88 41 82 42 81 43 34 45
REMARK SMILES IDX 68 46 47 47 67 48 48 49 51 50 66 51 86 52 49 53 50 54 65 56
REMARK SMILES IDX 87 57 52 58 35 59 36 60 45 61 37 62 38 63 44 64 46 65 39 66
REMARK SMILES IDX 40 67 41 68 42 69 43 70 69 71 70 72 79 73 71 74 72 75 78 76
REMARK SMILES IDX 80 77 73 78 74 79 75 80 76 81 77 82 53 83 54 84 63 85 55 86
REMARK SMILES IDX 56 87 62 88 64 89 57 90 58 91 59 92 60 93 61 94
REMARK H PARENT 5 12 85 44 51 55
REMARK Flexibility Score: inf
ROOT
ATOM      1  C   UNL A   1      33.797  30.556  27.024  1.00  0.00     0.274 C 
ENDROOT
BRANCH   1   2
ATOM      2  O   UNL A   1      32.498  29.980  27.288  1.00  0.00    -0.462 OA
BRANCH   2   3
ATOM      3  C   UNL A   1      32.238  28.654  27.206  1.00  0.00     0.308 C 
ATOM      4  O   UNL A   1      31.374  28.148  27.915  1.00  0.00    -0.252 OA
BRANCH   3   5
ATOM      5  C   UNL A   1      33.121  27.843  26.289  1.00  0.00     0.151 C 
BRANCH   5   6
ATOM      6  C   UNL A   1      32.566  27.618  24.880  1.00  0.00     0.051 C 
ATOM      7  C   UNL A   1      32.718  28.902  23.982  1.00  0.00     0.029 C 
ATOM      8  C   UNL A   1      33.542  26.928  23.878  1.00  0.00     0.029 C 
ATOM      9  C   UNL A   1      34.027  28.324  23.432  1.00  0.00     0.005 C 
BRANCH   6  10
ATOM     10  N   UNL A   1      31.167  27.122  24.829  1.00  0.00    -0.346 N 
ATOM     11  C   UNL A   1      30.542  25.924  24.599  1.00  0.00     0.258 C 
ATOM     12  H   UNL A   1      30.520  27.842  25.006  1.00  0.00     0.164 HD
ATOM     13  O   UNL A   1      29.315  25.897  24.519  1.00  0.00    -0.269 OA
BRANCH  11  14
ATOM     14  C   UNL A   1      31.242  24.655  24.381  1.00  0.00     0.117 A 
ATOM     15  C   UNL A   1      31.439  24.254  23.051  1.00  0.00     0.021 A 
ATOM     16  C   UNL A   1      31.456  23.714  25.392  1.00  0.00     0.282 A 
ATOM     17  C   UNL A   1      31.893  22.961  22.757  1.00  0.00     0.001 A 
ATOM     18  C   UNL A   1      31.955  22.432  25.112  1.00  0.00     0.086 A 
ATOM     19  C   UNL A   1      32.168  22.058  23.786  1.00  0.00     0.007 A 
BRANCH  16  20
ATOM     20  N   UNL A   1      31.110  23.998  26.768  1.00  0.00     0.063 N 
ATOM     21  O   UNL A   1      31.706  24.921  27.332  1.00  0.00    -0.258 OA
ATOM     22  O   UNL A   1      30.195  23.324  27.257  1.00  0.00    -0.258 OA
ENDBRANCH  16  20
ENDBRANCH  11  14
ENDBRANCH   6  10
ENDBRANCH   5   6
ENDBRANCH   3   5
ENDBRANCH   2   3
ENDBRANCH   1   2
BRANCH   1  23
ATOM     23  C   UNL A   1      34.296  31.428  28.176  1.00  0.00     0.275 C 
BRANCH  23  24
ATOM     24  O   UNL A   1      35.732  31.566  28.112  1.00  0.00    -0.458 OA
BRANCH  24  25
ATOM     25  C   UNL A   1      36.385  31.319  29.270  1.00  0.00     0.338 C 
ATOM     26  O   UNL A   1      36.067  31.687  30.391  1.00  0.00    -0.246 OA
BRANCH  25  27
ATOM     27  C   UNL A   1      37.524  30.414  29.037  1.00  0.00     0.060 A 
ATOM     28  C   UNL A   1      38.364  30.137  30.117  1.00  0.00     0.016 A 
ATOM     29  C   UNL A   1      37.861  29.976  27.756  1.00  0.00     0.016 A 
ATOM     30  C   UNL A   1      39.575  29.474  29.926  1.00  0.00     0.010 A 
ATOM     31  C   UNL A   1      39.081  29.316  27.560  1.00  0.00     0.010 A 
ATOM     32  C   UNL A   1      39.964  29.102  28.636  1.00  0.00    -0.014 A 
BRANCH  32  33
ATOM     33  C   UNL A   1      41.360  28.665  28.381  1.00  0.00     0.031 A 
ATOM     34  C   UNL A   1      42.458  29.696  28.415  1.00  0.00     0.074 A 
ATOM     35  C   UNL A   1      41.663  27.376  28.146  1.00  0.00     0.049 A 
ATOM     36  N   UNL A   1      43.718  29.579  28.089  1.00  0.00    -0.248 NA
ATOM     37  C   UNL A   1      42.078  31.039  28.883  1.00  0.00     0.031 C 
ATOM     38  C   UNL A   1      40.715  26.264  28.169  1.00  0.00     0.029 A 
ATOM     39  N   UNL A   1      42.864  26.791  27.830  1.00  0.00    -0.354 N 
ATOM     40  C   UNL A   1      44.275  30.839  28.272  1.00  0.00     0.074 A 
ATOM     41  C   UNL A   1      43.215  31.705  28.745  1.00  0.00     0.031 C 
ATOM     42  C   UNL A   1      41.369  25.130  27.863  1.00  0.00     0.029 A 
ATOM     43  C   UNL A   1      42.769  25.444  27.580  1.00  0.00     0.049 A 
ATOM     44  H   UNL A   1      43.711  27.289  27.787  1.00  0.00     0.167 HD
ATOM     45  C   UNL A   1      45.550  31.243  28.057  1.00  0.00     0.037 A 
ATOM     46  C   UNL A   1      43.698  24.571  27.139  1.00  0.00     0.037 A 
ATOM     47  C   UNL A   1      46.609  30.381  27.603  1.00  0.00     0.049 A 
ATOM     48  C   UNL A   1      45.098  25.051  26.854  1.00  0.00     0.074 A 
ATOM     49  C   UNL A   1      47.931  30.701  27.344  1.00  0.00     0.029 A 
ATOM     50  N   UNL A   1      46.469  29.026  27.345  1.00  0.00    -0.354 N 
ATOM     51  N   UNL A   1      45.601  26.255  26.988  1.00  0.00    -0.248 NA
ATOM     52  C   UNL A   1      46.054  24.052  26.352  1.00  0.00     0.031 C 
ATOM     53  C   UNL A   1      48.584  29.544  26.903  1.00  0.00     0.029 A 
ATOM     54  C   UNL A   1      47.677  28.497  26.924  1.00  0.00     0.049 A 
ATOM     55  H   UNL A   1      45.634  28.515  27.448  1.00  0.00     0.167 HD
ATOM     56  C   UNL A   1      46.939  26.151  26.618  1.00  0.00     0.074 A 
ATOM     57  C   UNL A   1      47.166  24.767  26.255  1.00  0.00     0.031 C 
ATOM     58  C   UNL A   1      47.895  27.113  26.585  1.00  0.00     0.037 A 
BRANCH  45  59
ATOM     59  C   UNL A   1      45.852  32.699  28.263  1.00  0.00     0.058 A 
ATOM     60  C   UNL A   1      45.726  33.637  27.227  1.00  0.00     0.135 A 
ATOM     61  C   UNL A   1      46.276  33.159  29.521  1.00  0.00     0.135 A 
ATOM     62  F   UNL A   1      45.347  33.244  26.002  1.00  0.00    -0.206 F 
ATOM     63  C   UNL A   1      46.041  34.979  27.423  1.00  0.00     0.059 A 
ATOM     64  C   UNL A   1      46.575  34.499  29.744  1.00  0.00     0.059 A 
ATOM     65  F   UNL A   1      46.417  32.300  30.542  1.00  0.00    -0.206 F 
ATOM     66  C   UNL A   1      46.472  35.398  28.684  1.00  0.00     0.060 A 
BRANCH  66  67
ATOM     67  S   UNL A   1      46.903  37.135  28.922  1.00  0.00     0.124 S 
ATOM     68  O   UNL A   1      48.233  37.187  28.324  1.00  0.00    -0.237 OA
ATOM     69  O   UNL A   1      45.849  37.826  28.184  1.00  0.00    -0.237 OA
ATOM     70  O   UNL A   1      46.858  37.298  30.371  1.00  0.00    -0.744 OA
ENDBRANCH  66  67
ENDBRANCH  45  59
BRANCH  46  71
ATOM     71  C   UNL A   1      43.332  23.149  26.915  1.00  0.00     0.058 A 
ATOM     72  C   UNL A   1      43.167  22.269  27.995  1.00  0.00     0.135 A 
ATOM     73  C   UNL A   1      43.146  22.641  25.621  1.00  0.00     0.135 A 
ATOM     74  F   UNL A   1      43.349  22.706  29.250  1.00  0.00    -0.206 F 
ATOM     75  C   UNL A   1      42.837  20.932  27.799  1.00  0.00     0.059 A 
ATOM     76  C   UNL A   1      42.795  21.314  25.400  1.00  0.00     0.059 A 
ATOM     77  F   UNL A   1      43.288  23.446  24.556  1.00  0.00    -0.206 F 
ATOM     78  C   UNL A   1      42.651  20.464  26.497  1.00  0.00     0.060 A 
BRANCH  78  79
ATOM     79  S   UNL A   1      42.165  18.742  26.253  1.00  0.00     0.124 S 
ATOM     80  O   UNL A   1      43.159  18.291  25.286  1.00  0.00    -0.237 OA
ATOM     81  O   UNL A   1      42.286  18.193  27.600  1.00  0.00    -0.237 OA
ATOM     82  O   UNL A   1      40.798  18.852  25.752  1.00  0.00    -0.744 OA
ENDBRANCH  78  79
ENDBRANCH  46  71
BRANCH  58  83
ATOM     83  C   UNL A   1      49.285  26.695  26.201  1.00  0.00     0.058 A 
ATOM     84  C   UNL A   1      49.758  26.808  24.884  1.00  0.00     0.135 A 
ATOM     85  C   UNL A   1      50.170  26.204  27.177  1.00  0.00     0.135 A 
ATOM     86  F   UNL A   1      48.951  27.267  23.916  1.00  0.00    -0.206 F 
ATOM     87  C   UNL A   1      51.051  26.424  24.542  1.00  0.00     0.059 A 
ATOM     88  C   UNL A   1      51.473  25.835  26.860  1.00  0.00     0.059 A 
ATOM     89  F   UNL A   1      49.771  26.088  28.452  1.00  0.00    -0.206 F 
ATOM     90  C   UNL A   1      51.900  25.934  25.536  1.00  0.00     0.060 A 
BRANCH  90  91
ATOM     91  S   UNL A   1      53.582  25.452  25.090  1.00  0.00     0.124 S 
ATOM     92  O   UNL A   1      54.362  26.115  26.129  1.00  0.00    -0.237 OA
ATOM     93  O   UNL A   1      53.526  23.995  25.172  1.00  0.00    -0.237 OA
ATOM     94  O   UNL A   1      53.742  25.990  23.743  1.00  0.00    -0.744 OA
ENDBRANCH  90  91
ENDBRANCH  58  83
ENDBRANCH  32  33
ENDBRANCH  25  27
ENDBRANCH  24  25
ENDBRANCH  23  24
ENDBRANCH   1  23
TORSDOF 18
ENDMDL
