MODEL 1
REMARK VINA RESULT:     -12.6      0.000      0.000
REMARK SMILES O=C(OCCOC(=O)[C@@H]1[C@@H](C(=O)Nc2cccc(C(F)(F)F)c2)[C@@H]2C=C[C@H]1O2)c1ccc(-c2c3nc(c(-c4c(F)cc(S(=O)(=O)[O-])cc4F)c4ccc([nH]4)c(-c4c(F)cc(S(=O)(=O)[O-])cc4F)c4nc(c(-c5c(F)cc(S(=O)(=O)[O-])cc5F)c5ccc2[nH]5)C=C4)C=C3)cc1
REMARK SMILES IDX 4 1 3 2 2 3 1 4 29 5 30 6 94 7 31 8 93 9 32 10 33 11 34 12
REMARK SMILES IDX 87 13 35 14 92 15 86 16 88 17 36 18 91 19 85 20 84 21 37 23
REMARK SMILES IDX 71 24 50 25 70 26 51 27 54 28 69 29 89 30 52 31 53 32 68 34
REMARK SMILES IDX 90 35 55 36 38 37 39 38 48 39 40 40 41 41 47 42 49 43 42 44
REMARK SMILES IDX 43 45 44 46 45 47 46 48 72 49 73 50 82 51 74 52 75 53 81 54
REMARK SMILES IDX 83 55 76 56 77 57 78 58 79 59 80 60 56 61 57 62 66 63 58 64
REMARK SMILES IDX 59 65 65 66 67 67 60 68 61 69 62 70 63 71 64 72 5 73 6 74
REMARK SMILES IDX 7 75 8 76 9 77 10 78 27 79 24 80 26 81 28 82 25 83 11 84
REMARK SMILES IDX 12 85 13 86 14 88 15 89 23 90 16 91 18 92 17 93 19 94 20 95
REMARK SMILES IDX 21 96 22 97
REMARK H PARENT 88 22 54 33 13 87
REMARK Flexibility Score: inf
ROOT
ATOM      1  C   UNL A   1      33.192  30.062  26.043  1.00  0.00     0.275 C 
ENDROOT
BRANCH   1   2
ATOM      2  O   UNL A   1      33.695  30.180  27.402  1.00  0.00    -0.458 OA
BRANCH   2   3
ATOM      3  C   UNL A   1      34.309  31.238  28.023  1.00  0.00     0.338 C 
ATOM      4  O   UNL A   1      33.799  32.354  27.983  1.00  0.00    -0.246 OA
BRANCH   3   5
ATOM      5  C   UNL A   1      35.723  31.130  28.543  1.00  0.00     0.060 A 
ATOM      6  C   UNL A   1      35.750  30.985  30.101  1.00  0.00     0.016 A 
ATOM      7  C   UNL A   1      36.881  30.397  27.531  1.00  0.00     0.016 A 
ATOM      8  C   UNL A   1      36.757  29.826  30.853  1.00  0.00     0.010 A 
ATOM      9  C   UNL A   1      38.136  29.351  28.020  1.00  0.00     0.010 A 
ATOM     10  C   UNL A   1      38.246  28.944  29.712  1.00  0.00    -0.014 A 
BRANCH  10  11
ATOM     11  C   UNL A   1      39.911  28.422  30.034  1.00  0.00     0.031 A 
ATOM     12  C   UNL A   1      40.411  27.161  29.234  1.00  0.00     0.074 A 
ATOM     13  C   UNL A   1      41.067  29.170  30.121  1.00  0.00     0.049 A 
ATOM     14  N   UNL A   1      41.672  26.849  29.015  1.00  0.00    -0.248 NA
ATOM     15  C   UNL A   1      39.492  26.214  28.576  1.00  0.00     0.031 C 
ATOM     16  C   UNL A   1      41.588  30.149  29.162  1.00  0.00     0.029 A 
ATOM     17  N   UNL A   1      41.989  29.287  31.178  1.00  0.00    -0.354 N 
ATOM     18  C   UNL A   1      41.690  25.696  28.253  1.00  0.00     0.074 A 
ATOM     19  C   UNL A   1      40.319  25.368  27.967  1.00  0.00     0.031 C 
ATOM     20  C   UNL A   1      42.421  30.988  29.789  1.00  0.00     0.029 A 
ATOM     21  C   UNL A   1      42.656  30.541  31.162  1.00  0.00     0.049 A 
ATOM     22  H   UNL A   1      42.152  28.584  31.848  1.00  0.00     0.167 HD
ATOM     23  C   UNL A   1      42.770  24.965  27.896  1.00  0.00     0.037 A 
ATOM     24  C   UNL A   1      43.842  30.941  31.696  1.00  0.00     0.037 A 
ATOM     25  C   UNL A   1      44.130  25.339  28.205  1.00  0.00     0.049 A 
ATOM     26  C   UNL A   1      44.979  30.132  31.143  1.00  0.00     0.074 A 
ATOM     27  C   UNL A   1      45.278  24.585  28.031  1.00  0.00     0.029 A 
ATOM     28  N   UNL A   1      44.527  26.549  28.766  1.00  0.00    -0.354 N 
ATOM     29  N   UNL A   1      44.897  29.094  30.345  1.00  0.00    -0.248 NA
ATOM     30  C   UNL A   1      46.345  30.570  31.442  1.00  0.00     0.031 C 
ATOM     31  C   UNL A   1      46.351  25.289  28.578  1.00  0.00     0.029 A 
ATOM     32  C   UNL A   1      45.895  26.524  29.005  1.00  0.00     0.049 A 
ATOM     33  H   UNL A   1      43.930  27.307  28.963  1.00  0.00     0.167 HD
ATOM     34  C   UNL A   1      46.199  28.746  30.079  1.00  0.00     0.074 A 
ATOM     35  C   UNL A   1      47.037  29.796  30.622  1.00  0.00     0.031 C 
ATOM     36  C   UNL A   1      46.674  27.588  29.573  1.00  0.00     0.037 A 
BRANCH  23  37
ATOM     37  C   UNL A   1      42.531  23.584  27.351  1.00  0.00     0.058 A 
ATOM     38  C   UNL A   1      42.591  23.248  25.993  1.00  0.00     0.135 A 
ATOM     39  C   UNL A   1      42.316  22.545  28.275  1.00  0.00     0.135 A 
ATOM     40  F   UNL A   1      42.762  24.201  25.063  1.00  0.00    -0.206 F 
ATOM     41  C   UNL A   1      42.463  21.924  25.572  1.00  0.00     0.059 A 
ATOM     42  C   UNL A   1      42.216  21.218  27.883  1.00  0.00     0.059 A 
ATOM     43  F   UNL A   1      42.234  22.818  29.588  1.00  0.00    -0.206 F 
ATOM     44  C   UNL A   1      42.294  20.916  26.528  1.00  0.00     0.060 A 
BRANCH  44  45
ATOM     45  S   UNL A   1      42.209  19.198  25.980  1.00  0.00     0.124 S 
ATOM     46  O   UNL A   1      43.098  19.213  24.823  1.00  0.00    -0.237 OA
ATOM     47  O   UNL A   1      42.703  18.478  27.151  1.00  0.00    -0.237 OA
ATOM     48  O   UNL A   1      40.793  19.004  25.679  1.00  0.00    -0.744 OA
ENDBRANCH  44  45
ENDBRANCH  23  37
BRANCH  24  49
ATOM     49  C   UNL A   1      44.059  32.371  32.166  1.00  0.00     0.058 A 
ATOM     50  C   UNL A   1      44.514  33.431  31.349  1.00  0.00     0.135 A 
ATOM     51  C   UNL A   1      43.818  32.719  33.508  1.00  0.00     0.135 A 
ATOM     52  F   UNL A   1      44.666  33.253  30.026  1.00  0.00    -0.206 F 
ATOM     53  C   UNL A   1      44.715  34.738  31.818  1.00  0.00     0.059 A 
ATOM     54  C   UNL A   1      43.969  34.030  33.997  1.00  0.00     0.059 A 
ATOM     55  F   UNL A   1      43.369  31.791  34.366  1.00  0.00    -0.206 F 
ATOM     56  C   UNL A   1      44.401  35.038  33.137  1.00  0.00     0.060 A 
BRANCH  56  57
ATOM     57  S   UNL A   1      44.418  36.778  33.647  1.00  0.00     0.124 S 
ATOM     58  O   UNL A   1      45.244  36.735  34.848  1.00  0.00    -0.237 OA
ATOM     59  O   UNL A   1      45.023  37.420  32.483  1.00  0.00    -0.237 OA
ATOM     60  O   UNL A   1      43.006  37.080  33.859  1.00  0.00    -0.744 OA
ENDBRANCH  56  57
ENDBRANCH  24  49
BRANCH  36  61
ATOM     61  C   UNL A   1      48.137  27.372  29.799  1.00  0.00     0.058 A 
ATOM     62  C   UNL A   1      48.570  26.732  30.978  1.00  0.00     0.135 A 
ATOM     63  C   UNL A   1      49.098  27.779  28.870  1.00  0.00     0.135 A 
ATOM     64  F   UNL A   1      47.681  26.340  31.906  1.00  0.00    -0.206 F 
ATOM     65  C   UNL A   1      49.913  26.542  31.244  1.00  0.00     0.059 A 
ATOM     66  C   UNL A   1      50.449  27.551  29.095  1.00  0.00     0.059 A 
ATOM     67  F   UNL A   1      48.728  28.395  27.735  1.00  0.00    -0.206 F 
ATOM     68  C   UNL A   1      50.844  26.940  30.288  1.00  0.00     0.060 A 
BRANCH  68  69
ATOM     69  S   UNL A   1      52.580  26.596  30.617  1.00  0.00     0.124 S 
ATOM     70  O   UNL A   1      53.077  26.286  29.281  1.00  0.00    -0.237 OA
ATOM     71  O   UNL A   1      53.036  27.860  31.186  1.00  0.00    -0.237 OA
ATOM     72  O   UNL A   1      52.531  25.473  31.547  1.00  0.00    -0.744 OA
ENDBRANCH  68  69
ENDBRANCH  36  61
ENDBRANCH  10  11
ENDBRANCH   3   5
ENDBRANCH   2   3
ENDBRANCH   1   2
BRANCH   1  73
ATOM     73  C   UNL A   1      33.168  28.617  25.425  1.00  0.00     0.274 C 
BRANCH  73  74
ATOM     74  O   UNL A   1      33.085  27.483  26.331  1.00  0.00    -0.462 OA
BRANCH  74  75
ATOM     75  C   UNL A   1      31.866  27.160  26.862  1.00  0.00     0.312 C 
ATOM     76  O   UNL A   1      31.396  27.748  27.827  1.00  0.00    -0.252 OA
BRANCH  75  77
ATOM     77  C   UNL A   1      31.114  26.080  26.049  1.00  0.00     0.147 C 
ATOM     78  C   UNL A   1      32.080  24.622  25.766  1.00  0.00     0.129 C 
ATOM     79  C   UNL A   1      30.370  26.528  24.386  1.00  0.00     0.157 C 
ATOM     80  C   UNL A   1      31.869  24.148  24.046  1.00  0.00     0.155 C 
ATOM     81  C   UNL A   1      31.496  26.742  22.481  1.00  0.00     0.004 C 
ATOM     82  O   UNL A   1      30.258  24.695  24.649  1.00  0.00    -0.365 OA
ATOM     83  C   UNL A   1      32.362  25.254  22.379  1.00  0.00     0.004 C 
BRANCH  78  84
ATOM     84  C   UNL A   1      31.554  23.492  26.642  1.00  0.00     0.231 C 
ATOM     85  O   UNL A   1      30.522  23.600  27.311  1.00  0.00    -0.274 OA
ATOM     86  N   UNL A   1      32.229  22.311  26.723  1.00  0.00    -0.326 N 
ATOM     87  H   UNL A   1      31.733  21.605  27.198  1.00  0.00     0.169 HD
BRANCH  86  88
ATOM     88  C   UNL A   1      33.488  21.900  26.263  1.00  0.00     0.041 A 
ATOM     89  C   UNL A   1      33.515  20.710  25.550  1.00  0.00     0.026 A 
ATOM     90  C   UNL A   1      34.687  22.588  26.438  1.00  0.00     0.039 A 
ATOM     91  C   UNL A   1      34.695  20.264  24.957  1.00  0.00     0.003 A 
ATOM     92  C   UNL A   1      35.855  22.199  25.758  1.00  0.00     0.058 A 
ATOM     93  C   UNL A   1      35.847  21.027  25.010  1.00  0.00     0.013 A 
BRANCH  92  94
ATOM     94  C   UNL A   1      37.073  23.074  25.721  1.00  0.00     0.416 C 
ATOM     95  F   UNL A   1      36.972  24.173  26.514  1.00  0.00    -0.166 F 
ATOM     96  F   UNL A   1      38.183  22.404  26.138  1.00  0.00    -0.166 F 
ATOM     97  F   UNL A   1      37.371  23.534  24.473  1.00  0.00    -0.166 F 
ENDBRANCH  92  94
ENDBRANCH  86  88
ENDBRANCH  78  84
ENDBRANCH  75  77
ENDBRANCH  74  75
ENDBRANCH  73  74
ENDBRANCH   1  73
TORSDOF 17
ENDMDL
MODEL 2
REMARK VINA RESULT:     -12.0      4.932     10.142
REMARK SMILES O=C(OCCOC(=O)[C@@H]1[C@@H](C(=O)Nc2cccc(C(F)(F)F)c2)[C@@H]2C=C[C@H]1O2)c1ccc(-c2c3nc(c(-c4c(F)cc(S(=O)(=O)[O-])cc4F)c4ccc([nH]4)c(-c4c(F)cc(S(=O)(=O)[O-])cc4F)c4nc(c(-c5c(F)cc(S(=O)(=O)[O-])cc5F)c5ccc2[nH]5)C=C4)C=C3)cc1
REMARK SMILES IDX 4 1 3 2 2 3 1 4 29 5 30 6 94 7 31 8 93 9 32 10 33 11 34 12
REMARK SMILES IDX 87 13 35 14 92 15 86 16 88 17 36 18 91 19 85 20 84 21 37 23
REMARK SMILES IDX 71 24 50 25 70 26 51 27 54 28 69 29 89 30 52 31 53 32 68 34
REMARK SMILES IDX 90 35 55 36 38 37 39 38 48 39 40 40 41 41 47 42 49 43 42 44
REMARK SMILES IDX 43 45 44 46 45 47 46 48 72 49 73 50 82 51 74 52 75 53 81 54
REMARK SMILES IDX 83 55 76 56 77 57 78 58 79 59 80 60 56 61 57 62 66 63 58 64
REMARK SMILES IDX 59 65 65 66 67 67 60 68 61 69 62 70 63 71 64 72 5 73 6 74
REMARK SMILES IDX 7 75 8 76 9 77 10 78 27 79 24 80 26 81 28 82 25 83 11 84
REMARK SMILES IDX 12 85 13 86 14 88 15 89 23 90 16 91 18 92 17 93 19 94 20 95
REMARK SMILES IDX 21 96 22 97
REMARK H PARENT 88 22 54 33 13 87
REMARK Flexibility Score: inf
ROOT
ATOM      1  C   UNL A   1      39.748  22.030  26.165  1.00  0.00     0.275 C 
ENDROOT
BRANCH   1   2
ATOM      2  O   UNL A   1      41.019  22.736  26.197  1.00  0.00    -0.458 OA
BRANCH   2   3
ATOM      3  C   UNL A   1      41.285  24.052  26.478  1.00  0.00     0.338 C 
ATOM      4  O   UNL A   1      41.760  24.781  25.612  1.00  0.00    -0.246 OA
BRANCH   3   5
ATOM      5  C   UNL A   1      41.250  24.576  27.894  1.00  0.00     0.060 A 
ATOM      6  C   UNL A   1      42.676  24.995  28.385  1.00  0.00     0.016 A 
ATOM      7  C   UNL A   1      39.832  25.369  28.406  1.00  0.00     0.016 A 
ATOM      8  C   UNL A   1      42.916  26.469  29.216  1.00  0.00     0.010 A 
ATOM      9  C   UNL A   1      39.747  26.748  29.406  1.00  0.00     0.010 A 
ATOM     10  C   UNL A   1      41.246  27.460  29.943  1.00  0.00    -0.014 A 
BRANCH  10  11
ATOM     11  C   UNL A   1      40.902  28.403  31.405  1.00  0.00     0.031 A 
ATOM     12  C   UNL A   1      42.057  28.477  32.473  1.00  0.00     0.074 A 
ATOM     13  C   UNL A   1      40.329  29.653  31.533  1.00  0.00     0.049 A 
ATOM     14  N   UNL A   1      42.177  29.403  33.402  1.00  0.00    -0.248 NA
ATOM     15  C   UNL A   1      43.186  27.528  32.498  1.00  0.00     0.031 C 
ATOM     16  C   UNL A   1      40.702  30.895  30.850  1.00  0.00     0.029 A 
ATOM     17  N   UNL A   1      39.183  30.051  32.245  1.00  0.00    -0.354 N 
ATOM     18  C   UNL A   1      43.332  29.133  34.112  1.00  0.00     0.074 A 
ATOM     19  C   UNL A   1      43.946  27.993  33.486  1.00  0.00     0.031 C 
ATOM     20  C   UNL A   1      39.659  31.735  30.849  1.00  0.00     0.029 A 
ATOM     21  C   UNL A   1      38.573  31.198  31.669  1.00  0.00     0.049 A 
ATOM     22  H   UNL A   1      38.844  29.591  33.048  1.00  0.00     0.167 HD
ATOM     23  C   UNL A   1      43.778  29.762  35.223  1.00  0.00     0.037 A 
ATOM     24  C   UNL A   1      37.738  32.136  32.192  1.00  0.00     0.037 A 
ATOM     25  C   UNL A   1      43.126  30.908  35.813  1.00  0.00     0.049 A 
ATOM     26  C   UNL A   1      38.383  32.844  33.349  1.00  0.00     0.074 A 
ATOM     27  C   UNL A   1      43.406  31.512  37.027  1.00  0.00     0.029 A 
ATOM     28  N   UNL A   1      42.061  31.607  35.254  1.00  0.00    -0.354 N 
ATOM     29  N   UNL A   1      39.538  32.564  33.902  1.00  0.00    -0.248 NA
ATOM     30  C   UNL A   1      37.713  34.029  33.890  1.00  0.00     0.031 C 
ATOM     31  C   UNL A   1      42.452  32.504  37.252  1.00  0.00     0.029 A 
ATOM     32  C   UNL A   1      41.635  32.590  36.138  1.00  0.00     0.049 A 
ATOM     33  H   UNL A   1      41.669  31.433  34.367  1.00  0.00     0.167 HD
ATOM     34  C   UNL A   1      39.709  33.523  34.873  1.00  0.00     0.074 A 
ATOM     35  C   UNL A   1      38.654  34.500  34.692  1.00  0.00     0.031 C 
ATOM     36  C   UNL A   1      40.562  33.518  35.919  1.00  0.00     0.037 A 
BRANCH  23  37
ATOM     37  C   UNL A   1      44.873  29.098  36.011  1.00  0.00     0.058 A 
ATOM     38  C   UNL A   1      46.223  29.465  35.953  1.00  0.00     0.135 A 
ATOM     39  C   UNL A   1      44.504  28.098  36.930  1.00  0.00     0.135 A 
ATOM     40  F   UNL A   1      46.640  30.390  35.074  1.00  0.00    -0.206 F 
ATOM     41  C   UNL A   1      47.167  28.873  36.793  1.00  0.00     0.059 A 
ATOM     42  C   UNL A   1      45.419  27.517  37.795  1.00  0.00     0.059 A 
ATOM     43  F   UNL A   1      43.223  27.700  37.012  1.00  0.00    -0.206 F 
ATOM     44  C   UNL A   1      46.750  27.913  37.722  1.00  0.00     0.060 A 
BRANCH  44  45
ATOM     45  S   UNL A   1      47.964  27.211  38.859  1.00  0.00     0.124 S 
ATOM     46  O   UNL A   1      48.840  28.354  39.097  1.00  0.00    -0.237 OA
ATOM     47  O   UNL A   1      47.129  26.806  39.986  1.00  0.00    -0.237 OA
ATOM     48  O   UNL A   1      48.556  26.117  38.095  1.00  0.00    -0.744 OA
ENDBRANCH  44  45
ENDBRANCH  23  37
BRANCH  24  49
ATOM     49  C   UNL A   1      36.693  32.834  31.336  1.00  0.00     0.058 A 
ATOM     50  C   UNL A   1      35.297  32.629  31.436  1.00  0.00     0.135 A 
ATOM     51  C   UNL A   1      37.088  33.752  30.346  1.00  0.00     0.135 A 
ATOM     52  F   UNL A   1      34.790  31.868  32.419  1.00  0.00    -0.206 F 
ATOM     53  C   UNL A   1      34.360  33.283  30.621  1.00  0.00     0.059 A 
ATOM     54  C   UNL A   1      36.168  34.454  29.544  1.00  0.00     0.059 A 
ATOM     55  F   UNL A   1      38.389  34.031  30.177  1.00  0.00    -0.206 F 
ATOM     56  C   UNL A   1      34.804  34.225  29.703  1.00  0.00     0.060 A 
BRANCH  56  57
ATOM     57  S   UNL A   1      33.565  35.240  28.852  1.00  0.00     0.124 S 
ATOM     58  O   UNL A   1      34.396  36.091  28.009  1.00  0.00    -0.237 OA
ATOM     59  O   UNL A   1      32.781  34.225  28.154  1.00  0.00    -0.237 OA
ATOM     60  O   UNL A   1      32.874  35.914  29.946  1.00  0.00    -0.744 OA
ENDBRANCH  56  57
ENDBRANCH  24  49
BRANCH  36  61
ATOM     61  C   UNL A   1      40.211  34.487  37.003  1.00  0.00     0.058 A 
ATOM     62  C   UNL A   1      40.777  35.777  36.993  1.00  0.00     0.135 A 
ATOM     63  C   UNL A   1      39.325  34.157  38.032  1.00  0.00     0.135 A 
ATOM     64  F   UNL A   1      41.647  36.131  36.031  1.00  0.00    -0.206 F 
ATOM     65  C   UNL A   1      40.507  36.692  37.991  1.00  0.00     0.059 A 
ATOM     66  C   UNL A   1      39.000  35.080  39.017  1.00  0.00     0.059 A 
ATOM     67  F   UNL A   1      38.765  32.937  38.081  1.00  0.00    -0.206 F 
ATOM     68  C   UNL A   1      39.603  36.340  38.991  1.00  0.00     0.060 A 
BRANCH  68  69
ATOM     69  S   UNL A   1      39.196  37.583  40.228  1.00  0.00     0.124 S 
ATOM     70  O   UNL A   1      38.212  38.393  39.518  1.00  0.00    -0.237 OA
ATOM     71  O   UNL A   1      38.676  36.765  41.319  1.00  0.00    -0.237 OA
ATOM     72  O   UNL A   1      40.476  38.231  40.488  1.00  0.00    -0.744 OA
ENDBRANCH  68  69
ENDBRANCH  36  61
ENDBRANCH  10  11
ENDBRANCH   3   5
ENDBRANCH   2   3
ENDBRANCH   1   2
BRANCH   1  73
ATOM     73  C   UNL A   1      38.453  22.902  26.348  1.00  0.00     0.274 C 
BRANCH  73  74
ATOM     74  O   UNL A   1      37.217  22.431  25.744  1.00  0.00    -0.462 OA
BRANCH  74  75
ATOM     75  C   UNL A   1      36.502  23.296  24.962  1.00  0.00     0.312 C 
ATOM     76  O   UNL A   1      36.833  23.568  23.816  1.00  0.00    -0.252 OA
BRANCH  75  77
ATOM     77  C   UNL A   1      35.195  23.782  25.629  1.00  0.00     0.147 C 
ATOM     78  C   UNL A   1      33.812  22.722  25.309  1.00  0.00     0.129 C 
ATOM     79  C   UNL A   1      34.584  25.526  25.302  1.00  0.00     0.157 C 
ATOM     80  C   UNL A   1      32.406  23.761  24.896  1.00  0.00     0.155 C 
ATOM     81  C   UNL A   1      33.539  26.206  23.462  1.00  0.00     0.004 C 
ATOM     82  O   UNL A   1      33.294  24.577  26.238  1.00  0.00    -0.365 OA
ATOM     83  C   UNL A   1      32.248  25.072  23.314  1.00  0.00     0.004 C 
BRANCH  78  84
ATOM     84  C   UNL A   1      33.474  21.940  26.572  1.00  0.00     0.231 C 
ATOM     85  O   UNL A   1      33.643  22.406  27.702  1.00  0.00    -0.274 OA
ATOM     86  N   UNL A   1      32.977  20.674  26.487  1.00  0.00    -0.326 N 
ATOM     87  H   UNL A   1      32.660  20.316  27.348  1.00  0.00     0.169 HD
BRANCH  86  88
ATOM     88  C   UNL A   1      32.824  19.780  25.417  1.00  0.00     0.041 A 
ATOM     89  C   UNL A   1      32.253  20.303  24.266  1.00  0.00     0.026 A 
ATOM     90  C   UNL A   1      33.214  18.442  25.407  1.00  0.00     0.039 A 
ATOM     91  C   UNL A   1      32.152  19.532  23.109  1.00  0.00     0.003 A 
ATOM     92  C   UNL A   1      33.210  17.692  24.217  1.00  0.00     0.058 A 
ATOM     93  C   UNL A   1      32.676  18.253  23.063  1.00  0.00     0.013 A 
BRANCH  92  94
ATOM     94  C   UNL A   1      33.873  16.349  24.131  1.00  0.00     0.416 C 
ATOM     95  F   UNL A   1      33.022  15.312  24.352  1.00  0.00    -0.166 F 
ATOM     96  F   UNL A   1      34.419  16.139  22.901  1.00  0.00    -0.166 F 
ATOM     97  F   UNL A   1      34.898  16.194  25.017  1.00  0.00    -0.166 F 
ENDBRANCH  92  94
ENDBRANCH  86  88
ENDBRANCH  78  84
ENDBRANCH  75  77
ENDBRANCH  74  75
ENDBRANCH  73  74
ENDBRANCH   1  73
TORSDOF 17
ENDMDL
MODEL 3
REMARK VINA RESULT:     -12.0      3.486      4.932
REMARK SMILES O=C(OCCOC(=O)[C@@H]1[C@@H](C(=O)Nc2cccc(C(F)(F)F)c2)[C@@H]2C=C[C@H]1O2)c1ccc(-c2c3nc(c(-c4c(F)cc(S(=O)(=O)[O-])cc4F)c4ccc([nH]4)c(-c4c(F)cc(S(=O)(=O)[O-])cc4F)c4nc(c(-c5c(F)cc(S(=O)(=O)[O-])cc5F)c5ccc2[nH]5)C=C4)C=C3)cc1
REMARK SMILES IDX 4 1 3 2 2 3 1 4 29 5 30 6 94 7 31 8 93 9 32 10 33 11 34 12
REMARK SMILES IDX 87 13 35 14 92 15 86 16 88 17 36 18 91 19 85 20 84 21 37 23
REMARK SMILES IDX 71 24 50 25 70 26 51 27 54 28 69 29 89 30 52 31 53 32 68 34
REMARK SMILES IDX 90 35 55 36 38 37 39 38 48 39 40 40 41 41 47 42 49 43 42 44
REMARK SMILES IDX 43 45 44 46 45 47 46 48 72 49 73 50 82 51 74 52 75 53 81 54
REMARK SMILES IDX 83 55 76 56 77 57 78 58 79 59 80 60 56 61 57 62 66 63 58 64
REMARK SMILES IDX 59 65 65 66 67 67 60 68 61 69 62 70 63 71 64 72 5 73 6 74
REMARK SMILES IDX 7 75 8 76 9 77 10 78 27 79 24 80 26 81 28 82 25 83 11 84
REMARK SMILES IDX 12 85 13 86 14 88 15 89 23 90 16 91 18 92 17 93 19 94 20 95
REMARK SMILES IDX 21 96 22 97
REMARK H PARENT 88 22 54 33 13 87
REMARK Flexibility Score: inf
ROOT
ATOM      1  C   UNL A   1      33.744  31.299  27.726  1.00  0.00     0.275 C 
ENDROOT
BRANCH   1   2
ATOM      2  O   UNL A   1      35.052  31.688  28.229  1.00  0.00    -0.458 OA
BRANCH   2   3
ATOM      3  C   UNL A   1      35.578  31.573  29.490  1.00  0.00     0.338 C 
ATOM      4  O   UNL A   1      35.185  32.309  30.389  1.00  0.00    -0.246 OA
BRANCH   3   5
ATOM      5  C   UNL A   1      36.809  30.738  29.754  1.00  0.00     0.060 A 
ATOM      6  C   UNL A   1      36.700  29.330  29.079  1.00  0.00     0.016 A 
ATOM      7  C   UNL A   1      38.292  31.555  29.938  1.00  0.00     0.016 A 
ATOM      8  C   UNL A   1      38.017  28.672  28.210  1.00  0.00     0.010 A 
ATOM      9  C   UNL A   1      39.810  31.044  29.354  1.00  0.00     0.010 A 
ATOM     10  C   UNL A   1      39.876  29.560  28.442  1.00  0.00    -0.014 A 
BRANCH  10  11
ATOM     11  C   UNL A   1      41.540  28.951  28.520  1.00  0.00     0.031 A 
ATOM     12  C   UNL A   1      41.776  27.499  27.959  1.00  0.00     0.074 A 
ATOM     13  C   UNL A   1      42.723  29.575  28.177  1.00  0.00     0.049 A 
ATOM     14  N   UNL A   1      42.935  27.016  27.560  1.00  0.00    -0.248 NA
ATOM     15  C   UNL A   1      40.682  26.530  27.758  1.00  0.00     0.031 C 
ATOM     16  C   UNL A   1      43.059  30.256  26.923  1.00  0.00     0.029 A 
ATOM     17  N   UNL A   1      43.868  29.827  28.955  1.00  0.00    -0.354 N 
ATOM     18  C   UNL A   1      42.717  25.727  27.111  1.00  0.00     0.074 A 
ATOM     19  C   UNL A   1      41.302  25.488  27.209  1.00  0.00     0.031 C 
ATOM     20  C   UNL A   1      44.056  31.122  27.138  1.00  0.00     0.029 A 
ATOM     21  C   UNL A   1      44.578  30.970  28.497  1.00  0.00     0.049 A 
ATOM     22  H   UNL A   1      44.145  29.278  29.725  1.00  0.00     0.167 HD
ATOM     23  C   UNL A   1      43.646  24.826  26.720  1.00  0.00     0.037 A 
ATOM     24  C   UNL A   1      45.874  31.353  28.655  1.00  0.00     0.037 A 
ATOM     25  C   UNL A   1      45.059  25.115  26.635  1.00  0.00     0.049 A 
ATOM     26  C   UNL A   1      46.810  30.326  28.085  1.00  0.00     0.074 A 
ATOM     27  C   UNL A   1      46.095  24.225  26.408  1.00  0.00     0.029 A 
ATOM     28  N   UNL A   1      45.636  26.372  26.791  1.00  0.00    -0.354 N 
ATOM     29  N   UNL A   1      46.492  29.151  27.596  1.00  0.00    -0.248 NA
ATOM     30  C   UNL A   1      48.229  30.674  27.974  1.00  0.00     0.031 C 
ATOM     31  C   UNL A   1      47.300  24.917  26.530  1.00  0.00     0.029 A 
ATOM     32  C   UNL A   1      47.019  26.257  26.734  1.00  0.00     0.049 A 
ATOM     33  H   UNL A   1      45.141  27.213  26.922  1.00  0.00     0.167 HD
ATOM     34  C   UNL A   1      47.678  28.618  27.152  1.00  0.00     0.074 A 
ATOM     35  C   UNL A   1      48.672  29.669  27.237  1.00  0.00     0.031 C 
ATOM     36  C   UNL A   1      47.962  27.333  26.851  1.00  0.00     0.037 A 
BRANCH  23  37
ATOM     37  C   UNL A   1      43.217  23.391  26.587  1.00  0.00     0.058 A 
ATOM     38  C   UNL A   1      43.165  22.690  25.376  1.00  0.00     0.135 A 
ATOM     39  C   UNL A   1      42.929  22.682  27.768  1.00  0.00     0.135 A 
ATOM     40  F   UNL A   1      43.400  23.321  24.214  1.00  0.00    -0.206 F 
ATOM     41  C   UNL A   1      42.860  21.329  25.343  1.00  0.00     0.059 A 
ATOM     42  C   UNL A   1      42.651  21.323  27.763  1.00  0.00     0.059 A 
ATOM     43  F   UNL A   1      42.949  23.314  28.953  1.00  0.00    -0.206 F 
ATOM     44  C   UNL A   1      42.622  20.653  26.545  1.00  0.00     0.060 A 
BRANCH  44  45
ATOM     45  S   UNL A   1      42.305  18.876  26.501  1.00  0.00     0.124 S 
ATOM     46  O   UNL A   1      43.459  18.389  25.752  1.00  0.00    -0.237 OA
ATOM     47  O   UNL A   1      42.279  18.534  27.920  1.00  0.00    -0.237 OA
ATOM     48  O   UNL A   1      41.023  18.774  25.811  1.00  0.00    -0.744 OA
ENDBRANCH  44  45
ENDBRANCH  23  37
BRANCH  24  49
ATOM     49  C   UNL A   1      46.267  32.820  28.711  1.00  0.00     0.058 A 
ATOM     50  C   UNL A   1      46.591  33.614  27.586  1.00  0.00     0.135 A 
ATOM     51  C   UNL A   1      46.345  33.485  29.948  1.00  0.00     0.135 A 
ATOM     52  F   UNL A   1      46.439  33.127  26.344  1.00  0.00    -0.206 F 
ATOM     53  C   UNL A   1      46.961  34.964  27.674  1.00  0.00     0.059 A 
ATOM     54  C   UNL A   1      46.672  34.850  30.063  1.00  0.00     0.059 A 
ATOM     55  F   UNL A   1      46.045  32.828  31.078  1.00  0.00    -0.206 F 
ATOM     56  C   UNL A   1      46.961  35.586  28.916  1.00  0.00     0.060 A 
BRANCH  56  57
ATOM     57  S   UNL A   1      47.185  37.384  28.973  1.00  0.00     0.124 S 
ATOM     58  O   UNL A   1      46.285  37.768  30.054  1.00  0.00    -0.237 OA
ATOM     59  O   UNL A   1      48.612  37.494  29.266  1.00  0.00    -0.237 OA
ATOM     60  O   UNL A   1      46.791  37.815  27.636  1.00  0.00    -0.744 OA
ENDBRANCH  56  57
ENDBRANCH  24  49
BRANCH  36  61
ATOM     61  C   UNL A   1      49.425  27.021  26.808  1.00  0.00     0.058 A 
ATOM     62  C   UNL A   1      50.132  26.838  28.013  1.00  0.00     0.135 A 
ATOM     63  C   UNL A   1      50.119  26.896  25.602  1.00  0.00     0.135 A 
ATOM     64  F   UNL A   1      49.507  26.966  29.195  1.00  0.00    -0.206 F 
ATOM     65  C   UNL A   1      51.490  26.582  28.021  1.00  0.00     0.059 A 
ATOM     66  C   UNL A   1      51.474  26.588  25.587  1.00  0.00     0.059 A 
ATOM     67  F   UNL A   1      49.485  27.065  24.430  1.00  0.00    -0.206 F 
ATOM     68  C   UNL A   1      52.148  26.442  26.802  1.00  0.00     0.060 A 
BRANCH  68  69
ATOM     69  S   UNL A   1      53.897  26.015  26.839  1.00  0.00     0.124 S 
ATOM     70  O   UNL A   1      54.157  25.969  28.274  1.00  0.00    -0.237 OA
ATOM     71  O   UNL A   1      53.910  24.729  26.149  1.00  0.00    -0.237 OA
ATOM     72  O   UNL A   1      54.528  27.117  26.120  1.00  0.00    -0.744 OA
ENDBRANCH  68  69
ENDBRANCH  36  61
ENDBRANCH  10  11
ENDBRANCH   3   5
ENDBRANCH   2   3
ENDBRANCH   1   2
BRANCH   1  73
ATOM     73  C   UNL A   1      33.710  30.105  26.704  1.00  0.00     0.274 C 
BRANCH  73  74
ATOM     74  O   UNL A   1      33.820  28.752  27.224  1.00  0.00    -0.462 OA
BRANCH  74  75
ATOM     75  C   UNL A   1      32.841  27.850  26.910  1.00  0.00     0.312 C 
ATOM     76  O   UNL A   1      31.749  27.849  27.465  1.00  0.00    -0.252 OA
BRANCH  75  77
ATOM     77  C   UNL A   1      33.213  26.936  25.720  1.00  0.00     0.147 C 
ATOM     78  C   UNL A   1      32.008  26.956  24.422  1.00  0.00     0.129 C 
ATOM     79  C   UNL A   1      33.595  25.126  26.030  1.00  0.00     0.157 C 
ATOM     80  C   UNL A   1      31.731  25.259  23.901  1.00  0.00     0.155 C 
ATOM     81  C   UNL A   1      32.091  23.530  26.391  1.00  0.00     0.004 C 
ATOM     82  O   UNL A   1      33.501  25.442  24.204  1.00  0.00    -0.365 OA
ATOM     83  C   UNL A   1      31.020  23.703  25.050  1.00  0.00     0.004 C 
BRANCH  78  84
ATOM     84  C   UNL A   1      32.558  27.737  23.234  1.00  0.00     0.231 C 
ATOM     85  O   UNL A   1      33.758  27.735  22.942  1.00  0.00    -0.274 OA
ATOM     86  N   UNL A   1      31.727  28.483  22.454  1.00  0.00    -0.326 N 
ATOM     87  H   UNL A   1      32.157  28.828  21.638  1.00  0.00     0.169 HD
BRANCH  86  88
ATOM     88  C   UNL A   1      30.382  28.856  22.581  1.00  0.00     0.041 A 
ATOM     89  C   UNL A   1      29.492  27.832  22.873  1.00  0.00     0.026 A 
ATOM     90  C   UNL A   1      29.877  30.151  22.465  1.00  0.00     0.039 A 
ATOM     91  C   UNL A   1      28.149  28.108  23.125  1.00  0.00     0.003 A 
ATOM     92  C   UNL A   1      28.549  30.448  22.818  1.00  0.00     0.058 A 
ATOM     93  C   UNL A   1      27.687  29.410  23.153  1.00  0.00     0.013 A 
BRANCH  92  94
ATOM     94  C   UNL A   1      28.069  31.863  22.958  1.00  0.00     0.416 C 
ATOM     95  F   UNL A   1      27.654  32.410  21.785  1.00  0.00    -0.166 F 
ATOM     96  F   UNL A   1      27.014  31.951  23.815  1.00  0.00    -0.166 F 
ATOM     97  F   UNL A   1      29.016  32.708  23.456  1.00  0.00    -0.166 F 
ENDBRANCH  92  94
ENDBRANCH  86  88
ENDBRANCH  78  84
ENDBRANCH  75  77
ENDBRANCH  74  75
ENDBRANCH  73  74
ENDBRANCH   1  73
TORSDOF 17
ENDMDL
