MODEL 1
REMARK VINA RESULT:     -11.3      0.000      0.000
REMARK SMILES Cc1c(C(=O)Nc2ccc(C(=O)Nc3ccccc3C(=O)OCCOC(=O)c3ccc(-c4c5nc(c(-c6c(F)cc(S(=O)(=O)[O-])cc6F)c6ccc([nH]6)c(-c6c(F)cc(S(=O)(=O)[O-])cc6F)c6nc(c(-c7c(F)cc(S(=O)(=O)[O-])cc7F)c7ccc4[nH]7)C=C6)C=C5)cc3)cc2)cccc1[N+](=O)[O-]
REMARK SMILES IDX 23 1 22 2 20 3 21 4 19 5 14 6 15 7 16 8 18 9 17 10 13 11
REMARK SMILES IDX 11 12 12 13 10 15 7 16 8 17 95 18 9 19 94 20 6 21 4 22 5 23
REMARK SMILES IDX 3 25 1 26 2 27 99 28 96 29 98 30 97 31 100 32 101 33 102 34
REMARK SMILES IDX 24 35 25 36 26 37 27 38 28 39 29 40 93 41 30 42 92 43 31 44
REMARK SMILES IDX 32 45 33 46 86 47 34 48 91 49 85 50 87 51 35 52 90 53 84 54
REMARK SMILES IDX 83 55 36 57 70 58 49 59 69 60 50 61 53 62 68 63 88 64 51 65
REMARK SMILES IDX 52 66 67 68 89 69 54 70 37 71 38 72 47 73 39 74 40 75 46 76
REMARK SMILES IDX 48 77 41 78 42 79 43 80 44 81 45 82 71 83 72 84 81 85 73 86
REMARK SMILES IDX 74 87 80 88 82 89 75 90 76 91 77 92 78 93 79 94 55 95 56 96
REMARK SMILES IDX 65 97 57 98 58 99 64 100 66 101 59 102 60 103 61 104 62 105
REMARK SMILES IDX 63 106
REMARK H PARENT 13 14 6 24 87 56 53 67
REMARK Flexibility Score: inf
ROOT
ATOM      1  C   UNL A   1      43.663  23.555  25.422  1.00  0.00     0.275 C 
ENDROOT
BRANCH   1   2
ATOM      2  O   UNL A   1      42.297  23.917  25.136  1.00  0.00    -0.458 OA
BRANCH   2   3
ATOM      3  C   UNL A   1      42.066  25.242  25.341  1.00  0.00     0.340 C 
ATOM      4  O   UNL A   1      42.722  26.096  24.742  1.00  0.00    -0.246 OA
BRANCH   3   5
ATOM      5  C   UNL A   1      41.087  25.689  26.414  1.00  0.00     0.083 A 
ATOM      6  C   UNL A   1      40.237  24.989  27.311  1.00  0.00     0.056 A 
ATOM      7  C   UNL A   1      39.352  25.753  28.120  1.00  0.00     0.027 A 
ATOM      8  C   UNL A   1      39.373  27.148  28.164  1.00  0.00     0.002 A 
ATOM      9  C   UNL A   1      41.081  27.116  26.498  1.00  0.00     0.018 A 
ATOM     10  C   UNL A   1      40.262  27.834  27.366  1.00  0.00     0.001 A 
BRANCH   6  11
ATOM     11  N   UNL A   1      40.135  23.609  27.641  1.00  0.00    -0.321 N 
ATOM     12  C   UNL A   1      39.591  22.550  26.945  1.00  0.00     0.255 C 
ATOM     13  O   UNL A   1      40.118  21.438  26.962  1.00  0.00    -0.269 OA
ATOM     14  H   UNL A   1      40.517  23.369  28.517  1.00  0.00     0.170 HD
BRANCH  12  15
ATOM     15  C   UNL A   1      38.405  22.668  26.115  1.00  0.00     0.040 A 
ATOM     16  C   UNL A   1      36.316  22.988  24.369  1.00  0.00     0.041 A 
ATOM     17  C   UNL A   1      36.493  23.903  25.393  1.00  0.00     0.027 A 
ATOM     18  C   UNL A   1      37.018  21.780  24.347  1.00  0.00     0.027 A 
ATOM     19  C   UNL A   1      37.643  23.821  26.142  1.00  0.00     0.016 A 
ATOM     20  C   UNL A   1      38.083  21.625  25.235  1.00  0.00     0.016 A 
BRANCH  16  21
ATOM     21  N   UNL A   1      35.687  23.428  23.202  1.00  0.00    -0.322 N 
ATOM     22  C   UNL A   1      34.349  23.202  22.874  1.00  0.00     0.256 C 
ATOM     23  O   UNL A   1      33.947  23.505  21.751  1.00  0.00    -0.269 OA
ATOM     24  H   UNL A   1      36.231  23.937  22.559  1.00  0.00     0.170 HD
BRANCH  22  25
ATOM     25  C   UNL A   1      33.370  22.554  23.844  1.00  0.00     0.049 A 
ATOM     26  C   UNL A   1      32.548  24.701  24.918  1.00  0.00     0.053 C 
ATOM     27  C   UNL A   1      32.697  23.198  24.935  1.00  0.00     0.039 A 
ATOM     28  C   UNL A   1      32.098  22.360  25.922  1.00  0.00     0.273 A 
ATOM     29  C   UNL A   1      33.220  21.169  23.653  1.00  0.00     0.014 A 
ATOM     30  C   UNL A   1      31.957  20.978  25.687  1.00  0.00     0.086 A 
ATOM     31  C   UNL A   1      32.473  20.395  24.536  1.00  0.00     0.008 A 
BRANCH  28  32
ATOM     32  N   UNL A   1      31.713  22.803  27.293  1.00  0.00     0.063 N 
ATOM     33  O   UNL A   1      32.563  22.664  28.188  1.00  0.00    -0.258 OA
ATOM     34  O   UNL A   1      30.601  23.290  27.487  1.00  0.00    -0.258 OA
ENDBRANCH  28  32
ENDBRANCH  22  25
ENDBRANCH  16  21
ENDBRANCH  12  15
ENDBRANCH   6  11
ENDBRANCH   3   5
ENDBRANCH   2   3
ENDBRANCH   1   2
BRANCH   1  35
ATOM     35  C   UNL A   1      44.036  23.177  26.875  1.00  0.00     0.275 C 
BRANCH  35  36
ATOM     36  O   UNL A   1      44.282  24.153  27.921  1.00  0.00    -0.458 OA
BRANCH  36  37
ATOM     37  C   UNL A   1      43.510  24.560  28.968  1.00  0.00     0.338 C 
ATOM     38  O   UNL A   1      42.793  23.821  29.586  1.00  0.00    -0.246 OA
BRANCH  37  39
ATOM     39  C   UNL A   1      43.605  25.984  29.255  1.00  0.00     0.060 A 
ATOM     40  C   UNL A   1      43.689  26.440  30.579  1.00  0.00     0.016 A 
ATOM     41  C   UNL A   1      43.787  26.806  28.150  1.00  0.00     0.016 A 
ATOM     42  C   UNL A   1      44.049  27.756  30.812  1.00  0.00     0.010 A 
ATOM     43  C   UNL A   1      44.291  28.052  28.368  1.00  0.00     0.010 A 
ATOM     44  C   UNL A   1      44.316  28.540  29.693  1.00  0.00    -0.014 A 
BRANCH  44  45
ATOM     45  C   UNL A   1      44.042  29.963  29.686  1.00  0.00     0.031 A 
ATOM     46  C   UNL A   1      42.702  30.431  30.055  1.00  0.00     0.074 A 
ATOM     47  C   UNL A   1      45.252  30.551  29.861  1.00  0.00     0.049 A 
ATOM     48  N   UNL A   1      42.326  31.656  30.054  1.00  0.00    -0.248 NA
ATOM     49  C   UNL A   1      41.606  29.527  30.410  1.00  0.00     0.031 C 
ATOM     50  C   UNL A   1      45.704  31.632  30.715  1.00  0.00     0.029 A 
ATOM     51  N   UNL A   1      46.447  30.101  29.287  1.00  0.00    -0.354 N 
ATOM     52  C   UNL A   1      41.211  31.709  30.873  1.00  0.00     0.074 A 
ATOM     53  C   UNL A   1      40.670  30.379  30.845  1.00  0.00     0.031 C 
ATOM     54  C   UNL A   1      46.972  31.953  30.368  1.00  0.00     0.029 A 
ATOM     55  C   UNL A   1      47.335  31.157  29.195  1.00  0.00     0.049 A 
ATOM     56  H   UNL A   1      46.627  29.178  28.994  1.00  0.00     0.167 HD
ATOM     57  C   UNL A   1      41.072  32.788  31.699  1.00  0.00     0.037 A 
ATOM     58  C   UNL A   1      47.512  31.637  27.927  1.00  0.00     0.037 A 
ATOM     59  C   UNL A   1      42.219  33.684  31.486  1.00  0.00     0.049 A 
ATOM     60  C   UNL A   1      46.712  32.911  27.756  1.00  0.00     0.074 A 
ATOM     61  C   UNL A   1      43.393  33.865  32.200  1.00  0.00     0.029 A 
ATOM     62  N   UNL A   1      42.442  34.218  30.223  1.00  0.00    -0.354 N 
ATOM     63  N   UNL A   1      45.621  33.201  28.415  1.00  0.00    -0.248 NA
ATOM     64  C   UNL A   1      47.174  34.007  26.919  1.00  0.00     0.031 C 
ATOM     65  C   UNL A   1      44.347  34.452  31.322  1.00  0.00     0.029 A 
ATOM     66  C   UNL A   1      43.769  34.581  30.070  1.00  0.00     0.049 A 
ATOM     67  H   UNL A   1      41.750  34.326  29.530  1.00  0.00     0.167 HD
ATOM     68  C   UNL A   1      45.280  34.503  28.185  1.00  0.00     0.074 A 
ATOM     69  C   UNL A   1      46.281  34.960  27.234  1.00  0.00     0.031 C 
ATOM     70  C   UNL A   1      44.234  35.132  28.803  1.00  0.00     0.037 A 
BRANCH  57  71
ATOM     71  C   UNL A   1      40.151  32.915  32.906  1.00  0.00     0.058 A 
ATOM     72  C   UNL A   1      40.388  32.123  34.057  1.00  0.00     0.135 A 
ATOM     73  C   UNL A   1      39.040  33.778  33.025  1.00  0.00     0.135 A 
ATOM     74  F   UNL A   1      41.434  31.291  34.136  1.00  0.00    -0.206 F 
ATOM     75  C   UNL A   1      39.578  32.148  35.194  1.00  0.00     0.059 A 
ATOM     76  C   UNL A   1      38.201  33.808  34.151  1.00  0.00     0.059 A 
ATOM     77  F   UNL A   1      38.737  34.673  32.079  1.00  0.00    -0.206 F 
ATOM     78  C   UNL A   1      38.481  32.990  35.234  1.00  0.00     0.060 A 
BRANCH  78  79
ATOM     79  S   UNL A   1      37.486  33.034  36.736  1.00  0.00     0.124 S 
ATOM     80  O   UNL A   1      37.479  31.631  37.139  1.00  0.00    -0.237 OA
ATOM     81  O   UNL A   1      38.257  33.935  37.586  1.00  0.00    -0.237 OA
ATOM     82  O   UNL A   1      36.201  33.556  36.279  1.00  0.00    -0.744 OA
ENDBRANCH  78  79
ENDBRANCH  57  71
BRANCH  58  83
ATOM     83  C   UNL A   1      47.638  30.527  26.913  1.00  0.00     0.058 A 
ATOM     84  C   UNL A   1      48.816  29.739  26.926  1.00  0.00     0.135 A 
ATOM     85  C   UNL A   1      46.537  29.993  26.227  1.00  0.00     0.135 A 
ATOM     86  F   UNL A   1      49.903  30.180  27.583  1.00  0.00    -0.206 F 
ATOM     87  C   UNL A   1      48.873  28.458  26.370  1.00  0.00     0.059 A 
ATOM     88  C   UNL A   1      46.578  28.720  25.648  1.00  0.00     0.059 A 
ATOM     89  F   UNL A   1      45.366  30.646  26.203  1.00  0.00    -0.206 F 
ATOM     90  C   UNL A   1      47.740  27.951  25.742  1.00  0.00     0.060 A 
BRANCH  90  91
ATOM     91  S   UNL A   1      47.706  26.226  25.185  1.00  0.00     0.124 S 
ATOM     92  O   UNL A   1      47.707  26.388  23.735  1.00  0.00    -0.237 OA
ATOM     93  O   UNL A   1      48.929  25.687  25.766  1.00  0.00    -0.237 OA
ATOM     94  O   UNL A   1      46.456  25.748  25.774  1.00  0.00    -0.744 OA
ENDBRANCH  90  91
ENDBRANCH  58  83
BRANCH  70  95
ATOM     95  C   UNL A   1      43.609  36.411  28.310  1.00  0.00     0.058 A 
ATOM     96  C   UNL A   1      42.604  36.450  27.332  1.00  0.00     0.135 A 
ATOM     97  C   UNL A   1      43.913  37.653  28.922  1.00  0.00     0.135 A 
ATOM     98  F   UNL A   1      42.085  35.332  26.805  1.00  0.00    -0.206 F 
ATOM     99  C   UNL A   1      42.054  37.643  26.881  1.00  0.00     0.059 A 
ATOM    100  C   UNL A   1      43.303  38.843  28.557  1.00  0.00     0.059 A 
ATOM    101  F   UNL A   1      44.809  37.760  29.915  1.00  0.00    -0.206 F 
ATOM    102  C   UNL A   1      42.419  38.836  27.492  1.00  0.00     0.060 A 
BRANCH 102 103
ATOM    103  S   UNL A   1      41.723  40.376  26.893  1.00  0.00     0.124 S 
ATOM    104  O   UNL A   1      42.923  41.067  26.433  1.00  0.00    -0.237 OA
ATOM    105  O   UNL A   1      40.810  39.927  25.846  1.00  0.00    -0.237 OA
ATOM    106  O   UNL A   1      41.081  40.939  28.077  1.00  0.00    -0.744 OA
ENDBRANCH 102 103
ENDBRANCH  70  95
ENDBRANCH  44  45
ENDBRANCH  37  39
ENDBRANCH  36  37
ENDBRANCH  35  36
ENDBRANCH   1  35
TORSDOF 19
ENDMDL
MODEL 2
REMARK VINA RESULT:     -11.3      1.823      3.336
REMARK SMILES Cc1c(C(=O)Nc2ccc(C(=O)Nc3ccccc3C(=O)OCCOC(=O)c3ccc(-c4c5nc(c(-c6c(F)cc(S(=O)(=O)[O-])cc6F)c6ccc([nH]6)c(-c6c(F)cc(S(=O)(=O)[O-])cc6F)c6nc(c(-c7c(F)cc(S(=O)(=O)[O-])cc7F)c7ccc4[nH]7)C=C6)C=C5)cc3)cc2)cccc1[N+](=O)[O-]
REMARK SMILES IDX 23 1 22 2 20 3 21 4 19 5 14 6 15 7 16 8 18 9 17 10 13 11
REMARK SMILES IDX 11 12 12 13 10 15 7 16 8 17 95 18 9 19 94 20 6 21 4 22 5 23
REMARK SMILES IDX 3 25 1 26 2 27 99 28 96 29 98 30 97 31 100 32 101 33 102 34
REMARK SMILES IDX 24 35 25 36 26 37 27 38 28 39 29 40 93 41 30 42 92 43 31 44
REMARK SMILES IDX 32 45 33 46 86 47 34 48 91 49 85 50 87 51 35 52 90 53 84 54
REMARK SMILES IDX 83 55 36 57 70 58 49 59 69 60 50 61 53 62 68 63 88 64 51 65
REMARK SMILES IDX 52 66 67 68 89 69 54 70 37 71 38 72 47 73 39 74 40 75 46 76
REMARK SMILES IDX 48 77 41 78 42 79 43 80 44 81 45 82 71 83 72 84 81 85 73 86
REMARK SMILES IDX 74 87 80 88 82 89 75 90 76 91 77 92 78 93 79 94 55 95 56 96
REMARK SMILES IDX 65 97 57 98 58 99 64 100 66 101 59 102 60 103 61 104 62 105
REMARK SMILES IDX 63 106
REMARK H PARENT 13 14 6 24 87 56 53 67
REMARK Flexibility Score: inf
ROOT
ATOM      1  C   UNL A   1      42.608  22.003  25.745  1.00  0.00     0.275 C 
ENDROOT
BRANCH   1   2
ATOM      2  O   UNL A   1      41.635  20.943  25.836  1.00  0.00    -0.458 OA
BRANCH   2   3
ATOM      3  C   UNL A   1      40.729  21.163  26.826  1.00  0.00     0.340 C 
ATOM      4  O   UNL A   1      40.503  20.301  27.677  1.00  0.00    -0.246 OA
BRANCH   3   5
ATOM      5  C   UNL A   1      39.880  22.425  26.818  1.00  0.00     0.083 A 
ATOM      6  C   UNL A   1      38.907  22.938  25.921  1.00  0.00     0.056 A 
ATOM      7  C   UNL A   1      38.384  24.235  26.179  1.00  0.00     0.027 A 
ATOM      8  C   UNL A   1      38.688  24.963  27.330  1.00  0.00     0.002 A 
ATOM      9  C   UNL A   1      40.155  23.199  27.986  1.00  0.00     0.018 A 
ATOM     10  C   UNL A   1      39.560  24.430  28.254  1.00  0.00     0.001 A 
BRANCH   6  11
ATOM     11  N   UNL A   1      38.252  22.361  24.798  1.00  0.00    -0.321 N 
ATOM     12  C   UNL A   1      36.921  22.346  24.435  1.00  0.00     0.255 C 
ATOM     13  O   UNL A   1      36.580  22.450  23.257  1.00  0.00    -0.269 OA
ATOM     14  H   UNL A   1      38.850  21.890  24.172  1.00  0.00     0.170 HD
BRANCH  12  15
ATOM     15  C   UNL A   1      35.834  22.256  25.395  1.00  0.00     0.040 A 
ATOM     16  C   UNL A   1      33.630  22.163  27.022  1.00  0.00     0.041 A 
ATOM     17  C   UNL A   1      34.493  23.242  27.106  1.00  0.00     0.027 A 
ATOM     18  C   UNL A   1      33.980  21.011  26.313  1.00  0.00     0.027 A 
ATOM     19  C   UNL A   1      35.486  23.352  26.163  1.00  0.00     0.016 A 
ATOM     20  C   UNL A   1      35.099  21.066  25.483  1.00  0.00     0.016 A 
BRANCH  16  21
ATOM     21  N   UNL A   1      32.292  22.367  27.368  1.00  0.00    -0.322 N 
ATOM     22  C   UNL A   1      31.485  23.398  26.887  1.00  0.00     0.256 C 
ATOM     23  O   UNL A   1      30.369  23.566  27.380  1.00  0.00    -0.269 OA
ATOM     24  H   UNL A   1      31.887  21.732  28.002  1.00  0.00     0.170 HD
BRANCH  22  25
ATOM     25  C   UNL A   1      31.948  24.357  25.798  1.00  0.00     0.049 A 
ATOM     26  C   UNL A   1      31.370  22.870  23.825  1.00  0.00     0.053 C 
ATOM     27  C   UNL A   1      32.107  24.053  24.406  1.00  0.00     0.039 A 
ATOM     28  C   UNL A   1      32.867  24.969  23.618  1.00  0.00     0.273 A 
ATOM     29  C   UNL A   1      32.323  25.623  26.283  1.00  0.00     0.014 A 
ATOM     30  C   UNL A   1      33.214  26.232  24.137  1.00  0.00     0.086 A 
ATOM     31  C   UNL A   1      32.900  26.574  25.447  1.00  0.00     0.008 A 
BRANCH  28  32
ATOM     32  N   UNL A   1      33.470  24.651  22.292  1.00  0.00     0.063 N 
ATOM     33  O   UNL A   1      33.483  25.563  21.448  1.00  0.00    -0.258 OA
ATOM     34  O   UNL A   1      33.933  23.531  22.084  1.00  0.00    -0.258 OA
ENDBRANCH  28  32
ENDBRANCH  22  25
ENDBRANCH  16  21
ENDBRANCH  12  15
ENDBRANCH   6  11
ENDBRANCH   3   5
ENDBRANCH   2   3
ENDBRANCH   1   2
BRANCH   1  35
ATOM     35  C   UNL A   1      43.870  21.921  26.636  1.00  0.00     0.275 C 
BRANCH  35  36
ATOM     36  O   UNL A   1      44.300  22.989  27.520  1.00  0.00    -0.458 OA
BRANCH  36  37
ATOM     37  C   UNL A   1      43.750  23.481  28.666  1.00  0.00     0.338 C 
ATOM     38  O   UNL A   1      43.475  22.797  29.614  1.00  0.00    -0.246 OA
BRANCH  37  39
ATOM     39  C   UNL A   1      43.491  24.913  28.630  1.00  0.00     0.060 A 
ATOM     40  C   UNL A   1      43.092  25.535  27.437  1.00  0.00     0.016 A 
ATOM     41  C   UNL A   1      43.488  25.552  29.863  1.00  0.00     0.016 A 
ATOM     42  C   UNL A   1      42.594  26.825  27.489  1.00  0.00     0.010 A 
ATOM     43  C   UNL A   1      42.858  26.755  29.948  1.00  0.00     0.010 A 
ATOM     44  C   UNL A   1      42.513  27.415  28.747  1.00  0.00    -0.014 A 
BRANCH  44  45
ATOM     45  C   UNL A   1      42.676  28.845  28.922  1.00  0.00     0.031 A 
ATOM     46  C   UNL A   1      41.482  29.688  29.035  1.00  0.00     0.074 A 
ATOM     47  C   UNL A   1      43.903  28.989  29.481  1.00  0.00     0.049 A 
ATOM     48  N   UNL A   1      41.492  30.964  29.157  1.00  0.00    -0.248 NA
ATOM     49  C   UNL A   1      40.118  29.162  28.953  1.00  0.00     0.031 C 
ATOM     50  C   UNL A   1      44.388  29.783  30.594  1.00  0.00     0.029 A 
ATOM     51  N   UNL A   1      45.028  28.228  29.142  1.00  0.00    -0.354 N 
ATOM     52  C   UNL A   1      40.256  31.303  29.680  1.00  0.00     0.074 A 
ATOM     53  C   UNL A   1      39.385  30.229  29.292  1.00  0.00     0.031 C 
ATOM     54  C   UNL A   1      45.739  29.703  30.623  1.00  0.00     0.029 A 
ATOM     55  C   UNL A   1      46.172  28.942  29.452  1.00  0.00     0.049 A 
ATOM     56  H   UNL A   1      45.009  27.327  28.745  1.00  0.00     0.167 HD
ATOM     57  C   UNL A   1      40.207  32.290  30.624  1.00  0.00     0.037 A 
ATOM     58  C   UNL A   1      46.831  29.450  28.366  1.00  0.00     0.037 A 
ATOM     59  C   UNL A   1      41.575  32.779  30.852  1.00  0.00     0.049 A 
ATOM     60  C   UNL A   1      46.515  30.925  28.233  1.00  0.00     0.074 A 
ATOM     61  C   UNL A   1      42.500  32.503  31.846  1.00  0.00     0.029 A 
ATOM     62  N   UNL A   1      42.292  33.323  29.792  1.00  0.00    -0.354 N 
ATOM     63  N   UNL A   1      45.416  31.493  28.651  1.00  0.00    -0.248 NA
ATOM     64  C   UNL A   1      47.491  31.882  27.736  1.00  0.00     0.031 C 
ATOM     65  C   UNL A   1      43.790  32.824  31.340  1.00  0.00     0.029 A 
ATOM     66  C   UNL A   1      43.653  33.246  30.027  1.00  0.00     0.049 A 
ATOM     67  H   UNL A   1      41.885  33.711  28.983  1.00  0.00     0.167 HD
ATOM     68  C   UNL A   1      45.544  32.850  28.576  1.00  0.00     0.074 A 
ATOM     69  C   UNL A   1      46.861  33.041  27.987  1.00  0.00     0.031 C 
ATOM     70  C   UNL A   1      44.595  33.727  29.025  1.00  0.00     0.037 A 
BRANCH  57  71
ATOM     71  C   UNL A   1      39.061  32.600  31.578  1.00  0.00     0.058 A 
ATOM     72  C   UNL A   1      38.426  33.866  31.526  1.00  0.00     0.135 A 
ATOM     73  C   UNL A   1      38.521  31.729  32.550  1.00  0.00     0.135 A 
ATOM     74  F   UNL A   1      38.775  34.792  30.624  1.00  0.00    -0.206 F 
ATOM     75  C   UNL A   1      37.393  34.249  32.382  1.00  0.00     0.059 A 
ATOM     76  C   UNL A   1      37.494  32.098  33.434  1.00  0.00     0.059 A 
ATOM     77  F   UNL A   1      38.925  30.460  32.663  1.00  0.00    -0.206 F 
ATOM     78  C   UNL A   1      36.932  33.361  33.340  1.00  0.00     0.060 A 
BRANCH  78  79
ATOM     79  S   UNL A   1      35.563  33.870  34.395  1.00  0.00     0.124 S 
ATOM     80  O   UNL A   1      35.490  35.304  34.130  1.00  0.00    -0.237 OA
ATOM     81  O   UNL A   1      34.461  33.071  33.871  1.00  0.00    -0.237 OA
ATOM     82  O   UNL A   1      36.013  33.507  35.736  1.00  0.00    -0.744 OA
ENDBRANCH  78  79
ENDBRANCH  57  71
BRANCH  58  83
ATOM     83  C   UNL A   1      46.912  28.455  27.234  1.00  0.00     0.058 A 
ATOM     84  C   UNL A   1      47.912  27.453  27.294  1.00  0.00     0.135 A 
ATOM     85  C   UNL A   1      45.853  28.228  26.343  1.00  0.00     0.135 A 
ATOM     86  F   UNL A   1      48.945  27.596  28.143  1.00  0.00    -0.206 F 
ATOM     87  C   UNL A   1      47.825  26.255  26.579  1.00  0.00     0.059 A 
ATOM     88  C   UNL A   1      45.754  27.043  25.605  1.00  0.00     0.059 A 
ATOM     89  F   UNL A   1      44.836  29.097  26.255  1.00  0.00    -0.206 F 
ATOM     90  C   UNL A   1      46.730  26.054  25.744  1.00  0.00     0.060 A 
BRANCH  90  91
ATOM     91  S   UNL A   1      46.475  24.442  24.957  1.00  0.00     0.124 S 
ATOM     92  O   UNL A   1      46.870  23.529  26.024  1.00  0.00    -0.237 OA
ATOM     93  O   UNL A   1      45.053  24.471  24.639  1.00  0.00    -0.237 OA
ATOM     94  O   UNL A   1      47.385  24.523  23.814  1.00  0.00    -0.744 OA
ENDBRANCH  90  91
ENDBRANCH  58  83
BRANCH  70  95
ATOM     95  C   UNL A   1      44.533  35.179  28.626  1.00  0.00     0.058 A 
ATOM     96  C   UNL A   1      45.266  36.187  29.270  1.00  0.00     0.135 A 
ATOM     97  C   UNL A   1      43.823  35.586  27.468  1.00  0.00     0.135 A 
ATOM     98  F   UNL A   1      46.127  35.913  30.260  1.00  0.00    -0.206 F 
ATOM     99  C   UNL A   1      45.179  37.521  28.895  1.00  0.00     0.059 A 
ATOM    100  C   UNL A   1      43.804  36.897  27.017  1.00  0.00     0.059 A 
ATOM    101  F   UNL A   1      43.126  34.721  26.716  1.00  0.00    -0.206 F 
ATOM    102  C   UNL A   1      44.436  37.867  27.774  1.00  0.00     0.060 A 
BRANCH 102 103
ATOM    103  S   UNL A   1      44.309  39.594  27.306  1.00  0.00     0.124 S 
ATOM    104  O   UNL A   1      44.091  40.223  28.604  1.00  0.00    -0.237 OA
ATOM    105  O   UNL A   1      45.605  39.852  26.686  1.00  0.00    -0.237 OA
ATOM    106  O   UNL A   1      43.170  39.613  26.394  1.00  0.00    -0.744 OA
ENDBRANCH 102 103
ENDBRANCH  70  95
ENDBRANCH  44  45
ENDBRANCH  37  39
ENDBRANCH  36  37
ENDBRANCH  35  36
ENDBRANCH   1  35
TORSDOF 19
ENDMDL
MODEL 3
REMARK VINA RESULT:     -11.1      3.867      9.471
REMARK SMILES Cc1c(C(=O)Nc2ccc(C(=O)Nc3ccccc3C(=O)OCCOC(=O)c3ccc(-c4c5nc(c(-c6c(F)cc(S(=O)(=O)[O-])cc6F)c6ccc([nH]6)c(-c6c(F)cc(S(=O)(=O)[O-])cc6F)c6nc(c(-c7c(F)cc(S(=O)(=O)[O-])cc7F)c7ccc4[nH]7)C=C6)C=C5)cc3)cc2)cccc1[N+](=O)[O-]
REMARK SMILES IDX 23 1 22 2 20 3 21 4 19 5 14 6 15 7 16 8 18 9 17 10 13 11
REMARK SMILES IDX 11 12 12 13 10 15 7 16 8 17 95 18 9 19 94 20 6 21 4 22 5 23
REMARK SMILES IDX 3 25 1 26 2 27 99 28 96 29 98 30 97 31 100 32 101 33 102 34
REMARK SMILES IDX 24 35 25 36 26 37 27 38 28 39 29 40 93 41 30 42 92 43 31 44
REMARK SMILES IDX 32 45 33 46 86 47 34 48 91 49 85 50 87 51 35 52 90 53 84 54
REMARK SMILES IDX 83 55 36 57 70 58 49 59 69 60 50 61 53 62 68 63 88 64 51 65
REMARK SMILES IDX 52 66 67 68 89 69 54 70 37 71 38 72 47 73 39 74 40 75 46 76
REMARK SMILES IDX 48 77 41 78 42 79 43 80 44 81 45 82 71 83 72 84 81 85 73 86
REMARK SMILES IDX 74 87 80 88 82 89 75 90 76 91 77 92 78 93 79 94 55 95 56 96
REMARK SMILES IDX 65 97 57 98 58 99 64 100 66 101 59 102 60 103 61 104 62 105
REMARK SMILES IDX 63 106
REMARK H PARENT 13 14 6 24 87 56 53 67
REMARK Flexibility Score: inf
ROOT
ATOM      1  C   UNL A   1      36.477  31.558  33.591  1.00  0.00     0.275 C 
ENDROOT
BRANCH   1   2
ATOM      2  O   UNL A   1      36.701  30.520  32.615  1.00  0.00    -0.458 OA
BRANCH   2   3
ATOM      3  C   UNL A   1      36.368  30.919  31.358  1.00  0.00     0.340 C 
ATOM      4  O   UNL A   1      35.445  31.714  31.173  1.00  0.00    -0.246 OA
BRANCH   3   5
ATOM      5  C   UNL A   1      37.040  30.283  30.152  1.00  0.00     0.083 A 
ATOM      6  C   UNL A   1      36.947  30.510  28.753  1.00  0.00     0.056 A 
ATOM      7  C   UNL A   1      37.654  29.630  27.890  1.00  0.00     0.027 A 
ATOM      8  C   UNL A   1      38.529  28.646  28.355  1.00  0.00     0.002 A 
ATOM      9  C   UNL A   1      37.951  29.272  30.584  1.00  0.00     0.018 A 
ATOM     10  C   UNL A   1      38.698  28.483  29.712  1.00  0.00     0.001 A 
BRANCH   6  11
ATOM     11  N   UNL A   1      36.318  31.538  27.997  1.00  0.00    -0.321 N 
ATOM     12  C   UNL A   1      35.002  31.709  27.621  1.00  0.00     0.255 C 
ATOM     13  O   UNL A   1      34.483  32.824  27.603  1.00  0.00    -0.269 OA
ATOM     14  H   UNL A   1      36.926  32.248  27.688  1.00  0.00     0.170 HD
BRANCH  12  15
ATOM     15  C   UNL A   1      34.124  30.606  27.269  1.00  0.00     0.040 A 
ATOM     16  C   UNL A   1      32.441  28.483  26.852  1.00  0.00     0.041 A 
ATOM     17  C   UNL A   1      33.806  28.308  26.705  1.00  0.00     0.027 A 
ATOM     18  C   UNL A   1      31.883  29.759  26.964  1.00  0.00     0.027 A 
ATOM     19  C   UNL A   1      34.635  29.334  27.090  1.00  0.00     0.016 A 
ATOM     20  C   UNL A   1      32.744  30.835  27.181  1.00  0.00     0.016 A 
BRANCH  16  21
ATOM     21  N   UNL A   1      31.675  27.374  27.217  1.00  0.00    -0.322 N 
ATOM     22  C   UNL A   1      30.959  26.564  26.334  1.00  0.00     0.256 C 
ATOM     23  O   UNL A   1      30.199  25.708  26.787  1.00  0.00    -0.269 OA
ATOM     24  H   UNL A   1      31.637  27.145  28.174  1.00  0.00     0.170 HD
BRANCH  22  25
ATOM     25  C   UNL A   1      31.051  26.725  24.823  1.00  0.00     0.049 A 
ATOM     26  C   UNL A   1      33.024  25.168  24.475  1.00  0.00     0.053 C 
ATOM     27  C   UNL A   1      32.118  26.270  23.980  1.00  0.00     0.039 A 
ATOM     28  C   UNL A   1      32.186  26.809  22.661  1.00  0.00     0.273 A 
ATOM     29  C   UNL A   1      29.998  27.477  24.270  1.00  0.00     0.014 A 
ATOM     30  C   UNL A   1      31.106  27.549  22.141  1.00  0.00     0.086 A 
ATOM     31  C   UNL A   1      29.998  27.839  22.927  1.00  0.00     0.008 A 
BRANCH  28  32
ATOM     32  N   UNL A   1      33.398  26.779  21.792  1.00  0.00     0.063 N 
ATOM     33  O   UNL A   1      33.674  25.695  21.249  1.00  0.00    -0.258 OA
ATOM     34  O   UNL A   1      34.063  27.801  21.635  1.00  0.00    -0.258 OA
ENDBRANCH  28  32
ENDBRANCH  22  25
ENDBRANCH  16  21
ENDBRANCH  12  15
ENDBRANCH   6  11
ENDBRANCH   3   5
ENDBRANCH   2   3
ENDBRANCH   1   2
BRANCH   1  35
ATOM     35  C   UNL A   1      37.665  32.005  34.474  1.00  0.00     0.275 C 
BRANCH  35  36
ATOM     36  O   UNL A   1      38.738  32.862  34.005  1.00  0.00    -0.458 OA
BRANCH  36  37
ATOM     37  C   UNL A   1      38.711  34.037  33.315  1.00  0.00     0.338 C 
ATOM     38  O   UNL A   1      37.944  34.928  33.558  1.00  0.00    -0.246 OA
BRANCH  37  39
ATOM     39  C   UNL A   1      39.677  34.107  32.228  1.00  0.00     0.060 A 
ATOM     40  C   UNL A   1      39.267  33.926  30.898  1.00  0.00     0.016 A 
ATOM     41  C   UNL A   1      40.949  34.536  32.584  1.00  0.00     0.016 A 
ATOM     42  C   UNL A   1      40.139  34.263  29.877  1.00  0.00     0.010 A 
ATOM     43  C   UNL A   1      41.752  35.016  31.595  1.00  0.00     0.010 A 
ATOM     44  C   UNL A   1      41.376  34.778  30.254  1.00  0.00    -0.014 A 
BRANCH  44  45
ATOM     45  C   UNL A   1      42.564  34.549  29.456  1.00  0.00     0.031 A 
ATOM     46  C   UNL A   1      43.171  33.214  29.452  1.00  0.00     0.074 A 
ATOM     47  C   UNL A   1      42.512  35.488  28.479  1.00  0.00     0.049 A 
ATOM     48  N   UNL A   1      44.238  32.894  28.818  1.00  0.00    -0.248 NA
ATOM     49  C   UNL A   1      42.652  32.095  30.240  1.00  0.00     0.031 C 
ATOM     50  C   UNL A   1      42.723  35.426  27.045  1.00  0.00     0.029 A 
ATOM     51  N   UNL A   1      42.079  36.807  28.663  1.00  0.00    -0.354 N 
ATOM     52  C   UNL A   1      44.205  31.516  28.697  1.00  0.00     0.074 A 
ATOM     53  C   UNL A   1      43.382  31.070  29.786  1.00  0.00     0.031 C 
ATOM     54  C   UNL A   1      42.732  36.689  26.557  1.00  0.00     0.029 A 
ATOM     55  C   UNL A   1      42.641  37.611  27.688  1.00  0.00     0.049 A 
ATOM     56  H   UNL A   1      41.471  37.113  29.374  1.00  0.00     0.167 HD
ATOM     57  C   UNL A   1      44.628  30.964  27.520  1.00  0.00     0.037 A 
ATOM     58  C   UNL A   1      43.643  38.426  28.139  1.00  0.00     0.037 A 
ATOM     59  C   UNL A   1      45.046  32.053  26.624  1.00  0.00     0.049 A 
ATOM     60  C   UNL A   1      44.982  37.834  27.754  1.00  0.00     0.074 A 
ATOM     61  C   UNL A   1      44.401  32.680  25.570  1.00  0.00     0.029 A 
ATOM     62  N   UNL A   1      46.072  32.906  27.017  1.00  0.00    -0.354 N 
ATOM     63  N   UNL A   1      45.211  36.560  27.575  1.00  0.00    -0.248 NA
ATOM     64  C   UNL A   1      46.125  38.666  27.412  1.00  0.00     0.031 C 
ATOM     65  C   UNL A   1      45.009  33.952  25.384  1.00  0.00     0.029 A 
ATOM     66  C   UNL A   1      45.987  34.116  26.351  1.00  0.00     0.049 A 
ATOM     67  H   UNL A   1      46.765  32.678  27.678  1.00  0.00     0.167 HD
ATOM     68  C   UNL A   1      46.450  36.390  27.027  1.00  0.00     0.074 A 
ATOM     69  C   UNL A   1      46.985  37.741  26.953  1.00  0.00     0.031 C 
ATOM     70  C   UNL A   1      46.946  35.175  26.639  1.00  0.00     0.037 A 
BRANCH  57  71
ATOM     71  C   UNL A   1      44.375  29.548  27.019  1.00  0.00     0.058 A 
ATOM     72  C   UNL A   1      45.470  28.684  26.770  1.00  0.00     0.135 A 
ATOM     73  C   UNL A   1      43.115  28.961  26.771  1.00  0.00     0.135 A 
ATOM     74  F   UNL A   1      46.733  29.062  27.007  1.00  0.00    -0.206 F 
ATOM     75  C   UNL A   1      45.335  27.385  26.279  1.00  0.00     0.059 A 
ATOM     76  C   UNL A   1      42.955  27.662  26.261  1.00  0.00     0.059 A 
ATOM     77  F   UNL A   1      41.972  29.593  27.056  1.00  0.00    -0.206 F 
ATOM     78  C   UNL A   1      44.072  26.879  26.021  1.00  0.00     0.060 A 
BRANCH  78  79
ATOM     79  S   UNL A   1      43.931  25.181  25.436  1.00  0.00     0.124 S 
ATOM     80  O   UNL A   1      43.711  24.446  26.678  1.00  0.00    -0.237 OA
ATOM     81  O   UNL A   1      42.785  25.262  24.536  1.00  0.00    -0.237 OA
ATOM     82  O   UNL A   1      45.216  24.935  24.787  1.00  0.00    -0.744 OA
ENDBRANCH  78  79
ENDBRANCH  57  71
BRANCH  58  83
ATOM     83  C   UNL A   1      43.303  39.065  29.463  1.00  0.00     0.058 A 
ATOM     84  C   UNL A   1      44.041  38.667  30.606  1.00  0.00     0.135 A 
ATOM     85  C   UNL A   1      42.587  40.266  29.568  1.00  0.00     0.135 A 
ATOM     86  F   UNL A   1      44.768  37.537  30.567  1.00  0.00    -0.206 F 
ATOM     87  C   UNL A   1      44.138  39.458  31.755  1.00  0.00     0.059 A 
ATOM     88  C   UNL A   1      42.656  41.064  30.715  1.00  0.00     0.059 A 
ATOM     89  F   UNL A   1      41.900  40.745  28.522  1.00  0.00    -0.206 F 
ATOM     90  C   UNL A   1      43.448  40.666  31.794  1.00  0.00     0.060 A 
BRANCH  90  91
ATOM     91  S   UNL A   1      43.703  41.810  33.176  1.00  0.00     0.124 S 
ATOM     92  O   UNL A   1      42.489  42.617  33.114  1.00  0.00    -0.237 OA
ATOM     93  O   UNL A   1      43.809  40.907  34.314  1.00  0.00    -0.237 OA
ATOM     94  O   UNL A   1      44.939  42.484  32.779  1.00  0.00    -0.744 OA
ENDBRANCH  90  91
ENDBRANCH  58  83
BRANCH  70  95
ATOM     95  C   UNL A   1      48.407  34.901  26.392  1.00  0.00     0.058 A 
ATOM     96  C   UNL A   1      49.090  35.338  25.247  1.00  0.00     0.135 A 
ATOM     97  C   UNL A   1      49.213  34.297  27.390  1.00  0.00     0.135 A 
ATOM     98  F   UNL A   1      48.493  36.089  24.311  1.00  0.00    -0.206 F 
ATOM     99  C   UNL A   1      50.433  35.059  25.034  1.00  0.00     0.059 A 
ATOM    100  C   UNL A   1      50.577  34.098  27.239  1.00  0.00     0.059 A 
ATOM    101  F   UNL A   1      48.709  33.884  28.563  1.00  0.00    -0.206 F 
ATOM    102  C   UNL A   1      51.165  34.428  26.031  1.00  0.00     0.060 A 
BRANCH 102 103
ATOM    103  S   UNL A   1      52.894  34.050  25.742  1.00  0.00     0.124 S 
ATOM    104  O   UNL A   1      53.309  33.600  27.066  1.00  0.00    -0.237 OA
ATOM    105  O   UNL A   1      52.827  33.017  24.714  1.00  0.00    -0.237 OA
ATOM    106  O   UNL A   1      53.450  35.326  25.304  1.00  0.00    -0.744 OA
ENDBRANCH 102 103
ENDBRANCH  70  95
ENDBRANCH  44  45
ENDBRANCH  37  39
ENDBRANCH  36  37
ENDBRANCH  35  36
ENDBRANCH   1  35
TORSDOF 19
ENDMDL
