MODEL 1
REMARK VINA RESULT:     -11.5      0.000      0.000
REMARK SMILES COc1ccc(-c2ccc(CCC(=O)OCCOC(=O)c3ccc(-c4c5nc(c(-c6c(F)cc(S(=O)(=O)[O-])cc6F)c6ccc([nH]6)c(-c6c(F)cc(S(=O)(=O)[O-])cc6F)c6nc(c(-c7c(F)cc(S(=O)(=O)[O-])cc7F)c7ccc4[nH]7)C=C6)C=C5)cc3)n2-c2ccc(C(C)=O)cc2)cc1
REMARK SMILES IDX 16 1 15 2 13 3 14 4 12 5 11 6 10 7 7 8 8 9 87 10 9 11 6 12
REMARK SMILES IDX 3 13 4 14 98 15 5 16 97 17 2 18 1 19 88 20 89 21 96 22 90 23
REMARK SMILES IDX 95 24 91 25 92 26 93 27 94 28 17 29 18 30 19 31 20 32 21 33
REMARK SMILES IDX 22 34 86 35 23 36 85 37 24 38 25 39 26 40 79 41 27 42 84 43
REMARK SMILES IDX 78 44 80 45 28 46 83 47 77 48 76 49 29 51 63 52 42 53 62 54
REMARK SMILES IDX 43 55 46 56 61 57 81 58 44 59 45 60 60 62 82 63 47 64 30 65
REMARK SMILES IDX 31 66 40 67 32 68 33 69 39 70 41 71 34 72 35 73 36 74 37 75
REMARK SMILES IDX 38 76 64 77 65 78 74 79 66 80 67 81 73 82 75 83 68 84 69 85
REMARK SMILES IDX 70 86 71 87 72 88 48 89 49 90 58 91 50 92 51 93 57 94 59 95
REMARK SMILES IDX 52 96 53 97 54 98 55 99 56 100
REMARK H PARENT 80 50 46 61
REMARK Flexibility Score: inf
ROOT
ATOM      1  C   UNL A   1      35.741  22.120  24.515  1.00  0.00     0.274 C 
ENDROOT
BRANCH   1   2
ATOM      2  O   UNL A   1      34.792  23.103  24.974  1.00  0.00    -0.462 OA
BRANCH   2   3
ATOM      3  C   UNL A   1      33.764  22.657  25.739  1.00  0.00     0.306 C 
ATOM      4  O   UNL A   1      33.232  21.556  25.616  1.00  0.00    -0.252 OA
BRANCH   3   5
ATOM      5  C   UNL A   1      33.269  23.700  26.714  1.00  0.00     0.129 C 
BRANCH   5   6
ATOM      6  C   UNL A   1      31.768  23.997  26.689  1.00  0.00     0.066 C 
BRANCH   6   7
ATOM      7  C   UNL A   1      31.291  24.529  25.361  1.00  0.00     0.024 A 
ATOM      8  C   UNL A   1      30.401  26.029  23.940  1.00  0.00     0.053 A 
ATOM      9  C   UNL A   1      30.178  24.770  23.416  1.00  0.00     0.029 A 
ATOM     10  N   UNL A   1      31.255  25.879  25.029  1.00  0.00    -0.314 N 
ATOM     11  C   UNL A   1      30.772  23.842  24.279  1.00  0.00     0.024 A 
BRANCH   8  12
ATOM     12  C   UNL A   1      29.951  27.277  23.353  1.00  0.00    -0.001 A 
ATOM     13  C   UNL A   1      29.154  29.720  22.283  1.00  0.00     0.118 A 
ATOM     14  C   UNL A   1      28.224  28.907  22.933  1.00  0.00     0.047 A 
ATOM     15  C   UNL A   1      30.495  29.339  22.213  1.00  0.00     0.047 A 
ATOM     16  C   UNL A   1      28.620  27.681  23.463  1.00  0.00     0.014 A 
ATOM     17  C   UNL A   1      30.893  28.117  22.747  1.00  0.00     0.014 A 
BRANCH  13  18
ATOM     18  O   UNL A   1      28.684  30.905  21.786  1.00  0.00    -0.497 OA
ATOM     19  C   UNL A   1      28.684  31.946  22.759  1.00  0.00     0.278 C 
ENDBRANCH  13  18
ENDBRANCH   8  12
BRANCH  10  20
ATOM     20  C   UNL A   1      31.996  26.896  25.683  1.00  0.00     0.046 A 
ATOM     21  C   UNL A   1      31.370  27.633  26.698  1.00  0.00     0.027 A 
ATOM     22  C   UNL A   1      33.315  27.169  25.328  1.00  0.00     0.027 A 
ATOM     23  C   UNL A   1      32.053  28.666  27.343  1.00  0.00     0.014 A 
ATOM     24  C   UNL A   1      33.986  28.218  25.964  1.00  0.00     0.014 A 
ATOM     25  C   UNL A   1      33.363  28.981  26.969  1.00  0.00     0.017 A 
BRANCH  25  26
ATOM     26  C   UNL A   1      34.142  30.105  27.575  1.00  0.00     0.159 C 
ATOM     27  C   UNL A   1      35.612  29.959  27.886  1.00  0.00     0.093 C 
ATOM     28  O   UNL A   1      33.571  31.171  27.814  1.00  0.00    -0.295 OA
ENDBRANCH  25  26
ENDBRANCH  10  20
ENDBRANCH   6   7
ENDBRANCH   5   6
ENDBRANCH   3   5
ENDBRANCH   2   3
ENDBRANCH   1   2
BRANCH   1  29
ATOM     29  C   UNL A   1      37.197  22.603  24.532  1.00  0.00     0.275 C 
BRANCH  29  30
ATOM     30  O   UNL A   1      37.460  23.669  25.459  1.00  0.00    -0.458 OA
BRANCH  30  31
ATOM     31  C   UNL A   1      38.594  23.466  26.157  1.00  0.00     0.338 C 
ATOM     32  O   UNL A   1      39.130  22.396  26.372  1.00  0.00    -0.246 OA
BRANCH  31  33
ATOM     33  C   UNL A   1      39.127  24.629  26.839  1.00  0.00     0.060 A 
ATOM     34  C   UNL A   1      40.120  25.352  26.163  1.00  0.00     0.016 A 
ATOM     35  C   UNL A   1      38.936  24.729  28.216  1.00  0.00     0.016 A 
ATOM     36  C   UNL A   1      40.971  26.162  26.888  1.00  0.00     0.010 A 
ATOM     37  C   UNL A   1      39.800  25.523  28.944  1.00  0.00     0.010 A 
ATOM     38  C   UNL A   1      40.815  26.228  28.276  1.00  0.00    -0.014 A 
BRANCH  38  39
ATOM     39  C   UNL A   1      41.628  27.217  29.008  1.00  0.00     0.031 A 
ATOM     40  C   UNL A   1      40.817  28.473  29.331  1.00  0.00     0.074 A 
ATOM     41  C   UNL A   1      42.930  26.870  29.237  1.00  0.00     0.049 A 
ATOM     42  N   UNL A   1      41.209  29.676  29.612  1.00  0.00    -0.248 NA
ATOM     43  C   UNL A   1      39.325  28.404  29.252  1.00  0.00     0.031 C 
ATOM     44  C   UNL A   1      43.553  25.598  28.816  1.00  0.00     0.029 A 
ATOM     45  N   UNL A   1      43.990  27.500  29.860  1.00  0.00    -0.354 N 
ATOM     46  C   UNL A   1      40.060  30.422  29.949  1.00  0.00     0.074 A 
ATOM     47  C   UNL A   1      38.928  29.630  29.588  1.00  0.00     0.031 C 
ATOM     48  C   UNL A   1      44.867  25.581  29.128  1.00  0.00     0.029 A 
ATOM     49  C   UNL A   1      45.228  26.812  29.804  1.00  0.00     0.049 A 
ATOM     50  H   UNL A   1      43.892  28.370  30.311  1.00  0.00     0.167 HD
ATOM     51  C   UNL A   1      40.098  31.604  30.624  1.00  0.00     0.037 A 
ATOM     52  C   UNL A   1      46.459  27.222  30.242  1.00  0.00     0.037 A 
ATOM     53  C   UNL A   1      41.442  31.998  30.869  1.00  0.00     0.049 A 
ATOM     54  C   UNL A   1      46.214  28.492  30.951  1.00  0.00     0.074 A 
ATOM     55  C   UNL A   1      42.411  32.525  30.058  1.00  0.00     0.029 A 
ATOM     56  N   UNL A   1      42.025  31.547  32.028  1.00  0.00    -0.354 N 
ATOM     57  N   UNL A   1      45.627  28.600  32.106  1.00  0.00    -0.248 NA
ATOM     58  C   UNL A   1      46.577  29.748  30.285  1.00  0.00     0.031 C 
ATOM     59  C   UNL A   1      43.617  32.011  30.579  1.00  0.00     0.029 A 
ATOM     60  C   UNL A   1      43.349  31.298  31.753  1.00  0.00     0.049 A 
ATOM     61  H   UNL A   1      41.576  31.425  32.896  1.00  0.00     0.167 HD
ATOM     62  C   UNL A   1      45.271  29.927  32.141  1.00  0.00     0.074 A 
ATOM     63  C   UNL A   1      46.115  30.608  31.186  1.00  0.00     0.031 C 
ATOM     64  C   UNL A   1      44.022  30.281  32.535  1.00  0.00     0.037 A 
BRANCH  51  65
ATOM     65  C   UNL A   1      39.002  32.389  31.284  1.00  0.00     0.058 A 
ATOM     66  C   UNL A   1      38.455  31.890  32.489  1.00  0.00     0.135 A 
ATOM     67  C   UNL A   1      38.273  33.401  30.640  1.00  0.00     0.135 A 
ATOM     68  F   UNL A   1      39.108  30.960  33.206  1.00  0.00    -0.206 F 
ATOM     69  C   UNL A   1      37.205  32.277  32.957  1.00  0.00     0.059 A 
ATOM     70  C   UNL A   1      37.032  33.834  31.116  1.00  0.00     0.059 A 
ATOM     71  F   UNL A   1      38.702  33.938  29.490  1.00  0.00    -0.206 F 
ATOM     72  C   UNL A   1      36.484  33.224  32.243  1.00  0.00     0.060 A 
BRANCH  72  73
ATOM     73  S   UNL A   1      34.804  33.605  32.781  1.00  0.00     0.124 S 
ATOM     74  O   UNL A   1      34.877  33.313  34.208  1.00  0.00    -0.237 OA
ATOM     75  O   UNL A   1      34.680  35.018  32.432  1.00  0.00    -0.237 OA
ATOM     76  O   UNL A   1      33.982  32.698  31.987  1.00  0.00    -0.744 OA
ENDBRANCH  72  73
ENDBRANCH  51  65
BRANCH  52  77
ATOM     77  C   UNL A   1      47.914  26.808  30.090  1.00  0.00     0.058 A 
ATOM     78  C   UNL A   1      48.741  27.056  28.986  1.00  0.00     0.135 A 
ATOM     79  C   UNL A   1      48.600  26.243  31.206  1.00  0.00     0.135 A 
ATOM     80  F   UNL A   1      48.237  27.455  27.813  1.00  0.00    -0.206 F 
ATOM     81  C   UNL A   1      50.141  26.919  29.041  1.00  0.00     0.059 A 
ATOM     82  C   UNL A   1      49.987  26.145  31.304  1.00  0.00     0.059 A 
ATOM     83  F   UNL A   1      47.944  25.793  32.285  1.00  0.00    -0.206 F 
ATOM     84  C   UNL A   1      50.759  26.523  30.224  1.00  0.00     0.060 A 
BRANCH  84  85
ATOM     85  S   UNL A   1      52.551  26.625  30.418  1.00  0.00     0.124 S 
ATOM     86  O   UNL A   1      53.019  26.382  29.060  1.00  0.00    -0.237 OA
ATOM     87  O   UNL A   1      52.740  27.983  30.924  1.00  0.00    -0.237 OA
ATOM     88  O   UNL A   1      52.836  25.568  31.386  1.00  0.00    -0.744 OA
ENDBRANCH  84  85
ENDBRANCH  52  77
BRANCH  64  89
ATOM     89  C   UNL A   1      43.356  29.294  33.470  1.00  0.00     0.058 A 
ATOM     90  C   UNL A   1      43.775  29.199  34.805  1.00  0.00     0.135 A 
ATOM     91  C   UNL A   1      42.370  28.378  33.066  1.00  0.00     0.135 A 
ATOM     92  F   UNL A   1      44.723  30.030  35.269  1.00  0.00    -0.206 F 
ATOM     93  C   UNL A   1      43.233  28.263  35.691  1.00  0.00     0.059 A 
ATOM     94  C   UNL A   1      41.800  27.440  33.931  1.00  0.00     0.059 A 
ATOM     95  F   UNL A   1      41.936  28.365  31.806  1.00  0.00    -0.206 F 
ATOM     96  C   UNL A   1      42.239  27.390  35.246  1.00  0.00     0.060 A 
BRANCH  96  97
ATOM     97  S   UNL A   1      41.524  26.207  36.412  1.00  0.00     0.124 S 
ATOM     98  O   UNL A   1      40.805  27.077  37.338  1.00  0.00    -0.237 OA
ATOM     99  O   UNL A   1      40.690  25.387  35.540  1.00  0.00    -0.237 OA
ATOM    100  O   UNL A   1      42.688  25.529  36.977  1.00  0.00    -0.744 OA
ENDBRANCH  96  97
ENDBRANCH  64  89
ENDBRANCH  38  39
ENDBRANCH  31  33
ENDBRANCH  30  31
ENDBRANCH  29  30
ENDBRANCH   1  29
TORSDOF 20
ENDMDL
MODEL 2
REMARK VINA RESULT:     -11.4      1.956      2.621
REMARK SMILES COc1ccc(-c2ccc(CCC(=O)OCCOC(=O)c3ccc(-c4c5nc(c(-c6c(F)cc(S(=O)(=O)[O-])cc6F)c6ccc([nH]6)c(-c6c(F)cc(S(=O)(=O)[O-])cc6F)c6nc(c(-c7c(F)cc(S(=O)(=O)[O-])cc7F)c7ccc4[nH]7)C=C6)C=C5)cc3)n2-c2ccc(C(C)=O)cc2)cc1
REMARK SMILES IDX 16 1 15 2 13 3 14 4 12 5 11 6 10 7 7 8 8 9 87 10 9 11 6 12
REMARK SMILES IDX 3 13 4 14 98 15 5 16 97 17 2 18 1 19 88 20 89 21 96 22 90 23
REMARK SMILES IDX 95 24 91 25 92 26 93 27 94 28 17 29 18 30 19 31 20 32 21 33
REMARK SMILES IDX 22 34 86 35 23 36 85 37 24 38 25 39 26 40 79 41 27 42 84 43
REMARK SMILES IDX 78 44 80 45 28 46 83 47 77 48 76 49 29 51 63 52 42 53 62 54
REMARK SMILES IDX 43 55 46 56 61 57 81 58 44 59 45 60 60 62 82 63 47 64 30 65
REMARK SMILES IDX 31 66 40 67 32 68 33 69 39 70 41 71 34 72 35 73 36 74 37 75
REMARK SMILES IDX 38 76 64 77 65 78 74 79 66 80 67 81 73 82 75 83 68 84 69 85
REMARK SMILES IDX 70 86 71 87 72 88 48 89 49 90 58 91 50 92 51 93 57 94 59 95
REMARK SMILES IDX 52 96 53 97 54 98 55 99 56 100
REMARK H PARENT 80 50 46 61
REMARK Flexibility Score: inf
ROOT
ATOM      1  C   UNL A   1      35.504  20.563  25.049  1.00  0.00     0.274 C 
ENDROOT
BRANCH   1   2
ATOM      2  O   UNL A   1      35.048  21.908  25.294  1.00  0.00    -0.462 OA
BRANCH   2   3
ATOM      3  C   UNL A   1      33.850  22.049  25.915  1.00  0.00     0.306 C 
ATOM      4  O   UNL A   1      33.009  21.159  26.016  1.00  0.00    -0.252 OA
BRANCH   3   5
ATOM      5  C   UNL A   1      33.608  23.461  26.399  1.00  0.00     0.129 C 
BRANCH   5   6
ATOM      6  C   UNL A   1      32.147  23.875  26.586  1.00  0.00     0.066 C 
BRANCH   6   7
ATOM      7  C   UNL A   1      31.513  24.398  25.321  1.00  0.00     0.024 A 
ATOM      8  C   UNL A   1      30.387  25.855  24.029  1.00  0.00     0.053 A 
ATOM      9  C   UNL A   1      30.213  24.595  23.490  1.00  0.00     0.029 A 
ATOM     10  N   UNL A   1      31.344  25.749  25.034  1.00  0.00    -0.314 N 
ATOM     11  C   UNL A   1      30.952  23.697  24.269  1.00  0.00     0.024 A 
BRANCH   8  12
ATOM     12  C   UNL A   1      29.792  27.078  23.521  1.00  0.00    -0.001 A 
ATOM     13  C   UNL A   1      28.590  29.368  22.494  1.00  0.00     0.118 A 
ATOM     14  C   UNL A   1      29.954  29.150  22.300  1.00  0.00     0.047 A 
ATOM     15  C   UNL A   1      27.812  28.417  23.157  1.00  0.00     0.047 A 
ATOM     16  C   UNL A   1      30.559  28.008  22.819  1.00  0.00     0.014 A 
ATOM     17  C   UNL A   1      28.415  27.272  23.671  1.00  0.00     0.014 A 
BRANCH  13  18
ATOM     18  O   UNL A   1      28.073  30.516  21.958  1.00  0.00    -0.497 OA
ATOM     19  C   UNL A   1      27.864  31.531  22.935  1.00  0.00     0.278 C 
ENDBRANCH  13  18
ENDBRANCH   8  12
BRANCH  10  20
ATOM     20  C   UNL A   1      32.062  26.806  25.649  1.00  0.00     0.046 A 
ATOM     21  C   UNL A   1      31.485  27.456  26.748  1.00  0.00     0.027 A 
ATOM     22  C   UNL A   1      33.312  27.200  25.177  1.00  0.00     0.027 A 
ATOM     23  C   UNL A   1      32.142  28.524  27.361  1.00  0.00     0.014 A 
ATOM     24  C   UNL A   1      33.956  28.283  25.782  1.00  0.00     0.014 A 
ATOM     25  C   UNL A   1      33.377  28.961  26.872  1.00  0.00     0.017 A 
BRANCH  25  26
ATOM     26  C   UNL A   1      34.119  30.129  27.441  1.00  0.00     0.159 C 
ATOM     27  C   UNL A   1      35.477  29.959  28.074  1.00  0.00     0.093 C 
ATOM     28  O   UNL A   1      33.611  31.250  27.378  1.00  0.00    -0.295 OA
ENDBRANCH  25  26
ENDBRANCH  10  20
ENDBRANCH   6   7
ENDBRANCH   5   6
ENDBRANCH   3   5
ENDBRANCH   2   3
ENDBRANCH   1   2
BRANCH   1  29
ATOM     29  C   UNL A   1      37.015  20.449  24.811  1.00  0.00     0.275 C 
BRANCH  29  30
ATOM     30  O   UNL A   1      37.769  21.608  25.204  1.00  0.00    -0.458 OA
BRANCH  30  31
ATOM     31  C   UNL A   1      38.941  21.279  25.779  1.00  0.00     0.338 C 
ATOM     32  O   UNL A   1      39.478  20.187  25.757  1.00  0.00    -0.246 OA
BRANCH  31  33
ATOM     33  C   UNL A   1      39.530  22.295  26.629  1.00  0.00     0.060 A 
ATOM     34  C   UNL A   1      39.432  23.621  26.183  1.00  0.00     0.016 A 
ATOM     35  C   UNL A   1      40.465  21.894  27.582  1.00  0.00     0.016 A 
ATOM     36  C   UNL A   1      40.319  24.560  26.670  1.00  0.00     0.010 A 
ATOM     37  C   UNL A   1      41.366  22.829  28.054  1.00  0.00     0.010 A 
ATOM     38  C   UNL A   1      41.290  24.152  27.589  1.00  0.00    -0.014 A 
BRANCH  38  39
ATOM     39  C   UNL A   1      42.122  25.198  28.213  1.00  0.00     0.031 A 
ATOM     40  C   UNL A   1      41.259  26.319  28.795  1.00  0.00     0.074 A 
ATOM     41  C   UNL A   1      43.474  25.012  28.139  1.00  0.00     0.049 A 
ATOM     42  N   UNL A   1      41.561  27.547  29.082  1.00  0.00    -0.248 NA
ATOM     43  C   UNL A   1      39.803  26.062  29.021  1.00  0.00     0.031 C 
ATOM     44  C   UNL A   1      44.135  23.856  27.499  1.00  0.00     0.029 A 
ATOM     45  N   UNL A   1      44.563  25.742  28.577  1.00  0.00    -0.354 N 
ATOM     46  C   UNL A   1      40.433  28.119  29.708  1.00  0.00     0.074 A 
ATOM     47  C   UNL A   1      39.349  27.206  29.528  1.00  0.00     0.031 C 
ATOM     48  C   UNL A   1      45.478  23.993  27.531  1.00  0.00     0.029 A 
ATOM     49  C   UNL A   1      45.831  25.224  28.212  1.00  0.00     0.049 A 
ATOM     50  H   UNL A   1      44.464  26.567  29.106  1.00  0.00     0.167 HD
ATOM     51  C   UNL A   1      40.477  29.259  30.452  1.00  0.00     0.037 A 
ATOM     52  C   UNL A   1      47.071  25.767  28.416  1.00  0.00     0.037 A 
ATOM     53  C   UNL A   1      41.788  29.811  30.443  1.00  0.00     0.049 A 
ATOM     54  C   UNL A   1      46.839  26.955  29.258  1.00  0.00     0.074 A 
ATOM     55  C   UNL A   1      42.492  30.501  29.493  1.00  0.00     0.029 A 
ATOM     56  N   UNL A   1      42.655  29.379  31.417  1.00  0.00    -0.354 N 
ATOM     57  N   UNL A   1      46.506  26.925  30.515  1.00  0.00    -0.248 NA
ATOM     58  C   UNL A   1      46.902  28.281  28.633  1.00  0.00     0.031 C 
ATOM     59  C   UNL A   1      43.833  30.122  29.712  1.00  0.00     0.029 A 
ATOM     60  C   UNL A   1      43.909  29.319  30.855  1.00  0.00     0.049 A 
ATOM     61  H   UNL A   1      42.421  29.154  32.347  1.00  0.00     0.167 HD
ATOM     62  C   UNL A   1      46.015  28.191  30.727  1.00  0.00     0.074 A 
ATOM     63  C   UNL A   1      46.548  29.025  29.675  1.00  0.00     0.031 C 
ATOM     64  C   UNL A   1      44.847  28.359  31.398  1.00  0.00     0.037 A 
BRANCH  51  65
ATOM     65  C   UNL A   1      39.466  29.859  31.384  1.00  0.00     0.058 A 
ATOM     66  C   UNL A   1      39.054  31.192  31.155  1.00  0.00     0.135 A 
ATOM     67  C   UNL A   1      39.138  29.311  32.635  1.00  0.00     0.135 A 
ATOM     68  F   UNL A   1      39.274  31.784  29.969  1.00  0.00    -0.206 F 
ATOM     69  C   UNL A   1      38.471  31.974  32.145  1.00  0.00     0.059 A 
ATOM     70  C   UNL A   1      38.514  30.067  33.631  1.00  0.00     0.059 A 
ATOM     71  F   UNL A   1      39.487  28.057  32.953  1.00  0.00    -0.206 F 
ATOM     72  C   UNL A   1      38.237  31.412  33.393  1.00  0.00     0.060 A 
BRANCH  72  73
ATOM     73  S   UNL A   1      37.618  32.480  34.709  1.00  0.00     0.124 S 
ATOM     74  O   UNL A   1      37.827  31.647  35.890  1.00  0.00    -0.237 OA
ATOM     75  O   UNL A   1      38.490  33.646  34.598  1.00  0.00    -0.237 OA
ATOM     76  O   UNL A   1      36.227  32.709  34.332  1.00  0.00    -0.744 OA
ENDBRANCH  72  73
ENDBRANCH  51  65
BRANCH  52  77
ATOM     77  C   UNL A   1      48.497  25.554  27.935  1.00  0.00     0.058 A 
ATOM     78  C   UNL A   1      48.943  25.592  26.606  1.00  0.00     0.135 A 
ATOM     79  C   UNL A   1      49.551  25.451  28.891  1.00  0.00     0.135 A 
ATOM     80  F   UNL A   1      48.085  25.548  25.581  1.00  0.00    -0.206 F 
ATOM     81  C   UNL A   1      50.305  25.692  26.266  1.00  0.00     0.059 A 
ATOM     82  C   UNL A   1      50.902  25.600  28.585  1.00  0.00     0.059 A 
ATOM     83  F   UNL A   1      49.305  25.242  30.192  1.00  0.00    -0.206 F 
ATOM     84  C   UNL A   1      51.273  25.758  27.266  1.00  0.00     0.060 A 
BRANCH  84  85
ATOM     85  S   UNL A   1      52.984  26.185  26.879  1.00  0.00     0.124 S 
ATOM     86  O   UNL A   1      53.497  26.596  28.180  1.00  0.00    -0.237 OA
ATOM     87  O   UNL A   1      53.514  24.930  26.352  1.00  0.00    -0.237 OA
ATOM     88  O   UNL A   1      52.840  27.250  25.889  1.00  0.00    -0.744 OA
ENDBRANCH  84  85
ENDBRANCH  52  77
BRANCH  64  89
ATOM     89  C   UNL A   1      44.517  27.246  32.370  1.00  0.00     0.058 A 
ATOM     90  C   UNL A   1      44.853  27.375  33.726  1.00  0.00     0.135 A 
ATOM     91  C   UNL A   1      43.952  26.017  31.988  1.00  0.00     0.135 A 
ATOM     92  F   UNL A   1      45.409  28.514  34.171  1.00  0.00    -0.206 F 
ATOM     93  C   UNL A   1      44.623  26.352  34.650  1.00  0.00     0.059 A 
ATOM     94  C   UNL A   1      43.699  24.981  32.891  1.00  0.00     0.059 A 
ATOM     95  F   UNL A   1      43.637  25.786  30.715  1.00  0.00    -0.206 F 
ATOM     96  C   UNL A   1      44.039  25.158  34.225  1.00  0.00     0.060 A 
BRANCH  96  97
ATOM     97  S   UNL A   1      43.717  23.857  35.438  1.00  0.00     0.124 S 
ATOM     98  O   UNL A   1      44.513  22.747  34.923  1.00  0.00    -0.237 OA
ATOM     99  O   UNL A   1      44.205  24.463  36.673  1.00  0.00    -0.237 OA
ATOM    100  O   UNL A   1      42.271  23.666  35.368  1.00  0.00    -0.744 OA
ENDBRANCH  96  97
ENDBRANCH  64  89
ENDBRANCH  38  39
ENDBRANCH  31  33
ENDBRANCH  30  31
ENDBRANCH  29  30
ENDBRANCH   1  29
TORSDOF 20
ENDMDL
MODEL 3
REMARK VINA RESULT:     -11.3      3.960      9.706
REMARK SMILES COc1ccc(-c2ccc(CCC(=O)OCCOC(=O)c3ccc(-c4c5nc(c(-c6c(F)cc(S(=O)(=O)[O-])cc6F)c6ccc([nH]6)c(-c6c(F)cc(S(=O)(=O)[O-])cc6F)c6nc(c(-c7c(F)cc(S(=O)(=O)[O-])cc7F)c7ccc4[nH]7)C=C6)C=C5)cc3)n2-c2ccc(C(C)=O)cc2)cc1
REMARK SMILES IDX 16 1 15 2 13 3 14 4 12 5 11 6 10 7 7 8 8 9 87 10 9 11 6 12
REMARK SMILES IDX 3 13 4 14 98 15 5 16 97 17 2 18 1 19 88 20 89 21 96 22 90 23
REMARK SMILES IDX 95 24 91 25 92 26 93 27 94 28 17 29 18 30 19 31 20 32 21 33
REMARK SMILES IDX 22 34 86 35 23 36 85 37 24 38 25 39 26 40 79 41 27 42 84 43
REMARK SMILES IDX 78 44 80 45 28 46 83 47 77 48 76 49 29 51 63 52 42 53 62 54
REMARK SMILES IDX 43 55 46 56 61 57 81 58 44 59 45 60 60 62 82 63 47 64 30 65
REMARK SMILES IDX 31 66 40 67 32 68 33 69 39 70 41 71 34 72 35 73 36 74 37 75
REMARK SMILES IDX 38 76 64 77 65 78 74 79 66 80 67 81 73 82 75 83 68 84 69 85
REMARK SMILES IDX 70 86 71 87 72 88 48 89 49 90 58 91 50 92 51 93 57 94 59 95
REMARK SMILES IDX 52 96 53 97 54 98 55 99 56 100
REMARK H PARENT 80 50 46 61
REMARK Flexibility Score: inf
ROOT
ATOM      1  C   UNL A   1      31.840  28.053  25.245  1.00  0.00     0.274 C 
ENDROOT
BRANCH   1   2
ATOM      2  O   UNL A   1      31.687  28.396  23.854  1.00  0.00    -0.462 OA
BRANCH   2   3
ATOM      3  C   UNL A   1      32.780  28.258  23.061  1.00  0.00     0.306 C 
ATOM      4  O   UNL A   1      33.707  29.063  23.007  1.00  0.00    -0.252 OA
BRANCH   3   5
ATOM      5  C   UNL A   1      32.701  27.040  22.169  1.00  0.00     0.129 C 
BRANCH   5   6
ATOM      6  C   UNL A   1      33.544  25.834  22.588  1.00  0.00     0.066 C 
BRANCH   6   7
ATOM      7  C   UNL A   1      32.716  24.674  23.082  1.00  0.00     0.024 A 
ATOM      8  C   UNL A   1      32.284  22.537  23.636  1.00  0.00     0.053 A 
ATOM      9  C   UNL A   1      31.085  23.133  23.295  1.00  0.00     0.029 A 
ATOM     10  N   UNL A   1      33.246  23.542  23.692  1.00  0.00    -0.314 N 
ATOM     11  C   UNL A   1      31.350  24.474  22.995  1.00  0.00     0.024 A 
BRANCH   8  12
ATOM     12  C   UNL A   1      32.455  21.148  24.018  1.00  0.00    -0.001 A 
ATOM     13  C   UNL A   1      32.696  18.463  24.713  1.00  0.00     0.118 A 
ATOM     14  C   UNL A   1      32.755  19.447  25.701  1.00  0.00     0.047 A 
ATOM     15  C   UNL A   1      32.464  18.815  23.382  1.00  0.00     0.047 A 
ATOM     16  C   UNL A   1      32.642  20.791  25.354  1.00  0.00     0.014 A 
ATOM     17  C   UNL A   1      32.344  20.158  23.035  1.00  0.00     0.014 A 
BRANCH  13  18
ATOM     18  O   UNL A   1      32.821  17.167  25.134  1.00  0.00    -0.497 OA
ATOM     19  C   UNL A   1      33.283  16.299  24.105  1.00  0.00     0.278 C 
ENDBRANCH  13  18
ENDBRANCH   8  12
BRANCH  10  20
ATOM     20  C   UNL A   1      34.530  23.466  24.289  1.00  0.00     0.046 A 
ATOM     21  C   UNL A   1      34.668  23.850  25.630  1.00  0.00     0.027 A 
ATOM     22  C   UNL A   1      35.636  23.026  23.567  1.00  0.00     0.027 A 
ATOM     23  C   UNL A   1      35.921  23.825  26.245  1.00  0.00     0.014 A 
ATOM     24  C   UNL A   1      36.891  23.021  24.183  1.00  0.00     0.014 A 
ATOM     25  C   UNL A   1      37.049  23.427  25.522  1.00  0.00     0.017 A 
BRANCH  25  26
ATOM     26  C   UNL A   1      38.431  23.421  26.094  1.00  0.00     0.159 C 
ATOM     27  C   UNL A   1      39.118  24.703  26.494  1.00  0.00     0.093 C 
ATOM     28  O   UNL A   1      39.012  22.344  26.250  1.00  0.00    -0.295 OA
ENDBRANCH  25  26
ENDBRANCH  10  20
ENDBRANCH   6   7
ENDBRANCH   5   6
ENDBRANCH   3   5
ENDBRANCH   2   3
ENDBRANCH   1   2
BRANCH   1  29
ATOM     29  C   UNL A   1      31.915  29.265  26.182  1.00  0.00     0.275 C 
BRANCH  29  30
ATOM     30  O   UNL A   1      33.050  30.118  25.965  1.00  0.00    -0.458 OA
BRANCH  30  31
ATOM     31  C   UNL A   1      33.325  30.882  27.039  1.00  0.00     0.338 C 
ATOM     32  O   UNL A   1      32.578  31.684  27.568  1.00  0.00    -0.246 OA
BRANCH  31  33
ATOM     33  C   UNL A   1      34.698  30.843  27.502  1.00  0.00     0.060 A 
ATOM     34  C   UNL A   1      35.107  29.672  28.155  1.00  0.00     0.016 A 
ATOM     35  C   UNL A   1      35.381  32.051  27.636  1.00  0.00     0.016 A 
ATOM     36  C   UNL A   1      36.202  29.719  28.995  1.00  0.00     0.010 A 
ATOM     37  C   UNL A   1      36.464  32.104  28.492  1.00  0.00     0.010 A 
ATOM     38  C   UNL A   1      36.861  30.940  29.170  1.00  0.00    -0.014 A 
BRANCH  38  39
ATOM     39  C   UNL A   1      38.117  30.933  29.944  1.00  0.00     0.031 A 
ATOM     40  C   UNL A   1      39.155  30.006  29.308  1.00  0.00     0.074 A 
ATOM     41  C   UNL A   1      38.128  31.701  31.074  1.00  0.00     0.049 A 
ATOM     42  N   UNL A   1      40.199  29.437  29.825  1.00  0.00    -0.248 NA
ATOM     43  C   UNL A   1      38.961  29.576  27.889  1.00  0.00     0.031 C 
ATOM     44  C   UNL A   1      36.995  32.522  31.550  1.00  0.00     0.029 A 
ATOM     45  N   UNL A   1      39.075  31.952  32.048  1.00  0.00    -0.354 N 
ATOM     46  C   UNL A   1      40.883  28.788  28.775  1.00  0.00     0.074 A 
ATOM     47  C   UNL A   1      40.013  28.799  27.642  1.00  0.00     0.031 C 
ATOM     48  C   UNL A   1      37.292  33.111  32.728  1.00  0.00     0.029 A 
ATOM     49  C   UNL A   1      38.643  32.765  33.126  1.00  0.00     0.049 A 
ATOM     50  H   UNL A   1      39.990  31.588  31.997  1.00  0.00     0.167 HD
ATOM     51  C   UNL A   1      42.181  28.383  28.854  1.00  0.00     0.037 A 
ATOM     52  C   UNL A   1      39.316  33.104  34.269  1.00  0.00     0.037 A 
ATOM     53  C   UNL A   1      42.707  28.643  30.150  1.00  0.00     0.049 A 
ATOM     54  C   UNL A   1      40.681  32.577  34.085  1.00  0.00     0.074 A 
ATOM     55  C   UNL A   1      42.527  28.029  31.360  1.00  0.00     0.029 A 
ATOM     56  N   UNL A   1      43.287  29.872  30.353  1.00  0.00    -0.354 N 
ATOM     57  N   UNL A   1      41.566  33.066  33.268  1.00  0.00    -0.248 NA
ATOM     58  C   UNL A   1      41.064  31.358  34.807  1.00  0.00     0.031 C 
ATOM     59  C   UNL A   1      42.635  29.075  32.299  1.00  0.00     0.029 A 
ATOM     60  C   UNL A   1      42.997  30.256  31.641  1.00  0.00     0.049 A 
ATOM     61  H   UNL A   1      43.814  30.383  29.697  1.00  0.00     0.167 HD
ATOM     62  C   UNL A   1      42.469  32.036  33.149  1.00  0.00     0.074 A 
ATOM     63  C   UNL A   1      42.280  31.184  34.300  1.00  0.00     0.031 C 
ATOM     64  C   UNL A   1      42.923  31.675  31.923  1.00  0.00     0.037 A 
BRANCH  51  65
ATOM     65  C   UNL A   1      43.130  27.926  27.785  1.00  0.00     0.058 A 
ATOM     66  C   UNL A   1      43.587  26.589  27.825  1.00  0.00     0.135 A 
ATOM     67  C   UNL A   1      43.835  28.802  26.945  1.00  0.00     0.135 A 
ATOM     68  F   UNL A   1      42.944  25.665  28.558  1.00  0.00    -0.206 F 
ATOM     69  C   UNL A   1      44.744  26.176  27.174  1.00  0.00     0.059 A 
ATOM     70  C   UNL A   1      44.977  28.398  26.248  1.00  0.00     0.059 A 
ATOM     71  F   UNL A   1      43.484  30.091  26.838  1.00  0.00    -0.206 F 
ATOM     72  C   UNL A   1      45.453  27.099  26.416  1.00  0.00     0.060 A 
BRANCH  72  73
ATOM     73  S   UNL A   1      47.028  26.587  25.700  1.00  0.00     0.124 S 
ATOM     74  O   UNL A   1      47.526  27.843  25.151  1.00  0.00    -0.237 OA
ATOM     75  O   UNL A   1      47.748  26.079  26.866  1.00  0.00    -0.237 OA
ATOM     76  O   UNL A   1      46.642  25.574  24.723  1.00  0.00    -0.744 OA
ENDBRANCH  72  73
ENDBRANCH  51  65
BRANCH  52  77
ATOM     77  C   UNL A   1      39.012  33.722  35.624  1.00  0.00     0.058 A 
ATOM     78  C   UNL A   1      38.377  33.093  36.704  1.00  0.00     0.135 A 
ATOM     79  C   UNL A   1      39.532  35.014  35.936  1.00  0.00     0.135 A 
ATOM     80  F   UNL A   1      37.716  31.941  36.550  1.00  0.00    -0.206 F 
ATOM     81  C   UNL A   1      38.406  33.617  38.010  1.00  0.00     0.059 A 
ATOM     82  C   UNL A   1      39.618  35.530  37.228  1.00  0.00     0.059 A 
ATOM     83  F   UNL A   1      40.025  35.824  34.990  1.00  0.00    -0.206 F 
ATOM     84  C   UNL A   1      39.084  34.806  38.273  1.00  0.00     0.060 A 
BRANCH  84  85
ATOM     85  S   UNL A   1      39.395  35.346  39.967  1.00  0.00     0.124 S 
ATOM     86  O   UNL A   1      38.752  34.294  40.745  1.00  0.00    -0.237 OA
ATOM     87  O   UNL A   1      40.854  35.381  40.027  1.00  0.00    -0.237 OA
ATOM     88  O   UNL A   1      38.750  36.656  40.016  1.00  0.00    -0.744 OA
ENDBRANCH  84  85
ENDBRANCH  52  77
BRANCH  64  89
ATOM     89  C   UNL A   1      42.900  32.785  30.893  1.00  0.00     0.058 A 
ATOM     90  C   UNL A   1      43.997  33.650  30.769  1.00  0.00     0.135 A 
ATOM     91  C   UNL A   1      41.791  33.074  30.079  1.00  0.00     0.135 A 
ATOM     92  F   UNL A   1      45.093  33.451  31.520  1.00  0.00    -0.206 F 
ATOM     93  C   UNL A   1      44.000  34.725  29.876  1.00  0.00     0.059 A 
ATOM     94  C   UNL A   1      41.769  34.133  29.168  1.00  0.00     0.059 A 
ATOM     95  F   UNL A   1      40.687  32.332  30.155  1.00  0.00    -0.206 F 
ATOM     96  C   UNL A   1      42.882  34.956  29.073  1.00  0.00     0.060 A 
BRANCH  96  97
ATOM     97  S   UNL A   1      42.913  36.330  27.899  1.00  0.00     0.124 S 
ATOM     98  O   UNL A   1      44.333  36.668  27.851  1.00  0.00    -0.237 OA
ATOM     99  O   UNL A   1      42.370  35.714  26.693  1.00  0.00    -0.237 OA
ATOM    100  O   UNL A   1      42.059  37.339  28.521  1.00  0.00    -0.744 OA
ENDBRANCH  96  97
ENDBRANCH  64  89
ENDBRANCH  38  39
ENDBRANCH  31  33
ENDBRANCH  30  31
ENDBRANCH  29  30
ENDBRANCH   1  29
TORSDOF 20
ENDMDL
