MODEL 1
REMARK VINA RESULT:     -12.4      0.000      0.000
REMARK SMILES O=C(OCCOC(=O)[C@H]1Cc2[nH]cnc2CN1S(=O)(=O)c1cccs1)c1ccc(-c2c3nc(c(-c4c(F)cc(S(=O)(=O)[O-])cc4F)c4ccc([nH]4)c(-c4c(F)cc(S(=O)(=O)[O-])cc4F)c4nc(c(-c5c(F)cc(S(=O)(=O)[O-])cc5F)c5ccc2[nH]5)C=C4)C=C3)cc1
REMARK SMILES IDX 4 1 3 2 2 3 1 4 26 5 27 6 91 7 28 8 90 9 29 10 30 11 31 12
REMARK SMILES IDX 84 13 32 14 89 15 83 16 85 17 33 18 88 19 82 20 81 21 34 23
REMARK SMILES IDX 68 24 47 25 67 26 48 27 51 28 66 29 86 30 49 31 50 32 65 34
REMARK SMILES IDX 87 35 52 36 35 37 36 38 45 39 37 40 38 41 44 42 46 43 39 44
REMARK SMILES IDX 40 45 41 46 42 47 43 48 69 49 70 50 79 51 71 52 72 53 78 54
REMARK SMILES IDX 80 55 73 56 74 57 75 58 76 59 77 60 53 61 54 62 63 63 55 64
REMARK SMILES IDX 56 65 62 66 64 67 57 68 58 69 59 70 60 71 61 72 5 73 6 74
REMARK SMILES IDX 7 75 8 76 9 77 10 78 17 79 11 80 16 81 12 82 15 83 13 84
REMARK SMILES IDX 14 86 18 87 19 88 20 89 21 90 22 91 25 92 23 93 24 94
REMARK H PARENT 85 22 51 33 12 85
REMARK Flexibility Score: inf
ROOT
ATOM      1  C   UNL A   1      38.479  21.793  25.711  1.00  0.00     0.275 C 
ENDROOT
BRANCH   1   2
ATOM      2  O   UNL A   1      38.855  22.918  26.497  1.00  0.00    -0.458 OA
BRANCH   2   3
ATOM      3  C   UNL A   1      40.029  22.740  27.094  1.00  0.00     0.338 C 
ATOM      4  O   UNL A   1      40.393  21.723  27.687  1.00  0.00    -0.246 OA
BRANCH   3   5
ATOM      5  C   UNL A   1      40.711  24.027  27.209  1.00  0.00     0.060 A 
ATOM      6  C   UNL A   1      41.838  24.199  28.002  1.00  0.00     0.016 A 
ATOM      7  C   UNL A   1      39.915  25.098  26.877  1.00  0.00     0.016 A 
ATOM      8  C   UNL A   1      42.000  25.417  28.669  1.00  0.00     0.010 A 
ATOM      9  C   UNL A   1      39.954  26.192  27.689  1.00  0.00     0.010 A 
ATOM     10  C   UNL A   1      40.967  26.355  28.617  1.00  0.00    -0.014 A 
BRANCH  10  11
ATOM     11  C   UNL A   1      40.916  27.648  29.285  1.00  0.00     0.031 A 
ATOM     12  C   UNL A   1      41.943  28.573  28.724  1.00  0.00     0.074 A 
ATOM     13  C   UNL A   1      39.874  28.166  29.969  1.00  0.00     0.049 A 
ATOM     14  N   UNL A   1      43.198  28.601  29.041  1.00  0.00    -0.248 NA
ATOM     15  C   UNL A   1      41.642  29.309  27.475  1.00  0.00     0.031 C 
ATOM     16  C   UNL A   1      38.538  27.634  30.230  1.00  0.00     0.029 A 
ATOM     17  N   UNL A   1      39.826  29.389  30.569  1.00  0.00    -0.354 N 
ATOM     18  C   UNL A   1      43.732  29.592  28.230  1.00  0.00     0.074 A 
ATOM     19  C   UNL A   1      42.871  29.661  27.085  1.00  0.00     0.031 C 
ATOM     20  C   UNL A   1      37.767  28.592  30.807  1.00  0.00     0.029 A 
ATOM     21  C   UNL A   1      38.591  29.753  31.099  1.00  0.00     0.049 A 
ATOM     22  H   UNL A   1      40.614  29.978  30.623  1.00  0.00     0.167 HD
ATOM     23  C   UNL A   1      44.563  30.549  28.728  1.00  0.00     0.037 A 
ATOM     24  C   UNL A   1      38.303  30.922  31.733  1.00  0.00     0.037 A 
ATOM     25  C   UNL A   1      44.936  30.242  30.092  1.00  0.00     0.049 A 
ATOM     26  C   UNL A   1      39.607  31.490  32.181  1.00  0.00     0.074 A 
ATOM     27  C   UNL A   1      45.507  29.150  30.719  1.00  0.00     0.029 A 
ATOM     28  N   UNL A   1      44.292  30.946  31.086  1.00  0.00    -0.354 N 
ATOM     29  N   UNL A   1      40.386  30.921  33.061  1.00  0.00    -0.248 NA
ATOM     30  C   UNL A   1      40.257  32.453  31.308  1.00  0.00     0.031 C 
ATOM     31  C   UNL A   1      44.776  28.998  31.937  1.00  0.00     0.029 A 
ATOM     32  C   UNL A   1      43.867  30.053  32.041  1.00  0.00     0.049 A 
ATOM     33  H   UNL A   1      44.158  31.921  31.108  1.00  0.00     0.167 HD
ATOM     34  C   UNL A   1      41.673  31.115  32.578  1.00  0.00     0.074 A 
ATOM     35  C   UNL A   1      41.534  32.147  31.549  1.00  0.00     0.031 C 
ATOM     36  C   UNL A   1      42.671  30.219  32.846  1.00  0.00     0.037 A 
BRANCH  23  37
ATOM     37  C   UNL A   1      44.715  31.937  28.149  1.00  0.00     0.058 A 
ATOM     38  C   UNL A   1      45.936  32.282  27.540  1.00  0.00     0.135 A 
ATOM     39  C   UNL A   1      43.812  33.008  28.345  1.00  0.00     0.135 A 
ATOM     40  F   UNL A   1      46.875  31.348  27.322  1.00  0.00    -0.206 F 
ATOM     41  C   UNL A   1      46.255  33.596  27.199  1.00  0.00     0.059 A 
ATOM     42  C   UNL A   1      44.081  34.313  27.952  1.00  0.00     0.059 A 
ATOM     43  F   UNL A   1      42.663  32.873  29.016  1.00  0.00    -0.206 F 
ATOM     44  C   UNL A   1      45.321  34.606  27.415  1.00  0.00     0.060 A 
BRANCH  44  45
ATOM     45  S   UNL A   1      45.761  36.312  27.052  1.00  0.00     0.124 S 
ATOM     46  O   UNL A   1      44.445  36.926  26.915  1.00  0.00    -0.237 OA
ATOM     47  O   UNL A   1      46.522  36.687  28.239  1.00  0.00    -0.237 OA
ATOM     48  O   UNL A   1      46.541  36.205  25.823  1.00  0.00    -0.744 OA
ENDBRANCH  44  45
ENDBRANCH  23  37
BRANCH  24  49
ATOM     49  C   UNL A   1      37.054  31.737  31.750  1.00  0.00     0.058 A 
ATOM     50  C   UNL A   1      36.464  32.155  32.961  1.00  0.00     0.135 A 
ATOM     51  C   UNL A   1      36.596  32.387  30.589  1.00  0.00     0.135 A 
ATOM     52  F   UNL A   1      36.851  31.609  34.124  1.00  0.00    -0.206 F 
ATOM     53  C   UNL A   1      35.521  33.192  33.022  1.00  0.00     0.059 A 
ATOM     54  C   UNL A   1      35.654  33.420  30.624  1.00  0.00     0.059 A 
ATOM     55  F   UNL A   1      37.124  32.097  29.391  1.00  0.00    -0.206 F 
ATOM     56  C   UNL A   1      35.139  33.837  31.847  1.00  0.00     0.060 A 
BRANCH  56  57
ATOM     57  S   UNL A   1      34.062  35.291  31.942  1.00  0.00     0.124 S 
ATOM     58  O   UNL A   1      34.834  36.188  32.794  1.00  0.00    -0.237 OA
ATOM     59  O   UNL A   1      33.948  35.687  30.542  1.00  0.00    -0.237 OA
ATOM     60  O   UNL A   1      32.835  34.768  32.538  1.00  0.00    -0.744 OA
ENDBRANCH  56  57
ENDBRANCH  24  49
BRANCH  36  61
ATOM     61  C   UNL A   1      42.431  29.182  33.926  1.00  0.00     0.058 A 
ATOM     62  C   UNL A   1      41.932  27.884  33.701  1.00  0.00     0.135 A 
ATOM     63  C   UNL A   1      42.882  29.463  35.225  1.00  0.00     0.135 A 
ATOM     64  F   UNL A   1      41.559  27.489  32.480  1.00  0.00    -0.206 F 
ATOM     65  C   UNL A   1      41.867  26.925  34.715  1.00  0.00     0.059 A 
ATOM     66  C   UNL A   1      42.855  28.512  36.245  1.00  0.00     0.059 A 
ATOM     67  F   UNL A   1      43.417  30.663  35.504  1.00  0.00    -0.206 F 
ATOM     68  C   UNL A   1      42.341  27.244  35.984  1.00  0.00     0.060 A 
BRANCH  68  69
ATOM     69  S   UNL A   1      42.356  25.968  37.263  1.00  0.00     0.124 S 
ATOM     70  O   UNL A   1      40.982  26.002  37.751  1.00  0.00    -0.237 OA
ATOM     71  O   UNL A   1      42.734  24.773  36.513  1.00  0.00    -0.237 OA
ATOM     72  O   UNL A   1      43.366  26.443  38.207  1.00  0.00    -0.744 OA
ENDBRANCH  68  69
ENDBRANCH  36  61
ENDBRANCH  10  11
ENDBRANCH   3   5
ENDBRANCH   2   3
ENDBRANCH   1   2
BRANCH   1  73
ATOM     73  C   UNL A   1      36.954  21.474  25.607  1.00  0.00     0.274 C 
BRANCH  73  74
ATOM     74  O   UNL A   1      36.355  21.434  24.284  1.00  0.00    -0.461 OA
BRANCH  74  75
ATOM     75  C   UNL A   1      35.938  22.612  23.682  1.00  0.00     0.325 C 
ATOM     76  O   UNL A   1      36.567  23.188  22.804  1.00  0.00    -0.250 OA
BRANCH  75  77
ATOM     77  C   UNL A   1      34.715  23.183  24.400  1.00  0.00     0.189 C 
ATOM     78  C   UNL A   1      34.291  24.517  23.700  1.00  0.00     0.088 C 
ATOM     79  N   UNL A   1      33.539  22.375  24.965  1.00  0.00    -0.176 NA
ATOM     80  C   UNL A   1      33.438  25.271  24.653  1.00  0.00     0.041 A 
ATOM     81  C   UNL A   1      32.598  23.210  25.859  1.00  0.00     0.161 C 
ATOM     82  N   UNL A   1      33.318  26.614  24.870  1.00  0.00    -0.348 N 
ATOM     83  C   UNL A   1      32.680  24.672  25.622  1.00  0.00     0.077 A 
ATOM     84  C   UNL A   1      32.499  26.768  25.959  1.00  0.00     0.197 A 
ATOM     85  H   UNL A   1      33.739  27.333  24.346  1.00  0.00     0.167 HD
ATOM     86  N   UNL A   1      32.107  25.609  26.439  1.00  0.00    -0.240 NA
BRANCH  79  87
ATOM     87  S   UNL A   1      32.690  21.095  24.206  1.00  0.00     0.253 S 
ATOM     88  O   UNL A   1      31.618  20.766  25.127  1.00  0.00    -0.206 OA
ATOM     89  O   UNL A   1      32.390  21.558  22.867  1.00  0.00    -0.206 OA
BRANCH  87  90
ATOM     90  C   UNL A   1      33.428  19.445  24.033  1.00  0.00     0.135 A 
ATOM     91  C   UNL A   1      34.430  18.736  24.688  1.00  0.00     0.033 A 
ATOM     92  S   UNL A   1      32.503  18.311  23.108  1.00  0.00    -0.131 S 
ATOM     93  C   UNL A   1      34.633  17.408  24.206  1.00  0.00     0.013 A 
ATOM     94  C   UNL A   1      33.601  17.027  23.389  1.00  0.00     0.066 A 
ENDBRANCH  87  90
ENDBRANCH  79  87
ENDBRANCH  75  77
ENDBRANCH  74  75
ENDBRANCH  73  74
ENDBRANCH   1  73
TORSDOF 16
ENDMDL
MODEL 2
REMARK VINA RESULT:     -12.4      1.201      2.922
REMARK SMILES O=C(OCCOC(=O)[C@H]1Cc2[nH]cnc2CN1S(=O)(=O)c1cccs1)c1ccc(-c2c3nc(c(-c4c(F)cc(S(=O)(=O)[O-])cc4F)c4ccc([nH]4)c(-c4c(F)cc(S(=O)(=O)[O-])cc4F)c4nc(c(-c5c(F)cc(S(=O)(=O)[O-])cc5F)c5ccc2[nH]5)C=C4)C=C3)cc1
REMARK SMILES IDX 4 1 3 2 2 3 1 4 26 5 27 6 91 7 28 8 90 9 29 10 30 11 31 12
REMARK SMILES IDX 84 13 32 14 89 15 83 16 85 17 33 18 88 19 82 20 81 21 34 23
REMARK SMILES IDX 68 24 47 25 67 26 48 27 51 28 66 29 86 30 49 31 50 32 65 34
REMARK SMILES IDX 87 35 52 36 35 37 36 38 45 39 37 40 38 41 44 42 46 43 39 44
REMARK SMILES IDX 40 45 41 46 42 47 43 48 69 49 70 50 79 51 71 52 72 53 78 54
REMARK SMILES IDX 80 55 73 56 74 57 75 58 76 59 77 60 53 61 54 62 63 63 55 64
REMARK SMILES IDX 56 65 62 66 64 67 57 68 58 69 59 70 60 71 61 72 5 73 6 74
REMARK SMILES IDX 7 75 8 76 9 77 10 78 17 79 11 80 16 81 12 82 15 83 13 84
REMARK SMILES IDX 14 86 18 87 19 88 20 89 21 90 22 91 25 92 23 93 24 94
REMARK H PARENT 85 22 51 33 12 85
REMARK Flexibility Score: inf
ROOT
ATOM      1  C   UNL A   1      38.686  21.537  25.893  1.00  0.00     0.275 C 
ENDROOT
BRANCH   1   2
ATOM      2  O   UNL A   1      39.187  22.818  26.254  1.00  0.00    -0.458 OA
BRANCH   2   3
ATOM      3  C   UNL A   1      40.192  22.736  27.119  1.00  0.00     0.338 C 
ATOM      4  O   UNL A   1      40.400  21.808  27.901  1.00  0.00    -0.246 OA
BRANCH   3   5
ATOM      5  C   UNL A   1      40.845  24.039  27.224  1.00  0.00     0.060 A 
ATOM      6  C   UNL A   1      41.985  24.235  27.992  1.00  0.00     0.016 A 
ATOM      7  C   UNL A   1      40.017  25.092  26.912  1.00  0.00     0.016 A 
ATOM      8  C   UNL A   1      42.132  25.455  28.660  1.00  0.00     0.010 A 
ATOM      9  C   UNL A   1      40.047  26.183  27.727  1.00  0.00     0.010 A 
ATOM     10  C   UNL A   1      41.076  26.368  28.633  1.00  0.00    -0.014 A 
BRANCH  10  11
ATOM     11  C   UNL A   1      41.009  27.658  29.307  1.00  0.00     0.031 A 
ATOM     12  C   UNL A   1      42.028  28.596  28.756  1.00  0.00     0.074 A 
ATOM     13  C   UNL A   1      39.958  28.161  29.989  1.00  0.00     0.049 A 
ATOM     14  N   UNL A   1      43.281  28.635  29.078  1.00  0.00    -0.248 NA
ATOM     15  C   UNL A   1      41.726  29.334  27.508  1.00  0.00     0.031 C 
ATOM     16  C   UNL A   1      38.627  27.615  30.241  1.00  0.00     0.029 A 
ATOM     17  N   UNL A   1      39.895  29.382  30.594  1.00  0.00    -0.354 N 
ATOM     18  C   UNL A   1      43.809  29.636  28.274  1.00  0.00     0.074 A 
ATOM     19  C   UNL A   1      42.952  29.701  27.126  1.00  0.00     0.031 C 
ATOM     20  C   UNL A   1      37.843  28.562  30.819  1.00  0.00     0.029 A 
ATOM     21  C   UNL A   1      38.654  29.730  31.119  1.00  0.00     0.049 A 
ATOM     22  H   UNL A   1      40.676  29.978  30.655  1.00  0.00     0.167 HD
ATOM     23  C   UNL A   1      44.628  30.599  28.780  1.00  0.00     0.037 A 
ATOM     24  C   UNL A   1      38.350  30.894  31.758  1.00  0.00     0.037 A 
ATOM     25  C   UNL A   1      44.998  30.290  30.144  1.00  0.00     0.049 A 
ATOM     26  C   UNL A   1      39.646  31.473  32.215  1.00  0.00     0.074 A 
ATOM     27  C   UNL A   1      45.577  29.201  30.770  1.00  0.00     0.029 A 
ATOM     28  N   UNL A   1      44.341  30.983  31.139  1.00  0.00    -0.354 N 
ATOM     29  N   UNL A   1      40.428  30.908  33.096  1.00  0.00    -0.248 NA
ATOM     30  C   UNL A   1      40.290  32.447  31.349  1.00  0.00     0.031 C 
ATOM     31  C   UNL A   1      44.842  29.036  31.983  1.00  0.00     0.029 A 
ATOM     32  C   UNL A   1      43.922  30.081  32.087  1.00  0.00     0.049 A 
ATOM     33  H   UNL A   1      44.198  31.956  31.164  1.00  0.00     0.167 HD
ATOM     34  C   UNL A   1      41.714  31.118  32.619  1.00  0.00     0.074 A 
ATOM     35  C   UNL A   1      41.570  32.152  31.595  1.00  0.00     0.031 C 
ATOM     36  C   UNL A   1      42.720  30.231  32.888  1.00  0.00     0.037 A 
BRANCH  23  37
ATOM     37  C   UNL A   1      44.768  31.991  28.208  1.00  0.00     0.058 A 
ATOM     38  C   UNL A   1      45.990  32.353  27.609  1.00  0.00     0.135 A 
ATOM     39  C   UNL A   1      43.851  33.051  28.402  1.00  0.00     0.135 A 
ATOM     40  F   UNL A   1      46.941  31.430  27.394  1.00  0.00    -0.206 F 
ATOM     41  C   UNL A   1      46.295  33.672  27.276  1.00  0.00     0.059 A 
ATOM     42  C   UNL A   1      44.108  34.361  28.016  1.00  0.00     0.059 A 
ATOM     43  F   UNL A   1      42.700  32.899  29.064  1.00  0.00    -0.206 F 
ATOM     44  C   UNL A   1      45.349  34.670  27.490  1.00  0.00     0.060 A 
BRANCH  44  45
ATOM     45  S   UNL A   1      45.771  36.382  27.137  1.00  0.00     0.124 S 
ATOM     46  O   UNL A   1      46.447  36.772  28.369  1.00  0.00    -0.237 OA
ATOM     47  O   UNL A   1      46.620  36.247  25.958  1.00  0.00    -0.237 OA
ATOM     48  O   UNL A   1      44.474  37.008  26.900  1.00  0.00    -0.744 OA
ENDBRANCH  44  45
ENDBRANCH  23  37
BRANCH  24  49
ATOM     49  C   UNL A   1      37.093  31.695  31.772  1.00  0.00     0.058 A 
ATOM     50  C   UNL A   1      36.495  32.105  32.983  1.00  0.00     0.135 A 
ATOM     51  C   UNL A   1      36.631  32.342  30.611  1.00  0.00     0.135 A 
ATOM     52  F   UNL A   1      36.885  31.562  34.146  1.00  0.00    -0.206 F 
ATOM     53  C   UNL A   1      35.542  33.132  33.043  1.00  0.00     0.059 A 
ATOM     54  C   UNL A   1      35.679  33.365  30.646  1.00  0.00     0.059 A 
ATOM     55  F   UNL A   1      37.166  32.059  29.415  1.00  0.00    -0.206 F 
ATOM     56  C   UNL A   1      35.156  33.775  31.868  1.00  0.00     0.060 A 
BRANCH  56  57
ATOM     57  S   UNL A   1      34.064  35.217  31.962  1.00  0.00     0.124 S 
ATOM     58  O   UNL A   1      32.884  34.666  32.619  1.00  0.00    -0.237 OA
ATOM     59  O   UNL A   1      34.851  36.155  32.755  1.00  0.00    -0.237 OA
ATOM     60  O   UNL A   1      33.877  35.596  30.563  1.00  0.00    -0.744 OA
ENDBRANCH  56  57
ENDBRANCH  24  49
BRANCH  36  61
ATOM     61  C   UNL A   1      42.486  29.187  33.962  1.00  0.00     0.058 A 
ATOM     62  C   UNL A   1      42.043  27.871  33.725  1.00  0.00     0.135 A 
ATOM     63  C   UNL A   1      42.888  29.484  35.273  1.00  0.00     0.135 A 
ATOM     64  F   UNL A   1      41.721  27.462  32.494  1.00  0.00    -0.206 F 
ATOM     65  C   UNL A   1      41.982  26.911  34.738  1.00  0.00     0.059 A 
ATOM     66  C   UNL A   1      42.865  28.534  36.294  1.00  0.00     0.059 A 
ATOM     67  F   UNL A   1      43.369  30.704  35.566  1.00  0.00    -0.206 F 
ATOM     68  C   UNL A   1      42.406  27.248  36.020  1.00  0.00     0.060 A 
BRANCH  68  69
ATOM     69  S   UNL A   1      42.429  25.974  37.301  1.00  0.00     0.124 S 
ATOM     70  O   UNL A   1      43.392  26.513  38.256  1.00  0.00    -0.237 OA
ATOM     71  O   UNL A   1      41.039  25.949  37.749  1.00  0.00    -0.237 OA
ATOM     72  O   UNL A   1      42.864  24.777  36.584  1.00  0.00    -0.744 OA
ENDBRANCH  68  69
ENDBRANCH  36  61
ENDBRANCH  10  11
ENDBRANCH   3   5
ENDBRANCH   2   3
ENDBRANCH   1   2
BRANCH   1  73
ATOM     73  C   UNL A   1      37.251  21.478  25.280  1.00  0.00     0.274 C 
BRANCH  73  74
ATOM     74  O   UNL A   1      36.458  22.696  25.283  1.00  0.00    -0.461 OA
BRANCH  74  75
ATOM     75  C   UNL A   1      35.269  22.740  25.995  1.00  0.00     0.325 C 
ATOM     76  O   UNL A   1      35.129  23.339  27.053  1.00  0.00    -0.250 OA
BRANCH  75  77
ATOM     77  C   UNL A   1      34.239  21.786  25.386  1.00  0.00     0.189 C 
ATOM     78  C   UNL A   1      33.647  20.887  26.523  1.00  0.00     0.088 C 
ATOM     79  N   UNL A   1      33.239  22.125  24.274  1.00  0.00    -0.176 NA
ATOM     80  C   UNL A   1      33.031  19.700  25.879  1.00  0.00     0.041 A 
ATOM     81  C   UNL A   1      32.522  20.885  23.699  1.00  0.00     0.161 C 
ATOM     82  N   UNL A   1      32.948  18.402  26.296  1.00  0.00    -0.348 N 
ATOM     83  C   UNL A   1      32.528  19.710  24.606  1.00  0.00     0.077 A 
ATOM     84  C   UNL A   1      32.404  17.686  25.261  1.00  0.00     0.197 A 
ATOM     85  H   UNL A   1      33.225  18.050  27.172  1.00  0.00     0.167 HD
ATOM     86  N   UNL A   1      32.150  18.451  24.223  1.00  0.00    -0.240 NA
BRANCH  79  87
ATOM     87  S   UNL A   1      32.252  23.520  24.145  1.00  0.00     0.253 S 
ATOM     88  O   UNL A   1      32.430  23.972  22.777  1.00  0.00    -0.206 OA
ATOM     89  O   UNL A   1      30.944  23.124  24.622  1.00  0.00    -0.206 OA
BRANCH  87  90
ATOM     90  C   UNL A   1      32.678  25.059  25.007  1.00  0.00     0.135 A 
ATOM     91  C   UNL A   1      33.749  25.947  24.977  1.00  0.00     0.033 A 
ATOM     92  S   UNL A   1      31.359  25.857  25.797  1.00  0.00    -0.131 S 
ATOM     93  C   UNL A   1      33.611  27.079  25.835  1.00  0.00     0.013 A 
ATOM     94  C   UNL A   1      32.322  27.186  26.289  1.00  0.00     0.066 A 
ENDBRANCH  87  90
ENDBRANCH  79  87
ENDBRANCH  75  77
ENDBRANCH  74  75
ENDBRANCH  73  74
ENDBRANCH   1  73
TORSDOF 16
ENDMDL
MODEL 3
REMARK VINA RESULT:     -12.3      3.332      9.540
REMARK SMILES O=C(OCCOC(=O)[C@H]1Cc2[nH]cnc2CN1S(=O)(=O)c1cccs1)c1ccc(-c2c3nc(c(-c4c(F)cc(S(=O)(=O)[O-])cc4F)c4ccc([nH]4)c(-c4c(F)cc(S(=O)(=O)[O-])cc4F)c4nc(c(-c5c(F)cc(S(=O)(=O)[O-])cc5F)c5ccc2[nH]5)C=C4)C=C3)cc1
REMARK SMILES IDX 4 1 3 2 2 3 1 4 26 5 27 6 91 7 28 8 90 9 29 10 30 11 31 12
REMARK SMILES IDX 84 13 32 14 89 15 83 16 85 17 33 18 88 19 82 20 81 21 34 23
REMARK SMILES IDX 68 24 47 25 67 26 48 27 51 28 66 29 86 30 49 31 50 32 65 34
REMARK SMILES IDX 87 35 52 36 35 37 36 38 45 39 37 40 38 41 44 42 46 43 39 44
REMARK SMILES IDX 40 45 41 46 42 47 43 48 69 49 70 50 79 51 71 52 72 53 78 54
REMARK SMILES IDX 80 55 73 56 74 57 75 58 76 59 77 60 53 61 54 62 63 63 55 64
REMARK SMILES IDX 56 65 62 66 64 67 57 68 58 69 59 70 60 71 61 72 5 73 6 74
REMARK SMILES IDX 7 75 8 76 9 77 10 78 17 79 11 80 16 81 12 82 15 83 13 84
REMARK SMILES IDX 14 86 18 87 19 88 20 89 21 90 22 91 25 92 23 93 24 94
REMARK H PARENT 85 22 51 33 12 85
REMARK Flexibility Score: inf
ROOT
ATOM      1  C   UNL A   1      33.462  30.983  27.010  1.00  0.00     0.275 C 
ENDROOT
BRANCH   1   2
ATOM      2  O   UNL A   1      34.683  30.621  27.645  1.00  0.00    -0.458 OA
BRANCH   2   3
ATOM      3  C   UNL A   1      35.380  31.685  28.029  1.00  0.00     0.338 C 
ATOM      4  O   UNL A   1      35.306  32.813  27.540  1.00  0.00    -0.246 OA
BRANCH   3   5
ATOM      5  C   UNL A   1      36.464  31.259  28.910  1.00  0.00     0.060 A 
ATOM      6  C   UNL A   1      37.508  32.104  29.261  1.00  0.00     0.016 A 
ATOM      7  C   UNL A   1      36.616  29.893  28.968  1.00  0.00     0.016 A 
ATOM      8  C   UNL A   1      38.784  31.554  29.416  1.00  0.00     0.010 A 
ATOM      9  C   UNL A   1      37.882  29.393  28.901  1.00  0.00     0.010 A 
ATOM     10  C   UNL A   1      38.982  30.212  29.087  1.00  0.00    -0.014 A 
BRANCH  10  11
ATOM     11  C   UNL A   1      40.236  29.471  29.122  1.00  0.00     0.031 A 
ATOM     12  C   UNL A   1      40.621  29.151  30.527  1.00  0.00     0.074 A 
ATOM     13  C   UNL A   1      40.784  28.758  28.115  1.00  0.00     0.049 A 
ATOM     14  N   UNL A   1      41.215  29.949  31.355  1.00  0.00    -0.248 NA
ATOM     15  C   UNL A   1      40.012  27.975  31.189  1.00  0.00     0.031 C 
ATOM     16  C   UNL A   1      40.316  28.503  26.755  1.00  0.00     0.029 A 
ATOM     17  N   UNL A   1      41.945  28.045  28.166  1.00  0.00    -0.354 N 
ATOM     18  C   UNL A   1      41.315  29.212  32.526  1.00  0.00     0.074 A 
ATOM     19  C   UNL A   1      40.248  28.255  32.474  1.00  0.00     0.031 C 
ATOM     20  C   UNL A   1      41.111  27.574  26.162  1.00  0.00     0.029 A 
ATOM     21  C   UNL A   1      42.233  27.282  27.038  1.00  0.00     0.049 A 
ATOM     22  H   UNL A   1      42.541  28.069  28.950  1.00  0.00     0.167 HD
ATOM     23  C   UNL A   1      42.478  29.151  33.233  1.00  0.00     0.037 A 
ATOM     24  C   UNL A   1      43.325  26.487  26.864  1.00  0.00     0.037 A 
ATOM     25  C   UNL A   1      43.444  30.092  32.708  1.00  0.00     0.049 A 
ATOM     26  C   UNL A   1      44.349  26.961  27.840  1.00  0.00     0.074 A 
ATOM     27  C   UNL A   1      43.440  31.454  32.467  1.00  0.00     0.029 A 
ATOM     28  N   UNL A   1      44.445  29.577  31.913  1.00  0.00    -0.354 N 
ATOM     29  N   UNL A   1      44.900  28.145  27.803  1.00  0.00    -0.248 NA
ATOM     30  C   UNL A   1      44.416  26.286  29.125  1.00  0.00     0.031 C 
ATOM     31  C   UNL A   1      44.089  31.609  31.205  1.00  0.00     0.029 A 
ATOM     32  C   UNL A   1      44.542  30.357  30.785  1.00  0.00     0.049 A 
ATOM     33  H   UNL A   1      44.995  28.788  32.118  1.00  0.00     0.167 HD
ATOM     34  C   UNL A   1      44.987  28.541  29.130  1.00  0.00     0.074 A 
ATOM     35  C   UNL A   1      44.764  27.317  29.901  1.00  0.00     0.031 C 
ATOM     36  C   UNL A   1      44.936  29.863  29.477  1.00  0.00     0.037 A 
BRANCH  23  37
ATOM     37  C   UNL A   1      42.886  27.991  34.113  1.00  0.00     0.058 A 
ATOM     38  C   UNL A   1      43.019  28.211  35.497  1.00  0.00     0.135 A 
ATOM     39  C   UNL A   1      43.355  26.739  33.650  1.00  0.00     0.135 A 
ATOM     40  F   UNL A   1      42.622  29.373  36.042  1.00  0.00    -0.206 F 
ATOM     41  C   UNL A   1      43.616  27.281  36.346  1.00  0.00     0.059 A 
ATOM     42  C   UNL A   1      43.893  25.771  34.489  1.00  0.00     0.059 A 
ATOM     43  F   UNL A   1      43.412  26.422  32.353  1.00  0.00    -0.206 F 
ATOM     44  C   UNL A   1      44.056  26.065  35.830  1.00  0.00     0.060 A 
BRANCH  44  45
ATOM     45  S   UNL A   1      44.901  24.899  36.908  1.00  0.00     0.124 S 
ATOM     46  O   UNL A   1      44.565  23.627  36.277  1.00  0.00    -0.237 OA
ATOM     47  O   UNL A   1      46.291  25.326  36.785  1.00  0.00    -0.237 OA
ATOM     48  O   UNL A   1      44.290  25.140  38.211  1.00  0.00    -0.744 OA
ENDBRANCH  44  45
ENDBRANCH  23  37
BRANCH  24  49
ATOM     49  C   UNL A   1      43.480  25.191  26.144  1.00  0.00     0.058 A 
ATOM     50  C   UNL A   1      44.533  24.979  25.229  1.00  0.00     0.135 A 
ATOM     51  C   UNL A   1      42.797  24.038  26.570  1.00  0.00     0.135 A 
ATOM     52  F   UNL A   1      45.257  26.015  24.781  1.00  0.00    -0.206 F 
ATOM     53  C   UNL A   1      44.920  23.698  24.810  1.00  0.00     0.059 A 
ATOM     54  C   UNL A   1      43.162  22.751  26.163  1.00  0.00     0.059 A 
ATOM     55  F   UNL A   1      41.810  24.124  27.475  1.00  0.00    -0.206 F 
ATOM     56  C   UNL A   1      44.241  22.584  25.303  1.00  0.00     0.060 A 
BRANCH  56  57
ATOM     57  S   UNL A   1      44.851  20.925  24.906  1.00  0.00     0.124 S 
ATOM     58  O   UNL A   1      44.681  20.874  23.458  1.00  0.00    -0.237 OA
ATOM     59  O   UNL A   1      46.230  20.977  25.381  1.00  0.00    -0.237 OA
ATOM     60  O   UNL A   1      43.968  20.045  25.668  1.00  0.00    -0.744 OA
ENDBRANCH  56  57
ENDBRANCH  24  49
BRANCH  36  61
ATOM     61  C   UNL A   1      45.094  30.898  28.381  1.00  0.00     0.058 A 
ATOM     62  C   UNL A   1      44.030  31.512  27.692  1.00  0.00     0.135 A 
ATOM     63  C   UNL A   1      46.377  31.409  28.134  1.00  0.00     0.135 A 
ATOM     64  F   UNL A   1      42.762  31.158  27.923  1.00  0.00    -0.206 F 
ATOM     65  C   UNL A   1      44.231  32.562  26.793  1.00  0.00     0.059 A 
ATOM     66  C   UNL A   1      46.600  32.477  27.263  1.00  0.00     0.059 A 
ATOM     67  F   UNL A   1      47.436  30.908  28.790  1.00  0.00    -0.206 F 
ATOM     68  C   UNL A   1      45.521  33.046  26.591  1.00  0.00     0.060 A 
BRANCH  68  69
ATOM     69  S   UNL A   1      45.765  34.474  25.511  1.00  0.00     0.124 S 
ATOM     70  O   UNL A   1      44.956  34.125  24.349  1.00  0.00    -0.237 OA
ATOM     71  O   UNL A   1      45.261  35.577  26.326  1.00  0.00    -0.237 OA
ATOM     72  O   UNL A   1      47.209  34.489  25.286  1.00  0.00    -0.744 OA
ENDBRANCH  68  69
ENDBRANCH  36  61
ENDBRANCH  10  11
ENDBRANCH   3   5
ENDBRANCH   2   3
ENDBRANCH   1   2
BRANCH   1  73
ATOM     73  C   UNL A   1      32.375  29.870  26.869  1.00  0.00     0.274 C 
BRANCH  73  74
ATOM     74  O   UNL A   1      32.812  28.484  26.877  1.00  0.00    -0.461 OA
BRANCH  74  75
ATOM     75  C   UNL A   1      33.117  27.852  25.682  1.00  0.00     0.325 C 
ATOM     76  O   UNL A   1      34.241  27.474  25.378  1.00  0.00    -0.250 OA
BRANCH  75  77
ATOM     77  C   UNL A   1      31.917  27.882  24.734  1.00  0.00     0.189 C 
ATOM     78  C   UNL A   1      32.360  28.517  23.373  1.00  0.00     0.088 C 
ATOM     79  N   UNL A   1      30.850  26.790  24.592  1.00  0.00    -0.176 NA
ATOM     80  C   UNL A   1      31.133  28.957  22.664  1.00  0.00     0.041 A 
ATOM     81  C   UNL A   1      29.633  27.230  23.750  1.00  0.00     0.161 C 
ATOM     82  N   UNL A   1      30.910  30.032  21.851  1.00  0.00    -0.348 N 
ATOM     83  C   UNL A   1      29.909  28.371  22.842  1.00  0.00     0.077 A 
ATOM     84  C   UNL A   1      29.566  30.050  21.577  1.00  0.00     0.197 A 
ATOM     85  H   UNL A   1      31.585  30.670  21.525  1.00  0.00     0.167 HD
ATOM     86  N   UNL A   1      28.936  29.062  22.172  1.00  0.00    -0.240 NA
BRANCH  79  87
ATOM     87  S   UNL A   1      31.093  25.097  24.481  1.00  0.00     0.253 S 
ATOM     88  O   UNL A   1      30.724  24.584  25.788  1.00  0.00    -0.206 OA
ATOM     89  O   UNL A   1      30.377  24.672  23.297  1.00  0.00    -0.206 OA
BRANCH  87  90
ATOM     90  C   UNL A   1      32.761  24.390  24.364  1.00  0.00     0.135 A 
ATOM     91  C   UNL A   1      33.766  24.380  23.402  1.00  0.00     0.033 A 
ATOM     92  S   UNL A   1      33.471  23.909  25.868  1.00  0.00    -0.131 S 
ATOM     93  C   UNL A   1      34.961  23.705  23.794  1.00  0.00     0.013 A 
ATOM     94  C   UNL A   1      34.956  23.460  25.143  1.00  0.00     0.066 A 
ENDBRANCH  87  90
ENDBRANCH  79  87
ENDBRANCH  75  77
ENDBRANCH  74  75
ENDBRANCH  73  74
ENDBRANCH   1  73
TORSDOF 16
ENDMDL
