MODEL 1
REMARK VINA RESULT:      -9.8      0.000      0.000
REMARK SMILES CCc1nc(COC)cc(OCC(=O)OCCOC(=O)c2ccc(-c3c4nc(c(-c5c(F)cc(S(=O)(=O)[O-])cc5F)c5ccc([nH]5)c(-c5c(F)cc(S(=O)(=O)[O-])cc5F)c5nc(c(-c6c(F)cc(S(=O)(=O)[O-])cc6F)c6ccc3[nH]6)C=C5)C=C4)cc2)n1
REMARK SMILES IDX 16 1 15 2 13 3 14 4 12 5 11 6 10 7 3 8 4 9 87 10 5 11 9 12
REMARK SMILES IDX 2 13 1 14 6 15 7 16 8 17 17 18 18 19 19 20 20 21 21 22 22 23
REMARK SMILES IDX 86 24 23 25 85 26 24 27 25 28 26 29 79 30 27 31 84 32 78 33
REMARK SMILES IDX 80 34 28 35 83 36 77 37 76 38 29 40 63 41 42 42 62 43 43 44
REMARK SMILES IDX 46 45 61 46 81 47 44 48 45 49 60 51 82 52 47 53 30 54 31 55
REMARK SMILES IDX 40 56 32 57 33 58 39 59 41 60 34 61 35 62 36 63 37 64 38 65
REMARK SMILES IDX 64 66 65 67 74 68 66 69 67 70 73 71 75 72 68 73 69 74 70 75
REMARK SMILES IDX 71 76 72 77 48 78 49 79 58 80 50 81 51 82 57 83 59 84 52 85
REMARK SMILES IDX 53 86 54 87 55 88 56 89
REMARK H PARENT 80 39 46 50
REMARK Flexibility Score: inf
ROOT
ATOM      1  C   UNL A   1      36.830  22.783  25.492  1.00  0.00     0.274 C 
ENDROOT
BRANCH   1   2
ATOM      2  O   UNL A   1      36.195  21.571  25.940  1.00  0.00    -0.460 OA
BRANCH   2   3
ATOM      3  C   UNL A   1      34.861  21.659  26.195  1.00  0.00     0.344 C 
ATOM      4  O   UNL A   1      34.051  20.762  25.992  1.00  0.00    -0.248 OA
BRANCH   3   5
ATOM      5  C   UNL A   1      34.453  23.011  26.769  1.00  0.00     0.353 C 
BRANCH   5   6
ATOM      6  O   UNL A   1      33.266  23.580  26.246  1.00  0.00    -0.466 OA
BRANCH   6   7
ATOM      7  C   UNL A   1      33.371  24.795  25.631  1.00  0.00     0.217 A 
ATOM      8  C   UNL A   1      33.214  27.056  25.947  1.00  0.00     0.132 A 
ATOM      9  N   UNL A   1      33.423  27.318  24.649  1.00  0.00    -0.235 NA
ATOM     10  N   UNL A   1      33.183  25.821  26.476  1.00  0.00    -0.198 NA
ATOM     11  C   UNL A   1      33.576  26.270  23.816  1.00  0.00     0.074 A 
ATOM     12  C   UNL A   1      33.573  24.970  24.281  1.00  0.00     0.094 A 
BRANCH   8  13
ATOM     13  C   UNL A   1      32.999  28.210  26.888  1.00  0.00     0.074 C 
ATOM     14  C   UNL A   1      31.662  28.184  27.616  1.00  0.00     0.012 C 
ENDBRANCH   8  13
BRANCH  11  15
ATOM     15  C   UNL A   1      33.732  26.575  22.341  1.00  0.00     0.216 C 
BRANCH  15  16
ATOM     16  O   UNL A   1      32.499  26.488  21.621  1.00  0.00    -0.378 OA
ATOM     17  C   UNL A   1      32.518  25.495  20.606  1.00  0.00     0.195 C 
ENDBRANCH  15  16
ENDBRANCH  11  15
ENDBRANCH   6   7
ENDBRANCH   5   6
ENDBRANCH   3   5
ENDBRANCH   2   3
ENDBRANCH   1   2
BRANCH   1  18
ATOM     18  C   UNL A   1      38.267  22.890  25.994  1.00  0.00     0.275 C 
BRANCH  18  19
ATOM     19  O   UNL A   1      38.663  24.267  26.124  1.00  0.00    -0.458 OA
BRANCH  19  20
ATOM     20  C   UNL A   1      39.880  24.447  26.683  1.00  0.00     0.338 C 
ATOM     21  O   UNL A   1      40.889  23.798  26.463  1.00  0.00    -0.246 OA
BRANCH  20  22
ATOM     22  C   UNL A   1      39.890  25.587  27.612  1.00  0.00     0.060 A 
ATOM     23  C   UNL A   1      40.848  26.597  27.489  1.00  0.00     0.016 A 
ATOM     24  C   UNL A   1      39.049  25.539  28.727  1.00  0.00     0.016 A 
ATOM     25  C   UNL A   1      40.985  27.543  28.507  1.00  0.00     0.010 A 
ATOM     26  C   UNL A   1      39.151  26.518  29.715  1.00  0.00     0.010 A 
ATOM     27  C   UNL A   1      40.131  27.518  29.622  1.00  0.00    -0.014 A 
BRANCH  27  28
ATOM     28  C   UNL A   1      40.190  28.590  30.646  1.00  0.00     0.031 A 
ATOM     29  C   UNL A   1      41.127  28.503  31.819  1.00  0.00     0.074 A 
ATOM     30  C   UNL A   1      39.343  29.630  30.533  1.00  0.00     0.049 A 
ATOM     31  N   UNL A   1      41.224  29.301  32.852  1.00  0.00    -0.248 NA
ATOM     32  C   UNL A   1      42.075  27.380  31.834  1.00  0.00     0.031 C 
ATOM     33  C   UNL A   1      38.386  29.821  29.442  1.00  0.00     0.029 A 
ATOM     34  N   UNL A   1      39.139  30.710  31.352  1.00  0.00    -0.354 N 
ATOM     35  C   UNL A   1      42.234  28.775  33.647  1.00  0.00     0.074 A 
ATOM     36  C   UNL A   1      42.715  27.582  32.980  1.00  0.00     0.031 C 
ATOM     37  C   UNL A   1      37.693  30.948  29.660  1.00  0.00     0.029 A 
ATOM     38  C   UNL A   1      38.124  31.532  30.926  1.00  0.00     0.049 A 
ATOM     39  H   UNL A   1      39.666  30.880  32.165  1.00  0.00     0.167 HD
ATOM     40  C   UNL A   1      42.715  29.247  34.823  1.00  0.00     0.037 A 
ATOM     41  C   UNL A   1      37.572  32.615  31.503  1.00  0.00     0.037 A 
ATOM     42  C   UNL A   1      42.237  30.438  35.481  1.00  0.00     0.049 A 
ATOM     43  C   UNL A   1      38.088  33.090  32.825  1.00  0.00     0.074 A 
ATOM     44  C   UNL A   1      42.693  31.015  36.654  1.00  0.00     0.029 A 
ATOM     45  N   UNL A   1      41.191  31.228  35.030  1.00  0.00    -0.354 N 
ATOM     46  N   UNL A   1      39.049  32.585  33.558  1.00  0.00    -0.248 NA
ATOM     47  C   UNL A   1      37.439  34.273  33.404  1.00  0.00     0.031 C 
ATOM     48  C   UNL A   1      41.903  32.140  36.927  1.00  0.00     0.029 A 
ATOM     49  C   UNL A   1      40.972  32.276  35.910  1.00  0.00     0.049 A 
ATOM     50  H   UNL A   1      40.679  31.067  34.205  1.00  0.00     0.167 HD
ATOM     51  C   UNL A   1      39.123  33.389  34.689  1.00  0.00     0.074 A 
ATOM     52  C   UNL A   1      38.117  34.421  34.535  1.00  0.00     0.031 C 
ATOM     53  C   UNL A   1      39.952  33.281  35.755  1.00  0.00     0.037 A 
BRANCH  40  54
ATOM     54  C   UNL A   1      43.814  28.471  35.490  1.00  0.00     0.058 A 
ATOM     55  C   UNL A   1      45.165  28.762  35.248  1.00  0.00     0.135 A 
ATOM     56  C   UNL A   1      43.513  27.475  36.432  1.00  0.00     0.135 A 
ATOM     57  F   UNL A   1      45.503  29.698  34.348  1.00  0.00    -0.206 F 
ATOM     58  C   UNL A   1      46.183  28.086  35.914  1.00  0.00     0.059 A 
ATOM     59  C   UNL A   1      44.515  26.795  37.118  1.00  0.00     0.059 A 
ATOM     60  F   UNL A   1      42.236  27.160  36.696  1.00  0.00    -0.206 F 
ATOM     61  C   UNL A   1      45.848  27.103  36.848  1.00  0.00     0.060 A 
BRANCH  61  62
ATOM     62  S   UNL A   1      47.173  26.253  37.733  1.00  0.00     0.124 S 
ATOM     63  O   UNL A   1      48.200  27.288  37.787  1.00  0.00    -0.237 OA
ATOM     64  O   UNL A   1      46.542  25.919  39.006  1.00  0.00    -0.237 OA
ATOM     65  O   UNL A   1      47.475  25.112  36.873  1.00  0.00    -0.744 OA
ENDBRANCH  61  62
ENDBRANCH  40  54
BRANCH  41  66
ATOM     66  C   UNL A   1      36.443  33.294  30.822  1.00  0.00     0.058 A 
ATOM     67  C   UNL A   1      35.130  33.142  31.282  1.00  0.00     0.135 A 
ATOM     68  C   UNL A   1      36.675  34.178  29.758  1.00  0.00     0.135 A 
ATOM     69  F   UNL A   1      34.867  32.303  32.296  1.00  0.00    -0.206 F 
ATOM     70  C   UNL A   1      34.079  33.860  30.721  1.00  0.00     0.059 A 
ATOM     71  C   UNL A   1      35.644  34.918  29.191  1.00  0.00     0.059 A 
ATOM     72  F   UNL A   1      37.922  34.365  29.298  1.00  0.00    -0.206 F 
ATOM     73  C   UNL A   1      34.349  34.752  29.682  1.00  0.00     0.060 A 
BRANCH  73  74
ATOM     74  S   UNL A   1      33.008  35.775  29.034  1.00  0.00     0.124 S 
ATOM     75  O   UNL A   1      32.349  34.848  28.122  1.00  0.00    -0.237 OA
ATOM     76  O   UNL A   1      32.263  36.122  30.240  1.00  0.00    -0.237 OA
ATOM     77  O   UNL A   1      33.717  36.887  28.406  1.00  0.00    -0.744 OA
ENDBRANCH  73  74
ENDBRANCH  41  66
BRANCH  53  78
ATOM     78  C   UNL A   1      39.796  34.307  36.837  1.00  0.00     0.058 A 
ATOM     79  C   UNL A   1      40.392  35.572  36.729  1.00  0.00     0.135 A 
ATOM     80  C   UNL A   1      39.042  34.026  37.986  1.00  0.00     0.135 A 
ATOM     81  F   UNL A   1      41.131  35.880  35.651  1.00  0.00    -0.206 F 
ATOM     82  C   UNL A   1      40.266  36.520  37.738  1.00  0.00     0.059 A 
ATOM     83  C   UNL A   1      38.891  34.965  39.002  1.00  0.00     0.059 A 
ATOM     84  F   UNL A   1      38.451  32.830  38.131  1.00  0.00    -0.206 F 
ATOM     85  C   UNL A   1      39.520  36.203  38.875  1.00  0.00     0.060 A 
BRANCH  85  86
ATOM     86  S   UNL A   1      39.354  37.437  40.184  1.00  0.00     0.124 S 
ATOM     87  O   UNL A   1      38.507  38.434  39.539  1.00  0.00    -0.237 OA
ATOM     88  O   UNL A   1      38.732  36.678  41.264  1.00  0.00    -0.237 OA
ATOM     89  O   UNL A   1      40.734  37.849  40.431  1.00  0.00    -0.744 OA
ENDBRANCH  85  86
ENDBRANCH  53  78
ENDBRANCH  27  28
ENDBRANCH  20  22
ENDBRANCH  19  20
ENDBRANCH  18  19
ENDBRANCH   1  18
TORSDOF 19
ENDMDL
MODEL 2
REMARK VINA RESULT:      -9.7      1.892      3.037
REMARK SMILES CCc1nc(COC)cc(OCC(=O)OCCOC(=O)c2ccc(-c3c4nc(c(-c5c(F)cc(S(=O)(=O)[O-])cc5F)c5ccc([nH]5)c(-c5c(F)cc(S(=O)(=O)[O-])cc5F)c5nc(c(-c6c(F)cc(S(=O)(=O)[O-])cc6F)c6ccc3[nH]6)C=C5)C=C4)cc2)n1
REMARK SMILES IDX 16 1 15 2 13 3 14 4 12 5 11 6 10 7 3 8 4 9 87 10 5 11 9 12
REMARK SMILES IDX 2 13 1 14 6 15 7 16 8 17 17 18 18 19 19 20 20 21 21 22 22 23
REMARK SMILES IDX 86 24 23 25 85 26 24 27 25 28 26 29 79 30 27 31 84 32 78 33
REMARK SMILES IDX 80 34 28 35 83 36 77 37 76 38 29 40 63 41 42 42 62 43 43 44
REMARK SMILES IDX 46 45 61 46 81 47 44 48 45 49 60 51 82 52 47 53 30 54 31 55
REMARK SMILES IDX 40 56 32 57 33 58 39 59 41 60 34 61 35 62 36 63 37 64 38 65
REMARK SMILES IDX 64 66 65 67 74 68 66 69 67 70 73 71 75 72 68 73 69 74 70 75
REMARK SMILES IDX 71 76 72 77 48 78 49 79 58 80 50 81 51 82 57 83 59 84 52 85
REMARK SMILES IDX 53 86 54 87 55 88 56 89
REMARK H PARENT 80 39 46 50
REMARK Flexibility Score: inf
ROOT
ATOM      1  C   UNL A   1      39.988  21.411  26.581  1.00  0.00     0.274 C 
ENDROOT
BRANCH   1   2
ATOM      2  O   UNL A   1      38.755  21.909  26.029  1.00  0.00    -0.460 OA
BRANCH   2   3
ATOM      3  C   UNL A   1      38.047  21.029  25.269  1.00  0.00     0.344 C 
ATOM      4  O   UNL A   1      38.339  19.849  25.114  1.00  0.00    -0.248 OA
BRANCH   3   5
ATOM      5  C   UNL A   1      36.828  21.660  24.607  1.00  0.00     0.353 C 
BRANCH   5   6
ATOM      6  O   UNL A   1      35.772  22.038  25.471  1.00  0.00    -0.466 OA
BRANCH   6   7
ATOM      7  C   UNL A   1      34.555  21.454  25.268  1.00  0.00     0.217 A 
ATOM      8  C   UNL A   1      32.303  21.690  25.602  1.00  0.00     0.132 A 
ATOM      9  N   UNL A   1      32.034  20.485  25.081  1.00  0.00    -0.235 NA
ATOM     10  N   UNL A   1      33.538  22.210  25.711  1.00  0.00    -0.198 NA
ATOM     11  C   UNL A   1      33.074  19.732  24.674  1.00  0.00     0.074 A 
ATOM     12  C   UNL A   1      34.372  20.198  24.737  1.00  0.00     0.094 A 
BRANCH   8  13
ATOM     13  C   UNL A   1      31.159  22.530  26.101  1.00  0.00     0.074 C 
ATOM     14  C   UNL A   1      30.930  23.810  25.309  1.00  0.00     0.012 C 
ENDBRANCH   8  13
BRANCH  11  15
ATOM     15  C   UNL A   1      32.764  18.341  24.162  1.00  0.00     0.216 C 
BRANCH  15  16
ATOM     16  O   UNL A   1      31.899  17.606  25.034  1.00  0.00    -0.378 OA
ATOM     17  C   UNL A   1      32.544  16.504  25.655  1.00  0.00     0.195 C 
ENDBRANCH  15  16
ENDBRANCH  11  15
ENDBRANCH   6   7
ENDBRANCH   5   6
ENDBRANCH   3   5
ENDBRANCH   2   3
ENDBRANCH   1   2
BRANCH   1  18
ATOM     18  C   UNL A   1      41.073  22.483  26.604  1.00  0.00     0.275 C 
BRANCH  18  19
ATOM     19  O   UNL A   1      40.495  23.800  26.546  1.00  0.00    -0.458 OA
BRANCH  19  20
ATOM     20  C   UNL A   1      41.380  24.787  26.287  1.00  0.00     0.338 C 
ATOM     21  O   UNL A   1      42.181  24.830  25.369  1.00  0.00    -0.246 OA
BRANCH  20  22
ATOM     22  C   UNL A   1      41.263  25.890  27.253  1.00  0.00     0.060 A 
ATOM     23  C   UNL A   1      42.189  26.937  27.253  1.00  0.00     0.016 A 
ATOM     24  C   UNL A   1      40.329  25.770  28.284  1.00  0.00     0.016 A 
ATOM     25  C   UNL A   1      42.198  27.848  28.311  1.00  0.00     0.010 A 
ATOM     26  C   UNL A   1      40.305  26.714  29.312  1.00  0.00     0.010 A 
ATOM     27  C   UNL A   1      41.250  27.751  29.342  1.00  0.00    -0.014 A 
BRANCH  27  28
ATOM     28  C   UNL A   1      41.176  28.784  30.404  1.00  0.00     0.031 A 
ATOM     29  C   UNL A   1      42.102  28.759  31.588  1.00  0.00     0.074 A 
ATOM     30  C   UNL A   1      40.220  29.727  30.315  1.00  0.00     0.049 A 
ATOM     31  N   UNL A   1      42.097  29.524  32.650  1.00  0.00    -0.248 NA
ATOM     32  C   UNL A   1      43.169  27.748  31.580  1.00  0.00     0.031 C 
ATOM     33  C   UNL A   1      39.261  29.850  29.216  1.00  0.00     0.029 A 
ATOM     34  N   UNL A   1      39.885  30.747  31.167  1.00  0.00    -0.354 N 
ATOM     35  C   UNL A   1      43.150  29.085  33.443  1.00  0.00     0.074 A 
ATOM     36  C   UNL A   1      43.769  27.978  32.742  1.00  0.00     0.031 C 
ATOM     37  C   UNL A   1      38.443  30.884  29.461  1.00  0.00     0.029 A 
ATOM     38  C   UNL A   1      38.790  31.465  30.754  1.00  0.00     0.049 A 
ATOM     39  H   UNL A   1      40.380  30.944  31.994  1.00  0.00     0.167 HD
ATOM     40  C   UNL A   1      43.560  29.565  34.642  1.00  0.00     0.037 A 
ATOM     41  C   UNL A   1      38.113  32.458  31.360  1.00  0.00     0.037 A 
ATOM     42  C   UNL A   1      42.945  30.670  35.334  1.00  0.00     0.049 A 
ATOM     43  C   UNL A   1      38.557  32.939  32.706  1.00  0.00     0.074 A 
ATOM     44  C   UNL A   1      43.318  31.251  36.534  1.00  0.00     0.029 A 
ATOM     45  N   UNL A   1      41.822  31.355  34.894  1.00  0.00    -0.354 N 
ATOM     46  N   UNL A   1      39.559  32.517  33.436  1.00  0.00    -0.248 NA
ATOM     47  C   UNL A   1      37.773  34.020  33.315  1.00  0.00     0.031 C 
ATOM     48  C   UNL A   1      42.404  32.270  36.833  1.00  0.00     0.029 A 
ATOM     49  C   UNL A   1      41.477  32.338  35.807  1.00  0.00     0.049 A 
ATOM     50  H   UNL A   1      41.341  31.168  34.055  1.00  0.00     0.167 HD
ATOM     51  C   UNL A   1      39.530  33.282  34.595  1.00  0.00     0.074 A 
ATOM     52  C   UNL A   1      38.416  34.201  34.461  1.00  0.00     0.031 C 
ATOM     53  C   UNL A   1      40.352  33.228  35.670  1.00  0.00     0.037 A 
BRANCH  40  54
ATOM     54  C   UNL A   1      44.731  28.892  35.300  1.00  0.00     0.058 A 
ATOM     55  C   UNL A   1      44.554  27.816  36.182  1.00  0.00     0.135 A 
ATOM     56  C   UNL A   1      46.043  29.283  34.992  1.00  0.00     0.135 A 
ATOM     57  F   UNL A   1      43.318  27.413  36.517  1.00  0.00    -0.206 F 
ATOM     58  C   UNL A   1      45.641  27.152  36.743  1.00  0.00     0.059 A 
ATOM     59  C   UNL A   1      47.144  28.625  35.532  1.00  0.00     0.059 A 
ATOM     60  F   UNL A   1      46.264  30.307  34.154  1.00  0.00    -0.206 F 
ATOM     61  C   UNL A   1      46.933  27.564  36.412  1.00  0.00     0.060 A 
BRANCH  61  62
ATOM     62  S   UNL A   1      48.339  26.676  37.118  1.00  0.00     0.124 S 
ATOM     63  O   UNL A   1      48.969  27.719  37.921  1.00  0.00    -0.237 OA
ATOM     64  O   UNL A   1      47.694  25.602  37.867  1.00  0.00    -0.237 OA
ATOM     65  O   UNL A   1      49.091  26.247  35.942  1.00  0.00    -0.744 OA
ENDBRANCH  61  62
ENDBRANCH  40  54
BRANCH  41  66
ATOM     66  C   UNL A   1      36.924  33.031  30.685  1.00  0.00     0.058 A 
ATOM     67  C   UNL A   1      35.631  32.642  31.053  1.00  0.00     0.135 A 
ATOM     68  C   UNL A   1      37.063  34.046  29.726  1.00  0.00     0.135 A 
ATOM     69  F   UNL A   1      35.456  31.673  31.965  1.00  0.00    -0.206 F 
ATOM     70  C   UNL A   1      34.508  33.252  30.506  1.00  0.00     0.059 A 
ATOM     71  C   UNL A   1      35.956  34.682  29.176  1.00  0.00     0.059 A 
ATOM     72  F   UNL A   1      38.286  34.460  29.358  1.00  0.00    -0.206 F 
ATOM     73  C   UNL A   1      34.683  34.278  29.574  1.00  0.00     0.060 A 
BRANCH  73  74
ATOM     74  S   UNL A   1      33.230  35.155  28.953  1.00  0.00     0.124 S 
ATOM     75  O   UNL A   1      32.588  34.122  28.150  1.00  0.00    -0.237 OA
ATOM     76  O   UNL A   1      32.538  35.531  30.182  1.00  0.00    -0.237 OA
ATOM     77  O   UNL A   1      33.813  36.268  28.208  1.00  0.00    -0.744 OA
ENDBRANCH  73  74
ENDBRANCH  41  66
BRANCH  53  78
ATOM     78  C   UNL A   1      40.069  34.190  36.785  1.00  0.00     0.058 A 
ATOM     79  C   UNL A   1      39.314  33.804  37.902  1.00  0.00     0.135 A 
ATOM     80  C   UNL A   1      40.560  35.504  36.739  1.00  0.00     0.135 A 
ATOM     81  F   UNL A   1      38.816  32.560  37.983  1.00  0.00    -0.206 F 
ATOM     82  C   UNL A   1      39.033  34.698  38.929  1.00  0.00     0.059 A 
ATOM     83  C   UNL A   1      40.303  36.411  37.763  1.00  0.00     0.059 A 
ATOM     84  F   UNL A   1      41.291  35.916  35.691  1.00  0.00    -0.206 F 
ATOM     85  C   UNL A   1      39.525  36.002  38.846  1.00  0.00     0.060 A 
BRANCH  85  86
ATOM     86  S   UNL A   1      39.162  37.162  40.183  1.00  0.00     0.124 S 
ATOM     87  O   UNL A   1      40.495  37.415  40.718  1.00  0.00    -0.237 OA
ATOM     88  O   UNL A   1      38.538  38.277  39.480  1.00  0.00    -0.237 OA
ATOM     89  O   UNL A   1      38.269  36.400  41.052  1.00  0.00    -0.744 OA
ENDBRANCH  85  86
ENDBRANCH  53  78
ENDBRANCH  27  28
ENDBRANCH  20  22
ENDBRANCH  19  20
ENDBRANCH  18  19
ENDBRANCH   1  18
TORSDOF 19
ENDMDL
MODEL 3
REMARK VINA RESULT:      -9.7      6.986     12.130
REMARK SMILES CCc1nc(COC)cc(OCC(=O)OCCOC(=O)c2ccc(-c3c4nc(c(-c5c(F)cc(S(=O)(=O)[O-])cc5F)c5ccc([nH]5)c(-c5c(F)cc(S(=O)(=O)[O-])cc5F)c5nc(c(-c6c(F)cc(S(=O)(=O)[O-])cc6F)c6ccc3[nH]6)C=C5)C=C4)cc2)n1
REMARK SMILES IDX 16 1 15 2 13 3 14 4 12 5 11 6 10 7 3 8 4 9 87 10 5 11 9 12
REMARK SMILES IDX 2 13 1 14 6 15 7 16 8 17 17 18 18 19 19 20 20 21 21 22 22 23
REMARK SMILES IDX 86 24 23 25 85 26 24 27 25 28 26 29 79 30 27 31 84 32 78 33
REMARK SMILES IDX 80 34 28 35 83 36 77 37 76 38 29 40 63 41 42 42 62 43 43 44
REMARK SMILES IDX 46 45 61 46 81 47 44 48 45 49 60 51 82 52 47 53 30 54 31 55
REMARK SMILES IDX 40 56 32 57 33 58 39 59 41 60 34 61 35 62 36 63 37 64 38 65
REMARK SMILES IDX 64 66 65 67 74 68 66 69 67 70 73 71 75 72 68 73 69 74 70 75
REMARK SMILES IDX 71 76 72 77 48 78 49 79 58 80 50 81 51 82 57 83 59 84 52 85
REMARK SMILES IDX 53 86 54 87 55 88 56 89
REMARK H PARENT 80 39 46 50
REMARK Flexibility Score: inf
ROOT
ATOM      1  C   UNL A   1      34.127  32.218  27.705  1.00  0.00     0.274 C 
ENDROOT
BRANCH   1   2
ATOM      2  O   UNL A   1      32.962  31.377  27.613  1.00  0.00    -0.460 OA
BRANCH   2   3
ATOM      3  C   UNL A   1      33.095  30.262  26.844  1.00  0.00     0.344 C 
ATOM      4  O   UNL A   1      34.166  29.755  26.529  1.00  0.00    -0.248 OA
BRANCH   3   5
ATOM      5  C   UNL A   1      31.757  29.686  26.394  1.00  0.00     0.353 C 
BRANCH   5   6
ATOM      6  O   UNL A   1      31.088  30.388  25.363  1.00  0.00    -0.466 OA
BRANCH   6   7
ATOM      7  C   UNL A   1      30.784  29.696  24.226  1.00  0.00     0.217 A 
ATOM      8  C   UNL A   1      29.378  29.611  22.423  1.00  0.00     0.132 A 
ATOM      9  N   UNL A   1      29.912  28.466  21.977  1.00  0.00    -0.235 NA
ATOM     10  N   UNL A   1      29.781  30.255  23.531  1.00  0.00    -0.198 NA
ATOM     11  C   UNL A   1      30.895  27.907  22.710  1.00  0.00     0.074 A 
ATOM     12  C   UNL A   1      31.378  28.511  23.853  1.00  0.00     0.094 A 
BRANCH   8  13
ATOM     13  C   UNL A   1      28.251  30.231  21.642  1.00  0.00     0.074 C 
ATOM     14  C   UNL A   1      28.336  31.746  21.516  1.00  0.00     0.012 C 
ENDBRANCH   8  13
BRANCH  11  15
ATOM     15  C   UNL A   1      31.436  26.572  22.240  1.00  0.00     0.216 C 
BRANCH  15  16
ATOM     16  O   UNL A   1      31.709  25.671  23.319  1.00  0.00    -0.378 OA
ATOM     17  C   UNL A   1      30.896  24.507  23.287  1.00  0.00     0.195 C 
ENDBRANCH  15  16
ENDBRANCH  11  15
ENDBRANCH   6   7
ENDBRANCH   5   6
ENDBRANCH   3   5
ENDBRANCH   2   3
ENDBRANCH   1   2
BRANCH   1  18
ATOM     18  C   UNL A   1      34.766  32.154  29.089  1.00  0.00     0.275 C 
BRANCH  18  19
ATOM     19  O   UNL A   1      35.498  30.927  29.260  1.00  0.00    -0.458 OA
BRANCH  19  20
ATOM     20  C   UNL A   1      36.257  30.881  30.376  1.00  0.00     0.338 C 
ATOM     21  O   UNL A   1      35.925  31.214  31.501  1.00  0.00    -0.246 OA
BRANCH  20  22
ATOM     22  C   UNL A   1      37.593  30.327  30.105  1.00  0.00     0.060 A 
ATOM     23  C   UNL A   1      38.475  30.051  31.152  1.00  0.00     0.016 A 
ATOM     24  C   UNL A   1      38.026  30.266  28.777  1.00  0.00     0.016 A 
ATOM     25  C   UNL A   1      39.807  29.746  30.867  1.00  0.00     0.010 A 
ATOM     26  C   UNL A   1      39.344  29.907  28.494  1.00  0.00     0.010 A 
ATOM     27  C   UNL A   1      40.249  29.659  29.537  1.00  0.00    -0.014 A 
BRANCH  27  28
ATOM     28  C   UNL A   1      41.630  29.217  29.224  1.00  0.00     0.031 A 
ATOM     29  C   UNL A   1      42.786  30.179  29.244  1.00  0.00     0.074 A 
ATOM     30  C   UNL A   1      41.826  27.934  28.868  1.00  0.00     0.049 A 
ATOM     31  N   UNL A   1      44.030  29.974  28.894  1.00  0.00    -0.248 NA
ATOM     32  C   UNL A   1      42.510  31.543  29.717  1.00  0.00     0.031 C 
ATOM     33  C   UNL A   1      40.782  26.909  28.808  1.00  0.00     0.029 A 
ATOM     34  N   UNL A   1      42.963  27.278  28.472  1.00  0.00    -0.354 N 
ATOM     35  C   UNL A   1      44.687  31.182  29.093  1.00  0.00     0.074 A 
ATOM     36  C   UNL A   1      43.700  32.120  29.588  1.00  0.00     0.031 C 
ATOM     37  C   UNL A   1      41.325  25.754  28.396  1.00  0.00     0.029 A 
ATOM     38  C   UNL A   1      42.742  25.969  28.119  1.00  0.00     0.049 A 
ATOM     39  H   UNL A   1      43.850  27.703  28.443  1.00  0.00     0.167 HD
ATOM     40  C   UNL A   1      45.993  31.477  28.883  1.00  0.00     0.037 A 
ATOM     41  C   UNL A   1      43.573  25.050  27.597  1.00  0.00     0.037 A 
ATOM     42  C   UNL A   1      46.974  30.539  28.395  1.00  0.00     0.049 A 
ATOM     43  C   UNL A   1      45.001  25.412  27.329  1.00  0.00     0.074 A 
ATOM     44  C   UNL A   1      48.328  30.738  28.191  1.00  0.00     0.029 A 
ATOM     45  N   UNL A   1      46.704  29.230  28.026  1.00  0.00    -0.354 N 
ATOM     46  N   UNL A   1      45.606  26.557  27.532  1.00  0.00    -0.248 NA
ATOM     47  C   UNL A   1      45.854  24.366  26.753  1.00  0.00     0.031 C 
ATOM     48  C   UNL A   1      48.874  29.556  27.671  1.00  0.00     0.029 A 
ATOM     49  C   UNL A   1      47.862  28.615  27.576  1.00  0.00     0.049 A 
ATOM     50  H   UNL A   1      45.819  28.801  28.075  1.00  0.00     0.167 HD
ATOM     51  C   UNL A   1      46.915  26.371  27.108  1.00  0.00     0.074 A 
ATOM     52  C   UNL A   1      47.016  24.999  26.650  1.00  0.00     0.031 C 
ATOM     53  C   UNL A   1      47.940  27.257  27.102  1.00  0.00     0.037 A 
BRANCH  40  54
ATOM     54  C   UNL A   1      46.447  32.879  29.169  1.00  0.00     0.058 A 
ATOM     55  C   UNL A   1      46.962  33.238  30.424  1.00  0.00     0.135 A 
ATOM     56  C   UNL A   1      46.431  33.854  28.160  1.00  0.00     0.135 A 
ATOM     57  F   UNL A   1      46.988  32.344  31.424  1.00  0.00    -0.206 F 
ATOM     58  C   UNL A   1      47.442  34.521  30.671  1.00  0.00     0.059 A 
ATOM     59  C   UNL A   1      46.916  35.139  28.381  1.00  0.00     0.059 A 
ATOM     60  F   UNL A   1      45.946  33.559  26.944  1.00  0.00    -0.206 F 
ATOM     61  C   UNL A   1      47.415  35.466  29.643  1.00  0.00     0.060 A 
BRANCH  61  62
ATOM     62  S   UNL A   1      48.070  37.119  29.960  1.00  0.00     0.124 S 
ATOM     63  O   UNL A   1      48.093  37.149  31.418  1.00  0.00    -0.237 OA
ATOM     64  O   UNL A   1      49.374  37.075  29.305  1.00  0.00    -0.237 OA
ATOM     65  O   UNL A   1      47.089  37.997  29.328  1.00  0.00    -0.744 OA
ENDBRANCH  61  62
ENDBRANCH  40  54
BRANCH  41  66
ATOM     66  C   UNL A   1      43.042  23.704  27.273  1.00  0.00     0.058 A 
ATOM     67  C   UNL A   1      42.655  23.379  25.968  1.00  0.00     0.135 A 
ATOM     68  C   UNL A   1      43.003  22.695  28.247  1.00  0.00     0.135 A 
ATOM     69  F   UNL A   1      42.676  24.317  25.008  1.00  0.00    -0.206 F 
ATOM     70  C   UNL A   1      42.260  22.089  25.631  1.00  0.00     0.059 A 
ATOM     71  C   UNL A   1      42.627  21.395  27.931  1.00  0.00     0.059 A 
ATOM     72  F   UNL A   1      43.383  22.961  29.507  1.00  0.00    -0.206 F 
ATOM     73  C   UNL A   1      42.259  21.102  26.618  1.00  0.00     0.060 A 
BRANCH  73  74
ATOM     74  S   UNL A   1      41.864  19.400  26.157  1.00  0.00     0.124 S 
ATOM     75  O   UNL A   1      42.234  18.677  27.367  1.00  0.00    -0.237 OA
ATOM     76  O   UNL A   1      40.436  19.474  25.868  1.00  0.00    -0.237 OA
ATOM     77  O   UNL A   1      42.717  19.169  24.994  1.00  0.00    -0.744 OA
ENDBRANCH  73  74
ENDBRANCH  41  66
BRANCH  53  78
ATOM     78  C   UNL A   1      49.255  26.763  26.577  1.00  0.00     0.058 A 
ATOM     79  C   UNL A   1      50.117  26.001  27.380  1.00  0.00     0.135 A 
ATOM     80  C   UNL A   1      49.655  27.049  25.263  1.00  0.00     0.135 A 
ATOM     81  F   UNL A   1      49.779  25.713  28.647  1.00  0.00    -0.206 F 
ATOM     82  C   UNL A   1      51.345  25.558  26.905  1.00  0.00     0.059 A 
ATOM     83  C   UNL A   1      50.874  26.603  24.762  1.00  0.00     0.059 A 
ATOM     84  F   UNL A   1      48.861  27.772  24.457  1.00  0.00    -0.206 F 
ATOM     85  C   UNL A   1      51.719  25.871  25.596  1.00  0.00     0.060 A 
BRANCH  85  86
ATOM     86  S   UNL A   1      53.314  25.291  24.978  1.00  0.00     0.124 S 
ATOM     87  O   UNL A   1      53.303  23.897  25.410  1.00  0.00    -0.237 OA
ATOM     88  O   UNL A   1      53.200  25.510  23.540  1.00  0.00    -0.237 OA
ATOM     89  O   UNL A   1      54.271  26.155  25.663  1.00  0.00    -0.744 OA
ENDBRANCH  85  86
ENDBRANCH  53  78
ENDBRANCH  27  28
ENDBRANCH  20  22
ENDBRANCH  19  20
ENDBRANCH  18  19
ENDBRANCH   1  18
TORSDOF 19
ENDMDL
