MODEL 1
REMARK VINA RESULT:     -12.6      0.000      0.000
REMARK SMILES O=C(OCCOC(=O)c1ccccc1/C=N\NC(=S)NCc1ccccc1)c1ccc(-c2c3nc(c(-c4c(F)cc(S(=O)(=O)[O-])cc4F)c4ccc([nH]4)c(-c4c(F)cc(S(=O)(=O)[O-])cc4F)c4nc(c(-c5c(F)cc(S(=O)(=O)[O-])cc5F)c5ccc2[nH]5)C=C4)C=C3)cc1
REMARK SMILES IDX 6 1 5 2 4 3 3 4 2 5 1 6 28 7 29 8 93 9 30 10 92 11 31 12
REMARK SMILES IDX 32 13 33 14 86 15 34 16 91 17 85 18 87 19 35 20 90 21 84 22
REMARK SMILES IDX 83 23 36 25 70 26 49 27 69 28 50 29 53 30 68 31 88 32 51 33
REMARK SMILES IDX 52 34 67 36 89 37 54 38 37 39 38 40 47 41 39 42 40 43 46 44
REMARK SMILES IDX 48 45 41 46 42 47 43 48 44 49 45 50 71 51 72 52 81 53 73 54
REMARK SMILES IDX 74 55 80 56 82 57 75 58 76 59 77 60 78 61 79 62 55 63 56 64
REMARK SMILES IDX 65 65 57 66 58 67 64 68 66 69 59 70 60 71 61 72 62 73 63 74
REMARK SMILES IDX 7 75 8 76 9 77 10 78 14 79 11 80 13 81 12 82 15 83 16 84
REMARK SMILES IDX 17 85 18 87 19 88 20 89 21 91 22 92 23 93 27 94 24 95 26 96
REMARK SMILES IDX 25 97
REMARK H PARENT 87 24 53 35 17 86 20 90
REMARK Flexibility Score: inf
ROOT
ATOM      1  O   UNL A   1      37.230  22.285  25.197  1.00  0.00    -0.458 OA
ENDROOT
BRANCH   1   2
ATOM      2  C   UNL A   1      38.161  21.294  25.735  1.00  0.00     0.275 C 
BRANCH   2   3
ATOM      3  C   UNL A   1      39.579  21.793  26.132  1.00  0.00     0.275 C 
BRANCH   3   4
ATOM      4  O   UNL A   1      39.577  23.137  26.615  1.00  0.00    -0.458 OA
BRANCH   4   5
ATOM      5  C   UNL A   1      40.685  23.878  26.825  1.00  0.00     0.338 C 
ATOM      6  O   UNL A   1      41.719  23.639  26.209  1.00  0.00    -0.246 OA
BRANCH   5   7
ATOM      7  C   UNL A   1      40.731  24.990  27.816  1.00  0.00     0.060 A 
ATOM      8  C   UNL A   1      39.306  25.805  28.606  1.00  0.00     0.016 A 
ATOM      9  C   UNL A   1      42.429  25.517  28.375  1.00  0.00     0.016 A 
ATOM     10  C   UNL A   1      39.470  27.063  29.889  1.00  0.00     0.010 A 
ATOM     11  C   UNL A   1      42.614  26.921  29.572  1.00  0.00     0.010 A 
ATOM     12  C   UNL A   1      41.122  27.626  30.390  1.00  0.00    -0.014 A 
BRANCH  12  13
ATOM     13  C   UNL A   1      41.139  28.741  31.396  1.00  0.00     0.031 A 
ATOM     14  C   UNL A   1      41.826  28.538  32.708  1.00  0.00     0.074 A 
ATOM     15  C   UNL A   1      40.766  30.020  31.099  1.00  0.00     0.049 A 
ATOM     16  N   UNL A   1      42.035  29.460  33.602  1.00  0.00    -0.248 NA
ATOM     17  C   UNL A   1      42.557  27.289  32.970  1.00  0.00     0.031 C 
ATOM     18  C   UNL A   1      40.557  30.658  29.788  1.00  0.00     0.029 A 
ATOM     19  N   UNL A   1      40.175  30.937  31.942  1.00  0.00    -0.354 N 
ATOM     20  C   UNL A   1      43.019  28.963  34.428  1.00  0.00     0.074 A 
ATOM     21  C   UNL A   1      43.386  27.659  33.940  1.00  0.00     0.031 C 
ATOM     22  C   UNL A   1      39.601  31.602  29.882  1.00  0.00     0.029 A 
ATOM     23  C   UNL A   1      39.254  31.738  31.272  1.00  0.00     0.049 A 
ATOM     24  H   UNL A   1      40.379  31.016  32.901  1.00  0.00     0.167 HD
ATOM     25  C   UNL A   1      43.521  29.573  35.518  1.00  0.00     0.037 A 
ATOM     26  C   UNL A   1      38.222  32.452  31.758  1.00  0.00     0.037 A 
ATOM     27  C   UNL A   1      42.914  30.764  36.052  1.00  0.00     0.049 A 
ATOM     28  C   UNL A   1      38.422  32.833  33.185  1.00  0.00     0.074 A 
ATOM     29  C   UNL A   1      43.199  31.417  37.232  1.00  0.00     0.029 A 
ATOM     30  N   UNL A   1      41.818  31.412  35.483  1.00  0.00    -0.354 N 
ATOM     31  N   UNL A   1      39.360  32.388  33.985  1.00  0.00    -0.248 NA
ATOM     32  C   UNL A   1      37.606  33.916  33.728  1.00  0.00     0.031 C 
ATOM     33  C   UNL A   1      42.193  32.365  37.442  1.00  0.00     0.029 A 
ATOM     34  C   UNL A   1      41.342  32.380  36.345  1.00  0.00     0.049 A 
ATOM     35  H   UNL A   1      41.439  31.209  34.597  1.00  0.00     0.167 HD
ATOM     36  C   UNL A   1      39.348  33.221  35.075  1.00  0.00     0.074 A 
ATOM     37  C   UNL A   1      38.259  34.163  34.858  1.00  0.00     0.031 C 
ATOM     38  C   UNL A   1      40.200  33.236  36.125  1.00  0.00     0.037 A 
BRANCH  25  39
ATOM     39  C   UNL A   1      44.596  28.873  36.282  1.00  0.00     0.058 A 
ATOM     40  C   UNL A   1      44.341  27.775  37.117  1.00  0.00     0.135 A 
ATOM     41  C   UNL A   1      45.925  29.293  36.129  1.00  0.00     0.135 A 
ATOM     42  F   UNL A   1      43.081  27.368  37.344  1.00  0.00    -0.206 F 
ATOM     43  C   UNL A   1      45.380  27.087  37.739  1.00  0.00     0.059 A 
ATOM     44  C   UNL A   1      46.977  28.610  36.722  1.00  0.00     0.059 A 
ATOM     45  F   UNL A   1      46.208  30.373  35.385  1.00  0.00    -0.206 F 
ATOM     46  C   UNL A   1      46.697  27.499  37.512  1.00  0.00     0.060 A 
BRANCH  46  47
ATOM     47  S   UNL A   1      48.042  26.530  38.225  1.00  0.00     0.124 S 
ATOM     48  O   UNL A   1      47.663  25.172  37.845  1.00  0.00    -0.237 OA
ATOM     49  O   UNL A   1      49.207  27.078  37.540  1.00  0.00    -0.237 OA
ATOM     50  O   UNL A   1      47.957  26.827  39.651  1.00  0.00    -0.744 OA
ENDBRANCH  46  47
ENDBRANCH  25  39
BRANCH  26  51
ATOM     51  C   UNL A   1      37.078  32.945  30.939  1.00  0.00     0.058 A 
ATOM     52  C   UNL A   1      37.192  34.015  30.042  1.00  0.00     0.135 A 
ATOM     53  C   UNL A   1      35.795  32.393  31.111  1.00  0.00     0.135 A 
ATOM     54  F   UNL A   1      38.391  34.577  29.825  1.00  0.00    -0.206 F 
ATOM     55  C   UNL A   1      36.081  34.557  29.393  1.00  0.00     0.059 A 
ATOM     56  C   UNL A   1      34.666  32.910  30.466  1.00  0.00     0.059 A 
ATOM     57  F   UNL A   1      35.618  31.350  31.938  1.00  0.00    -0.206 F 
ATOM     58  C   UNL A   1      34.818  34.008  29.622  1.00  0.00     0.060 A 
BRANCH  58  59
ATOM     59  S   UNL A   1      33.383  34.761  28.813  1.00  0.00     0.124 S 
ATOM     60  O   UNL A   1      33.014  33.735  27.843  1.00  0.00    -0.237 OA
ATOM     61  O   UNL A   1      32.463  34.940  29.931  1.00  0.00    -0.237 OA
ATOM     62  O   UNL A   1      33.921  35.994  28.245  1.00  0.00    -0.744 OA
ENDBRANCH  58  59
ENDBRANCH  26  51
BRANCH  38  63
ATOM     63  C   UNL A   1      39.911  34.263  37.160  1.00  0.00     0.058 A 
ATOM     64  C   UNL A   1      39.121  33.943  38.272  1.00  0.00     0.135 A 
ATOM     65  C   UNL A   1      40.475  35.542  37.071  1.00  0.00     0.135 A 
ATOM     66  F   UNL A   1      38.552  32.731  38.377  1.00  0.00    -0.206 F 
ATOM     67  C   UNL A   1      38.880  34.873  39.262  1.00  0.00     0.059 A 
ATOM     68  C   UNL A   1      40.293  36.472  38.081  1.00  0.00     0.059 A 
ATOM     69  F   UNL A   1      41.238  35.881  36.019  1.00  0.00    -0.206 F 
ATOM     70  C   UNL A   1      39.489  36.126  39.168  1.00  0.00     0.060 A 
BRANCH  70  71
ATOM     71  S   UNL A   1      39.249  37.275  40.528  1.00  0.00     0.124 S 
ATOM     72  O   UNL A   1      38.195  38.136  40.001  1.00  0.00    -0.237 OA
ATOM     73  O   UNL A   1      38.858  36.381  41.614  1.00  0.00    -0.237 OA
ATOM     74  O   UNL A   1      40.558  37.903  40.677  1.00  0.00    -0.744 OA
ENDBRANCH  70  71
ENDBRANCH  38  63
ENDBRANCH  12  13
ENDBRANCH   5   7
ENDBRANCH   4   5
ENDBRANCH   3   4
ENDBRANCH   2   3
ENDBRANCH   1   2
BRANCH   1  75
ATOM     75  C   UNL A   1      35.926  22.317  25.594  1.00  0.00     0.338 C 
ATOM     76  O   UNL A   1      35.452  23.084  26.412  1.00  0.00    -0.246 OA
BRANCH  75  77
ATOM     77  C   UNL A   1      35.118  21.532  24.607  1.00  0.00     0.068 A 
ATOM     78  C   UNL A   1      35.128  19.712  24.880  1.00  0.00     0.016 A 
ATOM     79  C   UNL A   1      33.683  22.303  23.782  1.00  0.00     0.009 A 
ATOM     80  C   UNL A   1      33.744  18.650  24.272  1.00  0.00     0.001 A 
ATOM     81  C   UNL A   1      32.270  21.233  23.172  1.00  0.00     0.010 A 
ATOM     82  C   UNL A   1      32.334  19.405  23.378  1.00  0.00     0.001 A 
BRANCH  79  83
ATOM     83  C   UNL A   1      33.893  23.480  23.016  1.00  0.00     0.142 C 
ATOM     84  N   UNL A   1      33.587  24.578  23.600  1.00  0.00    -0.181 NA
BRANCH  84  85
ATOM     85  N   UNL A   1      32.933  24.453  24.817  1.00  0.00    -0.254 N 
ATOM     86  H   UNL A   1      33.504  24.120  25.546  1.00  0.00     0.193 HD
BRANCH  85  87
ATOM     87  C   UNL A   1      31.617  24.712  25.204  1.00  0.00     0.187 C 
ATOM     88  S   UNL A   1      30.910  23.553  26.215  1.00  0.00    -0.039 S 
BRANCH  87  89
ATOM     89  N   UNL A   1      30.710  25.882  24.712  1.00  0.00    -0.357 N 
ATOM     90  H   UNL A   1      29.793  25.547  24.838  1.00  0.00     0.163 HD
BRANCH  89  91
ATOM     91  C   UNL A   1      30.450  27.839  23.904  1.00  0.00     0.151 C 
BRANCH  91  92
ATOM     92  C   UNL A   1      29.627  29.716  23.119  1.00  0.00    -0.029 A 
ATOM     93  C   UNL A   1      29.180  31.080  23.777  1.00  0.00     0.005 A 
ATOM     94  C   UNL A   1      29.141  30.155  21.627  1.00  0.00     0.005 A 
ATOM     95  C   UNL A   1      28.513  32.242  23.253  1.00  0.00     0.000 A 
ATOM     96  C   UNL A   1      28.452  31.296  21.119  1.00  0.00     0.000 A 
ATOM     97  C   UNL A   1      28.136  32.338  21.939  1.00  0.00     0.000 A 
ENDBRANCH  91  92
ENDBRANCH  89  91
ENDBRANCH  87  89
ENDBRANCH  85  87
ENDBRANCH  84  85
ENDBRANCH  79  83
ENDBRANCH  75  77
ENDBRANCH   1  75
TORSDOF 20
ENDMDL
MODEL 2
REMARK VINA RESULT:     -12.5      6.689     12.599
REMARK SMILES O=C(OCCOC(=O)c1ccccc1/C=N\NC(=S)NCc1ccccc1)c1ccc(-c2c3nc(c(-c4c(F)cc(S(=O)(=O)[O-])cc4F)c4ccc([nH]4)c(-c4c(F)cc(S(=O)(=O)[O-])cc4F)c4nc(c(-c5c(F)cc(S(=O)(=O)[O-])cc5F)c5ccc2[nH]5)C=C4)C=C3)cc1
REMARK SMILES IDX 6 1 5 2 4 3 3 4 2 5 1 6 28 7 29 8 93 9 30 10 92 11 31 12
REMARK SMILES IDX 32 13 33 14 86 15 34 16 91 17 85 18 87 19 35 20 90 21 84 22
REMARK SMILES IDX 83 23 36 25 70 26 49 27 69 28 50 29 53 30 68 31 88 32 51 33
REMARK SMILES IDX 52 34 67 36 89 37 54 38 37 39 38 40 47 41 39 42 40 43 46 44
REMARK SMILES IDX 48 45 41 46 42 47 43 48 44 49 45 50 71 51 72 52 81 53 73 54
REMARK SMILES IDX 74 55 80 56 82 57 75 58 76 59 77 60 78 61 79 62 55 63 56 64
REMARK SMILES IDX 65 65 57 66 58 67 64 68 66 69 59 70 60 71 61 72 62 73 63 74
REMARK SMILES IDX 7 75 8 76 9 77 10 78 14 79 11 80 13 81 12 82 15 83 16 84
REMARK SMILES IDX 17 85 18 87 19 88 20 89 21 91 22 92 23 93 27 94 24 95 26 96
REMARK SMILES IDX 25 97
REMARK H PARENT 87 24 53 35 17 86 20 90
REMARK Flexibility Score: inf
ROOT
ATOM      1  O   UNL A   1      32.925  28.131  26.198  1.00  0.00    -0.458 OA
ENDROOT
BRANCH   1   2
ATOM      2  C   UNL A   1      34.200  28.684  26.653  1.00  0.00     0.275 C 
BRANCH   2   3
ATOM      3  C   UNL A   1      34.175  30.106  27.282  1.00  0.00     0.275 C 
BRANCH   3   4
ATOM      4  O   UNL A   1      34.940  30.191  28.485  1.00  0.00    -0.458 OA
BRANCH   4   5
ATOM      5  C   UNL A   1      35.967  31.044  28.682  1.00  0.00     0.338 C 
ATOM      6  O   UNL A   1      35.753  32.230  28.916  1.00  0.00    -0.246 OA
BRANCH   5   7
ATOM      7  C   UNL A   1      37.392  30.616  28.605  1.00  0.00     0.060 A 
ATOM      8  C   UNL A   1      38.163  29.628  27.283  1.00  0.00     0.016 A 
ATOM      9  C   UNL A   1      38.512  31.258  29.949  1.00  0.00     0.016 A 
ATOM     10  C   UNL A   1      39.929  29.266  27.219  1.00  0.00     0.010 A 
ATOM     11  C   UNL A   1      40.296  30.757  29.983  1.00  0.00     0.010 A 
ATOM     12  C   UNL A   1      41.013  29.833  28.561  1.00  0.00    -0.014 A 
BRANCH  12  13
ATOM     13  C   UNL A   1      42.446  29.396  28.453  1.00  0.00     0.031 A 
ATOM     14  C   UNL A   1      43.511  30.417  28.214  1.00  0.00     0.074 A 
ATOM     15  C   UNL A   1      42.872  28.145  28.793  1.00  0.00     0.049 A 
ATOM     16  N   UNL A   1      44.792  30.193  28.241  1.00  0.00    -0.248 NA
ATOM     17  C   UNL A   1      43.165  31.846  28.178  1.00  0.00     0.031 C 
ATOM     18  C   UNL A   1      42.182  27.092  29.558  1.00  0.00     0.029 A 
ATOM     19  N   UNL A   1      43.911  27.433  28.233  1.00  0.00    -0.354 N 
ATOM     20  C   UNL A   1      45.384  31.430  28.378  1.00  0.00     0.074 A 
ATOM     21  C   UNL A   1      44.337  32.415  28.438  1.00  0.00     0.031 C 
ATOM     22  C   UNL A   1      42.568  25.878  29.122  1.00  0.00     0.029 A 
ATOM     23  C   UNL A   1      43.633  26.070  28.174  1.00  0.00     0.049 A 
ATOM     24  H   UNL A   1      44.749  27.839  27.913  1.00  0.00     0.167 HD
ATOM     25  C   UNL A   1      46.708  31.674  28.412  1.00  0.00     0.037 A 
ATOM     26  C   UNL A   1      44.168  25.116  27.389  1.00  0.00     0.037 A 
ATOM     27  C   UNL A   1      47.665  30.644  28.103  1.00  0.00     0.049 A 
ATOM     28  C   UNL A   1      45.541  25.468  26.930  1.00  0.00     0.074 A 
ATOM     29  C   UNL A   1      49.029  30.762  27.939  1.00  0.00     0.029 A 
ATOM     30  N   UNL A   1      47.331  29.325  27.800  1.00  0.00    -0.354 N 
ATOM     31  N   UNL A   1      46.132  26.631  27.064  1.00  0.00    -0.248 NA
ATOM     32  C   UNL A   1      46.391  24.396  26.416  1.00  0.00     0.031 C 
ATOM     33  C   UNL A   1      49.494  29.557  27.405  1.00  0.00     0.029 A 
ATOM     34  C   UNL A   1      48.444  28.651  27.337  1.00  0.00     0.049 A 
ATOM     35  H   UNL A   1      46.434  28.931  27.902  1.00  0.00     0.167 HD
ATOM     36  C   UNL A   1      47.458  26.410  26.786  1.00  0.00     0.074 A 
ATOM     37  C   UNL A   1      47.569  25.007  26.412  1.00  0.00     0.031 C 
ATOM     38  C   UNL A   1      48.490  27.278  26.892  1.00  0.00     0.037 A 
BRANCH  25  39
ATOM     39  C   UNL A   1      47.156  33.089  28.577  1.00  0.00     0.058 A 
ATOM     40  C   UNL A   1      47.473  33.643  29.826  1.00  0.00     0.135 A 
ATOM     41  C   UNL A   1      47.316  33.891  27.438  1.00  0.00     0.135 A 
ATOM     42  F   UNL A   1      47.283  32.939  30.954  1.00  0.00    -0.206 F 
ATOM     43  C   UNL A   1      47.980  34.937  29.931  1.00  0.00     0.059 A 
ATOM     44  C   UNL A   1      47.838  35.173  27.517  1.00  0.00     0.059 A 
ATOM     45  F   UNL A   1      46.972  33.418  26.230  1.00  0.00    -0.206 F 
ATOM     46  C   UNL A   1      48.182  35.682  28.766  1.00  0.00     0.060 A 
BRANCH  46  47
ATOM     47  S   UNL A   1      48.950  37.310  28.903  1.00  0.00     0.124 S 
ATOM     48  O   UNL A   1      48.748  37.615  30.316  1.00  0.00    -0.237 OA
ATOM     49  O   UNL A   1      50.325  37.031  28.504  1.00  0.00    -0.237 OA
ATOM     50  O   UNL A   1      48.182  38.128  27.970  1.00  0.00    -0.744 OA
ENDBRANCH  46  47
ENDBRANCH  25  39
BRANCH  26  51
ATOM     51  C   UNL A   1      43.538  23.791  27.125  1.00  0.00     0.058 A 
ATOM     52  C   UNL A   1      43.545  22.748  28.059  1.00  0.00     0.135 A 
ATOM     53  C   UNL A   1      42.981  23.511  25.862  1.00  0.00     0.135 A 
ATOM     54  F   UNL A   1      44.051  22.954  29.284  1.00  0.00    -0.206 F 
ATOM     55  C   UNL A   1      43.082  21.469  27.743  1.00  0.00     0.059 A 
ATOM     56  C   UNL A   1      42.500  22.242  25.523  1.00  0.00     0.059 A 
ATOM     57  F   UNL A   1      42.921  24.473  24.927  1.00  0.00    -0.206 F 
ATOM     58  C   UNL A   1      42.574  21.220  26.466  1.00  0.00     0.060 A 
BRANCH  58  59
ATOM     59  S   UNL A   1      42.029  19.541  26.059  1.00  0.00     0.124 S 
ATOM     60  O   UNL A   1      42.887  19.215  24.924  1.00  0.00    -0.237 OA
ATOM     61  O   UNL A   1      42.313  18.822  27.297  1.00  0.00    -0.237 OA
ATOM     62  O   UNL A   1      40.613  19.709  25.747  1.00  0.00    -0.744 OA
ENDBRANCH  58  59
ENDBRANCH  26  51
BRANCH  38  63
ATOM     63  C   UNL A   1      49.817  26.734  26.502  1.00  0.00     0.058 A 
ATOM     64  C   UNL A   1      50.618  26.080  27.448  1.00  0.00     0.135 A 
ATOM     65  C   UNL A   1      50.255  26.810  25.174  1.00  0.00     0.135 A 
ATOM     66  F   UNL A   1      50.234  26.007  28.732  1.00  0.00    -0.206 F 
ATOM     67  C   UNL A   1      51.833  25.531  27.089  1.00  0.00     0.059 A 
ATOM     68  C   UNL A   1      51.444  26.217  24.782  1.00  0.00     0.059 A 
ATOM     69  F   UNL A   1      49.510  27.428  24.243  1.00  0.00    -0.206 F 
ATOM     70  C   UNL A   1      52.225  25.586  25.750  1.00  0.00     0.060 A 
BRANCH  70  71
ATOM     71  S   UNL A   1      53.756  24.764  25.295  1.00  0.00     0.124 S 
ATOM     72  O   UNL A   1      53.286  23.416  24.992  1.00  0.00    -0.237 OA
ATOM     73  O   UNL A   1      54.197  25.557  24.152  1.00  0.00    -0.237 OA
ATOM     74  O   UNL A   1      54.578  24.889  26.494  1.00  0.00    -0.744 OA
ENDBRANCH  70  71
ENDBRANCH  38  63
ENDBRANCH  12  13
ENDBRANCH   5   7
ENDBRANCH   4   5
ENDBRANCH   3   4
ENDBRANCH   2   3
ENDBRANCH   1   2
BRANCH   1  75
ATOM     75  C   UNL A   1      32.593  28.118  24.876  1.00  0.00     0.338 C 
ATOM     76  O   UNL A   1      33.282  27.677  23.975  1.00  0.00    -0.246 OA
BRANCH  75  77
ATOM     77  C   UNL A   1      31.122  28.377  24.763  1.00  0.00     0.068 A 
ATOM     78  C   UNL A   1      30.679  30.103  24.304  1.00  0.00     0.016 A 
ATOM     79  C   UNL A   1      29.986  27.017  24.322  1.00  0.00     0.009 A 
ATOM     80  C   UNL A   1      29.076  30.486  23.471  1.00  0.00     0.001 A 
ATOM     81  C   UNL A   1      28.361  27.396  23.465  1.00  0.00     0.010 A 
ATOM     82  C   UNL A   1      27.895  29.137  23.090  1.00  0.00     0.001 A 
BRANCH  79  83
ATOM     83  C   UNL A   1      29.948  25.868  25.155  1.00  0.00     0.142 C 
ATOM     84  N   UNL A   1      30.715  24.905  24.800  1.00  0.00    -0.181 NA
BRANCH  84  85
ATOM     85  N   UNL A   1      31.332  25.049  23.565  1.00  0.00    -0.254 N 
ATOM     86  H   UNL A   1      31.209  25.937  23.158  1.00  0.00     0.193 HD
BRANCH  85  87
ATOM     87  C   UNL A   1      32.095  24.173  22.792  1.00  0.00     0.187 C 
ATOM     88  S   UNL A   1      33.311  24.890  21.858  1.00  0.00    -0.039 S 
BRANCH  87  89
ATOM     89  N   UNL A   1      31.868  22.640  22.614  1.00  0.00    -0.357 N 
ATOM     90  H   UNL A   1      31.386  22.563  21.760  1.00  0.00     0.163 HD
BRANCH  89  91
ATOM     91  C   UNL A   1      32.071  20.626  23.287  1.00  0.00     0.151 C 
BRANCH  91  92
ATOM     92  C   UNL A   1      32.834  18.700  24.012  1.00  0.00    -0.029 A 
ATOM     93  C   UNL A   1      33.762  17.582  23.392  1.00  0.00     0.005 A 
ATOM     94  C   UNL A   1      32.536  17.848  25.368  1.00  0.00     0.005 A 
ATOM     95  C   UNL A   1      34.130  16.265  23.838  1.00  0.00     0.000 A 
ATOM     96  C   UNL A   1      32.879  16.531  25.792  1.00  0.00     0.000 A 
ATOM     97  C   UNL A   1      33.676  15.738  25.018  1.00  0.00     0.000 A 
ENDBRANCH  91  92
ENDBRANCH  89  91
ENDBRANCH  87  89
ENDBRANCH  85  87
ENDBRANCH  84  85
ENDBRANCH  79  83
ENDBRANCH  75  77
ENDBRANCH   1  75
TORSDOF 20
ENDMDL
MODEL 3
REMARK VINA RESULT:     -12.4      6.863     12.316
REMARK SMILES O=C(OCCOC(=O)c1ccccc1/C=N\NC(=S)NCc1ccccc1)c1ccc(-c2c3nc(c(-c4c(F)cc(S(=O)(=O)[O-])cc4F)c4ccc([nH]4)c(-c4c(F)cc(S(=O)(=O)[O-])cc4F)c4nc(c(-c5c(F)cc(S(=O)(=O)[O-])cc5F)c5ccc2[nH]5)C=C4)C=C3)cc1
REMARK SMILES IDX 6 1 5 2 4 3 3 4 2 5 1 6 28 7 29 8 93 9 30 10 92 11 31 12
REMARK SMILES IDX 32 13 33 14 86 15 34 16 91 17 85 18 87 19 35 20 90 21 84 22
REMARK SMILES IDX 83 23 36 25 70 26 49 27 69 28 50 29 53 30 68 31 88 32 51 33
REMARK SMILES IDX 52 34 67 36 89 37 54 38 37 39 38 40 47 41 39 42 40 43 46 44
REMARK SMILES IDX 48 45 41 46 42 47 43 48 44 49 45 50 71 51 72 52 81 53 73 54
REMARK SMILES IDX 74 55 80 56 82 57 75 58 76 59 77 60 78 61 79 62 55 63 56 64
REMARK SMILES IDX 65 65 57 66 58 67 64 68 66 69 59 70 60 71 61 72 62 73 63 74
REMARK SMILES IDX 7 75 8 76 9 77 10 78 14 79 11 80 13 81 12 82 15 83 16 84
REMARK SMILES IDX 17 85 18 87 19 88 20 89 21 91 22 92 23 93 27 94 24 95 26 96
REMARK SMILES IDX 25 97
REMARK H PARENT 87 24 53 35 17 86 20 90
REMARK Flexibility Score: inf
ROOT
ATOM      1  O   UNL A   1      32.968  27.495  26.085  1.00  0.00    -0.458 OA
ENDROOT
BRANCH   1   2
ATOM      2  C   UNL A   1      33.176  28.382  27.228  1.00  0.00     0.275 C 
BRANCH   2   3
ATOM      3  C   UNL A   1      34.214  29.527  27.061  1.00  0.00     0.275 C 
BRANCH   3   4
ATOM      4  O   UNL A   1      34.893  29.841  28.278  1.00  0.00    -0.458 OA
BRANCH   4   5
ATOM      5  C   UNL A   1      35.906  30.725  28.386  1.00  0.00     0.338 C 
ATOM      6  O   UNL A   1      35.674  31.925  28.507  1.00  0.00    -0.246 OA
BRANCH   5   7
ATOM      7  C   UNL A   1      37.338  30.316  28.338  1.00  0.00     0.060 A 
ATOM      8  C   UNL A   1      38.163  29.389  27.005  1.00  0.00     0.016 A 
ATOM      9  C   UNL A   1      38.406  30.915  29.744  1.00  0.00     0.016 A 
ATOM     10  C   UNL A   1      39.934  29.048  26.985  1.00  0.00     0.010 A 
ATOM     11  C   UNL A   1      40.194  30.431  29.817  1.00  0.00     0.010 A 
ATOM     12  C   UNL A   1      40.967  29.572  28.383  1.00  0.00    -0.014 A 
BRANCH  12  13
ATOM     13  C   UNL A   1      42.408  29.154  28.305  1.00  0.00     0.031 A 
ATOM     14  C   UNL A   1      43.463  30.188  28.082  1.00  0.00     0.074 A 
ATOM     15  C   UNL A   1      42.844  27.910  28.661  1.00  0.00     0.049 A 
ATOM     16  N   UNL A   1      44.746  29.982  28.135  1.00  0.00    -0.248 NA
ATOM     17  C   UNL A   1      43.098  31.612  28.032  1.00  0.00     0.031 C 
ATOM     18  C   UNL A   1      42.154  26.852  29.417  1.00  0.00     0.029 A 
ATOM     19  N   UNL A   1      43.904  27.210  28.125  1.00  0.00    -0.354 N 
ATOM     20  C   UNL A   1      45.319  31.228  28.277  1.00  0.00     0.074 A 
ATOM     21  C   UNL A   1      44.257  32.199  28.312  1.00  0.00     0.031 C 
ATOM     22  C   UNL A   1      42.565  25.641  28.996  1.00  0.00     0.029 A 
ATOM     23  C   UNL A   1      43.645  25.843  28.068  1.00  0.00     0.049 A 
ATOM     24  H   UNL A   1      44.742  27.626  27.819  1.00  0.00     0.167 HD
ATOM     25  C   UNL A   1      46.638  31.490  28.336  1.00  0.00     0.037 A 
ATOM     26  C   UNL A   1      44.209  24.893  27.298  1.00  0.00     0.037 A 
ATOM     27  C   UNL A   1      47.615  30.472  28.051  1.00  0.00     0.049 A 
ATOM     28  C   UNL A   1      45.585  25.262  26.864  1.00  0.00     0.074 A 
ATOM     29  C   UNL A   1      48.980  30.608  27.913  1.00  0.00     0.029 A 
ATOM     30  N   UNL A   1      47.305  29.147  27.749  1.00  0.00    -0.354 N 
ATOM     31  N   UNL A   1      46.158  26.433  27.003  1.00  0.00    -0.248 NA
ATOM     32  C   UNL A   1      46.460  24.199  26.372  1.00  0.00     0.031 C 
ATOM     33  C   UNL A   1      49.472  29.407  27.394  1.00  0.00     0.029 A 
ATOM     34  C   UNL A   1      48.436  28.486  27.311  1.00  0.00     0.049 A 
ATOM     35  H   UNL A   1      46.412  28.741  27.835  1.00  0.00     0.167 HD
ATOM     36  C   UNL A   1      47.491  26.229  26.753  1.00  0.00     0.074 A 
ATOM     37  C   UNL A   1      47.630  24.826  26.388  1.00  0.00     0.031 C 
ATOM     38  C   UNL A   1      48.509  27.112  26.874  1.00  0.00     0.037 A 
BRANCH  25  39
ATOM     39  C   UNL A   1      47.063  32.912  28.502  1.00  0.00     0.058 A 
ATOM     40  C   UNL A   1      47.208  33.791  27.418  1.00  0.00     0.135 A 
ATOM     41  C   UNL A   1      47.285  33.411  29.792  1.00  0.00     0.135 A 
ATOM     42  F   UNL A   1      47.064  33.351  26.158  1.00  0.00    -0.206 F 
ATOM     43  C   UNL A   1      47.513  35.136  27.618  1.00  0.00     0.059 A 
ATOM     44  C   UNL A   1      47.570  34.750  30.017  1.00  0.00     0.059 A 
ATOM     45  F   UNL A   1      47.213  32.591  30.853  1.00  0.00    -0.206 F 
ATOM     46  C   UNL A   1      47.666  35.609  28.925  1.00  0.00     0.060 A 
BRANCH  46  47
ATOM     47  S   UNL A   1      47.943  37.373  29.180  1.00  0.00     0.124 S 
ATOM     48  O   UNL A   1      47.019  37.665  30.272  1.00  0.00    -0.237 OA
ATOM     49  O   UNL A   1      49.360  37.412  29.523  1.00  0.00    -0.237 OA
ATOM     50  O   UNL A   1      47.595  37.962  27.891  1.00  0.00    -0.744 OA
ENDBRANCH  46  47
ENDBRANCH  25  39
BRANCH  26  51
ATOM     51  C   UNL A   1      43.603  23.558  27.029  1.00  0.00     0.058 A 
ATOM     52  C   UNL A   1      43.489  22.564  28.009  1.00  0.00     0.135 A 
ATOM     53  C   UNL A   1      43.196  23.215  25.725  1.00  0.00     0.135 A 
ATOM     54  F   UNL A   1      43.849  22.832  29.273  1.00  0.00    -0.206 F 
ATOM     55  C   UNL A   1      43.055  21.272  27.706  1.00  0.00     0.059 A 
ATOM     56  C   UNL A   1      42.747  21.932  25.396  1.00  0.00     0.059 A 
ATOM     57  F   UNL A   1      43.256  24.128  24.742  1.00  0.00    -0.206 F 
ATOM     58  C   UNL A   1      42.699  20.959  26.392  1.00  0.00     0.060 A 
BRANCH  58  59
ATOM     59  S   UNL A   1      42.191  19.263  26.009  1.00  0.00     0.124 S 
ATOM     60  O   UNL A   1      40.752  19.417  25.824  1.00  0.00    -0.237 OA
ATOM     61  O   UNL A   1      42.962  18.981  24.803  1.00  0.00    -0.237 OA
ATOM     62  O   UNL A   1      42.593  18.512  27.195  1.00  0.00    -0.744 OA
ENDBRANCH  58  59
ENDBRANCH  26  51
BRANCH  38  63
ATOM     63  C   UNL A   1      49.851  26.584  26.512  1.00  0.00     0.058 A 
ATOM     64  C   UNL A   1      50.305  26.654  25.189  1.00  0.00     0.135 A 
ATOM     65  C   UNL A   1      50.703  26.069  27.499  1.00  0.00     0.135 A 
ATOM     66  F   UNL A   1      49.506  27.125  24.219  1.00  0.00    -0.206 F 
ATOM     67  C   UNL A   1      51.566  26.208  24.847  1.00  0.00     0.059 A 
ATOM     68  C   UNL A   1      51.991  25.668  27.187  1.00  0.00     0.059 A 
ATOM     69  F   UNL A   1      50.299  25.990  28.776  1.00  0.00    -0.206 F 
ATOM     70  C   UNL A   1      52.407  25.738  25.857  1.00  0.00     0.060 A 
BRANCH  70  71
ATOM     71  S   UNL A   1      54.080  25.271  25.399  1.00  0.00     0.124 S 
ATOM     72  O   UNL A   1      54.164  25.783  24.034  1.00  0.00    -0.237 OA
ATOM     73  O   UNL A   1      54.876  25.982  26.395  1.00  0.00    -0.237 OA
ATOM     74  O   UNL A   1      54.075  23.818  25.526  1.00  0.00    -0.744 OA
ENDBRANCH  70  71
ENDBRANCH  38  63
ENDBRANCH  12  13
ENDBRANCH   5   7
ENDBRANCH   4   5
ENDBRANCH   3   4
ENDBRANCH   2   3
ENDBRANCH   1   2
BRANCH   1  75
ATOM     75  C   UNL A   1      32.807  26.152  26.253  1.00  0.00     0.338 C 
ATOM     76  O   UNL A   1      31.836  25.610  26.748  1.00  0.00    -0.246 OA
BRANCH  75  77
ATOM     77  C   UNL A   1      33.824  25.451  25.406  1.00  0.00     0.068 A 
ATOM     78  C   UNL A   1      34.796  24.158  26.283  1.00  0.00     0.016 A 
ATOM     79  C   UNL A   1      33.567  25.305  23.604  1.00  0.00     0.009 A 
ATOM     80  C   UNL A   1      35.572  22.759  25.361  1.00  0.00     0.001 A 
ATOM     81  C   UNL A   1      34.342  23.881  22.662  1.00  0.00     0.010 A 
ATOM     82  C   UNL A   1      35.382  22.643  23.542  1.00  0.00     0.001 A 
BRANCH  79  83
ATOM     83  C   UNL A   1      33.420  26.494  22.841  1.00  0.00     0.142 C 
ATOM     84  N   UNL A   1      32.255  26.688  22.345  1.00  0.00    -0.181 NA
BRANCH  84  85
ATOM     85  N   UNL A   1      31.362  25.634  22.470  1.00  0.00    -0.254 N 
ATOM     86  H   UNL A   1      31.259  25.097  21.651  1.00  0.00     0.193 HD
BRANCH  85  87
ATOM     87  C   UNL A   1      30.580  25.190  23.538  1.00  0.00     0.187 C 
ATOM     88  S   UNL A   1      29.433  26.293  24.116  1.00  0.00    -0.039 S 
BRANCH  87  89
ATOM     89  N   UNL A   1      30.735  23.846  24.315  1.00  0.00    -0.357 N 
ATOM     90  H   UNL A   1      30.124  23.937  25.081  1.00  0.00     0.163 HD
BRANCH  89  91
ATOM     91  C   UNL A   1      31.601  21.912  24.559  1.00  0.00     0.151 C 
BRANCH  91  92
ATOM     92  C   UNL A   1      32.612  19.989  24.254  1.00  0.00    -0.029 A 
ATOM     93  C   UNL A   1      33.958  19.358  24.788  1.00  0.00     0.005 A 
ATOM     94  C   UNL A   1      32.286  18.727  23.276  1.00  0.00     0.005 A 
ATOM     95  C   UNL A   1      34.665  18.149  24.459  1.00  0.00     0.000 A 
ATOM     96  C   UNL A   1      33.005  17.545  22.931  1.00  0.00     0.000 A 
ATOM     97  C   UNL A   1      34.201  17.261  23.524  1.00  0.00     0.000 A 
ENDBRANCH  91  92
ENDBRANCH  89  91
ENDBRANCH  87  89
ENDBRANCH  85  87
ENDBRANCH  84  85
ENDBRANCH  79  83
ENDBRANCH  75  77
ENDBRANCH   1  75
TORSDOF 20
ENDMDL
