MODEL 1
REMARK VINA RESULT:     -10.9      0.000      0.000
REMARK SMILES Cc1ccsc1CNC(=O)N[C@@H]1CCCC[C@H]1C(=O)OCCOC(=O)c1ccc(-c2c3nc(c(-c4c(F)cc(S(=O)(=O)[O-])cc4F)c4ccc([nH]4)c(-c4c(F)cc(S(=O)(=O)[O-])cc4F)c4nc(c(-c5c(F)cc(S(=O)(=O)[O-])cc5F)c5ccc2[nH]5)C=C4)C=C3)cc1
REMARK SMILES IDX 21 1 20 2 18 3 19 4 17 5 12 6 13 7 14 8 16 9 15 10 11 11
REMARK SMILES IDX 8 12 9 13 10 15 7 17 6 18 1 19 2 20 3 21 4 22 5 23 22 24
REMARK SMILES IDX 23 25 24 26 25 27 26 28 27 29 91 30 28 31 90 32 29 33 30 34
REMARK SMILES IDX 31 35 84 36 32 37 89 38 83 39 85 40 33 41 88 42 82 43 81 44
REMARK SMILES IDX 34 46 68 47 47 48 67 49 48 50 51 51 66 52 86 53 49 54 50 55
REMARK SMILES IDX 65 57 87 58 52 59 35 60 36 61 45 62 37 63 38 64 44 65 46 66
REMARK SMILES IDX 39 67 40 68 41 69 42 70 43 71 69 72 70 73 79 74 71 75 72 76
REMARK SMILES IDX 78 77 80 78 73 79 74 80 75 81 76 82 77 83 53 84 54 85 63 86
REMARK SMILES IDX 55 87 56 88 62 89 64 90 57 91 58 92 59 93 60 94 61 95
REMARK H PARENT 8 14 11 16 85 45 51 56
REMARK Flexibility Score: inf
ROOT
ATOM      1  C   UNL A   1      33.629  28.989  25.462  1.00  0.00     0.274 C 
ENDROOT
BRANCH   1   2
ATOM      2  O   UNL A   1      33.999  27.773  26.148  1.00  0.00    -0.462 OA
BRANCH   2   3
ATOM      3  C   UNL A   1      33.266  26.680  25.812  1.00  0.00     0.311 C 
ATOM      4  O   UNL A   1      32.439  26.152  26.550  1.00  0.00    -0.252 OA
BRANCH   3   5
ATOM      5  C   UNL A   1      33.652  26.065  24.478  1.00  0.00     0.121 C 
ATOM      6  C   UNL A   1      34.184  24.623  24.508  1.00  0.00     0.098 C 
ATOM      7  C   UNL A   1      34.177  23.858  23.171  1.00  0.00     0.026 C 
ATOM      8  C   UNL A   1      33.003  24.181  22.258  1.00  0.00     0.002 C 
ATOM      9  C   UNL A   1      32.480  26.271  23.516  1.00  0.00     0.017 C 
ATOM     10  C   UNL A   1      32.755  25.676  22.144  1.00  0.00     0.001 C 
BRANCH   6  11
ATOM     11  N   UNL A   1      35.506  24.487  25.132  1.00  0.00    -0.335 N 
ATOM     12  N   UNL A   1      35.523  22.819  26.836  1.00  0.00    -0.333 N 
ATOM     13  C   UNL A   1      36.085  23.786  26.110  1.00  0.00     0.315 C 
ATOM     14  H   UNL A   1      36.199  22.271  27.297  1.00  0.00     0.165 HD
ATOM     15  O   UNL A   1      37.270  24.048  26.334  1.00  0.00    -0.249 OA
ATOM     16  H   UNL A   1      36.157  25.088  24.703  1.00  0.00     0.165 HD
BRANCH  12  17
ATOM     17  C   UNL A   1      34.180  22.365  27.122  1.00  0.00     0.164 C 
BRANCH  17  18
ATOM     18  C   UNL A   1      33.577  21.516  26.023  1.00  0.00     0.027 A 
ATOM     19  C   UNL A   1      31.209  22.533  25.878  1.00  0.00     0.045 C 
ATOM     20  C   UNL A   1      32.302  21.601  25.467  1.00  0.00    -0.035 A 
ATOM     21  C   UNL A   1      32.129  20.665  24.389  1.00  0.00     0.015 A 
ATOM     22  C   UNL A   1      33.256  19.925  24.137  1.00  0.00     0.065 A 
ATOM     23  S   UNL A   1      34.521  20.353  25.177  1.00  0.00    -0.147 S 
ENDBRANCH  17  18
ENDBRANCH  12  17
ENDBRANCH   6  11
ENDBRANCH   3   5
ENDBRANCH   2   3
ENDBRANCH   1   2
BRANCH   1  24
ATOM     24  C   UNL A   1      33.223  30.067  26.462  1.00  0.00     0.275 C 
BRANCH  24  25
ATOM     25  O   UNL A   1      33.703  29.725  27.770  1.00  0.00    -0.458 OA
BRANCH  25  26
ATOM     26  C   UNL A   1      34.617  30.586  28.286  1.00  0.00     0.338 C 
ATOM     27  O   UNL A   1      34.406  31.740  28.620  1.00  0.00    -0.246 OA
BRANCH  26  28
ATOM     28  C   UNL A   1      35.946  29.939  28.372  1.00  0.00     0.060 A 
ATOM     29  C   UNL A   1      36.410  29.413  29.574  1.00  0.00     0.016 A 
ATOM     30  C   UNL A   1      36.788  29.951  27.257  1.00  0.00     0.016 A 
ATOM     31  C   UNL A   1      37.743  29.006  29.689  1.00  0.00     0.010 A 
ATOM     32  C   UNL A   1      38.099  29.465  27.359  1.00  0.00     0.010 A 
ATOM     33  C   UNL A   1      38.611  29.032  28.592  1.00  0.00    -0.014 A 
BRANCH  33  34
ATOM     34  C   UNL A   1      40.062  28.719  28.762  1.00  0.00     0.031 A 
ATOM     35  C   UNL A   1      40.997  29.778  29.290  1.00  0.00     0.074 A 
ATOM     36  C   UNL A   1      40.559  27.491  28.503  1.00  0.00     0.049 A 
ATOM     37  N   UNL A   1      42.307  29.801  29.299  1.00  0.00    -0.248 NA
ATOM     38  C   UNL A   1      40.373  30.970  29.886  1.00  0.00     0.031 C 
ATOM     39  C   UNL A   1      39.782  26.324  28.088  1.00  0.00     0.029 A 
ATOM     40  N   UNL A   1      41.853  27.024  28.554  1.00  0.00    -0.354 N 
ATOM     41  C   UNL A   1      42.662  31.033  29.837  1.00  0.00     0.074 A 
ATOM     42  C   UNL A   1      41.430  31.726  30.149  1.00  0.00     0.031 C 
ATOM     43  C   UNL A   1      40.606  25.275  27.940  1.00  0.00     0.029 A 
ATOM     44  C   UNL A   1      41.982  25.713  28.161  1.00  0.00     0.049 A 
ATOM     45  H   UNL A   1      42.614  27.576  28.846  1.00  0.00     0.167 HD
ATOM     46  C   UNL A   1      43.900  31.542  30.051  1.00  0.00     0.037 A 
ATOM     47  C   UNL A   1      43.078  24.958  27.948  1.00  0.00     0.037 A 
ATOM     48  C   UNL A   1      45.129  30.832  29.803  1.00  0.00     0.049 A 
ATOM     49  C   UNL A   1      44.446  25.554  28.139  1.00  0.00     0.074 A 
ATOM     50  C   UNL A   1      46.430  31.278  29.964  1.00  0.00     0.029 A 
ATOM     51  N   UNL A   1      45.210  29.519  29.367  1.00  0.00    -0.354 N 
ATOM     52  N   UNL A   1      44.771  26.760  28.537  1.00  0.00    -0.248 NA
ATOM     53  C   UNL A   1      45.597  24.691  27.832  1.00  0.00     0.031 C 
ATOM     54  C   UNL A   1      47.298  30.240  29.606  1.00  0.00     0.029 A 
ATOM     55  C   UNL A   1      46.538  29.138  29.253  1.00  0.00     0.049 A 
ATOM     56  H   UNL A   1      44.438  28.942  29.168  1.00  0.00     0.167 HD
ATOM     57  C   UNL A   1      46.161  26.800  28.531  1.00  0.00     0.074 A 
ATOM     58  C   UNL A   1      46.617  25.490  28.112  1.00  0.00     0.031 C 
ATOM     59  C   UNL A   1      46.985  27.832  28.840  1.00  0.00     0.037 A 
BRANCH  46  60
ATOM     60  C   UNL A   1      43.986  32.960  30.540  1.00  0.00     0.058 A 
ATOM     61  C   UNL A   1      44.042  33.276  31.905  1.00  0.00     0.135 A 
ATOM     62  C   UNL A   1      44.030  34.020  29.618  1.00  0.00     0.135 A 
ATOM     63  F   UNL A   1      43.990  32.301  32.827  1.00  0.00    -0.206 F 
ATOM     64  C   UNL A   1      44.108  34.595  32.343  1.00  0.00     0.059 A 
ATOM     65  C   UNL A   1      44.119  35.345  30.033  1.00  0.00     0.059 A 
ATOM     66  F   UNL A   1      43.982  33.771  28.300  1.00  0.00    -0.206 F 
ATOM     67  C   UNL A   1      44.138  35.624  31.398  1.00  0.00     0.060 A 
BRANCH  67  68
ATOM     68  S   UNL A   1      44.217  37.334  31.974  1.00  0.00     0.124 S 
ATOM     69  O   UNL A   1      45.639  37.477  32.268  1.00  0.00    -0.237 OA
ATOM     70  O   UNL A   1      43.731  38.080  30.817  1.00  0.00    -0.237 OA
ATOM     71  O   UNL A   1      43.332  37.341  33.135  1.00  0.00    -0.744 OA
ENDBRANCH  67  68
ENDBRANCH  46  60
BRANCH  47  72
ATOM     72  C   UNL A   1      42.925  23.562  27.460  1.00  0.00     0.058 A 
ATOM     73  C   UNL A   1      42.646  22.510  28.344  1.00  0.00     0.135 A 
ATOM     74  C   UNL A   1      43.044  23.257  26.094  1.00  0.00     0.135 A 
ATOM     75  F   UNL A   1      42.542  22.749  29.660  1.00  0.00    -0.206 F 
ATOM     76  C   UNL A   1      42.492  21.203  27.893  1.00  0.00     0.059 A 
ATOM     77  C   UNL A   1      42.867  21.963  25.616  1.00  0.00     0.059 A 
ATOM     78  F   UNL A   1      43.306  24.230  25.208  1.00  0.00    -0.206 F 
ATOM     79  C   UNL A   1      42.598  20.941  26.524  1.00  0.00     0.060 A 
BRANCH  79  80
ATOM     80  S   UNL A   1      42.322  19.256  25.935  1.00  0.00     0.124 S 
ATOM     81  O   UNL A   1      40.874  19.237  25.770  1.00  0.00    -0.237 OA
ATOM     82  O   UNL A   1      43.106  19.226  24.703  1.00  0.00    -0.237 OA
ATOM     83  O   UNL A   1      42.848  18.434  27.021  1.00  0.00    -0.744 OA
ENDBRANCH  79  80
ENDBRANCH  47  72
BRANCH  59  84
ATOM     84  C   UNL A   1      48.465  27.583  28.763  1.00  0.00     0.058 A 
ATOM     85  C   UNL A   1      49.191  27.123  29.872  1.00  0.00     0.135 A 
ATOM     86  C   UNL A   1      49.159  27.773  27.557  1.00  0.00     0.135 A 
ATOM     87  F   UNL A   1      48.575  26.932  31.050  1.00  0.00    -0.206 F 
ATOM     88  C   UNL A   1      50.559  26.878  29.795  1.00  0.00     0.059 A 
ATOM     89  C   UNL A   1      50.523  27.515  27.452  1.00  0.00     0.059 A 
ATOM     90  F   UNL A   1      48.510  28.205  26.464  1.00  0.00    -0.206 F 
ATOM     91  C   UNL A   1      51.217  27.080  28.581  1.00  0.00     0.060 A 
BRANCH  91  92
ATOM     92  S   UNL A   1      52.988  26.738  28.482  1.00  0.00     0.124 S 
ATOM     93  O   UNL A   1      53.279  26.302  29.844  1.00  0.00    -0.237 OA
ATOM     94  O   UNL A   1      53.053  25.701  27.457  1.00  0.00    -0.237 OA
ATOM     95  O   UNL A   1      53.560  28.026  28.098  1.00  0.00    -0.744 OA
ENDBRANCH  91  92
ENDBRANCH  59  84
ENDBRANCH  33  34
ENDBRANCH  26  28
ENDBRANCH  25  26
ENDBRANCH  24  25
ENDBRANCH   1  24
TORSDOF 17
ENDMDL
MODEL 2
REMARK VINA RESULT:     -10.7      3.759      9.676
REMARK SMILES Cc1ccsc1CNC(=O)N[C@@H]1CCCC[C@H]1C(=O)OCCOC(=O)c1ccc(-c2c3nc(c(-c4c(F)cc(S(=O)(=O)[O-])cc4F)c4ccc([nH]4)c(-c4c(F)cc(S(=O)(=O)[O-])cc4F)c4nc(c(-c5c(F)cc(S(=O)(=O)[O-])cc5F)c5ccc2[nH]5)C=C4)C=C3)cc1
REMARK SMILES IDX 21 1 20 2 18 3 19 4 17 5 12 6 13 7 14 8 16 9 15 10 11 11
REMARK SMILES IDX 8 12 9 13 10 15 7 17 6 18 1 19 2 20 3 21 4 22 5 23 22 24
REMARK SMILES IDX 23 25 24 26 25 27 26 28 27 29 91 30 28 31 90 32 29 33 30 34
REMARK SMILES IDX 31 35 84 36 32 37 89 38 83 39 85 40 33 41 88 42 82 43 81 44
REMARK SMILES IDX 34 46 68 47 47 48 67 49 48 50 51 51 66 52 86 53 49 54 50 55
REMARK SMILES IDX 65 57 87 58 52 59 35 60 36 61 45 62 37 63 38 64 44 65 46 66
REMARK SMILES IDX 39 67 40 68 41 69 42 70 43 71 69 72 70 73 79 74 71 75 72 76
REMARK SMILES IDX 78 77 80 78 73 79 74 80 75 81 76 82 77 83 53 84 54 85 63 86
REMARK SMILES IDX 55 87 56 88 62 89 64 90 57 91 58 92 59 93 60 94 61 95
REMARK H PARENT 8 14 11 16 85 45 51 56
REMARK Flexibility Score: inf
ROOT
ATOM      1  C   UNL A   1      35.862  23.244  24.950  1.00  0.00     0.274 C 
ENDROOT
BRANCH   1   2
ATOM      2  O   UNL A   1      35.238  24.456  24.472  1.00  0.00    -0.462 OA
BRANCH   2   3
ATOM      3  C   UNL A   1      34.411  25.064  25.362  1.00  0.00     0.311 C 
ATOM      4  O   UNL A   1      33.859  24.486  26.294  1.00  0.00    -0.252 OA
BRANCH   3   5
ATOM      5  C   UNL A   1      34.107  26.514  25.029  1.00  0.00     0.121 C 
ATOM      6  C   UNL A   1      32.924  26.774  24.084  1.00  0.00     0.098 C 
ATOM      7  C   UNL A   1      32.350  28.204  24.074  1.00  0.00     0.026 C 
ATOM      8  C   UNL A   1      32.372  28.908  25.423  1.00  0.00     0.002 C 
ATOM      9  C   UNL A   1      34.025  27.285  26.349  1.00  0.00     0.017 C 
ATOM     10  C   UNL A   1      33.707  28.756  26.133  1.00  0.00     0.001 C 
BRANCH   6  11
ATOM     11  N   UNL A   1      33.158  26.342  22.701  1.00  0.00    -0.335 N 
ATOM     12  N   UNL A   1      31.649  24.620  22.034  1.00  0.00    -0.333 N 
ATOM     13  C   UNL A   1      32.682  25.440  21.839  1.00  0.00     0.315 C 
ATOM     14  H   UNL A   1      31.314  24.248  21.186  1.00  0.00     0.165 HD
ATOM     15  O   UNL A   1      33.242  25.393  20.740  1.00  0.00    -0.249 OA
ATOM     16  H   UNL A   1      33.876  26.873  22.287  1.00  0.00     0.165 HD
BRANCH  12  17
ATOM     17  C   UNL A   1      30.892  24.136  23.167  1.00  0.00     0.164 C 
BRANCH  17  18
ATOM     18  C   UNL A   1      31.537  22.962  23.874  1.00  0.00     0.027 A 
ATOM     19  C   UNL A   1      30.525  23.211  26.235  1.00  0.00     0.045 C 
ATOM     20  C   UNL A   1      31.363  22.546  25.192  1.00  0.00    -0.035 A 
ATOM     21  C   UNL A   1      32.094  21.339  25.469  1.00  0.00     0.015 A 
ATOM     22  C   UNL A   1      32.770  20.861  24.377  1.00  0.00     0.065 A 
ATOM     23  S   UNL A   1      32.526  21.844  23.019  1.00  0.00    -0.147 S 
ENDBRANCH  17  18
ENDBRANCH  12  17
ENDBRANCH   6  11
ENDBRANCH   3   5
ENDBRANCH   2   3
ENDBRANCH   1   2
BRANCH   1  24
ATOM     24  C   UNL A   1      37.378  23.330  24.810  1.00  0.00     0.275 C 
BRANCH  24  25
ATOM     25  O   UNL A   1      38.007  22.486  25.786  1.00  0.00    -0.458 OA
BRANCH  25  26
ATOM     26  C   UNL A   1      39.301  22.795  26.058  1.00  0.00     0.338 C 
ATOM     27  O   UNL A   1      40.272  22.103  25.805  1.00  0.00    -0.246 OA
BRANCH  26  28
ATOM     28  C   UNL A   1      39.385  24.106  26.742  1.00  0.00     0.060 A 
ATOM     29  C   UNL A   1      40.191  25.124  26.241  1.00  0.00     0.016 A 
ATOM     30  C   UNL A   1      38.732  24.284  27.964  1.00  0.00     0.016 A 
ATOM     31  C   UNL A   1      40.429  26.268  27.010  1.00  0.00     0.010 A 
ATOM     32  C   UNL A   1      38.912  25.469  28.693  1.00  0.00     0.010 A 
ATOM     33  C   UNL A   1      39.804  26.458  28.248  1.00  0.00    -0.014 A 
BRANCH  33  34
ATOM     34  C   UNL A   1      40.169  27.619  29.115  1.00  0.00     0.031 A 
ATOM     35  C   UNL A   1      41.466  27.596  29.886  1.00  0.00     0.074 A 
ATOM     36  C   UNL A   1      39.392  28.719  29.192  1.00  0.00     0.049 A 
ATOM     37  N   UNL A   1      41.866  28.375  30.860  1.00  0.00    -0.248 NA
ATOM     38  C   UNL A   1      42.437  26.557  29.510  1.00  0.00     0.031 C 
ATOM     39  C   UNL A   1      38.163  28.954  28.435  1.00  0.00     0.029 A 
ATOM     40  N   UNL A   1      39.531  29.857  29.955  1.00  0.00    -0.354 N 
ATOM     41  C   UNL A   1      43.104  27.881  31.257  1.00  0.00     0.074 A 
ATOM     42  C   UNL A   1      43.391  26.739  30.414  1.00  0.00     0.031 C 
ATOM     43  C   UNL A   1      37.670  30.161  28.755  1.00  0.00     0.029 A 
ATOM     44  C   UNL A   1      38.496  30.751  29.805  1.00  0.00     0.049 A 
ATOM     45  H   UNL A   1      40.298  30.016  30.550  1.00  0.00     0.167 HD
ATOM     46  C   UNL A   1      43.926  28.333  32.234  1.00  0.00     0.037 A 
ATOM     47  C   UNL A   1      38.208  31.888  30.469  1.00  0.00     0.037 A 
ATOM     48  C   UNL A   1      43.677  29.507  33.032  1.00  0.00     0.049 A 
ATOM     49  C   UNL A   1      39.103  32.349  31.586  1.00  0.00     0.074 A 
ATOM     50  C   UNL A   1      44.442  30.026  34.063  1.00  0.00     0.029 A 
ATOM     51  N   UNL A   1      42.596  30.359  32.871  1.00  0.00    -0.354 N 
ATOM     52  N   UNL A   1      40.211  31.808  32.032  1.00  0.00    -0.248 NA
ATOM     53  C   UNL A   1      38.696  33.566  32.306  1.00  0.00     0.031 C 
ATOM     54  C   UNL A   1      43.811  31.182  34.540  1.00  0.00     0.029 A 
ATOM     55  C   UNL A   1      42.671  31.400  33.784  1.00  0.00     0.049 A 
ATOM     56  H   UNL A   1      41.880  30.241  32.206  1.00  0.00     0.167 HD
ATOM     57  C   UNL A   1      40.635  32.619  33.080  1.00  0.00     0.074 A 
ATOM     58  C   UNL A   1      39.677  33.700  33.188  1.00  0.00     0.031 C 
ATOM     59  C   UNL A   1      41.717  32.475  33.883  1.00  0.00     0.037 A 
BRANCH  46  60
ATOM     60  C   UNL A   1      45.159  27.525  32.526  1.00  0.00     0.058 A 
ATOM     61  C   UNL A   1      45.139  26.417  33.385  1.00  0.00     0.135 A 
ATOM     62  C   UNL A   1      46.381  27.864  31.919  1.00  0.00     0.135 A 
ATOM     63  F   UNL A   1      44.000  26.060  34.001  1.00  0.00    -0.206 F 
ATOM     64  C   UNL A   1      46.293  25.688  33.656  1.00  0.00     0.059 A 
ATOM     65  C   UNL A   1      47.541  27.135  32.158  1.00  0.00     0.059 A 
ATOM     66  F   UNL A   1      46.453  28.914  31.087  1.00  0.00    -0.206 F 
ATOM     67  C   UNL A   1      47.491  26.060  33.043  1.00  0.00     0.060 A 
BRANCH  67  68
ATOM     68  S   UNL A   1      48.986  25.113  33.405  1.00  0.00     0.124 S 
ATOM     69  O   UNL A   1      49.708  26.032  34.279  1.00  0.00    -0.237 OA
ATOM     70  O   UNL A   1      48.454  23.915  34.048  1.00  0.00    -0.237 OA
ATOM     71  O   UNL A   1      49.580  24.901  32.089  1.00  0.00    -0.744 OA
ENDBRANCH  67  68
ENDBRANCH  46  60
BRANCH  47  72
ATOM     72  C   UNL A   1      36.970  32.641  30.134  1.00  0.00     0.058 A 
ATOM     73  C   UNL A   1      35.758  32.371  30.785  1.00  0.00     0.135 A 
ATOM     74  C   UNL A   1      36.982  33.656  29.164  1.00  0.00     0.135 A 
ATOM     75  F   UNL A   1      35.694  31.398  31.707  1.00  0.00    -0.206 F 
ATOM     76  C   UNL A   1      34.598  33.078  30.484  1.00  0.00     0.059 A 
ATOM     77  C   UNL A   1      35.842  34.394  28.865  1.00  0.00     0.059 A 
ATOM     78  F   UNL A   1      38.119  33.955  28.517  1.00  0.00    -0.206 F 
ATOM     79  C   UNL A   1      34.653  34.093  29.526  1.00  0.00     0.060 A 
BRANCH  79  80
ATOM     80  S   UNL A   1      33.163  35.059  29.193  1.00  0.00     0.124 S 
ATOM     81  O   UNL A   1      32.508  34.246  28.177  1.00  0.00    -0.237 OA
ATOM     82  O   UNL A   1      32.517  35.093  30.501  1.00  0.00    -0.237 OA
ATOM     83  O   UNL A   1      33.695  36.340  28.735  1.00  0.00    -0.744 OA
ENDBRANCH  79  80
ENDBRANCH  47  72
BRANCH  59  84
ATOM     84  C   UNL A   1      41.943  33.524  34.935  1.00  0.00     0.058 A 
ATOM     85  C   UNL A   1      42.636  34.712  34.650  1.00  0.00     0.135 A 
ATOM     86  C   UNL A   1      41.431  33.358  36.231  1.00  0.00     0.135 A 
ATOM     87  F   UNL A   1      43.151  34.917  33.428  1.00  0.00    -0.206 F 
ATOM     88  C   UNL A   1      42.830  35.690  35.621  1.00  0.00     0.059 A 
ATOM     89  C   UNL A   1      41.597  34.331  37.212  1.00  0.00     0.059 A 
ATOM     90  F   UNL A   1      40.755  32.243  36.553  1.00  0.00    -0.206 F 
ATOM     91  C   UNL A   1      42.310  35.490  36.901  1.00  0.00     0.060 A 
BRANCH  91  92
ATOM     92  S   UNL A   1      42.546  36.773  38.149  1.00  0.00     0.124 S 
ATOM     93  O   UNL A   1      43.382  37.729  37.431  1.00  0.00    -0.237 OA
ATOM     94  O   UNL A   1      41.178  37.206  38.421  1.00  0.00    -0.237 OA
ATOM     95  O   UNL A   1      43.201  36.063  39.244  1.00  0.00    -0.744 OA
ENDBRANCH  91  92
ENDBRANCH  59  84
ENDBRANCH  33  34
ENDBRANCH  26  28
ENDBRANCH  25  26
ENDBRANCH  24  25
ENDBRANCH   1  24
TORSDOF 17
ENDMDL
MODEL 3
REMARK VINA RESULT:     -10.5      3.992      9.820
REMARK SMILES Cc1ccsc1CNC(=O)N[C@@H]1CCCC[C@H]1C(=O)OCCOC(=O)c1ccc(-c2c3nc(c(-c4c(F)cc(S(=O)(=O)[O-])cc4F)c4ccc([nH]4)c(-c4c(F)cc(S(=O)(=O)[O-])cc4F)c4nc(c(-c5c(F)cc(S(=O)(=O)[O-])cc5F)c5ccc2[nH]5)C=C4)C=C3)cc1
REMARK SMILES IDX 21 1 20 2 18 3 19 4 17 5 12 6 13 7 14 8 16 9 15 10 11 11
REMARK SMILES IDX 8 12 9 13 10 15 7 17 6 18 1 19 2 20 3 21 4 22 5 23 22 24
REMARK SMILES IDX 23 25 24 26 25 27 26 28 27 29 91 30 28 31 90 32 29 33 30 34
REMARK SMILES IDX 31 35 84 36 32 37 89 38 83 39 85 40 33 41 88 42 82 43 81 44
REMARK SMILES IDX 34 46 68 47 47 48 67 49 48 50 51 51 66 52 86 53 49 54 50 55
REMARK SMILES IDX 65 57 87 58 52 59 35 60 36 61 45 62 37 63 38 64 44 65 46 66
REMARK SMILES IDX 39 67 40 68 41 69 42 70 43 71 69 72 70 73 79 74 71 75 72 76
REMARK SMILES IDX 78 77 80 78 73 79 74 80 75 81 76 82 77 83 53 84 54 85 63 86
REMARK SMILES IDX 55 87 56 88 62 89 64 90 57 91 58 92 59 93 60 94 61 95
REMARK H PARENT 8 14 11 16 85 45 51 56
REMARK Flexibility Score: inf
ROOT
ATOM      1  C   UNL A   1      35.277  23.371  24.214  1.00  0.00     0.274 C 
ENDROOT
BRANCH   1   2
ATOM      2  O   UNL A   1      34.313  24.423  23.993  1.00  0.00    -0.462 OA
BRANCH   2   3
ATOM      3  C   UNL A   1      33.013  24.037  24.083  1.00  0.00     0.311 C 
ATOM      4  O   UNL A   1      32.620  22.892  23.882  1.00  0.00    -0.252 OA
BRANCH   3   5
ATOM      5  C   UNL A   1      32.046  25.183  24.323  1.00  0.00     0.121 C 
ATOM      6  C   UNL A   1      31.513  25.912  23.079  1.00  0.00     0.098 C 
ATOM      7  C   UNL A   1      30.245  26.766  23.270  1.00  0.00     0.026 C 
ATOM      8  C   UNL A   1      29.243  26.205  24.269  1.00  0.00     0.002 C 
ATOM      9  C   UNL A   1      30.947  24.674  25.258  1.00  0.00     0.017 C 
ATOM     10  C   UNL A   1      29.907  25.743  25.556  1.00  0.00     0.001 C 
BRANCH   6  11
ATOM     11  N   UNL A   1      32.525  26.707  22.373  1.00  0.00    -0.335 N 
ATOM     12  N   UNL A   1      34.044  27.761  23.879  1.00  0.00    -0.333 N 
ATOM     13  C   UNL A   1      33.555  27.505  22.665  1.00  0.00     0.315 C 
ATOM     14  H   UNL A   1      34.949  28.147  23.832  1.00  0.00     0.165 HD
ATOM     15  O   UNL A   1      34.124  28.028  21.703  1.00  0.00    -0.249 OA
ATOM     16  H   UNL A   1      32.413  26.626  21.399  1.00  0.00     0.165 HD
BRANCH  12  17
ATOM     17  C   UNL A   1      33.592  27.620  25.245  1.00  0.00     0.164 C 
BRANCH  17  18
ATOM     18  C   UNL A   1      33.377  28.939  25.956  1.00  0.00     0.027 A 
ATOM     19  C   UNL A   1      31.152  29.698  24.893  1.00  0.00     0.045 C 
ATOM     20  C   UNL A   1      32.313  29.828  25.824  1.00  0.00    -0.035 A 
ATOM     21  C   UNL A   1      32.433  30.940  26.727  1.00  0.00     0.015 A 
ATOM     22  C   UNL A   1      33.545  30.862  27.526  1.00  0.00     0.065 A 
ATOM     23  S   UNL A   1      34.439  29.459  27.206  1.00  0.00    -0.147 S 
ENDBRANCH  17  18
ENDBRANCH  12  17
ENDBRANCH   6  11
ENDBRANCH   3   5
ENDBRANCH   2   3
ENDBRANCH   1   2
BRANCH   1  24
ATOM     24  C   UNL A   1      36.140  23.682  25.433  1.00  0.00     0.275 C 
BRANCH  24  25
ATOM     25  O   UNL A   1      37.483  23.976  25.019  1.00  0.00    -0.458 OA
BRANCH  25  26
ATOM     26  C   UNL A   1      38.451  23.370  25.752  1.00  0.00     0.338 C 
ATOM     27  O   UNL A   1      38.759  22.191  25.699  1.00  0.00    -0.246 OA
BRANCH  26  28
ATOM     28  C   UNL A   1      39.089  24.342  26.668  1.00  0.00     0.060 A 
ATOM     29  C   UNL A   1      38.797  24.341  28.029  1.00  0.00     0.016 A 
ATOM     30  C   UNL A   1      39.912  25.342  26.143  1.00  0.00     0.016 A 
ATOM     31  C   UNL A   1      39.235  25.396  28.837  1.00  0.00     0.010 A 
ATOM     32  C   UNL A   1      40.414  26.352  26.976  1.00  0.00     0.010 A 
ATOM     33  C   UNL A   1      40.040  26.421  28.328  1.00  0.00    -0.014 A 
BRANCH  33  34
ATOM     34  C   UNL A   1      40.389  27.604  29.169  1.00  0.00     0.031 A 
ATOM     35  C   UNL A   1      41.689  27.620  29.933  1.00  0.00     0.074 A 
ATOM     36  C   UNL A   1      39.593  28.693  29.229  1.00  0.00     0.049 A 
ATOM     37  N   UNL A   1      42.082  28.425  30.889  1.00  0.00    -0.248 NA
ATOM     38  C   UNL A   1      42.677  26.590  29.573  1.00  0.00     0.031 C 
ATOM     39  C   UNL A   1      38.356  28.891  28.474  1.00  0.00     0.029 A 
ATOM     40  N   UNL A   1      39.715  29.848  29.968  1.00  0.00    -0.354 N 
ATOM     41  C   UNL A   1      43.330  27.960  31.289  1.00  0.00     0.074 A 
ATOM     42  C   UNL A   1      43.632  26.807  30.468  1.00  0.00     0.031 C 
ATOM     43  C   UNL A   1      37.844  30.095  28.773  1.00  0.00     0.029 A 
ATOM     44  C   UNL A   1      38.665  30.720  29.806  1.00  0.00     0.049 A 
ATOM     45  H   UNL A   1      40.483  30.032  30.556  1.00  0.00     0.167 HD
ATOM     46  C   UNL A   1      44.149  28.446  32.253  1.00  0.00     0.037 A 
ATOM     47  C   UNL A   1      38.361  31.865  30.449  1.00  0.00     0.037 A 
ATOM     48  C   UNL A   1      43.884  29.631  33.029  1.00  0.00     0.049 A 
ATOM     49  C   UNL A   1      39.253  32.364  31.552  1.00  0.00     0.074 A 
ATOM     50  C   UNL A   1      44.644  30.184  34.046  1.00  0.00     0.029 A 
ATOM     51  N   UNL A   1      42.786  30.461  32.857  1.00  0.00    -0.354 N 
ATOM     52  N   UNL A   1      40.372  31.851  32.003  1.00  0.00    -0.248 NA
ATOM     53  C   UNL A   1      38.828  33.587  32.250  1.00  0.00     0.031 C 
ATOM     54  C   UNL A   1      43.995  31.338  34.503  1.00  0.00     0.029 A 
ATOM     55  C   UNL A   1      42.848  31.520  33.749  1.00  0.00     0.049 A 
ATOM     56  H   UNL A   1      42.069  30.318  32.199  1.00  0.00     0.167 HD
ATOM     57  C   UNL A   1      40.788  32.690  33.032  1.00  0.00     0.074 A 
ATOM     58  C   UNL A   1      39.812  33.756  33.124  1.00  0.00     0.031 C 
ATOM     59  C   UNL A   1      41.876  32.581  33.832  1.00  0.00     0.037 A 
BRANCH  46  60
ATOM     60  C   UNL A   1      45.397  27.666  32.555  1.00  0.00     0.058 A 
ATOM     61  C   UNL A   1      46.633  27.980  31.970  1.00  0.00     0.135 A 
ATOM     62  C   UNL A   1      45.352  26.592  33.460  1.00  0.00     0.135 A 
ATOM     63  F   UNL A   1      46.726  28.988  31.088  1.00  0.00    -0.206 F 
ATOM     64  C   UNL A   1      47.777  27.238  32.249  1.00  0.00     0.059 A 
ATOM     65  C   UNL A   1      46.488  25.851  33.771  1.00  0.00     0.059 A 
ATOM     66  F   UNL A   1      44.195  26.252  34.049  1.00  0.00    -0.206 F 
ATOM     67  C   UNL A   1      47.692  26.170  33.146  1.00  0.00     0.060 A 
BRANCH  67  68
ATOM     68  S   UNL A   1      49.180  25.209  33.498  1.00  0.00     0.124 S 
ATOM     69  O   UNL A   1      49.662  24.916  32.152  1.00  0.00    -0.237 OA
ATOM     70  O   UNL A   1      49.988  26.147  34.270  1.00  0.00    -0.237 OA
ATOM     71  O   UNL A   1      48.673  24.063  34.246  1.00  0.00    -0.744 OA
ENDBRANCH  67  68
ENDBRANCH  46  60
BRANCH  47  72
ATOM     72  C   UNL A   1      37.108  32.589  30.107  1.00  0.00     0.058 A 
ATOM     73  C   UNL A   1      35.899  32.297  30.754  1.00  0.00     0.135 A 
ATOM     74  C   UNL A   1      37.101  33.599  29.131  1.00  0.00     0.135 A 
ATOM     75  F   UNL A   1      35.853  31.328  31.681  1.00  0.00    -0.206 F 
ATOM     76  C   UNL A   1      34.726  32.978  30.446  1.00  0.00     0.059 A 
ATOM     77  C   UNL A   1      35.947  34.312  28.824  1.00  0.00     0.059 A 
ATOM     78  F   UNL A   1      38.234  33.920  28.486  1.00  0.00    -0.206 F 
ATOM     79  C   UNL A   1      34.762  33.989  29.482  1.00  0.00     0.060 A 
BRANCH  79  80
ATOM     80  S   UNL A   1      33.254  34.921  29.139  1.00  0.00     0.124 S 
ATOM     81  O   UNL A   1      32.606  34.920  30.445  1.00  0.00    -0.237 OA
ATOM     82  O   UNL A   1      33.779  36.206  28.687  1.00  0.00    -0.237 OA
ATOM     83  O   UNL A   1      32.599  34.125  28.105  1.00  0.00    -0.744 OA
ENDBRANCH  79  80
ENDBRANCH  47  72
BRANCH  59  84
ATOM     84  C   UNL A   1      42.089  33.655  34.861  1.00  0.00     0.058 A 
ATOM     85  C   UNL A   1      41.569  33.541  36.160  1.00  0.00     0.135 A 
ATOM     86  C   UNL A   1      42.853  34.793  34.558  1.00  0.00     0.135 A 
ATOM     87  F   UNL A   1      40.827  32.475  36.499  1.00  0.00    -0.206 F 
ATOM     88  C   UNL A   1      41.781  34.529  37.117  1.00  0.00     0.059 A 
ATOM     89  C   UNL A   1      43.094  35.784  35.505  1.00  0.00     0.059 A 
ATOM     90  F   UNL A   1      43.379  34.947  33.332  1.00  0.00    -0.206 F 
ATOM     91  C   UNL A   1      42.542  35.649  36.779  1.00  0.00     0.060 A 
BRANCH  91  92
ATOM     92  S   UNL A   1      42.832  36.916  38.033  1.00  0.00     0.124 S 
ATOM     93  O   UNL A   1      43.557  37.925  37.269  1.00  0.00    -0.237 OA
ATOM     94  O   UNL A   1      41.477  37.277  38.437  1.00  0.00    -0.237 OA
ATOM     95  O   UNL A   1      43.615  36.214  39.048  1.00  0.00    -0.744 OA
ENDBRANCH  91  92
ENDBRANCH  59  84
ENDBRANCH  33  34
ENDBRANCH  26  28
ENDBRANCH  25  26
ENDBRANCH  24  25
ENDBRANCH   1  24
TORSDOF 17
ENDMDL
