MODEL 1
REMARK VINA RESULT:      -9.8      0.000      0.000
REMARK SMILES O=C(OCCOC(=O)c1ccc(-c2c3nc(c(-c4c(F)cc(S(=O)(=O)[O-])cc4F)c4ccc([nH]4)c(-c4c(F)cc(S(=O)(=O)[O-])cc4F)c4nc(c(-c5c(F)cc(S(=O)(=O)[O-])cc5F)c5ccc2[nH]5)C=C4)C=C3)cc1)C1=Cc2c(ccc(Cl)c2Oc2ccccc2)O[C@H]1C(F)(F)F
REMARK SMILES IDX 5 1 4 2 3 3 2 4 1 5 75 6 76 7 92 8 77 9 91 10 78 11 83 12
REMARK SMILES IDX 79 13 81 14 80 15 82 16 93 17 94 18 95 19 96 20 84 21 85 22
REMARK SMILES IDX 86 23 90 24 87 25 89 26 88 27 6 28 7 29 8 30 9 31 10 32
REMARK SMILES IDX 74 33 11 34 73 35 12 36 13 37 14 38 67 39 15 40 72 41 66 42
REMARK SMILES IDX 68 43 16 44 71 45 65 46 64 47 17 49 51 50 30 51 50 52 31 53
REMARK SMILES IDX 34 54 49 55 69 56 32 57 33 58 48 60 70 61 35 62 18 63 19 64
REMARK SMILES IDX 28 65 20 66 21 67 27 68 29 69 22 70 23 71 24 72 25 73 26 74
REMARK SMILES IDX 52 75 53 76 62 77 54 78 55 79 61 80 63 81 56 82 57 83 58 84
REMARK SMILES IDX 59 85 60 86 36 87 37 88 46 89 38 90 39 91 45 92 47 93 40 94
REMARK SMILES IDX 41 95 42 96 43 97 44 98
REMARK H PARENT 68 48 34 59
REMARK Flexibility Score: inf
ROOT
ATOM      1  C   UNL A   1      33.896  33.071  28.278  1.00  0.00     0.275 C 
ENDROOT
BRANCH   1   2
ATOM      2  C   UNL A   1      33.963  33.859  29.590  1.00  0.00     0.275 C 
BRANCH   2   3
ATOM      3  O   UNL A   1      34.441  33.008  30.640  1.00  0.00    -0.459 OA
BRANCH   3   4
ATOM      4  C   UNL A   1      35.264  33.519  31.584  1.00  0.00     0.338 C 
ATOM      5  O   UNL A   1      34.836  34.279  32.443  1.00  0.00    -0.246 OA
BRANCH   4   6
ATOM      6  C   UNL A   1      36.727  33.264  31.457  1.00  0.00     0.088 C 
ATOM      7  C   UNL A   1      37.448  32.347  32.133  1.00  0.00     0.031 C 
ATOM      8  C   UNL A   1      37.488  34.426  30.876  1.00  0.00     0.316 C 
ATOM      9  C   UNL A   1      38.134  32.955  33.282  1.00  0.00     0.062 A 
ATOM     10  O   UNL A   1      38.738  34.661  31.612  1.00  0.00    -0.475 OA
ATOM     11  C   UNL A   1      38.796  34.153  32.904  1.00  0.00     0.131 A 
ATOM     12  C   UNL A   1      38.288  32.377  34.578  1.00  0.00     0.156 A 
ATOM     13  C   UNL A   1      39.660  34.768  33.789  1.00  0.00     0.049 A 
ATOM     14  C   UNL A   1      39.134  33.061  35.464  1.00  0.00     0.084 A 
ATOM     15  C   UNL A   1      39.815  34.230  35.069  1.00  0.00     0.028 A 
ATOM     16  Cl  UNL A   1      39.500  32.421  37.030  1.00  0.00    -0.080 Cl
BRANCH   8  17
ATOM     17  C   UNL A   1      37.697  34.145  29.374  1.00  0.00     0.430 C 
ATOM     18  F   UNL A   1      36.749  34.756  28.618  1.00  0.00    -0.167 F 
ATOM     19  F   UNL A   1      38.898  34.579  28.939  1.00  0.00    -0.167 F 
ATOM     20  F   UNL A   1      37.610  32.819  29.105  1.00  0.00    -0.167 F 
ENDBRANCH   8  17
BRANCH  12  21
ATOM     21  O   UNL A   1      38.135  31.016  34.832  1.00  0.00    -0.455 OA
BRANCH  21  22
ATOM     22  C   UNL A   1      38.722  29.940  34.191  1.00  0.00     0.127 A 
ATOM     23  C   UNL A   1      38.179  29.003  33.314  1.00  0.00     0.047 A 
ATOM     24  C   UNL A   1      40.118  29.909  34.406  1.00  0.00     0.047 A 
ATOM     25  C   UNL A   1      39.043  28.189  32.536  1.00  0.00     0.004 A 
ATOM     26  C   UNL A   1      40.971  29.104  33.640  1.00  0.00     0.004 A 
ATOM     27  C   UNL A   1      40.434  28.270  32.671  1.00  0.00     0.000 A 
ENDBRANCH  21  22
ENDBRANCH  12  21
ENDBRANCH   4   6
ENDBRANCH   3   4
ENDBRANCH   2   3
ENDBRANCH   1   2
BRANCH   1  28
ATOM     28  O   UNL A   1      35.061  32.305  28.025  1.00  0.00    -0.458 OA
BRANCH  28  29
ATOM     29  C   UNL A   1      34.791  30.991  27.913  1.00  0.00     0.338 C 
ATOM     30  O   UNL A   1      33.693  30.542  27.722  1.00  0.00    -0.246 OA
BRANCH  29  31
ATOM     31  C   UNL A   1      36.030  30.207  28.057  1.00  0.00     0.060 A 
ATOM     32  C   UNL A   1      36.214  29.614  29.296  1.00  0.00     0.016 A 
ATOM     33  C   UNL A   1      36.976  30.095  27.012  1.00  0.00     0.016 A 
ATOM     34  C   UNL A   1      37.443  29.071  29.560  1.00  0.00     0.010 A 
ATOM     35  C   UNL A   1      38.160  29.439  27.237  1.00  0.00     0.010 A 
ATOM     36  C   UNL A   1      38.414  29.051  28.547  1.00  0.00    -0.014 A 
BRANCH  36  37
ATOM     37  C   UNL A   1      39.783  28.802  28.961  1.00  0.00     0.031 A 
ATOM     38  C   UNL A   1      40.390  27.495  28.563  1.00  0.00     0.074 A 
ATOM     39  C   UNL A   1      40.409  29.835  29.532  1.00  0.00     0.049 A 
ATOM     40  N   UNL A   1      41.624  27.103  28.672  1.00  0.00    -0.248 NA
ATOM     41  C   UNL A   1      39.496  26.487  27.956  1.00  0.00     0.031 C 
ATOM     42  C   UNL A   1      39.764  31.108  29.884  1.00  0.00     0.029 A 
ATOM     43  N   UNL A   1      41.709  30.006  29.868  1.00  0.00    -0.354 N 
ATOM     44  C   UNL A   1      41.651  25.808  28.163  1.00  0.00     0.074 A 
ATOM     45  C   UNL A   1      40.310  25.461  27.772  1.00  0.00     0.031 C 
ATOM     46  C   UNL A   1      40.692  31.947  30.359  1.00  0.00     0.029 A 
ATOM     47  C   UNL A   1      41.968  31.248  30.387  1.00  0.00     0.049 A 
ATOM     48  H   UNL A   1      42.397  29.311  29.752  1.00  0.00     0.167 HD
ATOM     49  C   UNL A   1      42.732  25.005  28.046  1.00  0.00     0.037 A 
ATOM     50  C   UNL A   1      43.129  31.733  30.850  1.00  0.00     0.037 A 
ATOM     51  C   UNL A   1      44.030  25.452  28.475  1.00  0.00     0.049 A 
ATOM     52  C   UNL A   1      44.315  30.827  30.707  1.00  0.00     0.074 A 
ATOM     53  C   UNL A   1      45.235  24.784  28.454  1.00  0.00     0.029 A 
ATOM     54  N   UNL A   1      44.273  26.715  29.019  1.00  0.00    -0.354 N 
ATOM     55  N   UNL A   1      44.350  29.605  30.215  1.00  0.00    -0.248 NA
ATOM     56  C   UNL A   1      45.605  31.341  31.155  1.00  0.00     0.031 C 
ATOM     57  C   UNL A   1      46.195  25.628  29.030  1.00  0.00     0.029 A 
ATOM     58  C   UNL A   1      45.602  26.844  29.360  1.00  0.00     0.049 A 
ATOM     59  H   UNL A   1      43.591  27.415  29.141  1.00  0.00     0.167 HD
ATOM     60  C   UNL A   1      45.669  29.197  30.289  1.00  0.00     0.074 A 
ATOM     61  C   UNL A   1      46.401  30.320  30.860  1.00  0.00     0.031 C 
ATOM     62  C   UNL A   1      46.234  28.016  29.929  1.00  0.00     0.037 A 
BRANCH  49  63
ATOM     63  C   UNL A   1      42.511  23.609  27.525  1.00  0.00     0.058 A 
ATOM     64  C   UNL A   1      42.230  22.521  28.373  1.00  0.00     0.135 A 
ATOM     65  C   UNL A   1      42.660  23.333  26.156  1.00  0.00     0.135 A 
ATOM     66  F   UNL A   1      42.105  22.712  29.696  1.00  0.00    -0.206 F 
ATOM     67  C   UNL A   1      42.149  21.215  27.891  1.00  0.00     0.059 A 
ATOM     68  C   UNL A   1      42.558  22.039  25.648  1.00  0.00     0.059 A 
ATOM     69  F   UNL A   1      42.945  24.323  25.295  1.00  0.00    -0.206 F 
ATOM     70  C   UNL A   1      42.326  20.982  26.527  1.00  0.00     0.060 A 
BRANCH  70  71
ATOM     71  S   UNL A   1      42.270  19.281  25.919  1.00  0.00     0.124 S 
ATOM     72  O   UNL A   1      43.125  19.363  24.739  1.00  0.00    -0.237 OA
ATOM     73  O   UNL A   1      42.814  18.527  27.045  1.00  0.00    -0.237 OA
ATOM     74  O   UNL A   1      40.851  19.061  25.651  1.00  0.00    -0.744 OA
ENDBRANCH  70  71
ENDBRANCH  49  63
BRANCH  50  75
ATOM     75  C   UNL A   1      43.146  33.081  31.467  1.00  0.00     0.058 A 
ATOM     76  C   UNL A   1      42.975  33.268  32.843  1.00  0.00     0.135 A 
ATOM     77  C   UNL A   1      43.496  34.205  30.694  1.00  0.00     0.135 A 
ATOM     78  F   UNL A   1      42.666  32.226  33.629  1.00  0.00    -0.206 F 
ATOM     79  C   UNL A   1      43.152  34.519  33.434  1.00  0.00     0.059 A 
ATOM     80  C   UNL A   1      43.702  35.456  31.264  1.00  0.00     0.059 A 
ATOM     81  F   UNL A   1      43.714  34.071  29.375  1.00  0.00    -0.206 F 
ATOM     82  C   UNL A   1      43.521  35.605  32.636  1.00  0.00     0.060 A 
BRANCH  82  83
ATOM     83  S   UNL A   1      43.812  37.206  33.420  1.00  0.00     0.124 S 
ATOM     84  O   UNL A   1      42.665  37.303  34.317  1.00  0.00    -0.237 OA
ATOM     85  O   UNL A   1      45.107  37.005  34.061  1.00  0.00    -0.237 OA
ATOM     86  O   UNL A   1      43.815  38.138  32.296  1.00  0.00    -0.744 OA
ENDBRANCH  82  83
ENDBRANCH  50  75
BRANCH  62  87
ATOM     87  C   UNL A   1      47.709  27.913  30.141  1.00  0.00     0.058 A 
ATOM     88  C   UNL A   1      48.232  27.416  31.343  1.00  0.00     0.135 A 
ATOM     89  C   UNL A   1      48.589  28.218  29.094  1.00  0.00     0.135 A 
ATOM     90  F   UNL A   1      47.417  27.126  32.369  1.00  0.00    -0.206 F 
ATOM     91  C   UNL A   1      49.595  27.226  31.500  1.00  0.00     0.059 A 
ATOM     92  C   UNL A   1      49.953  28.008  29.220  1.00  0.00     0.059 A 
ATOM     93  F   UNL A   1      48.118  28.684  27.926  1.00  0.00    -0.206 F 
ATOM     94  C   UNL A   1      50.446  27.513  30.429  1.00  0.00     0.060 A 
BRANCH  94  95
ATOM     95  S   UNL A   1      52.205  27.180  30.620  1.00  0.00     0.124 S 
ATOM     96  O   UNL A   1      52.199  26.176  31.678  1.00  0.00    -0.237 OA
ATOM     97  O   UNL A   1      52.576  26.702  29.291  1.00  0.00    -0.237 OA
ATOM     98  O   UNL A   1      52.758  28.481  30.988  1.00  0.00    -0.744 OA
ENDBRANCH  94  95
ENDBRANCH  62  87
ENDBRANCH  36  37
ENDBRANCH  29  31
ENDBRANCH  28  29
ENDBRANCH   1  28
TORSDOF 17
ENDMDL
MODEL 2
REMARK VINA RESULT:      -9.3      4.930     11.432
REMARK SMILES O=C(OCCOC(=O)c1ccc(-c2c3nc(c(-c4c(F)cc(S(=O)(=O)[O-])cc4F)c4ccc([nH]4)c(-c4c(F)cc(S(=O)(=O)[O-])cc4F)c4nc(c(-c5c(F)cc(S(=O)(=O)[O-])cc5F)c5ccc2[nH]5)C=C4)C=C3)cc1)C1=Cc2c(ccc(Cl)c2Oc2ccccc2)O[C@H]1C(F)(F)F
REMARK SMILES IDX 5 1 4 2 3 3 2 4 1 5 75 6 76 7 92 8 77 9 91 10 78 11 83 12
REMARK SMILES IDX 79 13 81 14 80 15 82 16 93 17 94 18 95 19 96 20 84 21 85 22
REMARK SMILES IDX 86 23 90 24 87 25 89 26 88 27 6 28 7 29 8 30 9 31 10 32
REMARK SMILES IDX 74 33 11 34 73 35 12 36 13 37 14 38 67 39 15 40 72 41 66 42
REMARK SMILES IDX 68 43 16 44 71 45 65 46 64 47 17 49 51 50 30 51 50 52 31 53
REMARK SMILES IDX 34 54 49 55 69 56 32 57 33 58 48 60 70 61 35 62 18 63 19 64
REMARK SMILES IDX 28 65 20 66 21 67 27 68 29 69 22 70 23 71 24 72 25 73 26 74
REMARK SMILES IDX 52 75 53 76 62 77 54 78 55 79 61 80 63 81 56 82 57 83 58 84
REMARK SMILES IDX 59 85 60 86 36 87 37 88 46 89 38 90 39 91 45 92 47 93 40 94
REMARK SMILES IDX 41 95 42 96 43 97 44 98
REMARK H PARENT 68 48 34 59
REMARK Flexibility Score: inf
ROOT
ATOM      1  C   UNL A   1      37.793  23.128  25.131  1.00  0.00     0.275 C 
ENDROOT
BRANCH   1   2
ATOM      2  C   UNL A   1      36.929  22.260  24.211  1.00  0.00     0.275 C 
BRANCH   2   3
ATOM      3  O   UNL A   1      36.355  21.182  24.962  1.00  0.00    -0.459 OA
BRANCH   3   4
ATOM      4  C   UNL A   1      35.216  21.394  25.659  1.00  0.00     0.338 C 
ATOM      5  O   UNL A   1      35.236  21.490  26.878  1.00  0.00    -0.246 OA
BRANCH   4   6
ATOM      6  C   UNL A   1      33.920  21.345  24.923  1.00  0.00     0.088 C 
ATOM      7  C   UNL A   1      33.325  22.363  24.267  1.00  0.00     0.031 C 
ATOM      8  C   UNL A   1      33.032  20.208  25.350  1.00  0.00     0.316 C 
ATOM      9  C   UNL A   1      32.288  22.992  25.097  1.00  0.00     0.062 A 
ATOM     10  O   UNL A   1      31.639  20.650  25.497  1.00  0.00    -0.475 OA
ATOM     11  C   UNL A   1      31.443  22.013  25.684  1.00  0.00     0.131 A 
ATOM     12  C   UNL A   1      32.017  24.390  25.198  1.00  0.00     0.156 A 
ATOM     13  C   UNL A   1      30.290  22.405  26.335  1.00  0.00     0.049 A 
ATOM     14  C   UNL A   1      30.864  24.747  25.912  1.00  0.00     0.084 A 
ATOM     15  C   UNL A   1      30.011  23.768  26.461  1.00  0.00     0.028 A 
ATOM     16  Cl  UNL A   1      30.352  26.396  26.024  1.00  0.00    -0.080 Cl
BRANCH   8  17
ATOM     17  C   UNL A   1      33.214  19.062  24.333  1.00  0.00     0.430 C 
ATOM     18  F   UNL A   1      32.536  17.949  24.712  1.00  0.00    -0.167 F 
ATOM     19  F   UNL A   1      32.775  19.401  23.104  1.00  0.00    -0.167 F 
ATOM     20  F   UNL A   1      34.517  18.703  24.225  1.00  0.00    -0.167 F 
ENDBRANCH   8  17
BRANCH  12  21
ATOM     21  O   UNL A   1      32.447  25.322  24.257  1.00  0.00    -0.455 OA
BRANCH  21  22
ATOM     22  C   UNL A   1      33.032  26.558  24.460  1.00  0.00     0.127 A 
ATOM     23  C   UNL A   1      32.923  27.742  23.734  1.00  0.00     0.047 A 
ATOM     24  C   UNL A   1      33.748  26.597  25.678  1.00  0.00     0.047 A 
ATOM     25  C   UNL A   1      33.358  28.963  24.315  1.00  0.00     0.004 A 
ATOM     26  C   UNL A   1      34.179  27.800  26.251  1.00  0.00     0.004 A 
ATOM     27  C   UNL A   1      33.947  28.994  25.584  1.00  0.00     0.000 A 
ENDBRANCH  21  22
ENDBRANCH  12  21
ENDBRANCH   4   6
ENDBRANCH   3   4
ENDBRANCH   2   3
ENDBRANCH   1   2
BRANCH   1  28
ATOM     28  O   UNL A   1      38.525  22.376  26.084  1.00  0.00    -0.458 OA
BRANCH  28  29
ATOM     29  C   UNL A   1      39.774  22.847  26.252  1.00  0.00     0.338 C 
ATOM     30  O   UNL A   1      40.769  22.255  25.927  1.00  0.00    -0.246 OA
BRANCH  29  31
ATOM     31  C   UNL A   1      39.731  24.178  26.883  1.00  0.00     0.060 A 
ATOM     32  C   UNL A   1      40.448  25.167  26.228  1.00  0.00     0.016 A 
ATOM     33  C   UNL A   1      39.033  24.417  28.089  1.00  0.00     0.016 A 
ATOM     34  C   UNL A   1      40.632  26.354  26.885  1.00  0.00     0.010 A 
ATOM     35  C   UNL A   1      39.114  25.650  28.687  1.00  0.00     0.010 A 
ATOM     36  C   UNL A   1      40.015  26.550  28.130  1.00  0.00    -0.014 A 
BRANCH  36  37
ATOM     37  C   UNL A   1      40.512  27.648  28.939  1.00  0.00     0.031 A 
ATOM     38  C   UNL A   1      39.591  28.805  29.159  1.00  0.00     0.074 A 
ATOM     39  C   UNL A   1      41.695  27.442  29.526  1.00  0.00     0.049 A 
ATOM     40  N   UNL A   1      39.735  29.820  29.958  1.00  0.00    -0.248 NA
ATOM     41  C   UNL A   1      38.333  28.830  28.384  1.00  0.00     0.031 C 
ATOM     42  C   UNL A   1      42.551  26.273  29.284  1.00  0.00     0.029 A 
ATOM     43  N   UNL A   1      42.355  28.162  30.464  1.00  0.00    -0.354 N 
ATOM     44  C   UNL A   1      38.601  30.605  29.773  1.00  0.00     0.074 A 
ATOM     45  C   UNL A   1      37.788  29.973  28.766  1.00  0.00     0.031 C 
ATOM     46  C   UNL A   1      43.616  26.343  30.092  1.00  0.00     0.029 A 
ATOM     47  C   UNL A   1      43.531  27.578  30.854  1.00  0.00     0.049 A 
ATOM     48  H   UNL A   1      42.023  29.015  30.827  1.00  0.00     0.167 HD
ATOM     49  C   UNL A   1      38.297  31.755  30.414  1.00  0.00     0.037 A 
ATOM     50  C   UNL A   1      44.438  28.036  31.730  1.00  0.00     0.037 A 
ATOM     51  C   UNL A   1      39.186  32.304  31.402  1.00  0.00     0.049 A 
ATOM     52  C   UNL A   1      44.079  29.311  32.432  1.00  0.00     0.074 A 
ATOM     53  C   UNL A   1      39.064  33.459  32.144  1.00  0.00     0.029 A 
ATOM     54  N   UNL A   1      40.391  31.705  31.776  1.00  0.00    -0.354 N 
ATOM     55  N   UNL A   1      43.002  30.052  32.271  1.00  0.00    -0.248 NA
ATOM     56  C   UNL A   1      45.020  29.812  33.428  1.00  0.00     0.031 C 
ATOM     57  C   UNL A   1      40.218  33.580  32.929  1.00  0.00     0.029 A 
ATOM     58  C   UNL A   1      41.037  32.473  32.720  1.00  0.00     0.049 A 
ATOM     59  H   UNL A   1      40.731  30.853  31.415  1.00  0.00     0.167 HD
ATOM     60  C   UNL A   1      43.128  31.112  33.148  1.00  0.00     0.074 A 
ATOM     61  C   UNL A   1      44.386  30.899  33.851  1.00  0.00     0.031 C 
ATOM     62  C   UNL A   1      42.299  32.168  33.361  1.00  0.00     0.037 A 
BRANCH  49  63
ATOM     63  C   UNL A   1      37.039  32.474  30.000  1.00  0.00     0.058 A 
ATOM     64  C   UNL A   1      37.037  33.500  29.037  1.00  0.00     0.135 A 
ATOM     65  C   UNL A   1      35.820  32.186  30.634  1.00  0.00     0.135 A 
ATOM     66  F   UNL A   1      38.175  33.845  28.415  1.00  0.00    -0.206 F 
ATOM     67  C   UNL A   1      35.889  34.239  28.753  1.00  0.00     0.059 A 
ATOM     68  C   UNL A   1      34.653  32.895  30.348  1.00  0.00     0.059 A 
ATOM     69  F   UNL A   1      35.756  31.230  31.574  1.00  0.00    -0.206 F 
ATOM     70  C   UNL A   1      34.702  33.936  29.422  1.00  0.00     0.060 A 
BRANCH  70  71
ATOM     71  S   UNL A   1      33.233  34.932  29.084  1.00  0.00     0.124 S 
ATOM     72  O   UNL A   1      32.563  34.129  28.065  1.00  0.00    -0.237 OA
ATOM     73  O   UNL A   1      32.577  34.976  30.387  1.00  0.00    -0.237 OA
ATOM     74  O   UNL A   1      33.781  36.203  28.620  1.00  0.00    -0.744 OA
ENDBRANCH  70  71
ENDBRANCH  49  63
BRANCH  50  75
ATOM     75  C   UNL A   1      45.697  27.276  31.917  1.00  0.00     0.058 A 
ATOM     76  C   UNL A   1      46.882  27.635  31.266  1.00  0.00     0.135 A 
ATOM     77  C   UNL A   1      45.769  26.259  32.889  1.00  0.00     0.135 A 
ATOM     78  F   UNL A   1      46.875  28.614  30.349  1.00  0.00    -0.206 F 
ATOM     79  C   UNL A   1      48.094  27.016  31.569  1.00  0.00     0.059 A 
ATOM     80  C   UNL A   1      46.970  25.645  33.226  1.00  0.00     0.059 A 
ATOM     81  F   UNL A   1      44.669  25.906  33.574  1.00  0.00    -0.206 F 
ATOM     82  C   UNL A   1      48.128  26.027  32.556  1.00  0.00     0.060 A 
BRANCH  82  83
ATOM     83  S   UNL A   1      49.715  25.278  32.988  1.00  0.00     0.124 S 
ATOM     84  O   UNL A   1      49.327  24.379  34.070  1.00  0.00    -0.237 OA
ATOM     85  O   UNL A   1      50.104  24.637  31.735  1.00  0.00    -0.237 OA
ATOM     86  O   UNL A   1      50.533  26.421  33.379  1.00  0.00    -0.744 OA
ENDBRANCH  82  83
ENDBRANCH  50  75
BRANCH  62  87
ATOM     87  C   UNL A   1      42.745  33.139  34.403  1.00  0.00     0.058 A 
ATOM     88  C   UNL A   1      43.506  34.266  34.062  1.00  0.00     0.135 A 
ATOM     89  C   UNL A   1      42.315  32.989  35.730  1.00  0.00     0.135 A 
ATOM     90  F   UNL A   1      43.942  34.433  32.804  1.00  0.00    -0.206 F 
ATOM     91  C   UNL A   1      43.831  35.219  35.012  1.00  0.00     0.059 A 
ATOM     92  C   UNL A   1      42.605  33.946  36.689  1.00  0.00     0.059 A 
ATOM     93  F   UNL A   1      41.575  31.927  36.086  1.00  0.00    -0.206 F 
ATOM     94  C   UNL A   1      43.366  35.056  36.320  1.00  0.00     0.060 A 
BRANCH  94  95
ATOM     95  S   UNL A   1      43.725  36.347  37.524  1.00  0.00     0.124 S 
ATOM     96  O   UNL A   1      44.903  35.803  38.191  1.00  0.00    -0.237 OA
ATOM     97  O   UNL A   1      43.957  37.509  36.672  1.00  0.00    -0.237 OA
ATOM     98  O   UNL A   1      42.511  36.401  38.333  1.00  0.00    -0.744 OA
ENDBRANCH  94  95
ENDBRANCH  62  87
ENDBRANCH  36  37
ENDBRANCH  29  31
ENDBRANCH  28  29
ENDBRANCH   1  28
TORSDOF 17
ENDMDL
MODEL 3
REMARK VINA RESULT:      -9.3      4.480      6.816
REMARK SMILES O=C(OCCOC(=O)c1ccc(-c2c3nc(c(-c4c(F)cc(S(=O)(=O)[O-])cc4F)c4ccc([nH]4)c(-c4c(F)cc(S(=O)(=O)[O-])cc4F)c4nc(c(-c5c(F)cc(S(=O)(=O)[O-])cc5F)c5ccc2[nH]5)C=C4)C=C3)cc1)C1=Cc2c(ccc(Cl)c2Oc2ccccc2)O[C@H]1C(F)(F)F
REMARK SMILES IDX 5 1 4 2 3 3 2 4 1 5 75 6 76 7 92 8 77 9 91 10 78 11 83 12
REMARK SMILES IDX 79 13 81 14 80 15 82 16 93 17 94 18 95 19 96 20 84 21 85 22
REMARK SMILES IDX 86 23 90 24 87 25 89 26 88 27 6 28 7 29 8 30 9 31 10 32
REMARK SMILES IDX 74 33 11 34 73 35 12 36 13 37 14 38 67 39 15 40 72 41 66 42
REMARK SMILES IDX 68 43 16 44 71 45 65 46 64 47 17 49 51 50 30 51 50 52 31 53
REMARK SMILES IDX 34 54 49 55 69 56 32 57 33 58 48 60 70 61 35 62 18 63 19 64
REMARK SMILES IDX 28 65 20 66 21 67 27 68 29 69 22 70 23 71 24 72 25 73 26 74
REMARK SMILES IDX 52 75 53 76 62 77 54 78 55 79 61 80 63 81 56 82 57 83 58 84
REMARK SMILES IDX 59 85 60 86 36 87 37 88 46 89 38 90 39 91 45 92 47 93 40 94
REMARK SMILES IDX 41 95 42 96 43 97 44 98
REMARK H PARENT 68 48 34 59
REMARK Flexibility Score: inf
ROOT
ATOM      1  C   UNL A   1      32.670  30.690  27.324  1.00  0.00     0.275 C 
ENDROOT
BRANCH   1   2
ATOM      2  C   UNL A   1      31.872  30.651  26.017  1.00  0.00     0.275 C 
BRANCH   2   3
ATOM      3  O   UNL A   1      32.155  29.434  25.314  1.00  0.00    -0.459 OA
BRANCH   3   4
ATOM      4  C   UNL A   1      31.398  28.339  25.556  1.00  0.00     0.338 C 
ATOM      5  O   UNL A   1      31.413  27.797  26.653  1.00  0.00    -0.246 OA
BRANCH   4   6
ATOM      6  C   UNL A   1      30.674  27.716  24.411  1.00  0.00     0.088 C 
ATOM      7  C   UNL A   1      30.387  26.408  24.254  1.00  0.00     0.031 C 
ATOM      8  C   UNL A   1      30.692  28.557  23.164  1.00  0.00     0.316 C 
ATOM      9  C   UNL A   1      31.367  25.752  23.376  1.00  0.00     0.062 A 
ATOM     10  O   UNL A   1      30.962  27.737  21.975  1.00  0.00    -0.475 OA
ATOM     11  C   UNL A   1      31.587  26.517  22.200  1.00  0.00     0.131 A 
ATOM     12  C   UNL A   1      31.922  24.449  23.553  1.00  0.00     0.156 A 
ATOM     13  C   UNL A   1      32.320  25.978  21.160  1.00  0.00     0.049 A 
ATOM     14  C   UNL A   1      32.702  23.961  22.494  1.00  0.00     0.084 A 
ATOM     15  C   UNL A   1      32.887  24.710  21.315  1.00  0.00     0.028 A 
ATOM     16  Cl  UNL A   1      33.349  22.356  22.522  1.00  0.00    -0.080 Cl
BRANCH   8  17
ATOM     17  C   UNL A   1      29.354  29.324  23.096  1.00  0.00     0.430 C 
ATOM     18  F   UNL A   1      29.354  30.396  23.928  1.00  0.00    -0.167 F 
ATOM     19  F   UNL A   1      29.094  29.779  21.854  1.00  0.00    -0.167 F 
ATOM     20  F   UNL A   1      28.318  28.538  23.478  1.00  0.00    -0.167 F 
ENDBRANCH   8  17
BRANCH  12  21
ATOM     21  O   UNL A   1      31.347  23.476  24.367  1.00  0.00    -0.455 OA
BRANCH  21  22
ATOM     22  C   UNL A   1      31.942  22.689  25.336  1.00  0.00     0.127 A 
ATOM     23  C   UNL A   1      32.246  21.329  25.337  1.00  0.00     0.047 A 
ATOM     24  C   UNL A   1      32.400  23.467  26.424  1.00  0.00     0.047 A 
ATOM     25  C   UNL A   1      33.144  20.813  26.308  1.00  0.00     0.004 A 
ATOM     26  C   UNL A   1      33.284  22.957  27.383  1.00  0.00     0.004 A 
ATOM     27  C   UNL A   1      33.691  21.634  27.301  1.00  0.00     0.000 A 
ENDBRANCH  21  22
ENDBRANCH  12  21
ENDBRANCH   4   6
ENDBRANCH   3   4
ENDBRANCH   2   3
ENDBRANCH   1   2
BRANCH   1  28
ATOM     28  O   UNL A   1      34.074  30.716  27.122  1.00  0.00    -0.458 OA
BRANCH  28  29
ATOM     29  C   UNL A   1      34.741  31.056  28.239  1.00  0.00     0.338 C 
ATOM     30  O   UNL A   1      34.362  31.880  29.028  1.00  0.00    -0.246 OA
BRANCH  29  31
ATOM     31  C   UNL A   1      35.986  30.275  28.341  1.00  0.00     0.060 A 
ATOM     32  C   UNL A   1      36.268  29.773  29.602  1.00  0.00     0.016 A 
ATOM     33  C   UNL A   1      36.846  30.081  27.236  1.00  0.00     0.016 A 
ATOM     34  C   UNL A   1      37.513  29.242  29.807  1.00  0.00     0.010 A 
ATOM     35  C   UNL A   1      38.044  29.435  27.413  1.00  0.00     0.010 A 
ATOM     36  C   UNL A   1      38.400  29.141  28.724  1.00  0.00    -0.014 A 
BRANCH  36  37
ATOM     37  C   UNL A   1      39.798  28.913  29.045  1.00  0.00     0.031 A 
ATOM     38  C   UNL A   1      40.388  27.602  28.634  1.00  0.00     0.074 A 
ATOM     39  C   UNL A   1      40.452  29.964  29.547  1.00  0.00     0.049 A 
ATOM     40  N   UNL A   1      41.631  27.223  28.664  1.00  0.00    -0.248 NA
ATOM     41  C   UNL A   1      39.463  26.573  28.115  1.00  0.00     0.031 C 
ATOM     42  C   UNL A   1      39.822  31.239  29.916  1.00  0.00     0.029 A 
ATOM     43  N   UNL A   1      41.771  30.153  29.787  1.00  0.00    -0.354 N 
ATOM     44  C   UNL A   1      41.635  25.917  28.183  1.00  0.00     0.074 A 
ATOM     45  C   UNL A   1      40.272  25.550  27.895  1.00  0.00     0.031 C 
ATOM     46  C   UNL A   1      40.773  32.096  30.305  1.00  0.00     0.029 A 
ATOM     47  C   UNL A   1      42.054  31.408  30.259  1.00  0.00     0.049 A 
ATOM     48  H   UNL A   1      42.456  29.461  29.637  1.00  0.00     0.167 HD
ATOM     49  C   UNL A   1      42.712  25.121  28.007  1.00  0.00     0.037 A 
ATOM     50  C   UNL A   1      43.240  31.913  30.627  1.00  0.00     0.037 A 
ATOM     51  C   UNL A   1      44.033  25.588  28.333  1.00  0.00     0.049 A 
ATOM     52  C   UNL A   1      44.422  31.014  30.420  1.00  0.00     0.074 A 
ATOM     53  C   UNL A   1      45.240  24.930  28.241  1.00  0.00     0.029 A 
ATOM     54  N   UNL A   1      44.301  26.865  28.830  1.00  0.00    -0.354 N 
ATOM     55  N   UNL A   1      44.434  29.782  29.954  1.00  0.00    -0.248 NA
ATOM     56  C   UNL A   1      45.736  31.549  30.764  1.00  0.00     0.031 C 
ATOM     57  C   UNL A   1      46.230  25.794  28.728  1.00  0.00     0.029 A 
ATOM     58  C   UNL A   1      45.650  27.013  29.073  1.00  0.00     0.049 A 
ATOM     59  H   UNL A   1      43.622  27.562  28.985  1.00  0.00     0.167 HD
ATOM     60  C   UNL A   1      45.759  29.387  29.943  1.00  0.00     0.074 A 
ATOM     61  C   UNL A   1      46.518  30.528  30.435  1.00  0.00     0.031 C 
ATOM     62  C   UNL A   1      46.309  28.202  29.570  1.00  0.00     0.037 A 
BRANCH  49  63
ATOM     63  C   UNL A   1      42.469  23.711  27.534  1.00  0.00     0.058 A 
ATOM     64  C   UNL A   1      42.319  22.631  28.423  1.00  0.00     0.135 A 
ATOM     65  C   UNL A   1      42.462  23.418  26.160  1.00  0.00     0.135 A 
ATOM     66  F   UNL A   1      42.348  22.839  29.749  1.00  0.00    -0.206 F 
ATOM     67  C   UNL A   1      42.218  21.315  27.971  1.00  0.00     0.059 A 
ATOM     68  C   UNL A   1      42.335  22.113  25.685  1.00  0.00     0.059 A 
ATOM     69  F   UNL A   1      42.615  24.400  25.259  1.00  0.00    -0.206 F 
ATOM     70  C   UNL A   1      42.237  21.065  26.598  1.00  0.00     0.060 A 
BRANCH  70  71
ATOM     71  S   UNL A   1      42.155  19.353  26.024  1.00  0.00     0.124 S 
ATOM     72  O   UNL A   1      40.741  19.227  25.683  1.00  0.00    -0.237 OA
ATOM     73  O   UNL A   1      43.081  19.356  24.896  1.00  0.00    -0.237 OA
ATOM     74  O   UNL A   1      42.591  18.583  27.185  1.00  0.00    -0.744 OA
ENDBRANCH  70  71
ENDBRANCH  49  63
BRANCH  50  75
ATOM     75  C   UNL A   1      43.287  33.275  31.211  1.00  0.00     0.058 A 
ATOM     76  C   UNL A   1      43.193  33.493  32.590  1.00  0.00     0.135 A 
ATOM     77  C   UNL A   1      43.590  34.382  30.395  1.00  0.00     0.135 A 
ATOM     78  F   UNL A   1      42.931  32.469  33.416  1.00  0.00    -0.206 F 
ATOM     79  C   UNL A   1      43.398  34.757  33.141  1.00  0.00     0.059 A 
ATOM     80  C   UNL A   1      43.824  35.646  30.924  1.00  0.00     0.059 A 
ATOM     81  F   UNL A   1      43.734  34.219  29.069  1.00  0.00    -0.206 F 
ATOM     82  C   UNL A   1      43.719  35.825  32.300  1.00  0.00     0.060 A 
BRANCH  82  83
ATOM     83  S   UNL A   1      44.048  37.445  33.030  1.00  0.00     0.124 S 
ATOM     84  O   UNL A   1      43.765  38.333  31.908  1.00  0.00    -0.237 OA
ATOM     85  O   UNL A   1      43.093  37.485  34.133  1.00  0.00    -0.237 OA
ATOM     86  O   UNL A   1      45.450  37.359  33.428  1.00  0.00    -0.744 OA
ENDBRANCH  82  83
ENDBRANCH  50  75
BRANCH  62  87
ATOM     87  C   UNL A   1      47.796  28.117  29.679  1.00  0.00     0.058 A 
ATOM     88  C   UNL A   1      48.408  27.654  30.852  1.00  0.00     0.135 A 
ATOM     89  C   UNL A   1      48.597  28.402  28.564  1.00  0.00     0.135 A 
ATOM     90  F   UNL A   1      47.671  27.383  31.940  1.00  0.00    -0.206 F 
ATOM     91  C   UNL A   1      49.780  27.479  30.917  1.00  0.00     0.059 A 
ATOM     92  C   UNL A   1      49.968  28.206  28.598  1.00  0.00     0.059 A 
ATOM     93  F   UNL A   1      48.039  28.835  27.422  1.00  0.00    -0.206 F 
ATOM     94  C   UNL A   1      50.550  27.746  29.781  1.00  0.00     0.060 A 
BRANCH  94  95
ATOM     95  S   UNL A   1      52.322  27.432  29.854  1.00  0.00     0.124 S 
ATOM     96  O   UNL A   1      52.852  28.785  29.978  1.00  0.00    -0.237 OA
ATOM     97  O   UNL A   1      52.439  26.591  31.041  1.00  0.00    -0.237 OA
ATOM     98  O   UNL A   1      52.598  26.761  28.587  1.00  0.00    -0.744 OA
ENDBRANCH  94  95
ENDBRANCH  62  87
ENDBRANCH  36  37
ENDBRANCH  29  31
ENDBRANCH  28  29
ENDBRANCH   1  28
TORSDOF 17
ENDMDL
