MODEL 1
REMARK VINA RESULT:     -10.4      0.000      0.000
REMARK SMILES C=CC[N@@H+](CC(=O)Nc1cc(C)on1)CC(=O)OCCOC(=O)c1ccc(-c2c3nc(c(-c4c(F)cc(S(=O)(=O)[O-])cc4F)c4ccc([nH]4)c(-c4c(F)cc(S(=O)(=O)[O-])cc4F)c4nc(c(-c5c(F)cc(S(=O)(=O)[O-])cc5F)c5ccc2[nH]5)C=C4)C=C3)cc1
REMARK SMILES IDX 19 1 18 2 16 3 17 4 15 5 4 6 3 8 2 9 1 10 5 11 6 12 7 13
REMARK SMILES IDX 8 14 9 16 10 17 14 18 11 19 13 20 12 21 20 22 21 23 22 24
REMARK SMILES IDX 23 25 24 26 25 27 89 28 26 29 88 30 27 31 28 32 29 33 82 34
REMARK SMILES IDX 30 35 87 36 81 37 83 38 31 39 86 40 80 41 79 42 32 44 66 45
REMARK SMILES IDX 45 46 65 47 46 48 49 49 64 50 84 51 47 52 48 53 63 55 85 56
REMARK SMILES IDX 50 57 33 58 34 59 43 60 35 61 36 62 42 63 44 64 37 65 38 66
REMARK SMILES IDX 39 67 40 68 41 69 67 70 68 71 77 72 69 73 70 74 76 75 78 76
REMARK SMILES IDX 71 77 72 78 73 79 74 80 75 81 51 82 52 83 61 84 53 85 54 86
REMARK SMILES IDX 60 87 62 88 55 89 56 90 57 91 58 92 59 93
REMARK H PARENT 4 7 8 15 83 43 49 54
REMARK Flexibility Score: inf
ROOT
ATOM      1  C   UNL A   1      36.986  23.091  25.892  1.00  0.00     0.274 C 
ENDROOT
BRANCH   1   2
ATOM      2  O   UNL A   1      36.815  22.994  24.466  1.00  0.00    -0.458 OA
BRANCH   2   3
ATOM      3  C   UNL A   1      35.669  23.492  23.947  1.00  0.00     0.361 C 
ATOM      4  O   UNL A   1      35.342  23.388  22.769  1.00  0.00    -0.245 OA
BRANCH   3   5
ATOM      5  C   UNL A   1      34.889  24.343  24.940  1.00  0.00     0.387 C 
BRANCH   5   6
ATOM      6  N   UNL A   1      33.553  23.895  25.350  1.00  0.00    -0.315 N 
ATOM      7  H   UNL A   1      33.718  24.009  26.350  1.00  0.00     0.349 HD
BRANCH   6   8
ATOM      8  C   UNL A   1      32.435  24.797  25.167  1.00  0.00     0.291 C 
BRANCH   8   9
ATOM      9  C   UNL A   1      31.231  24.183  24.517  1.00  0.00     0.025 C 
ATOM     10  C   UNL A   1      30.845  24.487  23.268  1.00  0.00     0.010 C 
ENDBRANCH   8   9
ENDBRANCH   6   8
BRANCH   6  11
ATOM     11  C   UNL A   1      33.245  22.456  25.312  1.00  0.00     0.364 C 
BRANCH  11  12
ATOM     12  C   UNL A   1      33.443  21.658  26.607  1.00  0.00     0.280 C 
ATOM     13  O   UNL A   1      33.454  22.229  27.705  1.00  0.00    -0.268 OA
ATOM     14  N   UNL A   1      33.598  20.300  26.585  1.00  0.00    -0.303 N 
ATOM     15  H   UNL A   1      33.996  19.884  27.383  1.00  0.00     0.171 HD
BRANCH  14  16
ATOM     16  C   UNL A   1      33.251  19.462  25.555  1.00  0.00     0.176 A 
ATOM     17  C   UNL A   1      34.115  18.537  24.936  1.00  0.00     0.095 A 
ATOM     18  N   UNL A   1      32.014  19.378  25.057  1.00  0.00    -0.062 NA
ATOM     19  C   UNL A   1      33.359  17.972  23.941  1.00  0.00     0.135 A 
ATOM     20  O   UNL A   1      32.083  18.438  24.037  1.00  0.00    -0.360 OA
ATOM     21  C   UNL A   1      33.667  17.052  22.832  1.00  0.00     0.091 C 
ENDBRANCH  14  16
ENDBRANCH  11  12
ENDBRANCH   6  11
ENDBRANCH   5   6
ENDBRANCH   3   5
ENDBRANCH   2   3
ENDBRANCH   1   2
BRANCH   1  22
ATOM     22  C   UNL A   1      38.461  23.059  26.263  1.00  0.00     0.275 C 
BRANCH  22  23
ATOM     23  O   UNL A   1      38.975  24.400  26.282  1.00  0.00    -0.458 OA
BRANCH  23  24
ATOM     24  C   UNL A   1      40.249  24.534  26.690  1.00  0.00     0.338 C 
ATOM     25  O   UNL A   1      41.236  23.927  26.276  1.00  0.00    -0.246 OA
BRANCH  24  26
ATOM     26  C   UNL A   1      40.326  25.539  27.752  1.00  0.00     0.060 A 
ATOM     27  C   UNL A   1      39.352  25.576  28.751  1.00  0.00     0.016 A 
ATOM     28  C   UNL A   1      41.322  26.514  27.695  1.00  0.00     0.016 A 
ATOM     29  C   UNL A   1      39.348  26.621  29.672  1.00  0.00     0.010 A 
ATOM     30  C   UNL A   1      41.349  27.525  28.655  1.00  0.00     0.010 A 
ATOM     31  C   UNL A   1      40.351  27.600  29.641  1.00  0.00    -0.014 A 
BRANCH  31  32
ATOM     32  C   UNL A   1      40.379  28.691  30.648  1.00  0.00     0.031 A 
ATOM     33  C   UNL A   1      41.342  28.643  31.802  1.00  0.00     0.074 A 
ATOM     34  C   UNL A   1      39.506  29.711  30.538  1.00  0.00     0.049 A 
ATOM     35  N   UNL A   1      41.398  29.407  32.863  1.00  0.00    -0.248 NA
ATOM     36  C   UNL A   1      42.372  27.593  31.765  1.00  0.00     0.031 C 
ATOM     37  C   UNL A   1      38.541  29.884  29.451  1.00  0.00     0.029 A 
ATOM     38  N   UNL A   1      39.281  30.788  31.357  1.00  0.00    -0.354 N 
ATOM     39  C   UNL A   1      42.440  28.911  33.637  1.00  0.00     0.074 A 
ATOM     40  C   UNL A   1      42.992  27.778  32.924  1.00  0.00     0.031 C 
ATOM     41  C   UNL A   1      37.834  31.003  29.663  1.00  0.00     0.029 A 
ATOM     42  C   UNL A   1      38.248  31.589  30.934  1.00  0.00     0.049 A 
ATOM     43  H   UNL A   1      39.807  30.969  32.169  1.00  0.00     0.167 HD
ATOM     44  C   UNL A   1      42.888  29.360  34.834  1.00  0.00     0.037 A 
ATOM     45  C   UNL A   1      37.667  32.653  31.520  1.00  0.00     0.037 A 
ATOM     46  C   UNL A   1      42.351  30.507  35.522  1.00  0.00     0.049 A 
ATOM     47  C   UNL A   1      38.161  33.113  32.860  1.00  0.00     0.074 A 
ATOM     48  C   UNL A   1      42.756  31.058  36.726  1.00  0.00     0.029 A 
ATOM     49  N   UNL A   1      41.295  31.282  35.066  1.00  0.00    -0.354 N 
ATOM     50  N   UNL A   1      39.130  32.616  33.592  1.00  0.00    -0.248 NA
ATOM     51  C   UNL A   1      37.476  34.263  33.460  1.00  0.00     0.031 C 
ATOM     52  C   UNL A   1      41.925  32.147  37.013  1.00  0.00     0.029 A 
ATOM     53  C   UNL A   1      41.025  32.296  35.971  1.00  0.00     0.049 A 
ATOM     54  H   UNL A   1      40.810  31.135  34.222  1.00  0.00     0.167 HD
ATOM     55  C   UNL A   1      39.174  33.398  34.739  1.00  0.00     0.074 A 
ATOM     56  C   UNL A   1      38.145  34.409  34.596  1.00  0.00     0.031 C 
ATOM     57  C   UNL A   1      39.991  33.286  35.814  1.00  0.00     0.037 A 
BRANCH  44  58
ATOM     58  C   UNL A   1      44.000  28.596  35.498  1.00  0.00     0.058 A 
ATOM     59  C   UNL A   1      45.349  28.905  35.270  1.00  0.00     0.135 A 
ATOM     60  C   UNL A   1      43.706  27.575  36.416  1.00  0.00     0.135 A 
ATOM     61  F   UNL A   1      45.684  29.861  34.390  1.00  0.00    -0.206 F 
ATOM     62  C   UNL A   1      46.370  28.217  35.919  1.00  0.00     0.059 A 
ATOM     63  C   UNL A   1      44.710  26.886  37.090  1.00  0.00     0.059 A 
ATOM     64  F   UNL A   1      42.431  27.239  36.667  1.00  0.00    -0.206 F 
ATOM     65  C   UNL A   1      46.041  27.206  36.825  1.00  0.00     0.060 A 
BRANCH  65  66
ATOM     66  S   UNL A   1      47.375  26.325  37.665  1.00  0.00     0.124 S 
ATOM     67  O   UNL A   1      48.460  27.299  37.584  1.00  0.00    -0.237 OA
ATOM     68  O   UNL A   1      46.820  26.106  38.997  1.00  0.00    -0.237 OA
ATOM     69  O   UNL A   1      47.548  25.123  36.856  1.00  0.00    -0.744 OA
ENDBRANCH  65  66
ENDBRANCH  44  58
BRANCH  45  70
ATOM     70  C   UNL A   1      36.532  33.329  30.844  1.00  0.00     0.058 A 
ATOM     71  C   UNL A   1      35.229  33.225  31.350  1.00  0.00     0.135 A 
ATOM     72  C   UNL A   1      36.737  34.136  29.714  1.00  0.00     0.135 A 
ATOM     73  F   UNL A   1      34.986  32.460  32.424  1.00  0.00    -0.206 F 
ATOM     74  C   UNL A   1      34.166  33.901  30.760  1.00  0.00     0.059 A 
ATOM     75  C   UNL A   1      35.694  34.838  29.120  1.00  0.00     0.059 A 
ATOM     76  F   UNL A   1      37.970  34.277  29.203  1.00  0.00    -0.206 F 
ATOM     77  C   UNL A   1      34.410  34.710  29.649  1.00  0.00     0.060 A 
BRANCH  77  78
ATOM     78  S   UNL A   1      33.043  35.651  28.937  1.00  0.00     0.124 S 
ATOM     79  O   UNL A   1      33.755  36.680  28.187  1.00  0.00    -0.237 OA
ATOM     80  O   UNL A   1      32.350  34.643  28.141  1.00  0.00    -0.237 OA
ATOM     81  O   UNL A   1      32.313  36.116  30.113  1.00  0.00    -0.744 OA
ENDBRANCH  77  78
ENDBRANCH  45  70
BRANCH  57  82
ATOM     82  C   UNL A   1      39.811  34.295  36.911  1.00  0.00     0.058 A 
ATOM     83  C   UNL A   1      39.020  34.018  38.036  1.00  0.00     0.135 A 
ATOM     84  C   UNL A   1      40.453  35.542  36.846  1.00  0.00     0.135 A 
ATOM     85  F   UNL A   1      38.380  32.843  38.138  1.00  0.00    -0.206 F 
ATOM     86  C   UNL A   1      38.852  34.953  39.051  1.00  0.00     0.059 A 
ATOM     87  C   UNL A   1      40.314  36.485  37.859  1.00  0.00     0.059 A 
ATOM     88  F   UNL A   1      41.226  35.850  35.792  1.00  0.00    -0.206 F 
ATOM     89  C   UNL A   1      39.500  36.186  38.952  1.00  0.00     0.060 A 
BRANCH  89  90
ATOM     90  S   UNL A   1      39.290  37.390  40.281  1.00  0.00     0.124 S 
ATOM     91  O   UNL A   1      38.507  38.425  39.615  1.00  0.00    -0.237 OA
ATOM     92  O   UNL A   1      38.584  36.618  41.299  1.00  0.00    -0.237 OA
ATOM     93  O   UNL A   1      40.660  37.757  40.622  1.00  0.00    -0.744 OA
ENDBRANCH  89  90
ENDBRANCH  57  82
ENDBRANCH  31  32
ENDBRANCH  24  26
ENDBRANCH  23  24
ENDBRANCH  22  23
ENDBRANCH   1  22
TORSDOF 20
ENDMDL
MODEL 2
REMARK VINA RESULT:     -10.2      1.524      2.786
REMARK SMILES C=CC[N@@H+](CC(=O)Nc1cc(C)on1)CC(=O)OCCOC(=O)c1ccc(-c2c3nc(c(-c4c(F)cc(S(=O)(=O)[O-])cc4F)c4ccc([nH]4)c(-c4c(F)cc(S(=O)(=O)[O-])cc4F)c4nc(c(-c5c(F)cc(S(=O)(=O)[O-])cc5F)c5ccc2[nH]5)C=C4)C=C3)cc1
REMARK SMILES IDX 19 1 18 2 16 3 17 4 15 5 4 6 3 8 2 9 1 10 5 11 6 12 7 13
REMARK SMILES IDX 8 14 9 16 10 17 14 18 11 19 13 20 12 21 20 22 21 23 22 24
REMARK SMILES IDX 23 25 24 26 25 27 89 28 26 29 88 30 27 31 28 32 29 33 82 34
REMARK SMILES IDX 30 35 87 36 81 37 83 38 31 39 86 40 80 41 79 42 32 44 66 45
REMARK SMILES IDX 45 46 65 47 46 48 49 49 64 50 84 51 47 52 48 53 63 55 85 56
REMARK SMILES IDX 50 57 33 58 34 59 43 60 35 61 36 62 42 63 44 64 37 65 38 66
REMARK SMILES IDX 39 67 40 68 41 69 67 70 68 71 77 72 69 73 70 74 76 75 78 76
REMARK SMILES IDX 71 77 72 78 73 79 74 80 75 81 51 82 52 83 61 84 53 85 54 86
REMARK SMILES IDX 60 87 62 88 55 89 56 90 57 91 58 92 59 93
REMARK H PARENT 4 7 8 15 83 43 49 54
REMARK Flexibility Score: inf
ROOT
ATOM      1  C   UNL A   1      38.123  21.990  25.565  1.00  0.00     0.274 C 
ENDROOT
BRANCH   1   2
ATOM      2  O   UNL A   1      37.035  22.811  26.028  1.00  0.00    -0.458 OA
BRANCH   2   3
ATOM      3  C   UNL A   1      35.780  22.379  25.761  1.00  0.00     0.361 C 
ATOM      4  O   UNL A   1      35.512  21.500  24.947  1.00  0.00    -0.245 OA
BRANCH   3   5
ATOM      5  C   UNL A   1      34.708  23.205  26.458  1.00  0.00     0.387 C 
BRANCH   5   6
ATOM      6  N   UNL A   1      33.661  23.829  25.640  1.00  0.00    -0.315 N 
ATOM      7  H   UNL A   1      33.395  24.521  26.340  1.00  0.00     0.349 HD
BRANCH   6   8
ATOM      8  C   UNL A   1      34.059  24.699  24.554  1.00  0.00     0.291 C 
BRANCH   8   9
ATOM      9  C   UNL A   1      34.032  26.164  24.879  1.00  0.00     0.025 C 
ATOM     10  C   UNL A   1      33.773  27.107  23.960  1.00  0.00     0.010 C 
ENDBRANCH   8   9
ENDBRANCH   6   8
BRANCH   6  11
ATOM     11  C   UNL A   1      32.376  23.129  25.481  1.00  0.00     0.364 C 
BRANCH  11  12
ATOM     12  C   UNL A   1      31.262  23.464  26.482  1.00  0.00     0.280 C 
ATOM     13  O   UNL A   1      31.255  22.957  27.611  1.00  0.00    -0.268 OA
ATOM     14  N   UNL A   1      30.260  24.336  26.161  1.00  0.00    -0.303 N 
ATOM     15  H   UNL A   1      29.443  24.297  26.708  1.00  0.00     0.171 HD
BRANCH  14  16
ATOM     16  C   UNL A   1      30.286  25.261  25.148  1.00  0.00     0.176 A 
ATOM     17  C   UNL A   1      30.341  26.658  25.327  1.00  0.00     0.095 A 
ATOM     18  N   UNL A   1      30.329  24.937  23.853  1.00  0.00    -0.062 NA
ATOM     19  C   UNL A   1      30.293  27.170  24.056  1.00  0.00     0.135 A 
ATOM     20  O   UNL A   1      30.332  26.142  23.164  1.00  0.00    -0.360 OA
ATOM     21  C   UNL A   1      30.165  28.536  23.516  1.00  0.00     0.091 C 
ENDBRANCH  14  16
ENDBRANCH  11  12
ENDBRANCH   6  11
ENDBRANCH   5   6
ENDBRANCH   3   5
ENDBRANCH   2   3
ENDBRANCH   1   2
BRANCH   1  22
ATOM     22  C   UNL A   1      39.385  22.262  26.370  1.00  0.00     0.275 C 
BRANCH  22  23
ATOM     23  O   UNL A   1      39.358  23.613  26.854  1.00  0.00    -0.458 OA
BRANCH  23  24
ATOM     24  C   UNL A   1      40.524  24.280  26.797  1.00  0.00     0.338 C 
ATOM     25  O   UNL A   1      41.506  24.015  26.104  1.00  0.00    -0.246 OA
BRANCH  24  26
ATOM     26  C   UNL A   1      40.489  25.418  27.717  1.00  0.00     0.060 A 
ATOM     27  C   UNL A   1      41.584  26.279  27.807  1.00  0.00     0.016 A 
ATOM     28  C   UNL A   1      39.394  25.570  28.569  1.00  0.00     0.016 A 
ATOM     29  C   UNL A   1      41.604  27.270  28.786  1.00  0.00     0.010 A 
ATOM     30  C   UNL A   1      39.392  26.602  29.508  1.00  0.00     0.010 A 
ATOM     31  C   UNL A   1      40.505  27.449  29.639  1.00  0.00    -0.014 A 
BRANCH  31  32
ATOM     32  C   UNL A   1      40.500  28.533  30.654  1.00  0.00     0.031 A 
ATOM     33  C   UNL A   1      41.435  28.485  31.831  1.00  0.00     0.074 A 
ATOM     34  C   UNL A   1      39.622  29.547  30.530  1.00  0.00     0.049 A 
ATOM     35  N   UNL A   1      41.459  29.242  32.898  1.00  0.00    -0.248 NA
ATOM     36  C   UNL A   1      42.475  27.443  31.812  1.00  0.00     0.031 C 
ATOM     37  C   UNL A   1      38.682  29.719  29.420  1.00  0.00     0.029 A 
ATOM     38  N   UNL A   1      39.368  30.616  31.350  1.00  0.00    -0.354 N 
ATOM     39  C   UNL A   1      42.486  28.749  33.693  1.00  0.00     0.074 A 
ATOM     40  C   UNL A   1      43.065  27.625  32.987  1.00  0.00     0.031 C 
ATOM     41  C   UNL A   1      37.961  30.831  29.623  1.00  0.00     0.029 A 
ATOM     42  C   UNL A   1      38.339  31.412  30.906  1.00  0.00     0.049 A 
ATOM     43  H   UNL A   1      39.872  30.796  32.176  1.00  0.00     0.167 HD
ATOM     44  C   UNL A   1      42.901  29.193  34.904  1.00  0.00     0.037 A 
ATOM     45  C   UNL A   1      37.736  32.467  31.485  1.00  0.00     0.037 A 
ATOM     46  C   UNL A   1      42.337  30.331  35.587  1.00  0.00     0.049 A 
ATOM     47  C   UNL A   1      38.193  32.921  32.840  1.00  0.00     0.074 A 
ATOM     48  C   UNL A   1      42.709  30.877  36.804  1.00  0.00     0.029 A 
ATOM     49  N   UNL A   1      41.287  31.101  35.110  1.00  0.00    -0.354 N 
ATOM     50  N   UNL A   1      39.148  32.427  33.592  1.00  0.00    -0.248 NA
ATOM     51  C   UNL A   1      37.483  34.062  33.432  1.00  0.00     0.031 C 
ATOM     52  C   UNL A   1      41.862  31.957  37.077  1.00  0.00     0.029 A 
ATOM     53  C   UNL A   1      40.987  32.107  36.015  1.00  0.00     0.049 A 
ATOM     54  H   UNL A   1      40.824  30.955  34.254  1.00  0.00     0.167 HD
ATOM     55  C   UNL A   1      39.157  33.202  34.745  1.00  0.00     0.074 A 
ATOM     56  C   UNL A   1      38.124  34.206  34.584  1.00  0.00     0.031 C 
ATOM     57  C   UNL A   1      39.949  33.089  35.840  1.00  0.00     0.037 A 
BRANCH  44  58
ATOM     58  C   UNL A   1      44.002  28.434  35.591  1.00  0.00     0.058 A 
ATOM     59  C   UNL A   1      43.734  27.377  36.472  1.00  0.00     0.135 A 
ATOM     60  C   UNL A   1      45.347  28.738  35.320  1.00  0.00     0.135 A 
ATOM     61  F   UNL A   1      42.467  27.057  36.778  1.00  0.00    -0.206 F 
ATOM     62  C   UNL A   1      44.761  26.655  37.074  1.00  0.00     0.059 A 
ATOM     63  C   UNL A   1      46.389  28.019  35.896  1.00  0.00     0.059 A 
ATOM     64  F   UNL A   1      45.657  29.742  34.486  1.00  0.00    -0.206 F 
ATOM     65  C   UNL A   1      46.086  26.986  36.782  1.00  0.00     0.060 A 
BRANCH  65  66
ATOM     66  S   UNL A   1      47.410  26.038  37.565  1.00  0.00     0.124 S 
ATOM     67  O   UNL A   1      46.815  25.730  38.862  1.00  0.00    -0.237 OA
ATOM     68  O   UNL A   1      47.568  24.907  36.656  1.00  0.00    -0.237 OA
ATOM     69  O   UNL A   1      48.527  26.977  37.593  1.00  0.00    -0.744 OA
ENDBRANCH  65  66
ENDBRANCH  44  58
BRANCH  45  70
ATOM     70  C   UNL A   1      36.611  33.139  30.787  1.00  0.00     0.058 A 
ATOM     71  C   UNL A   1      35.284  32.908  31.172  1.00  0.00     0.135 A 
ATOM     72  C   UNL A   1      36.847  34.065  29.758  1.00  0.00     0.135 A 
ATOM     73  F   UNL A   1      35.013  32.026  32.146  1.00  0.00    -0.206 F 
ATOM     74  C   UNL A   1      34.225  33.575  30.565  1.00  0.00     0.059 A 
ATOM     75  C   UNL A   1      35.807  34.760  29.151  1.00  0.00     0.059 A 
ATOM     76  F   UNL A   1      38.103  34.329  29.365  1.00  0.00    -0.206 F 
ATOM     77  C   UNL A   1      34.498  34.504  29.559  1.00  0.00     0.060 A 
BRANCH  77  78
ATOM     78  S   UNL A   1      33.128  35.428  28.830  1.00  0.00     0.124 S 
ATOM     79  O   UNL A   1      32.433  35.906  30.020  1.00  0.00    -0.237 OA
ATOM     80  O   UNL A   1      33.820  36.444  28.043  1.00  0.00    -0.237 OA
ATOM     81  O   UNL A   1      32.425  34.416  28.049  1.00  0.00    -0.744 OA
ENDBRANCH  77  78
ENDBRANCH  45  70
BRANCH  57  82
ATOM     82  C   UNL A   1      39.734  34.089  36.938  1.00  0.00     0.058 A 
ATOM     83  C   UNL A   1      39.036  33.750  38.108  1.00  0.00     0.135 A 
ATOM     84  C   UNL A   1      40.248  35.390  36.829  1.00  0.00     0.135 A 
ATOM     85  F   UNL A   1      38.518  32.521  38.253  1.00  0.00    -0.206 F 
ATOM     86  C   UNL A   1      38.835  34.677  39.125  1.00  0.00     0.059 A 
ATOM     87  C   UNL A   1      40.076  36.328  37.843  1.00  0.00     0.059 A 
ATOM     88  F   UNL A   1      40.929  35.759  35.732  1.00  0.00    -0.206 F 
ATOM     89  C   UNL A   1      39.356  35.965  38.982  1.00  0.00     0.060 A 
BRANCH  89  90
ATOM     90  S   UNL A   1      39.105  37.159  40.312  1.00  0.00     0.124 S 
ATOM     91  O   UNL A   1      38.562  38.300  39.582  1.00  0.00    -0.237 OA
ATOM     92  O   UNL A   1      38.168  36.463  41.190  1.00  0.00    -0.237 OA
ATOM     93  O   UNL A   1      40.446  37.341  40.859  1.00  0.00    -0.744 OA
ENDBRANCH  89  90
ENDBRANCH  57  82
ENDBRANCH  31  32
ENDBRANCH  24  26
ENDBRANCH  23  24
ENDBRANCH  22  23
ENDBRANCH   1  22
TORSDOF 20
ENDMDL
MODEL 3
REMARK VINA RESULT:     -10.1      5.071     10.360
REMARK SMILES C=CC[N@@H+](CC(=O)Nc1cc(C)on1)CC(=O)OCCOC(=O)c1ccc(-c2c3nc(c(-c4c(F)cc(S(=O)(=O)[O-])cc4F)c4ccc([nH]4)c(-c4c(F)cc(S(=O)(=O)[O-])cc4F)c4nc(c(-c5c(F)cc(S(=O)(=O)[O-])cc5F)c5ccc2[nH]5)C=C4)C=C3)cc1
REMARK SMILES IDX 19 1 18 2 16 3 17 4 15 5 4 6 3 8 2 9 1 10 5 11 6 12 7 13
REMARK SMILES IDX 8 14 9 16 10 17 14 18 11 19 13 20 12 21 20 22 21 23 22 24
REMARK SMILES IDX 23 25 24 26 25 27 89 28 26 29 88 30 27 31 28 32 29 33 82 34
REMARK SMILES IDX 30 35 87 36 81 37 83 38 31 39 86 40 80 41 79 42 32 44 66 45
REMARK SMILES IDX 45 46 65 47 46 48 49 49 64 50 84 51 47 52 48 53 63 55 85 56
REMARK SMILES IDX 50 57 33 58 34 59 43 60 35 61 36 62 42 63 44 64 37 65 38 66
REMARK SMILES IDX 39 67 40 68 41 69 67 70 68 71 77 72 69 73 70 74 76 75 78 76
REMARK SMILES IDX 71 77 72 78 73 79 74 80 75 81 51 82 52 83 61 84 53 85 54 86
REMARK SMILES IDX 60 87 62 88 55 89 56 90 57 91 58 92 59 93
REMARK H PARENT 4 7 8 15 83 43 49 54
REMARK Flexibility Score: inf
ROOT
ATOM      1  C   UNL A   1      33.128  28.280  25.432  1.00  0.00     0.274 C 
ENDROOT
BRANCH   1   2
ATOM      2  O   UNL A   1      31.785  27.777  25.301  1.00  0.00    -0.458 OA
BRANCH   2   3
ATOM      3  C   UNL A   1      31.477  26.657  25.996  1.00  0.00     0.361 C 
ATOM      4  O   UNL A   1      30.668  26.618  26.919  1.00  0.00    -0.245 OA
BRANCH   3   5
ATOM      5  C   UNL A   1      32.354  25.469  25.626  1.00  0.00     0.387 C 
BRANCH   5   6
ATOM      6  N   UNL A   1      31.845  24.496  24.653  1.00  0.00    -0.315 N 
ATOM      7  H   UNL A   1      31.038  25.054  24.375  1.00  0.00     0.349 HD
BRANCH   6   8
ATOM      8  C   UNL A   1      32.524  24.371  23.381  1.00  0.00     0.291 C 
BRANCH   8   9
ATOM      9  C   UNL A   1      33.555  25.428  23.111  1.00  0.00     0.025 C 
ATOM     10  C   UNL A   1      33.423  26.339  22.134  1.00  0.00     0.010 C 
ENDBRANCH   8   9
ENDBRANCH   6   8
BRANCH   6  11
ATOM     11  C   UNL A   1      31.157  23.293  25.149  1.00  0.00     0.364 C 
BRANCH  11  12
ATOM     12  C   UNL A   1      31.284  22.974  26.644  1.00  0.00     0.280 C 
ATOM     13  O   UNL A   1      30.355  23.224  27.424  1.00  0.00    -0.268 OA
ATOM     14  N   UNL A   1      32.414  22.396  27.152  1.00  0.00    -0.303 N 
ATOM     15  H   UNL A   1      32.556  22.474  28.123  1.00  0.00     0.171 HD
BRANCH  14  16
ATOM     16  C   UNL A   1      33.367  21.717  26.437  1.00  0.00     0.176 A 
ATOM     17  C   UNL A   1      34.748  21.996  26.458  1.00  0.00     0.095 A 
ATOM     18  N   UNL A   1      33.100  20.652  25.676  1.00  0.00    -0.062 NA
ATOM     19  C   UNL A   1      35.292  21.112  25.561  1.00  0.00     0.135 A 
ATOM     20  O   UNL A   1      34.315  20.272  25.122  1.00  0.00    -0.360 OA
ATOM     21  C   UNL A   1      36.640  20.949  24.988  1.00  0.00     0.091 C 
ENDBRANCH  14  16
ENDBRANCH  11  12
ENDBRANCH   6  11
ENDBRANCH   5   6
ENDBRANCH   3   5
ENDBRANCH   2   3
ENDBRANCH   1   2
BRANCH   1  22
ATOM     22  C   UNL A   1      33.146  29.566  26.247  1.00  0.00     0.275 C 
BRANCH  22  23
ATOM     23  O   UNL A   1      33.829  29.331  27.488  1.00  0.00    -0.458 OA
BRANCH  23  24
ATOM     24  C   UNL A   1      34.525  30.371  27.979  1.00  0.00     0.338 C 
ATOM     25  O   UNL A   1      34.125  31.521  28.164  1.00  0.00    -0.246 OA
BRANCH  24  26
ATOM     26  C   UNL A   1      35.896  29.952  28.276  1.00  0.00     0.060 A 
ATOM     27  C   UNL A   1      36.245  29.568  29.572  1.00  0.00     0.016 A 
ATOM     28  C   UNL A   1      36.865  30.039  27.276  1.00  0.00     0.016 A 
ATOM     29  C   UNL A   1      37.579  29.312  29.880  1.00  0.00     0.010 A 
ATOM     30  C   UNL A   1      38.190  29.723  27.574  1.00  0.00     0.010 A 
ATOM     31  C   UNL A   1      38.564  29.377  28.884  1.00  0.00    -0.014 A 
BRANCH  31  32
ATOM     32  C   UNL A   1      39.981  29.060  29.195  1.00  0.00     0.031 A 
ATOM     33  C   UNL A   1      40.890  30.106  29.779  1.00  0.00     0.074 A 
ATOM     34  C   UNL A   1      40.457  27.831  28.916  1.00  0.00     0.049 A 
ATOM     35  N   UNL A   1      42.185  30.069  29.956  1.00  0.00    -0.248 NA
ATOM     36  C   UNL A   1      40.261  31.365  30.212  1.00  0.00     0.031 C 
ATOM     37  C   UNL A   1      39.670  26.723  28.373  1.00  0.00     0.029 A 
ATOM     38  N   UNL A   1      41.721  27.313  29.038  1.00  0.00    -0.354 N 
ATOM     39  C   UNL A   1      42.535  31.305  30.484  1.00  0.00     0.074 A 
ATOM     40  C   UNL A   1      41.313  32.075  30.600  1.00  0.00     0.031 C 
ATOM     41  C   UNL A   1      40.463  25.653  28.217  1.00  0.00     0.029 A 
ATOM     42  C   UNL A   1      41.827  26.019  28.584  1.00  0.00     0.049 A 
ATOM     43  H   UNL A   1      42.478  27.816  29.413  1.00  0.00     0.167 HD
ATOM     44  C   UNL A   1      43.764  31.755  30.834  1.00  0.00     0.037 A 
ATOM     45  C   UNL A   1      42.905  25.228  28.438  1.00  0.00     0.037 A 
ATOM     46  C   UNL A   1      44.970  30.971  30.742  1.00  0.00     0.049 A 
ATOM     47  C   UNL A   1      44.260  25.759  28.804  1.00  0.00     0.074 A 
ATOM     48  C   UNL A   1      46.260  31.328  31.099  1.00  0.00     0.029 A 
ATOM     49  N   UNL A   1      45.036  29.671  30.264  1.00  0.00    -0.354 N 
ATOM     50  N   UNL A   1      44.578  26.941  29.276  1.00  0.00    -0.248 NA
ATOM     51  C   UNL A   1      45.402  24.859  28.602  1.00  0.00     0.031 C 
ATOM     52  C   UNL A   1      47.109  30.255  30.807  1.00  0.00     0.029 A 
ATOM     53  C   UNL A   1      46.345  29.217  30.301  1.00  0.00     0.049 A 
ATOM     54  H   UNL A   1      44.266  29.147  29.946  1.00  0.00     0.167 HD
ATOM     55  C   UNL A   1      45.958  26.924  29.434  1.00  0.00     0.074 A 
ATOM     56  C   UNL A   1      46.411  25.611  29.021  1.00  0.00     0.031 C 
ATOM     57  C   UNL A   1      46.776  27.910  29.878  1.00  0.00     0.037 A 
BRANCH  44  58
ATOM     58  C   UNL A   1      43.880  33.172  31.324  1.00  0.00     0.058 A 
ATOM     59  C   UNL A   1      43.890  34.261  30.442  1.00  0.00     0.135 A 
ATOM     60  C   UNL A   1      43.929  33.442  32.702  1.00  0.00     0.135 A 
ATOM     61  F   UNL A   1      43.861  34.058  29.116  1.00  0.00    -0.206 F 
ATOM     62  C   UNL A   1      43.959  35.572  30.907  1.00  0.00     0.059 A 
ATOM     63  C   UNL A   1      43.981  34.744  33.191  1.00  0.00     0.059 A 
ATOM     64  F   UNL A   1      43.926  32.434  33.588  1.00  0.00    -0.206 F 
ATOM     65  C   UNL A   1      44.008  35.803  32.284  1.00  0.00     0.060 A 
BRANCH  65  66
ATOM     66  S   UNL A   1      44.092  37.507  32.876  1.00  0.00     0.124 S 
ATOM     67  O   UNL A   1      43.973  38.252  31.626  1.00  0.00    -0.237 OA
ATOM     68  O   UNL A   1      42.943  37.587  33.772  1.00  0.00    -0.237 OA
ATOM     69  O   UNL A   1      45.397  37.575  33.526  1.00  0.00    -0.744 OA
ENDBRANCH  65  66
ENDBRANCH  44  58
BRANCH  45  70
ATOM     70  C   UNL A   1      42.738  23.859  27.890  1.00  0.00     0.058 A 
ATOM     71  C   UNL A   1      42.636  22.750  28.741  1.00  0.00     0.135 A 
ATOM     72  C   UNL A   1      42.621  23.641  26.507  1.00  0.00     0.135 A 
ATOM     73  F   UNL A   1      42.748  22.911  30.067  1.00  0.00    -0.206 F 
ATOM     74  C   UNL A   1      42.420  21.470  28.241  1.00  0.00     0.059 A 
ATOM     75  C   UNL A   1      42.384  22.374  25.987  1.00  0.00     0.059 A 
ATOM     76  F   UNL A   1      42.698  24.675  25.655  1.00  0.00    -0.206 F 
ATOM     77  C   UNL A   1      42.289  21.293  26.863  1.00  0.00     0.060 A 
BRANCH  77  78
ATOM     78  S   UNL A   1      41.927  19.643  26.225  1.00  0.00     0.124 S 
ATOM     79  O   UNL A   1      42.419  18.797  27.305  1.00  0.00    -0.237 OA
ATOM     80  O   UNL A   1      40.477  19.685  26.055  1.00  0.00    -0.237 OA
ATOM     81  O   UNL A   1      42.692  19.593  24.982  1.00  0.00    -0.744 OA
ENDBRANCH  77  78
ENDBRANCH  45  70
BRANCH  57  82
ATOM     82  C   UNL A   1      48.241  27.594  29.953  1.00  0.00     0.058 A 
ATOM     83  C   UNL A   1      49.070  27.703  28.826  1.00  0.00     0.135 A 
ATOM     84  C   UNL A   1      48.824  27.199  31.166  1.00  0.00     0.135 A 
ATOM     85  F   UNL A   1      48.555  28.068  27.641  1.00  0.00    -0.206 F 
ATOM     86  C   UNL A   1      50.427  27.408  28.894  1.00  0.00     0.059 A 
ATOM     87  C   UNL A   1      50.183  26.918  31.262  1.00  0.00     0.059 A 
ATOM     88  F   UNL A   1      48.073  27.087  32.273  1.00  0.00    -0.206 F 
ATOM     89  C   UNL A   1      50.974  27.012  30.117  1.00  0.00     0.060 A 
BRANCH  89  90
ATOM     90  S   UNL A   1      52.740  26.646  30.203  1.00  0.00     0.124 S 
ATOM     91  O   UNL A   1      53.274  27.902  30.719  1.00  0.00    -0.237 OA
ATOM     92  O   UNL A   1      52.783  25.513  31.123  1.00  0.00    -0.237 OA
ATOM     93  O   UNL A   1      53.087  26.333  28.821  1.00  0.00    -0.744 OA
ENDBRANCH  89  90
ENDBRANCH  57  82
ENDBRANCH  31  32
ENDBRANCH  24  26
ENDBRANCH  23  24
ENDBRANCH  22  23
ENDBRANCH   1  22
TORSDOF 20
ENDMDL
