MODEL 1
REMARK VINA RESULT:     -10.9      0.000      0.000
REMARK SMILES O=C(OCCOC(=O)[C@H](c1ccccc1)N1C(=O)/C(=C\c2ccc(Br)cc2)SC1=S)c1ccc(-c2c3nc(c(-c4c(F)cc(S(=O)(=O)[O-])cc4F)c4ccc([nH]4)c(-c4c(F)cc(S(=O)(=O)[O-])cc4F)c4nc(c(-c5c(F)cc(S(=O)(=O)[O-])cc5F)c5ccc2[nH]5)C=C4)C=C3)cc1
REMARK SMILES IDX 4 1 3 2 2 3 1 4 31 5 32 6 96 7 33 8 95 9 34 10 35 11 36 12
REMARK SMILES IDX 89 13 37 14 94 15 88 16 90 17 38 18 93 19 87 20 86 21 39 23
REMARK SMILES IDX 73 24 52 25 72 26 53 27 56 28 71 29 91 30 54 31 55 32 70 34
REMARK SMILES IDX 92 35 57 36 40 37 41 38 50 39 42 40 43 41 49 42 51 43 44 44
REMARK SMILES IDX 45 45 46 46 47 47 48 48 74 49 75 50 84 51 76 52 77 53 83 54
REMARK SMILES IDX 85 55 78 56 79 57 80 58 81 59 82 60 58 61 59 62 68 63 60 64
REMARK SMILES IDX 61 65 67 66 69 67 62 68 63 69 64 70 65 71 66 72 5 73 6 74
REMARK SMILES IDX 7 75 8 76 9 77 16 78 17 79 29 80 18 81 19 82 28 83 30 84
REMARK SMILES IDX 20 85 21 86 22 87 27 88 23 89 26 90 24 91 25 92 10 93 11 94
REMARK SMILES IDX 15 95 12 96 14 97 13 98
REMARK H PARENT 90 22 56 33
REMARK Flexibility Score: inf
ROOT
ATOM      1  C   UNL A   1      37.349  21.994  24.545  1.00  0.00     0.275 C 
ENDROOT
BRANCH   1   2
ATOM      2  O   UNL A   1      37.769  23.025  25.450  1.00  0.00    -0.458 OA
BRANCH   2   3
ATOM      3  C   UNL A   1      39.004  23.099  26.010  1.00  0.00     0.338 C 
ATOM      4  O   UNL A   1      39.683  22.086  26.148  1.00  0.00    -0.246 OA
BRANCH   3   5
ATOM      5  C   UNL A   1      39.411  24.348  26.715  1.00  0.00     0.060 A 
ATOM      6  C   UNL A   1      40.211  25.359  26.173  1.00  0.00     0.016 A 
ATOM      7  C   UNL A   1      38.967  24.486  28.034  1.00  0.00     0.016 A 
ATOM      8  C   UNL A   1      40.471  26.530  26.892  1.00  0.00     0.010 A 
ATOM      9  C   UNL A   1      39.229  25.652  28.756  1.00  0.00     0.010 A 
ATOM     10  C   UNL A   1      39.975  26.690  28.187  1.00  0.00    -0.014 A 
BRANCH  10  11
ATOM     11  C   UNL A   1      40.373  27.862  29.002  1.00  0.00     0.031 A 
ATOM     12  C   UNL A   1      41.720  27.838  29.665  1.00  0.00     0.074 A 
ATOM     13  C   UNL A   1      39.559  28.926  29.142  1.00  0.00     0.049 A 
ATOM     14  N   UNL A   1      42.278  28.732  30.436  1.00  0.00    -0.248 NA
ATOM     15  C   UNL A   1      42.544  26.639  29.436  1.00  0.00     0.031 C 
ATOM     16  C   UNL A   1      38.234  29.063  28.538  1.00  0.00     0.029 A 
ATOM     17  N   UNL A   1      39.722  30.095  29.844  1.00  0.00    -0.354 N 
ATOM     18  C   UNL A   1      43.515  28.204  30.782  1.00  0.00     0.074 A 
ATOM     19  C   UNL A   1      43.595  26.883  30.202  1.00  0.00     0.031 C 
ATOM     20  C   UNL A   1      37.698  30.239  28.910  1.00  0.00     0.029 A 
ATOM     21  C   UNL A   1      38.634  30.935  29.784  1.00  0.00     0.049 A 
ATOM     22  H   UNL A   1      40.542  30.311  30.343  1.00  0.00     0.167 HD
ATOM     23  C   UNL A   1      44.515  28.785  31.482  1.00  0.00     0.037 A 
ATOM     24  C   UNL A   1      38.420  32.130  30.371  1.00  0.00     0.037 A 
ATOM     25  C   UNL A   1      44.442  30.111  32.023  1.00  0.00     0.049 A 
ATOM     26  C   UNL A   1      39.533  32.745  31.180  1.00  0.00     0.074 A 
ATOM     27  C   UNL A   1      45.412  30.818  32.709  1.00  0.00     0.029 A 
ATOM     28  N   UNL A   1      43.328  30.934  31.933  1.00  0.00    -0.354 N 
ATOM     29  N   UNL A   1      40.726  32.260  31.435  1.00  0.00    -0.248 NA
ATOM     30  C   UNL A   1      39.288  34.075  31.755  1.00  0.00     0.031 C 
ATOM     31  C   UNL A   1      44.875  32.064  33.054  1.00  0.00     0.029 A 
ATOM     32  C   UNL A   1      43.582  32.141  32.557  1.00  0.00     0.049 A 
ATOM     33  H   UNL A   1      42.483  30.693  31.490  1.00  0.00     0.167 HD
ATOM     34  C   UNL A   1      41.387  33.242  32.162  1.00  0.00     0.074 A 
ATOM     35  C   UNL A   1      40.462  34.348  32.309  1.00  0.00     0.031 C 
ATOM     36  C   UNL A   1      42.649  33.235  32.658  1.00  0.00     0.037 A 
BRANCH  23  37
ATOM     37  C   UNL A   1      45.763  27.974  31.672  1.00  0.00     0.058 A 
ATOM     38  C   UNL A   1      45.968  27.214  32.837  1.00  0.00     0.135 A 
ATOM     39  C   UNL A   1      46.789  28.001  30.716  1.00  0.00     0.135 A 
ATOM     40  F   UNL A   1      45.027  27.175  33.793  1.00  0.00    -0.206 F 
ATOM     41  C   UNL A   1      47.168  26.554  33.070  1.00  0.00     0.059 A 
ATOM     42  C   UNL A   1      47.989  27.326  30.918  1.00  0.00     0.059 A 
ATOM     43  F   UNL A   1      46.644  28.715  29.589  1.00  0.00    -0.206 F 
ATOM     44  C   UNL A   1      48.178  26.627  32.110  1.00  0.00     0.060 A 
BRANCH  44  45
ATOM     45  S   UNL A   1      49.750  25.809  32.449  1.00  0.00     0.124 S 
ATOM     46  O   UNL A   1      49.360  24.849  33.478  1.00  0.00    -0.237 OA
ATOM     47  O   UNL A   1      50.094  25.238  31.150  1.00  0.00    -0.237 OA
ATOM     48  O   UNL A   1      50.610  26.899  32.899  1.00  0.00    -0.744 OA
ENDBRANCH  44  45
ENDBRANCH  23  37
BRANCH  24  49
ATOM     49  C   UNL A   1      37.124  32.845  30.199  1.00  0.00     0.058 A 
ATOM     50  C   UNL A   1      36.894  33.673  29.090  1.00  0.00     0.135 A 
ATOM     51  C   UNL A   1      36.102  32.740  31.156  1.00  0.00     0.135 A 
ATOM     52  F   UNL A   1      37.840  33.811  28.150  1.00  0.00    -0.206 F 
ATOM     53  C   UNL A   1      35.712  34.396  28.950  1.00  0.00     0.059 A 
ATOM     54  C   UNL A   1      34.902  33.437  31.027  1.00  0.00     0.059 A 
ATOM     55  F   UNL A   1      36.269  31.958  32.233  1.00  0.00    -0.206 F 
ATOM     56  C   UNL A   1      34.722  34.275  29.928  1.00  0.00     0.060 A 
BRANCH  56  57
ATOM     57  S   UNL A   1      33.190  35.214  29.729  1.00  0.00     0.124 S 
ATOM     58  O   UNL A   1      33.699  36.543  29.412  1.00  0.00    -0.237 OA
ATOM     59  O   UNL A   1      32.537  34.504  28.632  1.00  0.00    -0.237 OA
ATOM     60  O   UNL A   1      32.540  35.079  31.028  1.00  0.00    -0.744 OA
ENDBRANCH  56  57
ENDBRANCH  24  49
BRANCH  36  61
ATOM     61  C   UNL A   1      43.124  34.470  33.364  1.00  0.00     0.058 A 
ATOM     62  C   UNL A   1      43.099  34.570  34.762  1.00  0.00     0.135 A 
ATOM     63  C   UNL A   1      43.709  35.518  32.635  1.00  0.00     0.135 A 
ATOM     64  F   UNL A   1      42.541  33.597  35.499  1.00  0.00    -0.206 F 
ATOM     65  C   UNL A   1      43.644  35.669  35.417  1.00  0.00     0.059 A 
ATOM     66  C   UNL A   1      44.280  36.615  33.270  1.00  0.00     0.059 A 
ATOM     67  F   UNL A   1      43.762  35.462  31.295  1.00  0.00    -0.206 F 
ATOM     68  C   UNL A   1      44.241  36.681  34.663  1.00  0.00     0.060 A 
BRANCH  68  69
ATOM     69  S   UNL A   1      45.025  38.057  35.527  1.00  0.00     0.124 S 
ATOM     70  O   UNL A   1      44.022  38.380  36.538  1.00  0.00    -0.237 OA
ATOM     71  O   UNL A   1      46.256  37.453  36.027  1.00  0.00    -0.237 OA
ATOM     72  O   UNL A   1      45.207  39.057  34.479  1.00  0.00    -0.744 OA
ENDBRANCH  68  69
ENDBRANCH  36  61
ENDBRANCH  10  11
ENDBRANCH   3   5
ENDBRANCH   2   3
ENDBRANCH   1   2
BRANCH   1  73
ATOM     73  C   UNL A   1      36.869  22.518  23.189  1.00  0.00     0.274 C 
BRANCH  73  74
ATOM     74  O   UNL A   1      36.185  23.784  23.251  1.00  0.00    -0.460 OA
BRANCH  74  75
ATOM     75  C   UNL A   1      34.824  23.705  23.109  1.00  0.00     0.334 C 
ATOM     76  O   UNL A   1      34.296  23.370  22.056  1.00  0.00    -0.249 OA
BRANCH  75  77
ATOM     77  C   UNL A   1      34.073  24.170  24.390  1.00  0.00     0.232 C 
BRANCH  77  78
ATOM     78  N   UNL A   1      32.757  24.726  24.006  1.00  0.00    -0.274 N 
ATOM     79  C   UNL A   1      32.634  26.084  23.797  1.00  0.00     0.267 C 
ATOM     80  C   UNL A   1      31.635  24.000  23.664  1.00  0.00     0.149 C 
ATOM     81  O   UNL A   1      33.520  26.874  23.522  1.00  0.00    -0.268 OA
ATOM     82  C   UNL A   1      31.198  26.450  23.816  1.00  0.00     0.081 C 
ATOM     83  S   UNL A   1      30.304  25.094  23.256  1.00  0.00    -0.054 SA
ATOM     84  S   UNL A   1      31.430  22.352  23.619  1.00  0.00    -0.052 S 
ATOM     85  C   UNL A   1      30.637  27.503  24.426  1.00  0.00     0.029 C 
BRANCH  85  86
ATOM     86  C   UNL A   1      31.358  28.410  25.330  1.00  0.00    -0.024 A 
ATOM     87  C   UNL A   1      31.941  27.856  26.479  1.00  0.00     0.009 A 
ATOM     88  C   UNL A   1      31.548  29.769  25.064  1.00  0.00     0.009 A 
ATOM     89  C   UNL A   1      32.745  28.632  27.316  1.00  0.00     0.016 A 
ATOM     90  C   UNL A   1      32.373  30.543  25.885  1.00  0.00     0.016 A 
ATOM     91  C   UNL A   1      32.972  29.971  27.003  1.00  0.00     0.018 A 
ATOM     92  Br  UNL A   1      34.113  31.008  28.095  1.00  0.00    -0.051 Br
ENDBRANCH  85  86
ENDBRANCH  77  78
BRANCH  77  93
ATOM     93  C   UNL A   1      33.957  23.138  25.505  1.00  0.00    -0.014 A 
ATOM     94  C   UNL A   1      34.080  21.759  25.279  1.00  0.00     0.006 A 
ATOM     95  C   UNL A   1      33.678  23.569  26.817  1.00  0.00     0.006 A 
ATOM     96  C   UNL A   1      33.942  20.844  26.327  1.00  0.00     0.000 A 
ATOM     97  C   UNL A   1      33.548  22.654  27.865  1.00  0.00     0.000 A 
ATOM     98  C   UNL A   1      33.683  21.291  27.619  1.00  0.00     0.000 A 
ENDBRANCH  77  93
ENDBRANCH  75  77
ENDBRANCH  74  75
ENDBRANCH  73  74
ENDBRANCH   1  73
TORSDOF 17
ENDMDL
MODEL 2
REMARK VINA RESULT:     -10.8      1.914      2.561
REMARK SMILES O=C(OCCOC(=O)[C@H](c1ccccc1)N1C(=O)/C(=C\c2ccc(Br)cc2)SC1=S)c1ccc(-c2c3nc(c(-c4c(F)cc(S(=O)(=O)[O-])cc4F)c4ccc([nH]4)c(-c4c(F)cc(S(=O)(=O)[O-])cc4F)c4nc(c(-c5c(F)cc(S(=O)(=O)[O-])cc5F)c5ccc2[nH]5)C=C4)C=C3)cc1
REMARK SMILES IDX 4 1 3 2 2 3 1 4 31 5 32 6 96 7 33 8 95 9 34 10 35 11 36 12
REMARK SMILES IDX 89 13 37 14 94 15 88 16 90 17 38 18 93 19 87 20 86 21 39 23
REMARK SMILES IDX 73 24 52 25 72 26 53 27 56 28 71 29 91 30 54 31 55 32 70 34
REMARK SMILES IDX 92 35 57 36 40 37 41 38 50 39 42 40 43 41 49 42 51 43 44 44
REMARK SMILES IDX 45 45 46 46 47 47 48 48 74 49 75 50 84 51 76 52 77 53 83 54
REMARK SMILES IDX 85 55 78 56 79 57 80 58 81 59 82 60 58 61 59 62 68 63 60 64
REMARK SMILES IDX 61 65 67 66 69 67 62 68 63 69 64 70 65 71 66 72 5 73 6 74
REMARK SMILES IDX 7 75 8 76 9 77 16 78 17 79 29 80 18 81 19 82 28 83 30 84
REMARK SMILES IDX 20 85 21 86 22 87 27 88 23 89 26 90 24 91 25 92 10 93 11 94
REMARK SMILES IDX 15 95 12 96 14 97 13 98
REMARK H PARENT 90 22 56 33
REMARK Flexibility Score: inf
ROOT
ATOM      1  C   UNL A   1      37.224  21.879  24.309  1.00  0.00     0.275 C 
ENDROOT
BRANCH   1   2
ATOM      2  O   UNL A   1      37.558  22.773  25.381  1.00  0.00    -0.458 OA
BRANCH   2   3
ATOM      3  C   UNL A   1      38.722  22.735  26.079  1.00  0.00     0.338 C 
ATOM      4  O   UNL A   1      39.148  21.670  26.515  1.00  0.00    -0.246 OA
BRANCH   3   5
ATOM      5  C   UNL A   1      39.326  24.011  26.558  1.00  0.00     0.060 A 
ATOM      6  C   UNL A   1      40.052  24.909  25.770  1.00  0.00     0.016 A 
ATOM      7  C   UNL A   1      39.164  24.298  27.918  1.00  0.00     0.016 A 
ATOM      8  C   UNL A   1      40.511  26.119  26.301  1.00  0.00     0.010 A 
ATOM      9  C   UNL A   1      39.625  25.503  28.451  1.00  0.00     0.010 A 
ATOM     10  C   UNL A   1      40.294  26.430  27.644  1.00  0.00    -0.014 A 
BRANCH  10  11
ATOM     11  C   UNL A   1      40.907  27.639  28.242  1.00  0.00     0.031 A 
ATOM     12  C   UNL A   1      42.406  27.715  28.306  1.00  0.00     0.074 A 
ATOM     13  C   UNL A   1      40.149  28.650  28.708  1.00  0.00     0.049 A 
ATOM     14  N   UNL A   1      43.166  28.657  28.796  1.00  0.00    -0.248 NA
ATOM     15  C   UNL A   1      43.146  26.569  27.751  1.00  0.00     0.031 C 
ATOM     16  C   UNL A   1      38.687  28.690  28.691  1.00  0.00     0.029 A 
ATOM     17  N   UNL A   1      40.503  29.840  29.297  1.00  0.00    -0.354 N 
ATOM     18  C   UNL A   1      44.469  28.217  28.608  1.00  0.00     0.074 A 
ATOM     19  C   UNL A   1      44.397  26.894  28.032  1.00  0.00     0.031 C 
ATOM     20  C   UNL A   1      38.270  29.836  29.259  1.00  0.00     0.029 A 
ATOM     21  C   UNL A   1      39.429  30.606  29.690  1.00  0.00     0.049 A 
ATOM     22  H   UNL A   1      41.438  30.118  29.426  1.00  0.00     0.167 HD
ATOM     23  C   UNL A   1      45.625  28.874  28.852  1.00  0.00     0.037 A 
ATOM     24  C   UNL A   1      39.390  31.795  30.324  1.00  0.00     0.037 A 
ATOM     25  C   UNL A   1      45.689  30.202  29.390  1.00  0.00     0.049 A 
ATOM     26  C   UNL A   1      40.691  32.495  30.623  1.00  0.00     0.074 A 
ATOM     27  C   UNL A   1      46.803  30.982  29.634  1.00  0.00     0.029 A 
ATOM     28  N   UNL A   1      44.580  30.949  29.765  1.00  0.00    -0.354 N 
ATOM     29  N   UNL A   1      41.916  32.094  30.371  1.00  0.00    -0.248 NA
ATOM     30  C   UNL A   1      40.611  33.816  31.261  1.00  0.00     0.031 C 
ATOM     31  C   UNL A   1      46.368  32.196  30.179  1.00  0.00     0.029 A 
ATOM     32  C   UNL A   1      44.983  32.181  30.246  1.00  0.00     0.049 A 
ATOM     33  H   UNL A   1      43.646  30.646  29.697  1.00  0.00     0.167 HD
ATOM     34  C   UNL A   1      42.747  33.129  30.780  1.00  0.00     0.074 A 
ATOM     35  C   UNL A   1      41.887  34.175  31.298  1.00  0.00     0.031 C 
ATOM     36  C   UNL A   1      44.099  33.214  30.725  1.00  0.00     0.037 A 
BRANCH  23  37
ATOM     37  C   UNL A   1      46.896  28.149  28.514  1.00  0.00     0.058 A 
ATOM     38  C   UNL A   1      47.443  28.202  27.220  1.00  0.00     0.135 A 
ATOM     39  C   UNL A   1      47.541  27.349  29.469  1.00  0.00     0.135 A 
ATOM     40  F   UNL A   1      46.848  28.934  26.265  1.00  0.00    -0.206 F 
ATOM     41  C   UNL A   1      48.552  27.443  26.871  1.00  0.00     0.059 A 
ATOM     42  C   UNL A   1      48.669  26.601  29.147  1.00  0.00     0.059 A 
ATOM     43  F   UNL A   1      47.056  27.262  30.717  1.00  0.00    -0.206 F 
ATOM     44  C   UNL A   1      49.152  26.635  27.838  1.00  0.00     0.060 A 
BRANCH  44  45
ATOM     45  S   UNL A   1      50.560  25.615  27.358  1.00  0.00     0.124 S 
ATOM     46  O   UNL A   1      50.114  24.290  27.779  1.00  0.00    -0.237 OA
ATOM     47  O   UNL A   1      50.628  25.831  25.916  1.00  0.00    -0.237 OA
ATOM     48  O   UNL A   1      51.665  26.180  28.126  1.00  0.00    -0.744 OA
ENDBRANCH  44  45
ENDBRANCH  23  37
BRANCH  24  49
ATOM     49  C   UNL A   1      38.091  32.420  30.697  1.00  0.00     0.058 A 
ATOM     50  C   UNL A   1      37.397  33.242  29.796  1.00  0.00     0.135 A 
ATOM     51  C   UNL A   1      37.532  32.236  31.971  1.00  0.00     0.135 A 
ATOM     52  F   UNL A   1      37.892  33.456  28.568  1.00  0.00    -0.206 F 
ATOM     53  C   UNL A   1      36.214  33.884  30.154  1.00  0.00     0.059 A 
ATOM     54  C   UNL A   1      36.338  32.849  32.345  1.00  0.00     0.059 A 
ATOM     55  F   UNL A   1      38.152  31.455  32.869  1.00  0.00    -0.206 F 
ATOM     56  C   UNL A   1      35.694  33.685  31.434  1.00  0.00     0.060 A 
BRANCH  56  57
ATOM     57  S   UNL A   1      34.153  34.518  31.880  1.00  0.00     0.124 S 
ATOM     58  O   UNL A   1      34.648  35.763  32.456  1.00  0.00    -0.237 OA
ATOM     59  O   UNL A   1      33.483  34.636  30.588  1.00  0.00    -0.237 OA
ATOM     60  O   UNL A   1      33.528  33.593  32.819  1.00  0.00    -0.744 OA
ENDBRANCH  56  57
ENDBRANCH  24  49
BRANCH  36  61
ATOM     61  C   UNL A   1      44.734  34.489  31.192  1.00  0.00     0.058 A 
ATOM     62  C   UNL A   1      44.929  35.572  30.323  1.00  0.00     0.135 A 
ATOM     63  C   UNL A   1      45.050  34.663  32.549  1.00  0.00     0.135 A 
ATOM     64  F   UNL A   1      44.649  35.448  29.016  1.00  0.00    -0.206 F 
ATOM     65  C   UNL A   1      45.413  36.790  30.785  1.00  0.00     0.059 A 
ATOM     66  C   UNL A   1      45.515  35.879  33.036  1.00  0.00     0.059 A 
ATOM     67  F   UNL A   1      44.874  33.656  33.419  1.00  0.00    -0.206 F 
ATOM     68  C   UNL A   1      45.694  36.937  32.145  1.00  0.00     0.060 A 
BRANCH  68  69
ATOM     69  S   UNL A   1      46.236  38.549  32.748  1.00  0.00     0.124 S 
ATOM     70  O   UNL A   1      46.555  39.238  31.502  1.00  0.00    -0.237 OA
ATOM     71  O   UNL A   1      45.054  39.033  33.454  1.00  0.00    -0.237 OA
ATOM     72  O   UNL A   1      47.377  38.227  33.599  1.00  0.00    -0.744 OA
ENDBRANCH  68  69
ENDBRANCH  36  61
ENDBRANCH  10  11
ENDBRANCH   3   5
ENDBRANCH   2   3
ENDBRANCH   1   2
BRANCH   1  73
ATOM     73  C   UNL A   1      36.778  22.587  23.027  1.00  0.00     0.274 C 
BRANCH  73  74
ATOM     74  O   UNL A   1      36.107  23.843  23.246  1.00  0.00    -0.460 OA
BRANCH  74  75
ATOM     75  C   UNL A   1      34.740  23.781  23.163  1.00  0.00     0.334 C 
ATOM     76  O   UNL A   1      34.163  23.465  22.129  1.00  0.00    -0.249 OA
BRANCH  75  77
ATOM     77  C   UNL A   1      34.051  24.237  24.480  1.00  0.00     0.232 C 
BRANCH  77  78
ATOM     78  N   UNL A   1      32.761  24.885  24.155  1.00  0.00    -0.274 N 
ATOM     79  C   UNL A   1      32.722  26.252  23.971  1.00  0.00     0.267 C 
ATOM     80  C   UNL A   1      31.583  24.241  23.843  1.00  0.00     0.149 C 
ATOM     81  O   UNL A   1      33.649  26.986  23.676  1.00  0.00    -0.268 OA
ATOM     82  C   UNL A   1      31.315  26.711  24.051  1.00  0.00     0.081 C 
ATOM     83  S   UNL A   1      30.313  25.427  23.502  1.00  0.00    -0.054 SA
ATOM     84  S   UNL A   1      31.267  22.611  23.781  1.00  0.00    -0.052 S 
ATOM     85  C   UNL A   1      30.848  27.788  24.697  1.00  0.00     0.029 C 
BRANCH  85  86
ATOM     86  C   UNL A   1      31.660  28.629  25.587  1.00  0.00    -0.024 A 
ATOM     87  C   UNL A   1      32.288  28.006  26.676  1.00  0.00     0.009 A 
ATOM     88  C   UNL A   1      31.890  29.989  25.361  1.00  0.00     0.009 A 
ATOM     89  C   UNL A   1      33.173  28.717  27.490  1.00  0.00     0.016 A 
ATOM     90  C   UNL A   1      32.796  30.696  26.157  1.00  0.00     0.016 A 
ATOM     91  C   UNL A   1      33.437  30.057  27.214  1.00  0.00     0.018 A 
ATOM     92  Br  UNL A   1      34.685  31.004  28.271  1.00  0.00    -0.051 Br
ENDBRANCH  85  86
ENDBRANCH  77  78
BRANCH  77  93
ATOM     93  C   UNL A   1      33.901  23.169  25.557  1.00  0.00    -0.014 A 
ATOM     94  C   UNL A   1      34.041  21.799  25.292  1.00  0.00     0.006 A 
ATOM     95  C   UNL A   1      33.570  23.555  26.870  1.00  0.00     0.006 A 
ATOM     96  C   UNL A   1      33.871  20.849  26.304  1.00  0.00     0.000 A 
ATOM     97  C   UNL A   1      33.408  22.606  27.883  1.00  0.00     0.000 A 
ATOM     98  C   UNL A   1      33.560  21.253  27.599  1.00  0.00     0.000 A 
ENDBRANCH  77  93
ENDBRANCH  75  77
ENDBRANCH  74  75
ENDBRANCH  73  74
ENDBRANCH   1  73
TORSDOF 17
ENDMDL
MODEL 3
REMARK VINA RESULT:     -10.6      0.933      8.168
REMARK SMILES O=C(OCCOC(=O)[C@H](c1ccccc1)N1C(=O)/C(=C\c2ccc(Br)cc2)SC1=S)c1ccc(-c2c3nc(c(-c4c(F)cc(S(=O)(=O)[O-])cc4F)c4ccc([nH]4)c(-c4c(F)cc(S(=O)(=O)[O-])cc4F)c4nc(c(-c5c(F)cc(S(=O)(=O)[O-])cc5F)c5ccc2[nH]5)C=C4)C=C3)cc1
REMARK SMILES IDX 4 1 3 2 2 3 1 4 31 5 32 6 96 7 33 8 95 9 34 10 35 11 36 12
REMARK SMILES IDX 89 13 37 14 94 15 88 16 90 17 38 18 93 19 87 20 86 21 39 23
REMARK SMILES IDX 73 24 52 25 72 26 53 27 56 28 71 29 91 30 54 31 55 32 70 34
REMARK SMILES IDX 92 35 57 36 40 37 41 38 50 39 42 40 43 41 49 42 51 43 44 44
REMARK SMILES IDX 45 45 46 46 47 47 48 48 74 49 75 50 84 51 76 52 77 53 83 54
REMARK SMILES IDX 85 55 78 56 79 57 80 58 81 59 82 60 58 61 59 62 68 63 60 64
REMARK SMILES IDX 61 65 67 66 69 67 62 68 63 69 64 70 65 71 66 72 5 73 6 74
REMARK SMILES IDX 7 75 8 76 9 77 16 78 17 79 29 80 18 81 19 82 28 83 30 84
REMARK SMILES IDX 20 85 21 86 22 87 27 88 23 89 26 90 24 91 25 92 10 93 11 94
REMARK SMILES IDX 15 95 12 96 14 97 13 98
REMARK H PARENT 90 22 56 33
REMARK Flexibility Score: inf
ROOT
ATOM      1  C   UNL A   1      37.307  22.698  24.529  1.00  0.00     0.275 C 
ENDROOT
BRANCH   1   2
ATOM      2  O   UNL A   1      37.788  23.665  25.473  1.00  0.00    -0.458 OA
BRANCH   2   3
ATOM      3  C   UNL A   1      38.969  23.570  26.135  1.00  0.00     0.338 C 
ATOM      4  O   UNL A   1      39.517  22.481  26.270  1.00  0.00    -0.246 OA
BRANCH   3   5
ATOM      5  C   UNL A   1      39.449  24.731  26.939  1.00  0.00     0.060 A 
ATOM      6  C   UNL A   1      40.361  25.696  26.502  1.00  0.00     0.016 A 
ATOM      7  C   UNL A   1      38.954  24.825  28.244  1.00  0.00     0.016 A 
ATOM      8  C   UNL A   1      40.687  26.791  27.309  1.00  0.00     0.010 A 
ATOM      9  C   UNL A   1      39.281  25.915  29.053  1.00  0.00     0.010 A 
ATOM     10  C   UNL A   1      40.143  26.914  28.589  1.00  0.00    -0.014 A 
BRANCH  10  11
ATOM     11  C   UNL A   1      40.602  27.991  29.498  1.00  0.00     0.031 A 
ATOM     12  C   UNL A   1      39.715  29.189  29.679  1.00  0.00     0.074 A 
ATOM     13  C   UNL A   1      41.775  27.900  30.154  1.00  0.00     0.049 A 
ATOM     14  N   UNL A   1      39.909  30.258  30.404  1.00  0.00    -0.248 NA
ATOM     15  C   UNL A   1      38.445  29.186  28.935  1.00  0.00     0.031 C 
ATOM     16  C   UNL A   1      42.711  26.781  30.062  1.00  0.00     0.029 A 
ATOM     17  N   UNL A   1      42.386  28.768  31.024  1.00  0.00    -0.354 N 
ATOM     18  C   UNL A   1      38.787  31.051  30.202  1.00  0.00     0.074 A 
ATOM     19  C   UNL A   1      37.955  30.378  29.231  1.00  0.00     0.031 C 
ATOM     20  C   UNL A   1      43.786  27.039  30.829  1.00  0.00     0.029 A 
ATOM     21  C   UNL A   1      43.620  28.343  31.460  1.00  0.00     0.049 A 
ATOM     22  H   UNL A   1      41.978  29.617  31.310  1.00  0.00     0.167 HD
ATOM     23  C   UNL A   1      38.456  32.215  30.805  1.00  0.00     0.037 A 
ATOM     24  C   UNL A   1      44.513  28.939  32.275  1.00  0.00     0.037 A 
ATOM     25  C   UNL A   1      39.269  32.858  31.796  1.00  0.00     0.049 A 
ATOM     26  C   UNL A   1      44.142  30.256  32.908  1.00  0.00     0.074 A 
ATOM     27  C   UNL A   1      39.011  34.015  32.507  1.00  0.00     0.029 A 
ATOM     28  N   UNL A   1      40.507  32.391  32.217  1.00  0.00    -0.354 N 
ATOM     29  N   UNL A   1      43.041  30.956  32.760  1.00  0.00    -0.248 NA
ATOM     30  C   UNL A   1      45.113  30.849  33.838  1.00  0.00     0.031 C 
ATOM     31  C   UNL A   1      40.105  34.259  33.345  1.00  0.00     0.029 A 
ATOM     32  C   UNL A   1      41.029  33.239  33.175  1.00  0.00     0.049 A 
ATOM     33  H   UNL A   1      40.945  31.575  31.883  1.00  0.00     0.167 HD
ATOM     34  C   UNL A   1      43.169  32.048  33.610  1.00  0.00     0.074 A 
ATOM     35  C   UNL A   1      44.455  31.919  34.267  1.00  0.00     0.031 C 
ATOM     36  C   UNL A   1      42.300  33.064  33.834  1.00  0.00     0.037 A 
BRANCH  23  37
ATOM     37  C   UNL A   1      37.148  32.833  30.404  1.00  0.00     0.058 A 
ATOM     38  C   UNL A   1      37.043  33.629  29.249  1.00  0.00     0.135 A 
ATOM     39  C   UNL A   1      36.007  32.684  31.206  1.00  0.00     0.135 A 
ATOM     40  F   UNL A   1      38.113  33.823  28.462  1.00  0.00    -0.206 F 
ATOM     41  C   UNL A   1      35.866  34.297  28.934  1.00  0.00     0.059 A 
ATOM     42  C   UNL A   1      34.811  33.324  30.894  1.00  0.00     0.059 A 
ATOM     43  F   UNL A   1      36.058  31.938  32.321  1.00  0.00    -0.206 F 
ATOM     44  C   UNL A   1      34.759  34.149  29.771  1.00  0.00     0.060 A 
BRANCH  44  45
ATOM     45  S   UNL A   1      33.254  35.063  29.379  1.00  0.00     0.124 S 
ATOM     46  O   UNL A   1      32.642  34.196  28.376  1.00  0.00    -0.237 OA
ATOM     47  O   UNL A   1      32.573  35.116  30.669  1.00  0.00    -0.237 OA
ATOM     48  O   UNL A   1      33.753  36.342  28.885  1.00  0.00    -0.744 OA
ENDBRANCH  44  45
ENDBRANCH  23  37
BRANCH  24  49
ATOM     49  C   UNL A   1      45.826  28.300  32.569  1.00  0.00     0.058 A 
ATOM     50  C   UNL A   1      46.952  28.557  31.773  1.00  0.00     0.135 A 
ATOM     51  C   UNL A   1      45.974  27.396  33.632  1.00  0.00     0.135 A 
ATOM     52  F   UNL A   1      46.862  29.409  30.741  1.00  0.00    -0.206 F 
ATOM     53  C   UNL A   1      48.168  27.918  31.998  1.00  0.00     0.059 A 
ATOM     54  C   UNL A   1      47.187  26.760  33.891  1.00  0.00     0.059 A 
ATOM     55  F   UNL A   1      44.929  27.118  34.428  1.00  0.00    -0.206 F 
ATOM     56  C   UNL A   1      48.275  27.016  33.058  1.00  0.00     0.060 A 
BRANCH  56  57
ATOM     57  S   UNL A   1      49.862  26.199  33.344  1.00  0.00     0.124 S 
ATOM     58  O   UNL A   1      50.182  25.704  32.010  1.00  0.00    -0.237 OA
ATOM     59  O   UNL A   1      50.690  27.300  33.830  1.00  0.00    -0.237 OA
ATOM     60  O   UNL A   1      49.544  25.179  34.337  1.00  0.00    -0.744 OA
ENDBRANCH  56  57
ENDBRANCH  24  49
BRANCH  36  61
ATOM     61  C   UNL A   1      42.681  34.091  34.859  1.00  0.00     0.058 A 
ATOM     62  C   UNL A   1      43.279  35.305  34.492  1.00  0.00     0.135 A 
ATOM     63  C   UNL A   1      42.343  33.899  36.208  1.00  0.00     0.135 A 
ATOM     64  F   UNL A   1      43.627  35.528  33.215  1.00  0.00    -0.206 F 
ATOM     65  C   UNL A   1      43.527  36.299  35.431  1.00  0.00     0.059 A 
ATOM     66  C   UNL A   1      42.562  34.888  37.159  1.00  0.00     0.059 A 
ATOM     67  F   UNL A   1      41.763  32.755  36.604  1.00  0.00    -0.206 F 
ATOM     68  C   UNL A   1      43.156  36.086  36.760  1.00  0.00     0.060 A 
BRANCH  68  69
ATOM     69  S   UNL A   1      43.399  37.418  37.952  1.00  0.00     0.124 S 
ATOM     70  O   UNL A   1      43.841  38.509  37.089  1.00  0.00    -0.237 OA
ATOM     71  O   UNL A   1      42.068  37.568  38.531  1.00  0.00    -0.237 OA
ATOM     72  O   UNL A   1      44.412  36.883  38.858  1.00  0.00    -0.744 OA
ENDBRANCH  68  69
ENDBRANCH  36  61
ENDBRANCH  10  11
ENDBRANCH   3   5
ENDBRANCH   2   3
ENDBRANCH   1   2
BRANCH   1  73
ATOM     73  C   UNL A   1      36.605  23.312  23.314  1.00  0.00     0.274 C 
BRANCH  73  74
ATOM     74  O   UNL A   1      35.420  22.608  22.896  1.00  0.00    -0.460 OA
BRANCH  74  75
ATOM     75  C   UNL A   1      34.315  23.402  22.727  1.00  0.00     0.334 C 
ATOM     76  O   UNL A   1      33.822  23.607  21.624  1.00  0.00    -0.249 OA
BRANCH  75  77
ATOM     77  C   UNL A   1      33.849  24.051  24.061  1.00  0.00     0.232 C 
BRANCH  77  78
ATOM     78  N   UNL A   1      32.536  24.701  23.852  1.00  0.00    -0.274 N 
ATOM     79  C   UNL A   1      32.478  26.073  23.716  1.00  0.00     0.267 C 
ATOM     80  C   UNL A   1      31.341  24.059  23.609  1.00  0.00     0.149 C 
ATOM     81  O   UNL A   1      33.376  26.822  23.375  1.00  0.00    -0.268 OA
ATOM     82  C   UNL A   1      31.078  26.519  23.914  1.00  0.00     0.081 C 
ATOM     83  S   UNL A   1      30.044  25.247  23.401  1.00  0.00    -0.054 SA
ATOM     84  S   UNL A   1      31.028  22.430  23.519  1.00  0.00    -0.052 S 
ATOM     85  C   UNL A   1      30.656  27.573  24.626  1.00  0.00     0.029 C 
BRANCH  85  86
ATOM     86  C   UNL A   1      31.528  28.391  25.480  1.00  0.00    -0.024 A 
ATOM     87  C   UNL A   1      32.254  27.736  26.486  1.00  0.00     0.009 A 
ATOM     88  C   UNL A   1      31.720  29.762  25.292  1.00  0.00     0.009 A 
ATOM     89  C   UNL A   1      33.194  28.428  27.253  1.00  0.00     0.016 A 
ATOM     90  C   UNL A   1      32.679  30.453  26.039  1.00  0.00     0.016 A 
ATOM     91  C   UNL A   1      33.416  29.782  27.011  1.00  0.00     0.018 A 
ATOM     92  Br  UNL A   1      34.735  30.708  27.998  1.00  0.00    -0.051 Br
ENDBRANCH  85  86
ENDBRANCH  77  78
BRANCH  77  93
ATOM     93  C   UNL A   1      33.852  23.139  25.282  1.00  0.00    -0.014 A 
ATOM     94  C   UNL A   1      33.799  21.741  25.184  1.00  0.00     0.006 A 
ATOM     95  C   UNL A   1      33.868  23.711  26.569  1.00  0.00     0.006 A 
ATOM     96  C   UNL A   1      33.778  20.941  26.331  1.00  0.00     0.000 A 
ATOM     97  C   UNL A   1      33.855  22.910  27.714  1.00  0.00     0.000 A 
ATOM     98  C   UNL A   1      33.812  21.525  27.594  1.00  0.00     0.000 A 
ENDBRANCH  77  93
ENDBRANCH  75  77
ENDBRANCH  74  75
ENDBRANCH  73  74
ENDBRANCH   1  73
TORSDOF 17
ENDMDL
