MODEL 1
REMARK VINA RESULT:     -10.0      0.000      0.000
REMARK SMILES CCN(CCC#N)C(=O)c1ccncc1/C=C/C(=O)OCCOC(=O)c1ccc(-c2c3nc(c(-c4c(F)cc(S(=O)(=O)[O-])cc4F)c4ccc([nH]4)c(-c4c(F)cc(S(=O)(=O)[O-])cc4F)c4nc(c(-c5c(F)cc(S(=O)(=O)[O-])cc5F)c5ccc2[nH]5)C=C4)C=C3)cc1
REMARK SMILES IDX 20 1 18 2 19 3 17 4 16 5 15 6 10 7 11 8 12 9 14 10 13 11
REMARK SMILES IDX 8 12 9 13 3 14 2 15 1 16 4 17 5 18 6 19 7 20 21 21 22 22
REMARK SMILES IDX 23 23 24 24 25 25 26 26 27 27 91 28 28 29 90 30 29 31 30 32
REMARK SMILES IDX 31 33 84 34 32 35 89 36 83 37 85 38 33 39 88 40 82 41 81 42
REMARK SMILES IDX 34 44 68 45 47 46 67 47 48 48 51 49 66 50 86 51 49 52 50 53
REMARK SMILES IDX 65 55 87 56 52 57 35 58 36 59 45 60 37 61 38 62 44 63 46 64
REMARK SMILES IDX 39 65 40 66 41 67 42 68 43 69 69 70 70 71 79 72 71 73 72 74
REMARK SMILES IDX 78 75 80 76 73 77 74 78 75 79 76 80 77 81 53 82 54 83 63 84
REMARK SMILES IDX 55 85 56 86 62 87 64 88 57 89 58 90 59 91 60 92 61 93
REMARK H PARENT 85 43 51 54
REMARK Flexibility Score: inf
ROOT
ATOM      1  O   UNL A   1      39.383  21.464  25.579  1.00  0.00    -0.459 OA
ENDROOT
BRANCH   1   2
ATOM      2  C   UNL A   1      38.214  22.142  25.684  1.00  0.00     0.330 C 
ATOM      3  O   UNL A   1      38.038  23.188  26.288  1.00  0.00    -0.247 OA
BRANCH   2   4
ATOM      4  C   UNL A   1      37.169  21.550  24.806  1.00  0.00     0.094 C 
ATOM      5  C   UNL A   1      35.885  21.931  24.905  1.00  0.00     0.018 C 
BRANCH   5   6
ATOM      6  C   UNL A   1      34.667  21.222  24.455  1.00  0.00     0.006 A 
ATOM      7  C   UNL A   1      33.495  21.912  24.060  1.00  0.00     0.050 A 
ATOM      8  C   UNL A   1      32.268  21.306  24.335  1.00  0.00     0.034 A 
ATOM      9  C   UNL A   1      32.241  19.975  24.721  1.00  0.00     0.112 A 
ATOM     10  C   UNL A   1      34.521  19.871  24.778  1.00  0.00     0.119 A 
ATOM     11  N   UNL A   1      33.340  19.226  24.888  1.00  0.00    -0.264 NA
BRANCH   7  12
ATOM     12  C   UNL A   1      33.607  23.223  23.314  1.00  0.00     0.254 C 
ATOM     13  O   UNL A   1      34.301  23.232  22.294  1.00  0.00    -0.269 OA
BRANCH  12  14
ATOM     14  N   UNL A   1      32.904  24.415  23.655  1.00  0.00    -0.338 N 
BRANCH  14  15
ATOM     15  C   UNL A   1      31.749  24.724  22.786  1.00  0.00     0.116 C 
ATOM     16  C   UNL A   1      30.466  25.077  23.538  1.00  0.00     0.027 C 
ENDBRANCH  14  15
BRANCH  14  17
ATOM     17  C   UNL A   1      33.019  25.236  24.885  1.00  0.00     0.135 C 
BRANCH  17  18
ATOM     18  C   UNL A   1      33.267  24.483  26.205  1.00  0.00     0.141 C 
BRANCH  18  19
ATOM     19  C   UNL A   1      31.952  23.959  26.760  1.00  0.00     0.064 C 
ATOM     20  N   UNL A   1      30.862  23.524  27.222  1.00  0.00    -0.198 NA
ENDBRANCH  18  19
ENDBRANCH  17  18
ENDBRANCH  14  17
ENDBRANCH  12  14
ENDBRANCH   7  12
ENDBRANCH   5   6
ENDBRANCH   2   4
ENDBRANCH   1   2
BRANCH   1  21
ATOM     21  C   UNL A   1      40.245  21.433  26.727  1.00  0.00     0.275 C 
BRANCH  21  22
ATOM     22  C   UNL A   1      41.478  22.304  26.465  1.00  0.00     0.275 C 
BRANCH  22  23
ATOM     23  O   UNL A   1      41.514  23.438  27.353  1.00  0.00    -0.458 OA
BRANCH  23  24
ATOM     24  C   UNL A   1      41.219  24.637  26.793  1.00  0.00     0.338 C 
ATOM     25  O   UNL A   1      40.979  24.864  25.620  1.00  0.00    -0.246 OA
BRANCH  24  26
ATOM     26  C   UNL A   1      41.104  25.651  27.858  1.00  0.00     0.060 A 
ATOM     27  C   UNL A   1      42.206  26.471  28.102  1.00  0.00     0.016 A 
ATOM     28  C   UNL A   1      39.947  25.785  28.626  1.00  0.00     0.016 A 
ATOM     29  C   UNL A   1      42.159  27.440  29.102  1.00  0.00     0.010 A 
ATOM     30  C   UNL A   1      39.894  26.765  29.624  1.00  0.00     0.010 A 
ATOM     31  C   UNL A   1      40.995  27.606  29.863  1.00  0.00    -0.014 A 
BRANCH  31  32
ATOM     32  C   UNL A   1      40.921  28.685  30.880  1.00  0.00     0.031 A 
ATOM     33  C   UNL A   1      41.862  28.700  32.049  1.00  0.00     0.074 A 
ATOM     34  C   UNL A   1      39.998  29.657  30.741  1.00  0.00     0.049 A 
ATOM     35  N   UNL A   1      41.889  29.509  33.077  1.00  0.00    -0.248 NA
ATOM     36  C   UNL A   1      42.909  27.668  32.067  1.00  0.00     0.031 C 
ATOM     37  C   UNL A   1      39.054  29.769  29.627  1.00  0.00     0.029 A 
ATOM     38  N   UNL A   1      39.696  30.730  31.542  1.00  0.00    -0.354 N 
ATOM     39  C   UNL A   1      42.946  29.082  33.871  1.00  0.00     0.074 A 
ATOM     40  C   UNL A   1      43.525  27.928  33.213  1.00  0.00     0.031 C 
ATOM     41  C   UNL A   1      38.280  30.849  29.815  1.00  0.00     0.029 A 
ATOM     42  C   UNL A   1      38.635  31.476  31.084  1.00  0.00     0.049 A 
ATOM     43  H   UNL A   1      40.191  30.945  32.365  1.00  0.00     0.167 HD
ATOM     44  C   UNL A   1      43.392  29.609  35.036  1.00  0.00     0.037 A 
ATOM     45  C   UNL A   1      37.998  32.525  31.640  1.00  0.00     0.037 A 
ATOM     46  C   UNL A   1      42.811  30.762  35.679  1.00  0.00     0.049 A 
ATOM     47  C   UNL A   1      38.463  33.043  32.974  1.00  0.00     0.074 A 
ATOM     48  C   UNL A   1      43.205  31.382  36.852  1.00  0.00     0.029 A 
ATOM     49  N   UNL A   1      41.710  31.464  35.208  1.00  0.00    -0.354 N 
ATOM     50  N   UNL A   1      39.467  32.633  33.712  1.00  0.00    -0.248 NA
ATOM     51  C   UNL A   1      37.702  34.156  33.558  1.00  0.00     0.031 C 
ATOM     52  C   UNL A   1      42.314  32.430  37.115  1.00  0.00     0.029 A 
ATOM     53  C   UNL A   1      41.391  32.490  36.083  1.00  0.00     0.049 A 
ATOM     54  H   UNL A   1      41.226  31.262  34.375  1.00  0.00     0.167 HD
ATOM     55  C   UNL A   1      39.466  33.443  34.841  1.00  0.00     0.074 A 
ATOM     56  C   UNL A   1      38.372  34.380  34.681  1.00  0.00     0.031 C 
ATOM     57  C   UNL A   1      40.294  33.412  35.915  1.00  0.00     0.037 A 
BRANCH  44  58
ATOM     58  C   UNL A   1      44.548  28.926  35.714  1.00  0.00     0.058 A 
ATOM     59  C   UNL A   1      45.878  29.301  35.467  1.00  0.00     0.135 A 
ATOM     60  C   UNL A   1      44.320  27.909  36.656  1.00  0.00     0.135 A 
ATOM     61  F   UNL A   1      46.153  30.259  34.568  1.00  0.00    -0.206 F 
ATOM     62  C   UNL A   1      46.942  28.674  36.108  1.00  0.00     0.059 A 
ATOM     63  C   UNL A   1      45.367  27.284  37.328  1.00  0.00     0.059 A 
ATOM     64  F   UNL A   1      43.068  27.513  36.932  1.00  0.00    -0.206 F 
ATOM     65  C   UNL A   1      46.676  27.665  37.036  1.00  0.00     0.060 A 
BRANCH  65  66
ATOM     66  S   UNL A   1      48.068  26.858  37.858  1.00  0.00     0.124 S 
ATOM     67  O   UNL A   1      48.122  27.588  39.122  1.00  0.00    -0.237 OA
ATOM     68  O   UNL A   1      47.619  25.472  37.947  1.00  0.00    -0.237 OA
ATOM     69  O   UNL A   1      49.185  27.096  36.949  1.00  0.00    -0.744 OA
ENDBRANCH  65  66
ENDBRANCH  44  58
BRANCH  45  70
ATOM     70  C   UNL A   1      36.828  33.131  30.950  1.00  0.00     0.058 A 
ATOM     71  C   UNL A   1      35.520  32.894  31.396  1.00  0.00     0.135 A 
ATOM     72  C   UNL A   1      36.997  33.970  29.836  1.00  0.00     0.135 A 
ATOM     73  F   UNL A   1      35.306  32.089  32.447  1.00  0.00    -0.206 F 
ATOM     74  C   UNL A   1      34.420  33.461  30.759  1.00  0.00     0.059 A 
ATOM     75  C   UNL A   1      35.916  34.569  29.200  1.00  0.00     0.059 A 
ATOM     76  F   UNL A   1      38.230  34.234  29.374  1.00  0.00    -0.206 F 
ATOM     77  C   UNL A   1      34.629  34.301  29.663  1.00  0.00     0.060 A 
BRANCH  77  78
ATOM     78  S   UNL A   1      33.199  35.072  28.874  1.00  0.00     0.124 S 
ATOM     79  O   UNL A   1      32.320  35.296  30.016  1.00  0.00    -0.237 OA
ATOM     80  O   UNL A   1      33.783  36.266  28.274  1.00  0.00    -0.237 OA
ATOM     81  O   UNL A   1      32.752  34.057  27.924  1.00  0.00    -0.744 OA
ENDBRANCH  77  78
ENDBRANCH  45  70
BRANCH  57  82
ATOM     82  C   UNL A   1      40.056  34.424  37.000  1.00  0.00     0.058 A 
ATOM     83  C   UNL A   1      39.266  34.124  38.120  1.00  0.00     0.135 A 
ATOM     84  C   UNL A   1      40.668  35.687  36.948  1.00  0.00     0.135 A 
ATOM     85  F   UNL A   1      38.650  32.935  38.214  1.00  0.00    -0.206 F 
ATOM     86  C   UNL A   1      39.080  35.046  39.146  1.00  0.00     0.059 A 
ATOM     87  C   UNL A   1      40.515  36.615  37.973  1.00  0.00     0.059 A 
ATOM     88  F   UNL A   1      41.440  36.022  35.902  1.00  0.00    -0.206 F 
ATOM     89  C   UNL A   1      39.712  36.288  39.065  1.00  0.00     0.060 A 
BRANCH  89  90
ATOM     90  S   UNL A   1      39.499  37.457  40.425  1.00  0.00     0.124 S 
ATOM     91  O   UNL A   1      39.441  36.564  41.577  1.00  0.00    -0.237 OA
ATOM     92  O   UNL A   1      40.701  38.280  40.322  1.00  0.00    -0.237 OA
ATOM     93  O   UNL A   1      38.251  38.139  40.095  1.00  0.00    -0.744 OA
ENDBRANCH  89  90
ENDBRANCH  57  82
ENDBRANCH  31  32
ENDBRANCH  24  26
ENDBRANCH  23  24
ENDBRANCH  22  23
ENDBRANCH  21  22
ENDBRANCH   1  21
TORSDOF 21
ENDMDL
MODEL 2
REMARK VINA RESULT:      -9.9      1.274      2.394
REMARK SMILES CCN(CCC#N)C(=O)c1ccncc1/C=C/C(=O)OCCOC(=O)c1ccc(-c2c3nc(c(-c4c(F)cc(S(=O)(=O)[O-])cc4F)c4ccc([nH]4)c(-c4c(F)cc(S(=O)(=O)[O-])cc4F)c4nc(c(-c5c(F)cc(S(=O)(=O)[O-])cc5F)c5ccc2[nH]5)C=C4)C=C3)cc1
REMARK SMILES IDX 20 1 18 2 19 3 17 4 16 5 15 6 10 7 11 8 12 9 14 10 13 11
REMARK SMILES IDX 8 12 9 13 3 14 2 15 1 16 4 17 5 18 6 19 7 20 21 21 22 22
REMARK SMILES IDX 23 23 24 24 25 25 26 26 27 27 91 28 28 29 90 30 29 31 30 32
REMARK SMILES IDX 31 33 84 34 32 35 89 36 83 37 85 38 33 39 88 40 82 41 81 42
REMARK SMILES IDX 34 44 68 45 47 46 67 47 48 48 51 49 66 50 86 51 49 52 50 53
REMARK SMILES IDX 65 55 87 56 52 57 35 58 36 59 45 60 37 61 38 62 44 63 46 64
REMARK SMILES IDX 39 65 40 66 41 67 42 68 43 69 69 70 70 71 79 72 71 73 72 74
REMARK SMILES IDX 78 75 80 76 73 77 74 78 75 79 76 80 77 81 53 82 54 83 63 84
REMARK SMILES IDX 55 85 56 86 62 87 64 88 57 89 58 90 59 91 60 92 61 93
REMARK H PARENT 85 43 51 54
REMARK Flexibility Score: inf
ROOT
ATOM      1  O   UNL A   1      37.561  22.081  24.652  1.00  0.00    -0.459 OA
ENDROOT
BRANCH   1   2
ATOM      2  C   UNL A   1      36.537  22.561  23.904  1.00  0.00     0.330 C 
ATOM      3  O   UNL A   1      36.609  22.954  22.751  1.00  0.00    -0.247 OA
BRANCH   2   4
ATOM      4  C   UNL A   1      35.235  22.386  24.600  1.00  0.00     0.094 C 
ATOM      5  C   UNL A   1      34.104  22.905  24.094  1.00  0.00     0.018 C 
BRANCH   5   6
ATOM      6  C   UNL A   1      32.829  23.206  24.781  1.00  0.00     0.006 A 
ATOM      7  C   UNL A   1      32.709  24.260  25.720  1.00  0.00     0.050 A 
ATOM      8  C   UNL A   1      31.829  24.074  26.787  1.00  0.00     0.034 A 
ATOM      9  C   UNL A   1      30.930  23.020  26.749  1.00  0.00     0.112 A 
ATOM     10  C   UNL A   1      31.837  22.224  24.810  1.00  0.00     0.119 A 
ATOM     11  N   UNL A   1      30.873  22.127  25.752  1.00  0.00    -0.264 NA
BRANCH   7  12
ATOM     12  C   UNL A   1      33.472  25.549  25.508  1.00  0.00     0.254 C 
ATOM     13  O   UNL A   1      34.701  25.497  25.600  1.00  0.00    -0.269 OA
BRANCH  12  14
ATOM     14  N   UNL A   1      32.882  26.788  25.124  1.00  0.00    -0.338 N 
BRANCH  14  15
ATOM     15  C   UNL A   1      32.971  27.859  26.139  1.00  0.00     0.116 C 
ATOM     16  C   UNL A   1      32.961  29.277  25.567  1.00  0.00     0.027 C 
ENDBRANCH  14  15
BRANCH  14  17
ATOM     17  C   UNL A   1      32.421  27.215  23.780  1.00  0.00     0.135 C 
BRANCH  17  18
ATOM     18  C   UNL A   1      30.987  26.827  23.379  1.00  0.00     0.141 C 
BRANCH  18  19
ATOM     19  C   UNL A   1      30.328  27.972  22.625  1.00  0.00     0.064 C 
ATOM     20  N   UNL A   1      29.782  28.922  22.001  1.00  0.00    -0.198 NA
ENDBRANCH  18  19
ENDBRANCH  17  18
ENDBRANCH  14  17
ENDBRANCH  12  14
ENDBRANCH   7  12
ENDBRANCH   5   6
ENDBRANCH   2   4
ENDBRANCH   1   2
BRANCH   1  21
ATOM     21  C   UNL A   1      37.904  22.790  25.853  1.00  0.00     0.275 C 
BRANCH  21  22
ATOM     22  C   UNL A   1      39.340  22.443  26.259  1.00  0.00     0.275 C 
BRANCH  22  23
ATOM     23  O   UNL A   1      39.816  23.324  27.295  1.00  0.00    -0.458 OA
BRANCH  23  24
ATOM     24  C   UNL A   1      40.488  24.424  26.874  1.00  0.00     0.338 C 
ATOM     25  O   UNL A   1      40.975  24.615  25.774  1.00  0.00    -0.246 OA
BRANCH  24  26
ATOM     26  C   UNL A   1      40.443  25.450  27.933  1.00  0.00     0.060 A 
ATOM     27  C   UNL A   1      41.582  26.228  28.140  1.00  0.00     0.016 A 
ATOM     28  C   UNL A   1      39.313  25.635  28.731  1.00  0.00     0.016 A 
ATOM     29  C   UNL A   1      41.600  27.206  29.132  1.00  0.00     0.010 A 
ATOM     30  C   UNL A   1      39.326  26.624  29.722  1.00  0.00     0.010 A 
ATOM     31  C   UNL A   1      40.465  27.422  29.924  1.00  0.00    -0.014 A 
BRANCH  31  32
ATOM     32  C   UNL A   1      40.461  28.512  30.932  1.00  0.00     0.031 A 
ATOM     33  C   UNL A   1      41.387  28.464  32.113  1.00  0.00     0.074 A 
ATOM     34  C   UNL A   1      39.616  29.550  30.776  1.00  0.00     0.049 A 
ATOM     35  N   UNL A   1      41.463  29.276  33.135  1.00  0.00    -0.248 NA
ATOM     36  C   UNL A   1      42.353  27.356  32.149  1.00  0.00     0.031 C 
ATOM     37  C   UNL A   1      38.696  29.724  29.651  1.00  0.00     0.029 A 
ATOM     38  N   UNL A   1      39.387  30.648  31.566  1.00  0.00    -0.354 N 
ATOM     39  C   UNL A   1      42.476  28.776  33.945  1.00  0.00     0.074 A 
ATOM     40  C   UNL A   1      42.973  27.577  33.301  1.00  0.00     0.031 C 
ATOM     41  C   UNL A   1      38.004  30.861  29.822  1.00  0.00     0.029 A 
ATOM     42  C   UNL A   1      38.390  31.469  31.092  1.00  0.00     0.049 A 
ATOM     43  H   UNL A   1      39.887  30.831  32.394  1.00  0.00     0.167 HD
ATOM     44  C   UNL A   1      42.947  29.276  35.112  1.00  0.00     0.037 A 
ATOM     45  C   UNL A   1      37.828  32.567  31.633  1.00  0.00     0.037 A 
ATOM     46  C   UNL A   1      42.448  30.475  35.741  1.00  0.00     0.049 A 
ATOM     47  C   UNL A   1      38.316  33.058  32.970  1.00  0.00     0.074 A 
ATOM     48  C   UNL A   1      42.874  31.072  36.914  1.00  0.00     0.029 A 
ATOM     49  N   UNL A   1      41.409  31.254  35.252  1.00  0.00    -0.354 N 
ATOM     50  N   UNL A   1      39.278  32.578  33.722  1.00  0.00    -0.248 NA
ATOM     51  C   UNL A   1      37.635  34.229  33.537  1.00  0.00     0.031 C 
ATOM     52  C   UNL A   1      42.061  32.186  37.160  1.00  0.00     0.029 A 
ATOM     53  C   UNL A   1      41.158  32.308  36.117  1.00  0.00     0.049 A 
ATOM     54  H   UNL A   1      40.921  31.083  34.415  1.00  0.00     0.167 HD
ATOM     55  C   UNL A   1      39.325  33.394  34.845  1.00  0.00     0.074 A 
ATOM     56  C   UNL A   1      38.307  34.410  34.667  1.00  0.00     0.031 C 
ATOM     57  C   UNL A   1      40.136  33.308  35.929  1.00  0.00     0.037 A 
BRANCH  44  58
ATOM     58  C   UNL A   1      44.040  28.513  35.808  1.00  0.00     0.058 A 
ATOM     59  C   UNL A   1      43.760  27.472  36.707  1.00  0.00     0.135 A 
ATOM     60  C   UNL A   1      45.389  28.800  35.541  1.00  0.00     0.135 A 
ATOM     61  F   UNL A   1      42.489  27.162  37.007  1.00  0.00    -0.206 F 
ATOM     62  C   UNL A   1      44.777  26.760  37.336  1.00  0.00     0.059 A 
ATOM     63  C   UNL A   1      46.423  28.086  36.140  1.00  0.00     0.059 A 
ATOM     64  F   UNL A   1      45.714  29.784  34.688  1.00  0.00    -0.206 F 
ATOM     65  C   UNL A   1      46.106  27.076  37.048  1.00  0.00     0.060 A 
BRANCH  65  66
ATOM     66  S   UNL A   1      47.415  26.146  37.875  1.00  0.00     0.124 S 
ATOM     67  O   UNL A   1      48.011  27.174  38.723  1.00  0.00    -0.237 OA
ATOM     68  O   UNL A   1      46.667  25.105  38.573  1.00  0.00    -0.237 OA
ATOM     69  O   UNL A   1      48.251  25.681  36.772  1.00  0.00    -0.744 OA
ENDBRANCH  65  66
ENDBRANCH  44  58
BRANCH  45  70
ATOM     70  C   UNL A   1      36.715  33.255  30.925  1.00  0.00     0.058 A 
ATOM     71  C   UNL A   1      35.391  33.138  31.370  1.00  0.00     0.135 A 
ATOM     72  C   UNL A   1      36.958  34.052  29.795  1.00  0.00     0.135 A 
ATOM     73  F   UNL A   1      35.107  32.376  32.437  1.00  0.00    -0.206 F 
ATOM     74  C   UNL A   1      34.345  33.782  30.717  1.00  0.00     0.059 A 
ATOM     75  C   UNL A   1      35.932  34.727  29.142  1.00  0.00     0.059 A 
ATOM     76  F   UNL A   1      38.210  34.202  29.333  1.00  0.00    -0.206 F 
ATOM     77  C   UNL A   1      34.626  34.578  29.604  1.00  0.00     0.060 A 
BRANCH  77  78
ATOM     78  S   UNL A   1      33.268  35.449  28.793  1.00  0.00     0.124 S 
ATOM     79  O   UNL A   1      33.989  36.441  28.001  1.00  0.00    -0.237 OA
ATOM     80  O   UNL A   1      32.621  34.380  28.040  1.00  0.00    -0.237 OA
ATOM     81  O   UNL A   1      32.493  35.978  29.911  1.00  0.00    -0.744 OA
ENDBRANCH  77  78
ENDBRANCH  45  70
BRANCH  57  82
ATOM     82  C   UNL A   1      39.963  34.344  37.005  1.00  0.00     0.058 A 
ATOM     83  C   UNL A   1      40.608  35.588  36.934  1.00  0.00     0.135 A 
ATOM     84  C   UNL A   1      39.102  34.112  38.091  1.00  0.00     0.135 A 
ATOM     85  F   UNL A   1      41.449  35.856  35.924  1.00  0.00    -0.206 F 
ATOM     86  C   UNL A   1      40.415  36.562  37.909  1.00  0.00     0.059 A 
ATOM     87  C   UNL A   1      38.877  35.081  39.063  1.00  0.00     0.059 A 
ATOM     88  F   UNL A   1      38.455  32.941  38.202  1.00  0.00    -0.206 F 
ATOM     89  C   UNL A   1      39.544  36.301  38.968  1.00  0.00     0.060 A 
BRANCH  89  90
ATOM     90  S   UNL A   1      39.268  37.591  40.200  1.00  0.00     0.124 S 
ATOM     91  O   UNL A   1      38.154  38.327  39.613  1.00  0.00    -0.237 OA
ATOM     92  O   UNL A   1      38.955  36.818  41.399  1.00  0.00    -0.237 OA
ATOM     93  O   UNL A   1      40.542  38.305  40.238  1.00  0.00    -0.744 OA
ENDBRANCH  89  90
ENDBRANCH  57  82
ENDBRANCH  31  32
ENDBRANCH  24  26
ENDBRANCH  23  24
ENDBRANCH  22  23
ENDBRANCH  21  22
ENDBRANCH   1  21
TORSDOF 21
ENDMDL
MODEL 3
REMARK VINA RESULT:      -9.9      1.304      2.429
REMARK SMILES CCN(CCC#N)C(=O)c1ccncc1/C=C/C(=O)OCCOC(=O)c1ccc(-c2c3nc(c(-c4c(F)cc(S(=O)(=O)[O-])cc4F)c4ccc([nH]4)c(-c4c(F)cc(S(=O)(=O)[O-])cc4F)c4nc(c(-c5c(F)cc(S(=O)(=O)[O-])cc5F)c5ccc2[nH]5)C=C4)C=C3)cc1
REMARK SMILES IDX 20 1 18 2 19 3 17 4 16 5 15 6 10 7 11 8 12 9 14 10 13 11
REMARK SMILES IDX 8 12 9 13 3 14 2 15 1 16 4 17 5 18 6 19 7 20 21 21 22 22
REMARK SMILES IDX 23 23 24 24 25 25 26 26 27 27 91 28 28 29 90 30 29 31 30 32
REMARK SMILES IDX 31 33 84 34 32 35 89 36 83 37 85 38 33 39 88 40 82 41 81 42
REMARK SMILES IDX 34 44 68 45 47 46 67 47 48 48 51 49 66 50 86 51 49 52 50 53
REMARK SMILES IDX 65 55 87 56 52 57 35 58 36 59 45 60 37 61 38 62 44 63 46 64
REMARK SMILES IDX 39 65 40 66 41 67 42 68 43 69 69 70 70 71 79 72 71 73 72 74
REMARK SMILES IDX 78 75 80 76 73 77 74 78 75 79 76 80 77 81 53 82 54 83 63 84
REMARK SMILES IDX 55 85 56 86 62 87 64 88 57 89 58 90 59 91 60 92 61 93
REMARK H PARENT 85 43 51 54
REMARK Flexibility Score: inf
ROOT
ATOM      1  O   UNL A   1      37.389  23.176  25.290  1.00  0.00    -0.459 OA
ENDROOT
BRANCH   1   2
ATOM      2  C   UNL A   1      36.661  23.132  24.147  1.00  0.00     0.330 C 
ATOM      3  O   UNL A   1      36.922  22.476  23.151  1.00  0.00    -0.247 OA
BRANCH   2   4
ATOM      4  C   UNL A   1      35.369  23.851  24.304  1.00  0.00     0.094 C 
ATOM      5  C   UNL A   1      34.523  23.988  23.270  1.00  0.00     0.018 C 
BRANCH   5   6
ATOM      6  C   UNL A   1      33.432  24.971  23.085  1.00  0.00     0.006 A 
ATOM      7  C   UNL A   1      32.067  24.611  23.197  1.00  0.00     0.050 A 
ATOM      8  C   UNL A   1      31.156  25.278  22.376  1.00  0.00     0.034 A 
ATOM      9  C   UNL A   1      31.561  26.418  21.700  1.00  0.00     0.112 A 
ATOM     10  C   UNL A   1      33.714  26.166  22.420  1.00  0.00     0.119 A 
ATOM     11  N   UNL A   1      32.806  26.912  21.754  1.00  0.00    -0.264 NA
BRANCH   7  12
ATOM     12  C   UNL A   1      31.639  23.586  24.224  1.00  0.00     0.254 C 
ATOM     13  O   UNL A   1      32.002  22.422  24.041  1.00  0.00    -0.269 OA
BRANCH  12  14
ATOM     14  N   UNL A   1      30.928  23.884  25.423  1.00  0.00    -0.338 N 
BRANCH  14  15
ATOM     15  C   UNL A   1      30.693  22.725  26.309  1.00  0.00     0.116 C 
ATOM     16  C   UNL A   1      29.453  22.847  27.196  1.00  0.00     0.027 C 
ENDBRANCH  14  15
BRANCH  14  17
ATOM     17  C   UNL A   1      30.617  25.212  26.006  1.00  0.00     0.135 C 
BRANCH  17  18
ATOM     18  C   UNL A   1      31.752  26.253  26.015  1.00  0.00     0.141 C 
BRANCH  18  19
ATOM     19  C   UNL A   1      31.488  27.302  27.084  1.00  0.00     0.064 C 
ATOM     20  N   UNL A   1      31.268  28.172  27.970  1.00  0.00    -0.198 NA
ENDBRANCH  18  19
ENDBRANCH  17  18
ENDBRANCH  14  17
ENDBRANCH  12  14
ENDBRANCH   7  12
ENDBRANCH   5   6
ENDBRANCH   2   4
ENDBRANCH   1   2
BRANCH   1  21
ATOM     21  C   UNL A   1      38.166  22.019  25.635  1.00  0.00     0.275 C 
BRANCH  21  22
ATOM     22  C   UNL A   1      39.356  22.442  26.502  1.00  0.00     0.275 C 
BRANCH  22  23
ATOM     23  O   UNL A   1      39.398  23.873  26.669  1.00  0.00    -0.458 OA
BRANCH  23  24
ATOM     24  C   UNL A   1      40.636  24.424  26.730  1.00  0.00     0.338 C 
ATOM     25  O   UNL A   1      41.597  24.159  26.032  1.00  0.00    -0.246 OA
BRANCH  24  26
ATOM     26  C   UNL A   1      40.625  25.520  27.718  1.00  0.00     0.060 A 
ATOM     27  C   UNL A   1      39.553  25.588  28.609  1.00  0.00     0.016 A 
ATOM     28  C   UNL A   1      41.634  26.483  27.761  1.00  0.00     0.016 A 
ATOM     29  C   UNL A   1      39.485  26.606  29.558  1.00  0.00     0.010 A 
ATOM     30  C   UNL A   1      41.574  27.500  28.721  1.00  0.00     0.010 A 
ATOM     31  C   UNL A   1      40.504  27.564  29.632  1.00  0.00    -0.014 A 
BRANCH  31  32
ATOM     32  C   UNL A   1      40.467  28.606  30.689  1.00  0.00     0.031 A 
ATOM     33  C   UNL A   1      41.388  28.528  31.872  1.00  0.00     0.074 A 
ATOM     34  C   UNL A   1      39.595  29.627  30.576  1.00  0.00     0.049 A 
ATOM     35  N   UNL A   1      41.438  29.295  32.931  1.00  0.00    -0.248 NA
ATOM     36  C   UNL A   1      42.383  27.446  31.863  1.00  0.00     0.031 C 
ATOM     37  C   UNL A   1      38.677  29.829  29.453  1.00  0.00     0.029 A 
ATOM     38  N   UNL A   1      39.333  30.682  31.414  1.00  0.00    -0.354 N 
ATOM     39  C   UNL A   1      42.459  28.785  33.722  1.00  0.00     0.074 A 
ATOM     40  C   UNL A   1      42.991  27.630  33.028  1.00  0.00     0.031 C 
ATOM     41  C   UNL A   1      37.953  30.938  29.672  1.00  0.00     0.029 A 
ATOM     42  C   UNL A   1      38.318  31.497  30.971  1.00  0.00     0.049 A 
ATOM     43  H   UNL A   1      39.824  30.839  32.252  1.00  0.00     0.167 HD
ATOM     44  C   UNL A   1      42.911  29.243  34.914  1.00  0.00     0.037 A 
ATOM     45  C   UNL A   1      37.724  32.554  31.559  1.00  0.00     0.037 A 
ATOM     46  C   UNL A   1      42.378  30.398  35.594  1.00  0.00     0.049 A 
ATOM     47  C   UNL A   1      38.192  32.996  32.919  1.00  0.00     0.074 A 
ATOM     48  C   UNL A   1      42.782  30.951  36.796  1.00  0.00     0.029 A 
ATOM     49  N   UNL A   1      41.321  31.171  35.135  1.00  0.00    -0.354 N 
ATOM     50  N   UNL A   1      39.163  32.508  33.654  1.00  0.00    -0.248 NA
ATOM     51  C   UNL A   1      37.477  34.121  33.535  1.00  0.00     0.031 C 
ATOM     52  C   UNL A   1      41.939  32.031  37.088  1.00  0.00     0.029 A 
ATOM     53  C   UNL A   1      41.038  32.177  36.046  1.00  0.00     0.049 A 
ATOM     54  H   UNL A   1      40.841  31.026  34.288  1.00  0.00     0.167 HD
ATOM     55  C   UNL A   1      39.183  33.272  34.814  1.00  0.00     0.074 A 
ATOM     56  C   UNL A   1      38.139  34.268  34.676  1.00  0.00     0.031 C 
ATOM     57  C   UNL A   1      39.990  33.158  35.898  1.00  0.00     0.037 A 
BRANCH  44  58
ATOM     58  C   UNL A   1      44.021  28.477  35.581  1.00  0.00     0.058 A 
ATOM     59  C   UNL A   1      43.763  27.451  36.503  1.00  0.00     0.135 A 
ATOM     60  C   UNL A   1      45.363  28.746  35.262  1.00  0.00     0.135 A 
ATOM     61  F   UNL A   1      42.500  27.159  36.853  1.00  0.00    -0.206 F 
ATOM     62  C   UNL A   1      44.794  26.738  37.106  1.00  0.00     0.059 A 
ATOM     63  C   UNL A   1      46.410  28.030  35.834  1.00  0.00     0.059 A 
ATOM     64  F   UNL A   1      45.666  29.716  34.385  1.00  0.00    -0.206 F 
ATOM     65  C   UNL A   1      46.115  27.035  36.766  1.00  0.00     0.060 A 
BRANCH  65  66
ATOM     66  S   UNL A   1      47.444  26.103  37.558  1.00  0.00     0.124 S 
ATOM     67  O   UNL A   1      48.610  26.563  36.809  1.00  0.00    -0.237 OA
ATOM     68  O   UNL A   1      47.363  26.557  38.943  1.00  0.00    -0.237 OA
ATOM     69  O   UNL A   1      47.064  24.711  37.334  1.00  0.00    -0.744 OA
ENDBRANCH  65  66
ENDBRANCH  44  58
BRANCH  45  70
ATOM     70  C   UNL A   1      36.597  33.244  30.876  1.00  0.00     0.058 A 
ATOM     71  C   UNL A   1      35.276  33.087  31.319  1.00  0.00     0.135 A 
ATOM     72  C   UNL A   1      36.821  34.084  29.774  1.00  0.00     0.135 A 
ATOM     73  F   UNL A   1      35.008  32.284  32.359  1.00  0.00    -0.206 F 
ATOM     74  C   UNL A   1      34.216  33.733  30.690  1.00  0.00     0.059 A 
ATOM     75  C   UNL A   1      35.782  34.761  29.145  1.00  0.00     0.059 A 
ATOM     76  F   UNL A   1      38.069  34.274  29.315  1.00  0.00    -0.206 F 
ATOM     77  C   UNL A   1      34.480  34.571  29.604  1.00  0.00     0.060 A 
BRANCH  77  78
ATOM     78  S   UNL A   1      33.104  35.443  28.825  1.00  0.00     0.124 S 
ATOM     79  O   UNL A   1      33.804  36.460  28.047  1.00  0.00    -0.237 OA
ATOM     80  O   UNL A   1      32.461  34.383  28.057  1.00  0.00    -0.237 OA
ATOM     81  O   UNL A   1      32.334  35.939  29.962  1.00  0.00    -0.744 OA
ENDBRANCH  77  78
ENDBRANCH  45  70
BRANCH  57  82
ATOM     82  C   UNL A   1      39.785  34.138  37.019  1.00  0.00     0.058 A 
ATOM     83  C   UNL A   1      39.008  33.812  38.142  1.00  0.00     0.135 A 
ATOM     84  C   UNL A   1      40.413  35.394  36.998  1.00  0.00     0.135 A 
ATOM     85  F   UNL A   1      38.377  32.630  38.208  1.00  0.00    -0.206 F 
ATOM     86  C   UNL A   1      38.852  34.703  39.200  1.00  0.00     0.059 A 
ATOM     87  C   UNL A   1      40.290  36.290  38.055  1.00  0.00     0.059 A 
ATOM     88  F   UNL A   1      41.173  35.751  35.950  1.00  0.00    -0.206 F 
ATOM     89  C   UNL A   1      39.501  35.939  39.149  1.00  0.00     0.060 A 
BRANCH  89  90
ATOM     90  S   UNL A   1      39.327  37.066  40.548  1.00  0.00     0.124 S 
ATOM     91  O   UNL A   1      40.719  37.289  40.923  1.00  0.00    -0.237 OA
ATOM     92  O   UNL A   1      38.641  38.207  39.949  1.00  0.00    -0.237 OA
ATOM     93  O   UNL A   1      38.535  36.299  41.506  1.00  0.00    -0.744 OA
ENDBRANCH  89  90
ENDBRANCH  57  82
ENDBRANCH  31  32
ENDBRANCH  24  26
ENDBRANCH  23  24
ENDBRANCH  22  23
ENDBRANCH  21  22
ENDBRANCH   1  21
TORSDOF 21
ENDMDL
