MODEL 1
REMARK VINA RESULT:     -11.7      0.000      0.000
REMARK SMILES O=C(/C=C/c1cc(C(=O)Nc2ccc(F)cc2Cl)cs1)OCCOC(=O)c1ccc(-c2c3nc(c(-c4c(F)cc(S(=O)(=O)[O-])cc4F)c4ccc([nH]4)c(-c4c(F)cc(S(=O)(=O)[O-])cc4F)c4nc(c(-c5c(F)cc(S(=O)(=O)[O-])cc5F)c5ccc2[nH]5)C=C4)C=C3)cc1
REMARK SMILES IDX 22 1 21 2 2 3 1 4 3 5 4 6 5 7 6 8 20 9 7 10 19 11 8 12 9 13
REMARK SMILES IDX 10 14 11 16 12 17 17 18 13 19 16 20 18 21 14 22 15 23 23 24
REMARK SMILES IDX 24 25 25 26 26 27 27 28 28 29 92 30 29 31 91 32 30 33 31 34
REMARK SMILES IDX 32 35 85 36 33 37 90 38 84 39 86 40 34 41 89 42 83 43 82 44
REMARK SMILES IDX 35 46 69 47 48 48 68 49 49 50 52 51 67 52 87 53 50 54 51 55
REMARK SMILES IDX 66 57 88 58 53 59 36 60 37 61 46 62 38 63 39 64 45 65 47 66
REMARK SMILES IDX 40 67 41 68 42 69 43 70 44 71 70 72 71 73 80 74 72 75 73 76
REMARK SMILES IDX 79 77 81 78 74 79 75 80 76 81 77 82 78 83 54 84 55 85 64 86
REMARK SMILES IDX 56 87 57 88 63 89 65 90 58 91 59 92 60 93 61 94 62 95
REMARK H PARENT 10 15 86 45 52 56
REMARK Flexibility Score: inf
ROOT
ATOM      1  C   UNL A   1      39.804  21.173  26.152  1.00  0.00     0.275 C 
ENDROOT
BRANCH   1   2
ATOM      2  O   UNL A   1      38.488  21.663  25.850  1.00  0.00    -0.459 OA
BRANCH   2   3
ATOM      3  C   UNL A   1      37.535  21.093  25.088  1.00  0.00     0.330 C 
ATOM      4  O   UNL A   1      37.707  19.966  24.629  1.00  0.00    -0.247 OA
BRANCH   3   5
ATOM      5  C   UNL A   1      36.322  21.816  24.671  1.00  0.00     0.095 C 
ATOM      6  C   UNL A   1      36.160  22.805  23.779  1.00  0.00     0.026 C 
BRANCH   6   7
ATOM      7  C   UNL A   1      34.889  23.401  23.531  1.00  0.00     0.028 A 
ATOM      8  C   UNL A   1      34.565  24.698  23.186  1.00  0.00     0.033 A 
ATOM      9  S   UNL A   1      33.450  22.461  23.603  1.00  0.00    -0.144 S 
ATOM     10  C   UNL A   1      33.335  24.761  22.453  1.00  0.00     0.051 A 
ATOM     11  C   UNL A   1      32.546  23.680  22.808  1.00  0.00     0.079 A 
BRANCH  10  12
ATOM     12  C   UNL A   1      32.895  25.792  21.503  1.00  0.00     0.256 C 
ATOM     13  O   UNL A   1      32.943  25.582  20.293  1.00  0.00    -0.269 OA
ATOM     14  N   UNL A   1      32.409  27.011  21.965  1.00  0.00    -0.321 N 
ATOM     15  H   UNL A   1      31.993  27.575  21.273  1.00  0.00     0.170 HD
BRANCH  14  16
ATOM     16  C   UNL A   1      32.412  27.580  23.263  1.00  0.00     0.060 A 
ATOM     17  C   UNL A   1      33.528  28.265  23.759  1.00  0.00     0.031 A 
ATOM     18  C   UNL A   1      31.305  27.424  24.118  1.00  0.00     0.067 A 
ATOM     19  C   UNL A   1      33.634  28.563  25.118  1.00  0.00     0.041 A 
ATOM     20  C   UNL A   1      31.426  27.674  25.486  1.00  0.00     0.062 A 
ATOM     21  Cl  UNL A   1      29.758  26.918  23.556  1.00  0.00    -0.082 Cl
ATOM     22  C   UNL A   1      32.604  28.211  25.978  1.00  0.00     0.124 A 
ATOM     23  F   UNL A   1      32.739  28.421  27.292  1.00  0.00    -0.207 F 
ENDBRANCH  14  16
ENDBRANCH  10  12
ENDBRANCH   6   7
ENDBRANCH   3   5
ENDBRANCH   2   3
ENDBRANCH   1   2
BRANCH   1  24
ATOM     24  C   UNL A   1      40.827  22.241  26.555  1.00  0.00     0.275 C 
BRANCH  24  25
ATOM     25  O   UNL A   1      40.333  23.593  26.504  1.00  0.00    -0.458 OA
BRANCH  25  26
ATOM     26  C   UNL A   1      41.292  24.562  26.482  1.00  0.00     0.338 C 
ATOM     27  O   UNL A   1      42.177  24.662  25.657  1.00  0.00    -0.246 OA
BRANCH  26  28
ATOM     28  C   UNL A   1      41.047  25.588  27.536  1.00  0.00     0.060 A 
ATOM     29  C   UNL A   1      42.010  26.593  27.702  1.00  0.00     0.016 A 
ATOM     30  C   UNL A   1      39.920  25.575  28.364  1.00  0.00     0.016 A 
ATOM     31  C   UNL A   1      41.859  27.567  28.700  1.00  0.00     0.010 A 
ATOM     32  C   UNL A   1      39.775  26.549  29.370  1.00  0.00     0.010 A 
ATOM     33  C   UNL A   1      40.751  27.544  29.559  1.00  0.00    -0.014 A 
BRANCH  33  34
ATOM     34  C   UNL A   1      40.627  28.552  30.653  1.00  0.00     0.031 A 
ATOM     35  C   UNL A   1      41.511  28.493  31.862  1.00  0.00     0.074 A 
ATOM     36  C   UNL A   1      39.700  29.528  30.598  1.00  0.00     0.049 A 
ATOM     37  N   UNL A   1      41.537  29.299  32.893  1.00  0.00    -0.248 NA
ATOM     38  C   UNL A   1      42.471  27.386  31.930  1.00  0.00     0.031 C 
ATOM     39  C   UNL A   1      38.739  29.676  29.520  1.00  0.00     0.029 A 
ATOM     40  N   UNL A   1      39.394  30.554  31.464  1.00  0.00    -0.354 N 
ATOM     41  C   UNL A   1      42.503  28.792  33.745  1.00  0.00     0.074 A 
ATOM     42  C   UNL A   1      43.035  27.600  33.112  1.00  0.00     0.031 C 
ATOM     43  C   UNL A   1      37.935  30.708  29.803  1.00  0.00     0.029 A 
ATOM     44  C   UNL A   1      38.340  31.334  31.047  1.00  0.00     0.049 A 
ATOM     45  H   UNL A   1      39.882  30.715  32.303  1.00  0.00     0.167 HD
ATOM     46  C   UNL A   1      42.907  29.273  34.945  1.00  0.00     0.037 A 
ATOM     47  C   UNL A   1      37.753  32.431  31.569  1.00  0.00     0.037 A 
ATOM     48  C   UNL A   1      42.387  30.455  35.588  1.00  0.00     0.049 A 
ATOM     49  C   UNL A   1      38.250  32.969  32.876  1.00  0.00     0.074 A 
ATOM     50  C   UNL A   1      42.792  31.025  36.784  1.00  0.00     0.029 A 
ATOM     51  N   UNL A   1      41.348  31.239  35.111  1.00  0.00    -0.354 N 
ATOM     52  N   UNL A   1      39.226  32.520  33.624  1.00  0.00    -0.248 NA
ATOM     53  C   UNL A   1      37.565  34.151  33.421  1.00  0.00     0.031 C 
ATOM     54  C   UNL A   1      41.970  32.124  37.054  1.00  0.00     0.029 A 
ATOM     55  C   UNL A   1      41.080  32.268  36.004  1.00  0.00     0.049 A 
ATOM     56  H   UNL A   1      40.869  31.087  34.264  1.00  0.00     0.167 HD
ATOM     57  C   UNL A   1      39.263  33.353  34.733  1.00  0.00     0.074 A 
ATOM     58  C   UNL A   1      38.247  34.366  34.537  1.00  0.00     0.031 C 
ATOM     59  C   UNL A   1      40.057  33.266  35.826  1.00  0.00     0.037 A 
BRANCH  46  60
ATOM     60  C   UNL A   1      43.967  28.500  35.670  1.00  0.00     0.058 A 
ATOM     61  C   UNL A   1      45.330  28.790  35.503  1.00  0.00     0.135 A 
ATOM     62  C   UNL A   1      43.611  27.501  36.588  1.00  0.00     0.135 A 
ATOM     63  F   UNL A   1      45.719  29.725  34.621  1.00  0.00    -0.206 F 
ATOM     64  C   UNL A   1      46.306  28.108  36.218  1.00  0.00     0.059 A 
ATOM     65  C   UNL A   1      44.569  26.820  37.330  1.00  0.00     0.059 A 
ATOM     66  F   UNL A   1      42.319  27.184  36.776  1.00  0.00    -0.206 F 
ATOM     67  C   UNL A   1      45.914  27.127  37.133  1.00  0.00     0.060 A 
BRANCH  67  68
ATOM     68  S   UNL A   1      47.193  26.272  38.076  1.00  0.00     0.124 S 
ATOM     69  O   UNL A   1      47.978  27.393  38.585  1.00  0.00    -0.237 OA
ATOM     70  O   UNL A   1      46.413  25.542  39.070  1.00  0.00    -0.237 OA
ATOM     71  O   UNL A   1      47.858  25.445  37.074  1.00  0.00    -0.744 OA
ENDBRANCH  67  68
ENDBRANCH  46  60
BRANCH  47  72
ATOM     72  C   UNL A   1      36.639  33.123  30.855  1.00  0.00     0.058 A 
ATOM     73  C   UNL A   1      36.904  34.000  29.790  1.00  0.00     0.135 A 
ATOM     74  C   UNL A   1      35.299  32.940  31.225  1.00  0.00     0.135 A 
ATOM     75  F   UNL A   1      38.169  34.219  29.401  1.00  0.00    -0.206 F 
ATOM     76  C   UNL A   1      35.884  34.686  29.135  1.00  0.00     0.059 A 
ATOM     77  C   UNL A   1      34.260  33.593  30.567  1.00  0.00     0.059 A 
ATOM     78  F   UNL A   1      34.986  32.096  32.219  1.00  0.00    -0.206 F 
ATOM     79  C   UNL A   1      34.564  34.476  29.532  1.00  0.00     0.060 A 
BRANCH  79  80
ATOM     80  S   UNL A   1      33.236  35.324  28.647  1.00  0.00     0.124 S 
ATOM     81  O   UNL A   1      33.990  36.184  27.742  1.00  0.00    -0.237 OA
ATOM     82  O   UNL A   1      32.514  34.218  28.023  1.00  0.00    -0.237 OA
ATOM     83  O   UNL A   1      32.513  36.006  29.715  1.00  0.00    -0.744 OA
ENDBRANCH  79  80
ENDBRANCH  47  72
BRANCH  59  84
ATOM     84  C   UNL A   1      39.841  34.283  36.910  1.00  0.00     0.058 A 
ATOM     85  C   UNL A   1      38.994  34.018  37.999  1.00  0.00     0.135 A 
ATOM     86  C   UNL A   1      40.498  35.522  36.877  1.00  0.00     0.135 A 
ATOM     87  F   UNL A   1      38.332  32.852  38.071  1.00  0.00    -0.206 F 
ATOM     88  C   UNL A   1      38.789  34.955  39.006  1.00  0.00     0.059 A 
ATOM     89  C   UNL A   1      40.326  36.466  37.886  1.00  0.00     0.059 A 
ATOM     90  F   UNL A   1      41.319  35.825  35.859  1.00  0.00    -0.206 F 
ATOM     91  C   UNL A   1      39.460  36.177  38.940  1.00  0.00     0.060 A 
BRANCH  91  92
ATOM     92  S   UNL A   1      39.208  37.373  40.270  1.00  0.00     0.124 S 
ATOM     93  O   UNL A   1      38.287  38.317  39.647  1.00  0.00    -0.237 OA
ATOM     94  O   UNL A   1      38.647  36.545  41.333  1.00  0.00    -0.237 OA
ATOM     95  O   UNL A   1      40.553  37.883  40.525  1.00  0.00    -0.744 OA
ENDBRANCH  91  92
ENDBRANCH  59  84
ENDBRANCH  33  34
ENDBRANCH  26  28
ENDBRANCH  25  26
ENDBRANCH  24  25
ENDBRANCH   1  24
TORSDOF 17
ENDMDL
MODEL 2
REMARK VINA RESULT:     -11.7      2.419      3.760
REMARK SMILES O=C(/C=C/c1cc(C(=O)Nc2ccc(F)cc2Cl)cs1)OCCOC(=O)c1ccc(-c2c3nc(c(-c4c(F)cc(S(=O)(=O)[O-])cc4F)c4ccc([nH]4)c(-c4c(F)cc(S(=O)(=O)[O-])cc4F)c4nc(c(-c5c(F)cc(S(=O)(=O)[O-])cc5F)c5ccc2[nH]5)C=C4)C=C3)cc1
REMARK SMILES IDX 22 1 21 2 2 3 1 4 3 5 4 6 5 7 6 8 20 9 7 10 19 11 8 12 9 13
REMARK SMILES IDX 10 14 11 16 12 17 17 18 13 19 16 20 18 21 14 22 15 23 23 24
REMARK SMILES IDX 24 25 25 26 26 27 27 28 28 29 92 30 29 31 91 32 30 33 31 34
REMARK SMILES IDX 32 35 85 36 33 37 90 38 84 39 86 40 34 41 89 42 83 43 82 44
REMARK SMILES IDX 35 46 69 47 48 48 68 49 49 50 52 51 67 52 87 53 50 54 51 55
REMARK SMILES IDX 66 57 88 58 53 59 36 60 37 61 46 62 38 63 39 64 45 65 47 66
REMARK SMILES IDX 40 67 41 68 42 69 43 70 44 71 70 72 71 73 80 74 72 75 73 76
REMARK SMILES IDX 79 77 81 78 74 79 75 80 76 81 77 82 78 83 54 84 55 85 64 86
REMARK SMILES IDX 56 87 57 88 63 89 65 90 58 91 59 92 60 93 61 94 62 95
REMARK H PARENT 10 15 86 45 52 56
REMARK Flexibility Score: inf
ROOT
ATOM      1  C   UNL A   1      42.630  21.512  26.496  1.00  0.00     0.275 C 
ENDROOT
BRANCH   1   2
ATOM      2  O   UNL A   1      41.326  21.071  26.907  1.00  0.00    -0.459 OA
BRANCH   2   3
ATOM      3  C   UNL A   1      40.436  20.331  26.218  1.00  0.00     0.330 C 
ATOM      4  O   UNL A   1      40.765  19.237  25.765  1.00  0.00    -0.247 OA
BRANCH   3   5
ATOM      5  C   UNL A   1      39.095  20.832  25.872  1.00  0.00     0.095 C 
ATOM      6  C   UNL A   1      38.172  20.343  25.031  1.00  0.00     0.026 C 
BRANCH   6   7
ATOM      7  C   UNL A   1      36.926  20.998  24.810  1.00  0.00     0.028 A 
ATOM      8  C   UNL A   1      35.638  20.579  25.081  1.00  0.00     0.033 A 
ATOM      9  S   UNL A   1      36.873  22.581  24.140  1.00  0.00    -0.144 S 
ATOM     10  C   UNL A   1      34.753  21.687  25.291  1.00  0.00     0.051 A 
ATOM     11  C   UNL A   1      35.235  22.784  24.600  1.00  0.00     0.079 A 
BRANCH  10  12
ATOM     12  C   UNL A   1      33.501  21.715  26.061  1.00  0.00     0.256 C 
ATOM     13  O   UNL A   1      33.283  22.626  26.856  1.00  0.00    -0.269 OA
ATOM     14  N   UNL A   1      32.547  20.718  25.887  1.00  0.00    -0.321 N 
ATOM     15  H   UNL A   1      31.681  20.899  26.319  1.00  0.00     0.170 HD
BRANCH  14  16
ATOM     16  C   UNL A   1      32.609  19.484  25.192  1.00  0.00     0.060 A 
ATOM     17  C   UNL A   1      32.763  18.270  25.872  1.00  0.00     0.031 A 
ATOM     18  C   UNL A   1      32.574  19.449  23.786  1.00  0.00     0.067 A 
ATOM     19  C   UNL A   1      33.113  17.108  25.183  1.00  0.00     0.041 A 
ATOM     20  C   UNL A   1      32.972  18.303  23.096  1.00  0.00     0.062 A 
ATOM     21  Cl  UNL A   1      32.056  20.786  22.834  1.00  0.00    -0.082 Cl
ATOM     22  C   UNL A   1      33.271  17.151  23.806  1.00  0.00     0.124 A 
ATOM     23  F   UNL A   1      33.686  16.060  23.154  1.00  0.00    -0.207 F 
ENDBRANCH  14  16
ENDBRANCH  10  12
ENDBRANCH   6   7
ENDBRANCH   3   5
ENDBRANCH   2   3
ENDBRANCH   1   2
BRANCH   1  24
ATOM     24  C   UNL A   1      42.671  22.871  25.788  1.00  0.00     0.275 C 
BRANCH  24  25
ATOM     25  O   UNL A   1      41.719  23.833  26.281  1.00  0.00    -0.458 OA
BRANCH  25  26
ATOM     26  C   UNL A   1      41.997  25.133  25.979  1.00  0.00     0.338 C 
ATOM     27  O   UNL A   1      42.352  25.548  24.895  1.00  0.00    -0.246 OA
BRANCH  26  28
ATOM     28  C   UNL A   1      41.682  26.032  27.126  1.00  0.00     0.060 A 
ATOM     29  C   UNL A   1      42.436  27.206  27.261  1.00  0.00     0.016 A 
ATOM     30  C   UNL A   1      40.689  25.744  28.069  1.00  0.00     0.016 A 
ATOM     31  C   UNL A   1      42.216  28.076  28.337  1.00  0.00     0.010 A 
ATOM     32  C   UNL A   1      40.476  26.616  29.153  1.00  0.00     0.010 A 
ATOM     33  C   UNL A   1      41.247  27.781  29.308  1.00  0.00    -0.014 A 
BRANCH  33  34
ATOM     34  C   UNL A   1      41.059  28.685  30.480  1.00  0.00     0.031 A 
ATOM     35  C   UNL A   1      41.935  28.576  31.690  1.00  0.00     0.074 A 
ATOM     36  C   UNL A   1      40.079  29.610  30.494  1.00  0.00     0.049 A 
ATOM     37  N   UNL A   1      41.907  29.294  32.785  1.00  0.00    -0.248 NA
ATOM     38  C   UNL A   1      42.956  27.522  31.679  1.00  0.00     0.031 C 
ATOM     39  C   UNL A   1      39.119  29.793  29.420  1.00  0.00     0.029 A 
ATOM     40  N   UNL A   1      39.707  30.541  31.438  1.00  0.00    -0.354 N 
ATOM     41  C   UNL A   1      42.894  28.772  33.605  1.00  0.00     0.074 A 
ATOM     42  C   UNL A   1      43.497  27.668  32.881  1.00  0.00     0.031 C 
ATOM     43  C   UNL A   1      38.256  30.752  29.778  1.00  0.00     0.029 A 
ATOM     44  C   UNL A   1      38.615  31.294  31.074  1.00  0.00     0.049 A 
ATOM     45  H   UNL A   1      40.179  30.659  32.294  1.00  0.00     0.167 HD
ATOM     46  C   UNL A   1      43.260  29.173  34.845  1.00  0.00     0.037 A 
ATOM     47  C   UNL A   1      37.962  32.309  31.678  1.00  0.00     0.037 A 
ATOM     48  C   UNL A   1      42.669  30.266  35.577  1.00  0.00     0.049 A 
ATOM     49  C   UNL A   1      38.418  32.763  33.031  1.00  0.00     0.074 A 
ATOM     50  C   UNL A   1      43.032  30.757  36.821  1.00  0.00     0.029 A 
ATOM     51  N   UNL A   1      41.591  31.028  35.154  1.00  0.00    -0.354 N 
ATOM     52  N   UNL A   1      39.412  32.308  33.752  1.00  0.00    -0.248 NA
ATOM     53  C   UNL A   1      37.663  33.856  33.663  1.00  0.00     0.031 C 
ATOM     54  C   UNL A   1      42.147  31.781  37.170  1.00  0.00     0.029 A 
ATOM     55  C   UNL A   1      41.258  31.962  36.125  1.00  0.00     0.049 A 
ATOM     56  H   UNL A   1      41.129  30.921  34.291  1.00  0.00     0.167 HD
ATOM     57  C   UNL A   1      39.393  33.047  34.926  1.00  0.00     0.074 A 
ATOM     58  C   UNL A   1      38.323  34.015  34.801  1.00  0.00     0.031 C 
ATOM     59  C   UNL A   1      40.182  32.913  36.017  1.00  0.00     0.037 A 
BRANCH  46  60
ATOM     60  C   UNL A   1      44.357  28.402  35.517  1.00  0.00     0.058 A 
ATOM     61  C   UNL A   1      45.700  28.793  35.409  1.00  0.00     0.135 A 
ATOM     62  C   UNL A   1      44.052  27.298  36.327  1.00  0.00     0.135 A 
ATOM     63  F   UNL A   1      46.042  29.832  34.629  1.00  0.00    -0.206 F 
ATOM     64  C   UNL A   1      46.707  28.109  36.078  1.00  0.00     0.059 A 
ATOM     65  C   UNL A   1      45.040  26.611  37.022  1.00  0.00     0.059 A 
ATOM     66  F   UNL A   1      42.781  26.884  36.454  1.00  0.00    -0.206 F 
ATOM     67  C   UNL A   1      46.366  27.021  36.885  1.00  0.00     0.060 A 
BRANCH  67  68
ATOM     68  S   UNL A   1      47.682  26.162  37.771  1.00  0.00     0.124 S 
ATOM     69  O   UNL A   1      47.591  26.775  39.093  1.00  0.00    -0.237 OA
ATOM     70  O   UNL A   1      47.257  24.768  37.688  1.00  0.00    -0.237 OA
ATOM     71  O   UNL A   1      48.880  26.495  37.006  1.00  0.00    -0.744 OA
ENDBRANCH  67  68
ENDBRANCH  46  60
BRANCH  47  72
ATOM     72  C   UNL A   1      36.817  32.995  31.009  1.00  0.00     0.058 A 
ATOM     73  C   UNL A   1      35.495  32.750  31.417  1.00  0.00     0.135 A 
ATOM     74  C   UNL A   1      37.011  33.889  29.947  1.00  0.00     0.135 A 
ATOM     75  F   UNL A   1      35.252  31.896  32.423  1.00  0.00    -0.206 F 
ATOM     76  C   UNL A   1      34.409  33.348  30.783  1.00  0.00     0.059 A 
ATOM     77  C   UNL A   1      35.944  34.521  29.315  1.00  0.00     0.059 A 
ATOM     78  F   UNL A   1      38.253  34.179  29.531  1.00  0.00    -0.206 F 
ATOM     79  C   UNL A   1      34.645  34.233  29.731  1.00  0.00     0.060 A 
BRANCH  79  80
ATOM     80  S   UNL A   1      33.239  35.051  28.943  1.00  0.00     0.124 S 
ATOM     81  O   UNL A   1      32.382  35.330  30.088  1.00  0.00    -0.237 OA
ATOM     82  O   UNL A   1      33.861  36.212  28.313  1.00  0.00    -0.237 OA
ATOM     83  O   UNL A   1      32.748  34.037  28.014  1.00  0.00    -0.744 OA
ENDBRANCH  79  80
ENDBRANCH  47  72
BRANCH  59  84
ATOM     84  C   UNL A   1      39.901  33.822  37.180  1.00  0.00     0.058 A 
ATOM     85  C   UNL A   1      40.531  35.072  37.296  1.00  0.00     0.135 A 
ATOM     86  C   UNL A   1      38.982  33.456  38.175  1.00  0.00     0.135 A 
ATOM     87  F   UNL A   1      41.428  35.463  36.377  1.00  0.00    -0.206 F 
ATOM     88  C   UNL A   1      40.276  35.918  38.369  1.00  0.00     0.059 A 
ATOM     89  C   UNL A   1      38.694  34.298  39.246  1.00  0.00     0.059 A 
ATOM     90  F   UNL A   1      38.351  32.273  38.112  1.00  0.00    -0.206 F 
ATOM     91  C   UNL A   1      39.355  35.522  39.340  1.00  0.00     0.060 A 
BRANCH  91  92
ATOM     92  S   UNL A   1      39.011  36.644  40.713  1.00  0.00     0.124 S 
ATOM     93  O   UNL A   1      40.357  36.973  41.169  1.00  0.00    -0.237 OA
ATOM     94  O   UNL A   1      38.280  37.724  40.059  1.00  0.00    -0.237 OA
ATOM     95  O   UNL A   1      38.220  35.825  41.628  1.00  0.00    -0.744 OA
ENDBRANCH  91  92
ENDBRANCH  59  84
ENDBRANCH  33  34
ENDBRANCH  26  28
ENDBRANCH  25  26
ENDBRANCH  24  25
ENDBRANCH   1  24
TORSDOF 17
ENDMDL
MODEL 3
REMARK VINA RESULT:     -11.6      6.468     12.294
REMARK SMILES O=C(/C=C/c1cc(C(=O)Nc2ccc(F)cc2Cl)cs1)OCCOC(=O)c1ccc(-c2c3nc(c(-c4c(F)cc(S(=O)(=O)[O-])cc4F)c4ccc([nH]4)c(-c4c(F)cc(S(=O)(=O)[O-])cc4F)c4nc(c(-c5c(F)cc(S(=O)(=O)[O-])cc5F)c5ccc2[nH]5)C=C4)C=C3)cc1
REMARK SMILES IDX 22 1 21 2 2 3 1 4 3 5 4 6 5 7 6 8 20 9 7 10 19 11 8 12 9 13
REMARK SMILES IDX 10 14 11 16 12 17 17 18 13 19 16 20 18 21 14 22 15 23 23 24
REMARK SMILES IDX 24 25 25 26 26 27 27 28 28 29 92 30 29 31 91 32 30 33 31 34
REMARK SMILES IDX 32 35 85 36 33 37 90 38 84 39 86 40 34 41 89 42 83 43 82 44
REMARK SMILES IDX 35 46 69 47 48 48 68 49 49 50 52 51 67 52 87 53 50 54 51 55
REMARK SMILES IDX 66 57 88 58 53 59 36 60 37 61 46 62 38 63 39 64 45 65 47 66
REMARK SMILES IDX 40 67 41 68 42 69 43 70 44 71 70 72 71 73 80 74 72 75 73 76
REMARK SMILES IDX 79 77 81 78 74 79 75 80 76 81 77 82 78 83 54 84 55 85 64 86
REMARK SMILES IDX 56 87 57 88 63 89 65 90 58 91 59 92 60 93 61 94 62 95
REMARK H PARENT 10 15 86 45 52 56
REMARK Flexibility Score: inf
ROOT
ATOM      1  C   UNL A   1      35.703  33.729  28.994  1.00  0.00     0.275 C 
ENDROOT
BRANCH   1   2
ATOM      2  O   UNL A   1      34.872  33.344  27.887  1.00  0.00    -0.459 OA
BRANCH   2   3
ATOM      3  C   UNL A   1      33.533  33.202  27.853  1.00  0.00     0.330 C 
ATOM      4  O   UNL A   1      32.814  34.002  28.448  1.00  0.00    -0.247 OA
BRANCH   3   5
ATOM      5  C   UNL A   1      32.879  32.042  27.224  1.00  0.00     0.095 C 
ATOM      6  C   UNL A   1      33.168  30.734  27.294  1.00  0.00     0.026 C 
BRANCH   6   7
ATOM      7  C   UNL A   1      32.420  29.753  26.580  1.00  0.00     0.028 A 
ATOM      8  C   UNL A   1      32.130  29.660  25.233  1.00  0.00     0.033 A 
ATOM      9  S   UNL A   1      31.747  28.396  27.395  1.00  0.00    -0.144 S 
ATOM     10  C   UNL A   1      31.913  28.302  24.829  1.00  0.00     0.051 A 
ATOM     11  C   UNL A   1      31.462  27.578  25.918  1.00  0.00     0.079 A 
BRANCH  10  12
ATOM     12  C   UNL A   1      32.077  27.716  23.492  1.00  0.00     0.256 C 
ATOM     13  O   UNL A   1      33.064  27.032  23.231  1.00  0.00    -0.269 OA
ATOM     14  N   UNL A   1      31.109  27.918  22.513  1.00  0.00    -0.321 N 
ATOM     15  H   UNL A   1      31.219  27.364  21.707  1.00  0.00     0.170 HD
BRANCH  14  16
ATOM     16  C   UNL A   1      29.990  28.788  22.479  1.00  0.00     0.060 A 
ATOM     17  C   UNL A   1      30.059  30.044  21.865  1.00  0.00     0.031 A 
ATOM     18  C   UNL A   1      28.786  28.434  23.115  1.00  0.00     0.067 A 
ATOM     19  C   UNL A   1      29.066  30.999  22.085  1.00  0.00     0.041 A 
ATOM     20  C   UNL A   1      27.814  29.400  23.381  1.00  0.00     0.062 A 
ATOM     21  Cl  UNL A   1      28.432  26.823  23.609  1.00  0.00    -0.082 Cl
ATOM     22  C   UNL A   1      27.981  30.685  22.890  1.00  0.00     0.124 A 
ATOM     23  F   UNL A   1      27.071  31.625  23.169  1.00  0.00    -0.207 F 
ENDBRANCH  14  16
ENDBRANCH  10  12
ENDBRANCH   6   7
ENDBRANCH   3   5
ENDBRANCH   2   3
ENDBRANCH   1   2
BRANCH   1  24
ATOM     24  C   UNL A   1      35.675  32.780  30.197  1.00  0.00     0.275 C 
BRANCH  24  25
ATOM     25  O   UNL A   1      35.724  31.381  29.858  1.00  0.00    -0.458 OA
BRANCH  25  26
ATOM     26  C   UNL A   1      36.384  30.589  30.751  1.00  0.00     0.338 C 
ATOM     27  O   UNL A   1      35.939  30.192  31.808  1.00  0.00    -0.246 OA
BRANCH  26  28
ATOM     28  C   UNL A   1      37.700  30.146  30.209  1.00  0.00     0.060 A 
ATOM     29  C   UNL A   1      38.688  29.764  31.127  1.00  0.00     0.016 A 
ATOM     30  C   UNL A   1      37.988  30.112  28.840  1.00  0.00     0.016 A 
ATOM     31  C   UNL A   1      39.960  29.372  30.685  1.00  0.00     0.010 A 
ATOM     32  C   UNL A   1      39.267  29.726  28.400  1.00  0.00     0.010 A 
ATOM     33  C   UNL A   1      40.271  29.367  29.317  1.00  0.00    -0.014 A 
BRANCH  33  34
ATOM     34  C   UNL A   1      41.644  29.002  28.860  1.00  0.00     0.031 A 
ATOM     35  C   UNL A   1      42.741  30.021  28.816  1.00  0.00     0.074 A 
ATOM     36  C   UNL A   1      41.929  27.751  28.450  1.00  0.00     0.049 A 
ATOM     37  N   UNL A   1      43.990  29.860  28.456  1.00  0.00    -0.248 NA
ATOM     38  C   UNL A   1      42.393  31.391  29.209  1.00  0.00     0.031 C 
ATOM     39  C   UNL A   1      40.957  26.675  28.383  1.00  0.00     0.029 A 
ATOM     40  N   UNL A   1      43.095  27.178  27.991  1.00  0.00    -0.354 N 
ATOM     41  C   UNL A   1      44.577  31.109  28.560  1.00  0.00     0.074 A 
ATOM     42  C   UNL A   1      43.543  32.022  29.010  1.00  0.00     0.031 C 
ATOM     43  C   UNL A   1      41.556  25.587  27.885  1.00  0.00     0.029 A 
ATOM     44  C   UNL A   1      42.960  25.854  27.641  1.00  0.00     0.049 A 
ATOM     45  H   UNL A   1      43.945  27.669  27.920  1.00  0.00     0.167 HD
ATOM     46  C   UNL A   1      45.859  31.464  28.301  1.00  0.00     0.037 A 
ATOM     47  C   UNL A   1      43.839  24.936  27.187  1.00  0.00     0.037 A 
ATOM     48  C   UNL A   1      46.897  30.570  27.851  1.00  0.00     0.049 A 
ATOM     49  C   UNL A   1      45.262  25.344  26.953  1.00  0.00     0.074 A 
ATOM     50  C   UNL A   1      48.233  30.859  27.620  1.00  0.00     0.029 A 
ATOM     51  N   UNL A   1      46.727  29.227  27.548  1.00  0.00    -0.354 N 
ATOM     52  N   UNL A   1      45.815  26.516  27.141  1.00  0.00    -0.248 NA
ATOM     53  C   UNL A   1      46.179  24.318  26.434  1.00  0.00     0.031 C 
ATOM     54  C   UNL A   1      48.859  29.707  27.134  1.00  0.00     0.029 A 
ATOM     55  C   UNL A   1      47.926  28.685  27.104  1.00  0.00     0.049 A 
ATOM     56  H   UNL A   1      45.881  28.732  27.634  1.00  0.00     0.167 HD
ATOM     57  C   UNL A   1      47.139  26.371  26.750  1.00  0.00     0.074 A 
ATOM     58  C   UNL A   1      47.320  24.988  26.364  1.00  0.00     0.031 C 
ATOM     59  C   UNL A   1      48.108  27.316  26.697  1.00  0.00     0.037 A 
BRANCH  46  60
ATOM     60  C   UNL A   1      46.217  32.909  28.479  1.00  0.00     0.058 A 
ATOM     61  C   UNL A   1      46.101  33.828  27.425  1.00  0.00     0.135 A 
ATOM     62  C   UNL A   1      46.621  33.388  29.734  1.00  0.00     0.135 A 
ATOM     63  F   UNL A   1      45.737  33.412  26.201  1.00  0.00    -0.206 F 
ATOM     64  C   UNL A   1      46.382  35.176  27.609  1.00  0.00     0.059 A 
ATOM     65  C   UNL A   1      46.887  34.735  29.946  1.00  0.00     0.059 A 
ATOM     66  F   UNL A   1      46.752  32.544  30.770  1.00  0.00    -0.206 F 
ATOM     67  C   UNL A   1      46.770  35.621  28.876  1.00  0.00     0.060 A 
BRANCH  67  68
ATOM     68  S   UNL A   1      47.101  37.379  29.105  1.00  0.00     0.124 S 
ATOM     69  O   UNL A   1      47.861  37.372  30.351  1.00  0.00    -0.237 OA
ATOM     70  O   UNL A   1      47.859  37.713  27.903  1.00  0.00    -0.237 OA
ATOM     71  O   UNL A   1      45.768  37.968  29.185  1.00  0.00    -0.744 OA
ENDBRANCH  67  68
ENDBRANCH  46  60
BRANCH  47  72
ATOM     72  C   UNL A   1      43.419  23.524  26.940  1.00  0.00     0.058 A 
ATOM     73  C   UNL A   1      43.296  22.615  28.003  1.00  0.00     0.135 A 
ATOM     74  C   UNL A   1      43.151  23.050  25.647  1.00  0.00     0.135 A 
ATOM     75  F   UNL A   1      43.550  23.014  29.259  1.00  0.00    -0.206 F 
ATOM     76  C   UNL A   1      42.943  21.284  27.792  1.00  0.00     0.059 A 
ATOM     77  C   UNL A   1      42.770  21.731  25.414  1.00  0.00     0.059 A 
ATOM     78  F   UNL A   1      43.230  23.880  24.598  1.00  0.00    -0.206 F 
ATOM     79  C   UNL A   1      42.683  20.851  26.492  1.00  0.00     0.060 A 
BRANCH  79  80
ATOM     80  S   UNL A   1      42.173  19.139  26.224  1.00  0.00     0.124 S 
ATOM     81  O   UNL A   1      42.338  18.571  27.557  1.00  0.00    -0.237 OA
ATOM     82  O   UNL A   1      40.797  19.287  25.759  1.00  0.00    -0.237 OA
ATOM     83  O   UNL A   1      43.117  18.670  25.213  1.00  0.00    -0.744 OA
ENDBRANCH  79  80
ENDBRANCH  47  72
BRANCH  59  84
ATOM     84  C   UNL A   1      49.451  26.887  26.178  1.00  0.00     0.058 A 
ATOM     85  C   UNL A   1      50.410  26.312  27.027  1.00  0.00     0.135 A 
ATOM     86  C   UNL A   1      49.778  27.032  24.821  1.00  0.00     0.135 A 
ATOM     87  F   UNL A   1      50.151  26.165  28.336  1.00  0.00    -0.206 F 
ATOM     88  C   UNL A   1      51.656  25.915  26.554  1.00  0.00     0.059 A 
ATOM     89  C   UNL A   1      51.010  26.619  24.321  1.00  0.00     0.059 A 
ATOM     90  F   UNL A   1      48.897  27.575  23.967  1.00  0.00    -0.206 F 
ATOM     91  C   UNL A   1      51.946  26.072  25.197  1.00  0.00     0.060 A 
BRANCH  91  92
ATOM     92  S   UNL A   1      53.556  25.523  24.590  1.00  0.00     0.124 S 
ATOM     93  O   UNL A   1      54.466  26.251  25.468  1.00  0.00    -0.237 OA
ATOM     94  O   UNL A   1      53.494  24.080  24.796  1.00  0.00    -0.237 OA
ATOM     95  O   UNL A   1      53.554  25.951  23.193  1.00  0.00    -0.744 OA
ENDBRANCH  91  92
ENDBRANCH  59  84
ENDBRANCH  33  34
ENDBRANCH  26  28
ENDBRANCH  25  26
ENDBRANCH  24  25
ENDBRANCH   1  24
TORSDOF 17
ENDMDL
