MODEL 1
REMARK VINA RESULT:     -13.5      0.000      0.000
REMARK SMILES C[C@H]1c2ccc(O)cc2OC(=O)[C@@H]1CC(=O)N[C@@H](CC1=c2ccccc2=NC1)C(=O)OCCOC(=O)c1ccc(-c2c3nc(c(-c4c(F)cc(S(=O)(=O)[O-])cc4F)c4ccc([nH]4)c(-c4c(F)cc(S(=O)(=O)[O-])cc4F)c4nc(c(-c5c(F)cc(S(=O)(=O)[O-])cc5F)c5ccc2[nH]5)C=C4)C=C3)cc1
REMARK SMILES IDX 32 1 31 2 29 3 30 4 18 5 17 6 15 7 16 8 14 10 13 11 1 12
REMARK SMILES IDX 2 13 3 14 4 15 9 16 11 17 5 18 8 19 10 20 12 21 6 22 7 23
REMARK SMILES IDX 19 25 20 26 21 27 28 28 22 29 26 30 27 31 23 32 25 33 24 34
REMARK SMILES IDX 33 35 34 36 35 37 36 38 37 39 38 40 102 41 39 42 101 43
REMARK SMILES IDX 40 44 41 45 42 46 95 47 43 48 100 49 94 50 96 51 44 52 99 53
REMARK SMILES IDX 93 54 92 55 45 57 79 58 58 59 78 60 59 61 62 62 77 63 97 64
REMARK SMILES IDX 60 65 61 66 76 68 98 69 63 70 46 71 47 72 56 73 48 74 49 75
REMARK SMILES IDX 55 76 57 77 50 78 51 79 52 80 53 81 54 82 80 83 81 84 90 85
REMARK SMILES IDX 82 86 83 87 89 88 91 89 84 90 85 91 86 92 87 93 88 94 64 95
REMARK SMILES IDX 65 96 74 97 66 98 67 99 73 100 75 101 68 102 69 103 70 104
REMARK SMILES IDX 71 105 72 106
REMARK H PARENT 17 9 7 24 96 56 62 67
REMARK Flexibility Score: inf
ROOT
ATOM      1  C   UNL A   1      33.568  30.416  27.330  1.00  0.00     0.274 C 
ENDROOT
BRANCH   1   2
ATOM      2  O   UNL A   1      33.387  29.095  26.782  1.00  0.00    -0.461 OA
BRANCH   2   3
ATOM      3  C   UNL A   1      32.122  28.613  26.873  1.00  0.00     0.329 C 
ATOM      4  O   UNL A   1      31.250  29.081  27.603  1.00  0.00    -0.250 OA
BRANCH   3   5
ATOM      5  C   UNL A   1      31.905  27.308  26.111  1.00  0.00     0.196 C 
BRANCH   5   6
ATOM      6  N   UNL A   1      31.615  26.068  26.842  1.00  0.00    -0.342 N 
ATOM      7  C   UNL A   1      31.924  24.767  26.545  1.00  0.00     0.221 C 
ATOM      8  O   UNL A   1      31.318  23.871  27.135  1.00  0.00    -0.275 OA
ATOM      9  H   UNL A   1      31.116  26.191  27.681  1.00  0.00     0.164 HD
BRANCH   7  10
ATOM     10  C   UNL A   1      33.059  24.421  25.584  1.00  0.00     0.116 C 
BRANCH  10  11
ATOM     11  C   UNL A   1      32.672  23.774  24.236  1.00  0.00     0.116 C 
ATOM     12  C   UNL A   1      32.407  21.583  22.915  1.00  0.00     0.014 C 
ATOM     13  C   UNL A   1      32.940  22.247  24.188  1.00  0.00     0.034 C 
ATOM     14  C   UNL A   1      34.426  22.017  24.274  1.00  0.00    -0.001 A 
ATOM     15  C   UNL A   1      34.982  20.896  24.893  1.00  0.00     0.011 A 
ATOM     16  C   UNL A   1      35.277  22.995  23.756  1.00  0.00     0.138 A 
ATOM     17  C   UNL A   1      33.422  24.413  23.101  1.00  0.00     0.315 C 
ATOM     18  C   UNL A   1      36.365  20.829  25.079  1.00  0.00     0.047 A 
ATOM     19  C   UNL A   1      36.643  22.969  23.980  1.00  0.00     0.093 A 
ATOM     20  O   UNL A   1      34.766  24.070  23.012  1.00  0.00    -0.426 OA
ATOM     21  O   UNL A   1      32.916  25.233  22.344  1.00  0.00    -0.251 OA
ATOM     22  C   UNL A   1      37.163  21.898  24.682  1.00  0.00     0.119 A 
BRANCH  22  23
ATOM     23  O   UNL A   1      38.473  21.941  25.035  1.00  0.00    -0.508 OA
ATOM     24  H   UNL A   1      39.049  22.555  24.624  1.00  0.00     0.293 HD
ENDBRANCH  22  23
ENDBRANCH  10  11
ENDBRANCH   7  10
ENDBRANCH   5   6
BRANCH   5  25
ATOM     25  C   UNL A   1      30.860  27.619  25.003  1.00  0.00     0.070 C 
BRANCH  25  26
ATOM     26  C   UNL A   1      30.947  28.868  24.109  1.00  0.00    -0.037 C 
ATOM     27  C   UNL A   1      29.886  29.666  23.931  1.00  0.00     0.001 A 
ATOM     28  C   UNL A   1      31.454  28.483  22.726  1.00  0.00     0.174 C 
ATOM     29  C   UNL A   1      29.719  31.082  24.165  1.00  0.00     0.010 A 
ATOM     30  C   UNL A   1      29.443  29.241  22.579  1.00  0.00     0.065 A 
ATOM     31  N   UNL A   1      30.267  28.562  21.848  1.00  0.00    -0.280 NA
ATOM     32  C   UNL A   1      28.678  31.686  23.557  1.00  0.00     0.001 A 
ATOM     33  C   UNL A   1      28.094  29.721  22.221  1.00  0.00     0.028 A 
ATOM     34  C   UNL A   1      27.747  30.912  22.741  1.00  0.00     0.002 A 
ENDBRANCH  25  26
ENDBRANCH   5  25
ENDBRANCH   3   5
ENDBRANCH   2   3
ENDBRANCH   1   2
BRANCH   1  35
ATOM     35  C   UNL A   1      35.030  30.686  27.693  1.00  0.00     0.275 C 
BRANCH  35  36
ATOM     36  O   UNL A   1      35.554  29.709  28.614  1.00  0.00    -0.458 OA
BRANCH  36  37
ATOM     37  C   UNL A   1      36.301  30.213  29.622  1.00  0.00     0.338 C 
ATOM     38  O   UNL A   1      35.875  30.746  30.643  1.00  0.00    -0.246 OA
BRANCH  37  39
ATOM     39  C   UNL A   1      37.726  29.872  29.436  1.00  0.00     0.060 A 
ATOM     40  C   UNL A   1      38.591  29.567  30.490  1.00  0.00     0.016 A 
ATOM     41  C   UNL A   1      38.193  29.818  28.124  1.00  0.00     0.016 A 
ATOM     42  C   UNL A   1      39.934  29.233  30.224  1.00  0.00     0.010 A 
ATOM     43  C   UNL A   1      39.522  29.495  27.865  1.00  0.00     0.010 A 
ATOM     44  C   UNL A   1      40.418  29.218  28.908  1.00  0.00    -0.014 A 
BRANCH  44  45
ATOM     45  C   UNL A   1      41.810  28.812  28.559  1.00  0.00     0.031 A 
ATOM     46  C   UNL A   1      42.954  29.793  28.554  1.00  0.00     0.074 A 
ATOM     47  C   UNL A   1      42.012  27.569  28.087  1.00  0.00     0.049 A 
ATOM     48  N   UNL A   1      44.153  29.672  28.035  1.00  0.00    -0.248 NA
ATOM     49  C   UNL A   1      42.683  31.111  29.127  1.00  0.00     0.031 C 
ATOM     50  C   UNL A   1      40.985  26.533  27.982  1.00  0.00     0.029 A 
ATOM     51  N   UNL A   1      43.146  26.972  27.604  1.00  0.00    -0.354 N 
ATOM     52  C   UNL A   1      44.742  30.933  28.127  1.00  0.00     0.074 A 
ATOM     53  C   UNL A   1      43.747  31.797  28.726  1.00  0.00     0.031 C 
ATOM     54  C   UNL A   1      41.544  25.416  27.493  1.00  0.00     0.029 A 
ATOM     55  C   UNL A   1      42.964  25.658  27.251  1.00  0.00     0.049 A 
ATOM     56  H   UNL A   1      44.008  27.441  27.516  1.00  0.00     0.167 HD
ATOM     57  C   UNL A   1      45.992  31.323  27.759  1.00  0.00     0.037 A 
ATOM     58  C   UNL A   1      43.851  24.740  26.826  1.00  0.00     0.037 A 
ATOM     59  C   UNL A   1      47.019  30.397  27.330  1.00  0.00     0.049 A 
ATOM     60  C   UNL A   1      45.297  25.119  26.683  1.00  0.00     0.074 A 
ATOM     61  C   UNL A   1      48.363  30.644  27.099  1.00  0.00     0.029 A 
ATOM     62  N   UNL A   1      46.829  29.038  27.124  1.00  0.00    -0.354 N 
ATOM     63  N   UNL A   1      45.852  26.302  26.793  1.00  0.00    -0.248 NA
ATOM     64  C   UNL A   1      46.242  24.034  26.388  1.00  0.00     0.031 C 
ATOM     65  C   UNL A   1      48.985  29.436  26.760  1.00  0.00     0.029 A 
ATOM     66  C   UNL A   1      48.034  28.430  26.810  1.00  0.00     0.049 A 
ATOM     67  H   UNL A   1      45.964  28.574  27.192  1.00  0.00     0.167 HD
ATOM     68  C   UNL A   1      47.215  26.100  26.606  1.00  0.00     0.074 A 
ATOM     69  C   UNL A   1      47.401  24.680  26.394  1.00  0.00     0.031 C 
ATOM     70  C   UNL A   1      48.218  27.014  26.608  1.00  0.00     0.037 A 
BRANCH  57  71
ATOM     71  C   UNL A   1      46.364  32.791  27.857  1.00  0.00     0.058 A 
ATOM     72  C   UNL A   1      47.054  33.317  28.962  1.00  0.00     0.135 A 
ATOM     73  C   UNL A   1      46.097  33.677  26.793  1.00  0.00     0.135 A 
ATOM     74  F   UNL A   1      47.371  32.528  30.000  1.00  0.00    -0.206 F 
ATOM     75  C   UNL A   1      47.401  34.663  29.042  1.00  0.00     0.059 A 
ATOM     76  C   UNL A   1      46.479  35.019  26.831  1.00  0.00     0.059 A 
ATOM     77  F   UNL A   1      45.472  33.240  25.687  1.00  0.00    -0.206 F 
ATOM     78  C   UNL A   1      47.109  35.509  27.973  1.00  0.00     0.060 A 
BRANCH  78  79
ATOM     79  S   UNL A   1      47.583  37.248  28.096  1.00  0.00     0.124 S 
ATOM     80  O   UNL A   1      46.532  37.893  27.315  1.00  0.00    -0.237 OA
ATOM     81  O   UNL A   1      47.532  37.484  29.535  1.00  0.00    -0.237 OA
ATOM     82  O   UNL A   1      48.916  37.282  27.505  1.00  0.00    -0.744 OA
ENDBRANCH  78  79
ENDBRANCH  57  71
BRANCH  58  83
ATOM     83  C   UNL A   1      43.400  23.336  26.681  1.00  0.00     0.058 A 
ATOM     84  C   UNL A   1      43.344  22.756  25.405  1.00  0.00     0.135 A 
ATOM     85  C   UNL A   1      43.127  22.523  27.790  1.00  0.00     0.135 A 
ATOM     86  F   UNL A   1      43.606  23.498  24.319  1.00  0.00    -0.206 F 
ATOM     87  C   UNL A   1      43.034  21.415  25.231  1.00  0.00     0.059 A 
ATOM     88  C   UNL A   1      42.835  21.170  27.641  1.00  0.00     0.059 A 
ATOM     89  F   UNL A   1      43.203  23.029  29.030  1.00  0.00    -0.206 F 
ATOM     90  C   UNL A   1      42.793  20.627  26.356  1.00  0.00     0.060 A 
BRANCH  90  91
ATOM     91  S   UNL A   1      42.489  18.865  26.112  1.00  0.00     0.124 S 
ATOM     92  O   UNL A   1      41.094  18.863  25.687  1.00  0.00    -0.237 OA
ATOM     93  O   UNL A   1      43.471  18.529  25.085  1.00  0.00    -0.237 OA
ATOM     94  O   UNL A   1      42.749  18.292  27.429  1.00  0.00    -0.744 OA
ENDBRANCH  90  91
ENDBRANCH  58  83
BRANCH  70  95
ATOM     95  C   UNL A   1      49.620  26.508  26.398  1.00  0.00     0.058 A 
ATOM     96  C   UNL A   1      50.416  26.077  27.470  1.00  0.00     0.135 A 
ATOM     97  C   UNL A   1      50.155  26.407  25.103  1.00  0.00     0.135 A 
ATOM     98  F   UNL A   1      49.956  26.156  28.729  1.00  0.00    -0.206 F 
ATOM     99  C   UNL A   1      51.702  25.585  27.269  1.00  0.00     0.059 A 
ATOM    100  C   UNL A   1      51.430  25.895  24.876  1.00  0.00     0.059 A 
ATOM    101  F   UNL A   1      49.434  26.799  24.041  1.00  0.00    -0.206 F 
ATOM    102  C   UNL A   1      52.199  25.495  25.968  1.00  0.00     0.060 A 
BRANCH 102 103
ATOM    103  S   UNL A   1      53.860  24.828  25.724  1.00  0.00     0.124 S 
ATOM    104  O   UNL A   1      54.460  25.045  27.037  1.00  0.00    -0.237 OA
ATOM    105  O   UNL A   1      53.588  23.438  25.374  1.00  0.00    -0.237 OA
ATOM    106  O   UNL A   1      54.402  25.646  24.644  1.00  0.00    -0.744 OA
ENDBRANCH 102 103
ENDBRANCH  70  95
ENDBRANCH  44  45
ENDBRANCH  37  39
ENDBRANCH  36  37
ENDBRANCH  35  36
ENDBRANCH   1  35
TORSDOF 20
ENDMDL
MODEL 2
REMARK VINA RESULT:     -13.1      1.148      2.138
REMARK SMILES C[C@H]1c2ccc(O)cc2OC(=O)[C@@H]1CC(=O)N[C@@H](CC1=c2ccccc2=NC1)C(=O)OCCOC(=O)c1ccc(-c2c3nc(c(-c4c(F)cc(S(=O)(=O)[O-])cc4F)c4ccc([nH]4)c(-c4c(F)cc(S(=O)(=O)[O-])cc4F)c4nc(c(-c5c(F)cc(S(=O)(=O)[O-])cc5F)c5ccc2[nH]5)C=C4)C=C3)cc1
REMARK SMILES IDX 32 1 31 2 29 3 30 4 18 5 17 6 15 7 16 8 14 10 13 11 1 12
REMARK SMILES IDX 2 13 3 14 4 15 9 16 11 17 5 18 8 19 10 20 12 21 6 22 7 23
REMARK SMILES IDX 19 25 20 26 21 27 28 28 22 29 26 30 27 31 23 32 25 33 24 34
REMARK SMILES IDX 33 35 34 36 35 37 36 38 37 39 38 40 102 41 39 42 101 43
REMARK SMILES IDX 40 44 41 45 42 46 95 47 43 48 100 49 94 50 96 51 44 52 99 53
REMARK SMILES IDX 93 54 92 55 45 57 79 58 58 59 78 60 59 61 62 62 77 63 97 64
REMARK SMILES IDX 60 65 61 66 76 68 98 69 63 70 46 71 47 72 56 73 48 74 49 75
REMARK SMILES IDX 55 76 57 77 50 78 51 79 52 80 53 81 54 82 80 83 81 84 90 85
REMARK SMILES IDX 82 86 83 87 89 88 91 89 84 90 85 91 86 92 87 93 88 94 64 95
REMARK SMILES IDX 65 96 74 97 66 98 67 99 73 100 75 101 68 102 69 103 70 104
REMARK SMILES IDX 71 105 72 106
REMARK H PARENT 17 9 7 24 96 56 62 67
REMARK Flexibility Score: inf
ROOT
ATOM      1  C   UNL A   1      33.314  30.841  27.328  1.00  0.00     0.274 C 
ENDROOT
BRANCH   1   2
ATOM      2  O   UNL A   1      33.450  29.729  26.419  1.00  0.00    -0.461 OA
BRANCH   2   3
ATOM      3  C   UNL A   1      32.281  29.126  26.085  1.00  0.00     0.329 C 
ATOM      4  O   UNL A   1      31.685  28.323  26.798  1.00  0.00    -0.250 OA
BRANCH   3   5
ATOM      5  C   UNL A   1      31.840  29.394  24.648  1.00  0.00     0.196 C 
BRANCH   5   6
ATOM      6  N   UNL A   1      32.819  29.340  23.555  1.00  0.00    -0.342 N 
ATOM      7  C   UNL A   1      33.778  28.407  23.263  1.00  0.00     0.221 C 
ATOM      8  O   UNL A   1      34.682  28.717  22.485  1.00  0.00    -0.275 OA
ATOM      9  H   UNL A   1      32.780  30.099  22.929  1.00  0.00     0.164 HD
BRANCH   7  10
ATOM     10  C   UNL A   1      33.687  26.981  23.802  1.00  0.00     0.116 C 
BRANCH  10  11
ATOM     11  C   UNL A   1      32.681  26.028  23.121  1.00  0.00     0.116 C 
ATOM     12  C   UNL A   1      30.849  24.255  23.463  1.00  0.00     0.014 C 
ATOM     13  C   UNL A   1      31.960  25.082  24.117  1.00  0.00     0.034 C 
ATOM     14  C   UNL A   1      32.978  24.148  24.714  1.00  0.00    -0.001 A 
ATOM     15  C   UNL A   1      32.881  23.659  26.018  1.00  0.00     0.011 A 
ATOM     16  C   UNL A   1      34.090  23.801  23.944  1.00  0.00     0.138 A 
ATOM     17  C   UNL A   1      33.364  25.179  22.085  1.00  0.00     0.315 C 
ATOM     18  C   UNL A   1      33.942  22.929  26.560  1.00  0.00     0.047 A 
ATOM     19  C   UNL A   1      35.172  23.125  24.483  1.00  0.00     0.093 A 
ATOM     20  O   UNL A   1      34.164  24.161  22.589  1.00  0.00    -0.426 OA
ATOM     21  O   UNL A   1      33.286  25.402  20.883  1.00  0.00    -0.251 OA
ATOM     22  C   UNL A   1      35.096  22.736  25.806  1.00  0.00     0.119 A 
BRANCH  22  23
ATOM     23  O   UNL A   1      36.208  22.210  26.382  1.00  0.00    -0.508 OA
ATOM     24  H   UNL A   1      36.126  21.592  27.081  1.00  0.00     0.293 HD
ENDBRANCH  22  23
ENDBRANCH  10  11
ENDBRANCH   7  10
ENDBRANCH   5   6
BRANCH   5  25
ATOM     25  C   UNL A   1      30.599  28.492  24.398  1.00  0.00     0.070 C 
BRANCH  25  26
ATOM     26  C   UNL A   1      29.690  28.658  23.168  1.00  0.00    -0.037 C 
ATOM     27  C   UNL A   1      29.330  29.873  22.733  1.00  0.00     0.001 A 
ATOM     28  C   UNL A   1      28.410  27.854  23.354  1.00  0.00     0.174 C 
ATOM     29  C   UNL A   1      29.492  30.500  21.442  1.00  0.00     0.010 A 
ATOM     30  C   UNL A   1      27.941  29.954  23.251  1.00  0.00     0.065 A 
ATOM     31  N   UNL A   1      27.363  28.860  23.631  1.00  0.00    -0.280 NA
ATOM     32  C   UNL A   1      28.717  31.572  21.177  1.00  0.00     0.001 A 
ATOM     33  C   UNL A   1      27.371  31.314  23.205  1.00  0.00     0.028 A 
ATOM     34  C   UNL A   1      27.796  32.085  22.187  1.00  0.00     0.002 A 
ENDBRANCH  25  26
ENDBRANCH   5  25
ENDBRANCH   3   5
ENDBRANCH   2   3
ENDBRANCH   1   2
BRANCH   1  35
ATOM     35  C   UNL A   1      34.653  31.219  27.966  1.00  0.00     0.275 C 
BRANCH  35  36
ATOM     36  O   UNL A   1      35.274  30.104  28.636  1.00  0.00    -0.458 OA
BRANCH  36  37
ATOM     37  C   UNL A   1      36.195  30.435  29.568  1.00  0.00     0.338 C 
ATOM     38  O   UNL A   1      35.967  30.905  30.679  1.00  0.00    -0.246 OA
BRANCH  37  39
ATOM     39  C   UNL A   1      37.539  29.979  29.158  1.00  0.00     0.060 A 
ATOM     40  C   UNL A   1      37.936  29.849  27.824  1.00  0.00     0.016 A 
ATOM     41  C   UNL A   1      38.451  29.712  30.177  1.00  0.00     0.016 A 
ATOM     42  C   UNL A   1      39.245  29.425  27.519  1.00  0.00     0.010 A 
ATOM     43  C   UNL A   1      39.741  29.286  29.872  1.00  0.00     0.010 A 
ATOM     44  C   UNL A   1      40.153  29.116  28.542  1.00  0.00    -0.014 A 
BRANCH  44  45
ATOM     45  C   UNL A   1      41.568  28.724  28.282  1.00  0.00     0.031 A 
ATOM     46  C   UNL A   1      42.696  29.722  28.314  1.00  0.00     0.074 A 
ATOM     47  C   UNL A   1      41.813  27.473  27.853  1.00  0.00     0.049 A 
ATOM     48  N   UNL A   1      43.923  29.607  27.866  1.00  0.00    -0.248 NA
ATOM     49  C   UNL A   1      42.376  31.049  28.839  1.00  0.00     0.031 C 
ATOM     50  C   UNL A   1      40.809  26.419  27.717  1.00  0.00     0.029 A 
ATOM     51  N   UNL A   1      42.981  26.882  27.447  1.00  0.00    -0.354 N 
ATOM     52  C   UNL A   1      44.489  30.879  27.958  1.00  0.00     0.074 A 
ATOM     53  C   UNL A   1      43.450  31.742  28.480  1.00  0.00     0.031 C 
ATOM     54  C   UNL A   1      41.409  25.299  27.287  1.00  0.00     0.029 A 
ATOM     55  C   UNL A   1      42.837  25.558  27.119  1.00  0.00     0.049 A 
ATOM     56  H   UNL A   1      43.839  27.362  27.396  1.00  0.00     0.167 HD
ATOM     57  C   UNL A   1      45.752  31.280  27.650  1.00  0.00     0.037 A 
ATOM     58  C   UNL A   1      43.760  24.643  26.766  1.00  0.00     0.037 A 
ATOM     59  C   UNL A   1      46.814  30.359  27.302  1.00  0.00     0.049 A 
ATOM     60  C   UNL A   1      45.205  25.041  26.693  1.00  0.00     0.074 A 
ATOM     61  C   UNL A   1      48.165  30.622  27.139  1.00  0.00     0.029 A 
ATOM     62  N   UNL A   1      46.655  28.993  27.120  1.00  0.00    -0.354 N 
ATOM     63  N   UNL A   1      45.737  26.235  26.803  1.00  0.00    -0.248 NA
ATOM     64  C   UNL A   1      46.180  23.964  26.478  1.00  0.00     0.031 C 
ATOM     65  C   UNL A   1      48.822  29.416  26.865  1.00  0.00     0.029 A 
ATOM     66  C   UNL A   1      47.884  28.396  26.888  1.00  0.00     0.049 A 
ATOM     67  H   UNL A   1      45.794  28.517  27.151  1.00  0.00     0.167 HD
ATOM     68  C   UNL A   1      47.110  26.050  26.697  1.00  0.00     0.074 A 
ATOM     69  C   UNL A   1      47.329  24.628  26.532  1.00  0.00     0.031 C 
ATOM     70  C   UNL A   1      48.099  26.979  26.732  1.00  0.00     0.037 A 
BRANCH  57  71
ATOM     71  C   UNL A   1      46.097  32.755  27.731  1.00  0.00     0.058 A 
ATOM     72  C   UNL A   1      45.835  33.644  26.677  1.00  0.00     0.135 A 
ATOM     73  C   UNL A   1      46.630  33.309  28.914  1.00  0.00     0.135 A 
ATOM     74  F   UNL A   1      45.299  33.197  25.530  1.00  0.00    -0.206 F 
ATOM     75  C   UNL A   1      46.146  34.999  26.760  1.00  0.00     0.059 A 
ATOM     76  C   UNL A   1      46.903  34.672  29.037  1.00  0.00     0.059 A 
ATOM     77  F   UNL A   1      46.875  32.527  29.978  1.00  0.00    -0.206 F 
ATOM     78  C   UNL A   1      46.682  35.506  27.944  1.00  0.00     0.060 A 
BRANCH  78  79
ATOM     79  S   UNL A   1      47.062  37.270  28.031  1.00  0.00     0.124 S 
ATOM     80  O   UNL A   1      47.238  37.601  26.620  1.00  0.00    -0.237 OA
ATOM     81  O   UNL A   1      45.865  37.817  28.660  1.00  0.00    -0.237 OA
ATOM     82  O   UNL A   1      48.272  37.320  28.844  1.00  0.00    -0.744 OA
ENDBRANCH  78  79
ENDBRANCH  57  71
BRANCH  58  83
ATOM     83  C   UNL A   1      43.337  23.229  26.632  1.00  0.00     0.058 A 
ATOM     84  C   UNL A   1      43.348  22.621  25.367  1.00  0.00     0.135 A 
ATOM     85  C   UNL A   1      43.027  22.436  27.745  1.00  0.00     0.135 A 
ATOM     86  F   UNL A   1      43.647  23.345  24.278  1.00  0.00    -0.206 F 
ATOM     87  C   UNL A   1      43.067  21.272  25.209  1.00  0.00     0.059 A 
ATOM     88  C   UNL A   1      42.763  21.075  27.612  1.00  0.00     0.059 A 
ATOM     89  F   UNL A   1      43.039  22.968  28.976  1.00  0.00    -0.206 F 
ATOM     90  C   UNL A   1      42.787  20.504  26.339  1.00  0.00     0.060 A 
BRANCH  90  91
ATOM     91  S   UNL A   1      42.522  18.732  26.120  1.00  0.00     0.124 S 
ATOM     92  O   UNL A   1      42.827  18.223  27.451  1.00  0.00    -0.237 OA
ATOM     93  O   UNL A   1      41.118  18.685  25.723  1.00  0.00    -0.237 OA
ATOM     94  O   UNL A   1      43.475  18.377  25.073  1.00  0.00    -0.744 OA
ENDBRANCH  90  91
ENDBRANCH  58  83
BRANCH  70  95
ATOM     95  C   UNL A   1      49.517  26.490  26.612  1.00  0.00     0.058 A 
ATOM     96  C   UNL A   1      50.115  26.260  25.364  1.00  0.00     0.135 A 
ATOM     97  C   UNL A   1      50.304  26.298  27.760  1.00  0.00     0.135 A 
ATOM     98  F   UNL A   1      49.407  26.423  24.235  1.00  0.00    -0.206 F 
ATOM     99  C   UNL A   1      51.435  25.834  25.257  1.00  0.00     0.059 A 
ATOM    100  C   UNL A   1      51.635  25.897  27.676  1.00  0.00     0.059 A 
ATOM    101  F   UNL A   1      49.785  26.511  28.980  1.00  0.00    -0.206 F 
ATOM    102  C   UNL A   1      52.189  25.658  26.419  1.00  0.00     0.060 A 
BRANCH 102 103
ATOM    103  S   UNL A   1      53.909  25.132  26.259  1.00  0.00     0.124 S 
ATOM    104  O   UNL A   1      54.437  26.129  25.334  1.00  0.00    -0.237 OA
ATOM    105  O   UNL A   1      54.391  25.224  27.633  1.00  0.00    -0.237 OA
ATOM    106  O   UNL A   1      53.804  23.777  25.727  1.00  0.00    -0.744 OA
ENDBRANCH 102 103
ENDBRANCH  70  95
ENDBRANCH  44  45
ENDBRANCH  37  39
ENDBRANCH  36  37
ENDBRANCH  35  36
ENDBRANCH   1  35
TORSDOF 20
ENDMDL
MODEL 3
REMARK VINA RESULT:     -12.9      6.592     12.166
REMARK SMILES C[C@H]1c2ccc(O)cc2OC(=O)[C@@H]1CC(=O)N[C@@H](CC1=c2ccccc2=NC1)C(=O)OCCOC(=O)c1ccc(-c2c3nc(c(-c4c(F)cc(S(=O)(=O)[O-])cc4F)c4ccc([nH]4)c(-c4c(F)cc(S(=O)(=O)[O-])cc4F)c4nc(c(-c5c(F)cc(S(=O)(=O)[O-])cc5F)c5ccc2[nH]5)C=C4)C=C3)cc1
REMARK SMILES IDX 32 1 31 2 29 3 30 4 18 5 17 6 15 7 16 8 14 10 13 11 1 12
REMARK SMILES IDX 2 13 3 14 4 15 9 16 11 17 5 18 8 19 10 20 12 21 6 22 7 23
REMARK SMILES IDX 19 25 20 26 21 27 28 28 22 29 26 30 27 31 23 32 25 33 24 34
REMARK SMILES IDX 33 35 34 36 35 37 36 38 37 39 38 40 102 41 39 42 101 43
REMARK SMILES IDX 40 44 41 45 42 46 95 47 43 48 100 49 94 50 96 51 44 52 99 53
REMARK SMILES IDX 93 54 92 55 45 57 79 58 58 59 78 60 59 61 62 62 77 63 97 64
REMARK SMILES IDX 60 65 61 66 76 68 98 69 63 70 46 71 47 72 56 73 48 74 49 75
REMARK SMILES IDX 55 76 57 77 50 78 51 79 52 80 53 81 54 82 80 83 81 84 90 85
REMARK SMILES IDX 82 86 83 87 89 88 91 89 84 90 85 91 86 92 87 93 88 94 64 95
REMARK SMILES IDX 65 96 74 97 66 98 67 99 73 100 75 101 68 102 69 103 70 104
REMARK SMILES IDX 71 105 72 106
REMARK H PARENT 17 9 7 24 96 56 62 67
REMARK Flexibility Score: inf
ROOT
ATOM      1  C   UNL A   1      37.333  23.092  24.775  1.00  0.00     0.274 C 
ENDROOT
BRANCH   1   2
ATOM      2  O   UNL A   1      36.051  23.720  24.568  1.00  0.00    -0.461 OA
BRANCH   2   3
ATOM      3  C   UNL A   1      35.471  23.440  23.373  1.00  0.00     0.329 C 
ATOM      4  O   UNL A   1      36.063  22.960  22.409  1.00  0.00    -0.250 OA
BRANCH   3   5
ATOM      5  C   UNL A   1      34.033  23.937  23.257  1.00  0.00     0.196 C 
BRANCH   5   6
ATOM      6  N   UNL A   1      33.704  25.031  22.334  1.00  0.00    -0.342 N 
ATOM      7  C   UNL A   1      33.312  26.319  22.584  1.00  0.00     0.221 C 
ATOM      8  O   UNL A   1      32.794  26.963  21.669  1.00  0.00    -0.275 OA
ATOM      9  H   UNL A   1      33.776  24.800  21.380  1.00  0.00     0.164 HD
BRANCH   7  10
ATOM     10  C   UNL A   1      33.594  26.988  23.927  1.00  0.00     0.116 C 
BRANCH  10  11
ATOM     11  C   UNL A   1      32.692  26.596  25.117  1.00  0.00     0.116 C 
ATOM     12  C   UNL A   1      30.384  25.729  25.855  1.00  0.00     0.014 C 
ATOM     13  C   UNL A   1      31.232  26.274  24.701  1.00  0.00     0.034 C 
ATOM     14  C   UNL A   1      30.594  27.533  24.177  1.00  0.00    -0.001 A 
ATOM     15  C   UNL A   1      29.628  27.527  23.169  1.00  0.00     0.011 A 
ATOM     16  C   UNL A   1      31.028  28.757  24.689  1.00  0.00     0.138 A 
ATOM     17  C   UNL A   1      32.651  27.693  26.143  1.00  0.00     0.315 C 
ATOM     18  C   UNL A   1      29.199  28.738  22.621  1.00  0.00     0.047 A 
ATOM     19  C   UNL A   1      30.654  29.963  24.120  1.00  0.00     0.093 A 
ATOM     20  O   UNL A   1      31.898  28.806  25.789  1.00  0.00    -0.426 OA
ATOM     21  O   UNL A   1      33.288  27.652  27.189  1.00  0.00    -0.251 OA
ATOM     22  C   UNL A   1      29.771  29.930  23.057  1.00  0.00     0.119 A 
BRANCH  22  23
ATOM     23  O   UNL A   1      29.519  31.090  22.400  1.00  0.00    -0.508 OA
ATOM     24  H   UNL A   1      29.798  31.906  22.766  1.00  0.00     0.293 HD
ENDBRANCH  22  23
ENDBRANCH  10  11
ENDBRANCH   7  10
ENDBRANCH   5   6
BRANCH   5  25
ATOM     25  C   UNL A   1      33.151  22.675  23.043  1.00  0.00     0.070 C 
BRANCH  25  26
ATOM     26  C   UNL A   1      32.553  21.874  24.213  1.00  0.00    -0.037 C 
ATOM     27  C   UNL A   1      32.720  22.273  25.480  1.00  0.00     0.001 A 
ATOM     28  C   UNL A   1      33.009  20.423  24.136  1.00  0.00     0.174 C 
ATOM     29  C   UNL A   1      31.754  22.572  26.512  1.00  0.00     0.010 A 
ATOM     30  C   UNL A   1      33.782  21.337  25.928  1.00  0.00     0.065 A 
ATOM     31  N   UNL A   1      34.010  20.280  25.215  1.00  0.00    -0.280 NA
ATOM     32  C   UNL A   1      32.200  22.590  27.784  1.00  0.00     0.001 A 
ATOM     33  C   UNL A   1      34.415  21.726  27.203  1.00  0.00     0.028 A 
ATOM     34  C   UNL A   1      33.612  22.360  28.077  1.00  0.00     0.002 A 
ENDBRANCH  25  26
ENDBRANCH   5  25
ENDBRANCH   3   5
ENDBRANCH   2   3
ENDBRANCH   1   2
BRANCH   1  35
ATOM     35  C   UNL A   1      37.942  23.477  26.126  1.00  0.00     0.275 C 
BRANCH  35  36
ATOM     36  O   UNL A   1      38.714  24.691  26.051  1.00  0.00    -0.458 OA
BRANCH  36  37
ATOM     37  C   UNL A   1      39.939  24.629  26.619  1.00  0.00     0.338 C 
ATOM     38  O   UNL A   1      40.869  23.913  26.258  1.00  0.00    -0.246 OA
BRANCH  37  39
ATOM     39  C   UNL A   1      40.097  25.687  27.637  1.00  0.00     0.060 A 
ATOM     40  C   UNL A   1      41.003  26.745  27.517  1.00  0.00     0.016 A 
ATOM     41  C   UNL A   1      39.254  25.624  28.745  1.00  0.00     0.016 A 
ATOM     42  C   UNL A   1      41.076  27.725  28.527  1.00  0.00     0.010 A 
ATOM     43  C   UNL A   1      39.335  26.590  29.744  1.00  0.00     0.010 A 
ATOM     44  C   UNL A   1      40.259  27.642  29.664  1.00  0.00    -0.014 A 
BRANCH  44  45
ATOM     45  C   UNL A   1      40.248  28.681  30.734  1.00  0.00     0.031 A 
ATOM     46  C   UNL A   1      41.175  28.621  31.919  1.00  0.00     0.074 A 
ATOM     47  C   UNL A   1      39.273  29.608  30.711  1.00  0.00     0.049 A 
ATOM     48  N   UNL A   1      41.125  29.283  33.051  1.00  0.00    -0.248 NA
ATOM     49  C   UNL A   1      42.244  27.625  31.859  1.00  0.00     0.031 C 
ATOM     50  C   UNL A   1      38.271  29.748  29.656  1.00  0.00     0.029 A 
ATOM     51  N   UNL A   1      38.966  30.600  31.605  1.00  0.00    -0.354 N 
ATOM     52  C   UNL A   1      42.091  28.708  33.878  1.00  0.00     0.074 A 
ATOM     53  C   UNL A   1      42.682  27.630  33.113  1.00  0.00     0.031 C 
ATOM     54  C   UNL A   1      37.476  30.788  29.947  1.00  0.00     0.029 A 
ATOM     55  C   UNL A   1      37.912  31.385  31.208  1.00  0.00     0.049 A 
ATOM     56  H   UNL A   1      39.453  30.736  32.450  1.00  0.00     0.167 HD
ATOM     57  C   UNL A   1      42.455  29.057  35.141  1.00  0.00     0.037 A 
ATOM     58  C   UNL A   1      37.388  32.488  31.772  1.00  0.00     0.037 A 
ATOM     59  C   UNL A   1      41.971  30.248  35.806  1.00  0.00     0.049 A 
ATOM     60  C   UNL A   1      37.983  33.024  33.042  1.00  0.00     0.074 A 
ATOM     61  C   UNL A   1      42.392  30.799  37.007  1.00  0.00     0.029 A 
ATOM     62  N   UNL A   1      41.001  31.103  35.301  1.00  0.00    -0.354 N 
ATOM     63  N   UNL A   1      38.908  32.492  33.805  1.00  0.00    -0.248 NA
ATOM     64  C   UNL A   1      37.486  34.323  33.512  1.00  0.00     0.031 C 
ATOM     65  C   UNL A   1      41.682  31.986  37.224  1.00  0.00     0.029 A 
ATOM     66  C   UNL A   1      40.840  32.193  36.143  1.00  0.00     0.049 A 
ATOM     67  H   UNL A   1      40.500  30.956  34.467  1.00  0.00     0.167 HD
ATOM     68  C   UNL A   1      39.122  33.404  34.832  1.00  0.00     0.074 A 
ATOM     69  C   UNL A   1      38.243  34.529  34.582  1.00  0.00     0.031 C 
ATOM     70  C   UNL A   1      39.971  33.314  35.887  1.00  0.00     0.037 A 
BRANCH  57  71
ATOM     71  C   UNL A   1      43.464  28.199  35.880  1.00  0.00     0.058 A 
ATOM     72  C   UNL A   1      44.845  28.448  35.821  1.00  0.00     0.135 A 
ATOM     73  C   UNL A   1      43.042  27.153  36.727  1.00  0.00     0.135 A 
ATOM     74  F   UNL A   1      45.321  29.447  35.061  1.00  0.00    -0.206 F 
ATOM     75  C   UNL A   1      45.766  27.663  36.509  1.00  0.00     0.059 A 
ATOM     76  C   UNL A   1      43.944  26.385  37.464  1.00  0.00     0.059 A 
ATOM     77  F   UNL A   1      41.735  26.877  36.863  1.00  0.00    -0.206 F 
ATOM     78  C   UNL A   1      45.309  26.631  37.328  1.00  0.00     0.060 A 
BRANCH  78  79
ATOM     79  S   UNL A   1      46.524  25.637  38.221  1.00  0.00     0.124 S 
ATOM     80  O   UNL A   1      46.597  26.342  39.497  1.00  0.00    -0.237 OA
ATOM     81  O   UNL A   1      45.886  24.326  38.262  1.00  0.00    -0.237 OA
ATOM     82  O   UNL A   1      47.718  25.723  37.387  1.00  0.00    -0.744 OA
ENDBRANCH  78  79
ENDBRANCH  57  71
BRANCH  58  83
ATOM     83  C   UNL A   1      36.350  33.238  31.026  1.00  0.00     0.058 A 
ATOM     84  C   UNL A   1      35.040  33.289  31.526  1.00  0.00     0.135 A 
ATOM     85  C   UNL A   1      36.653  33.995  29.886  1.00  0.00     0.135 A 
ATOM     86  F   UNL A   1      34.712  32.585  32.619  1.00  0.00    -0.206 F 
ATOM     87  C   UNL A   1      34.064  34.068  30.922  1.00  0.00     0.059 A 
ATOM     88  C   UNL A   1      35.695  34.800  29.276  1.00  0.00     0.059 A 
ATOM     89  F   UNL A   1      37.902  34.002  29.395  1.00  0.00    -0.206 F 
ATOM     90  C   UNL A   1      34.404  34.829  29.804  1.00  0.00     0.060 A 
BRANCH  90  91
ATOM     91  S   UNL A   1      33.144  35.910  29.095  1.00  0.00     0.124 S 
ATOM     92  O   UNL A   1      32.362  34.968  28.302  1.00  0.00    -0.237 OA
ATOM     93  O   UNL A   1      32.491  36.436  30.289  1.00  0.00    -0.237 OA
ATOM     94  O   UNL A   1      33.924  36.882  28.334  1.00  0.00    -0.744 OA
ENDBRANCH  90  91
ENDBRANCH  58  83
BRANCH  70  95
ATOM     95  C   UNL A   1      40.014  34.472  36.847  1.00  0.00     0.058 A 
ATOM     96  C   UNL A   1      39.131  34.562  37.934  1.00  0.00     0.135 A 
ATOM     97  C   UNL A   1      40.983  35.479  36.706  1.00  0.00     0.135 A 
ATOM     98  F   UNL A   1      38.182  33.629  38.113  1.00  0.00    -0.206 F 
ATOM     99  C   UNL A   1      39.191  35.620  38.835  1.00  0.00     0.059 A 
ATOM    100  C   UNL A   1      41.078  36.534  37.610  1.00  0.00     0.059 A 
ATOM    101  F   UNL A   1      41.857  35.439  35.689  1.00  0.00    -0.206 F 
ATOM    102  C   UNL A   1      40.171  36.601  38.666  1.00  0.00     0.060 A 
BRANCH 102 103
ATOM    103  S   UNL A   1      40.252  37.952  39.862  1.00  0.00     0.124 S 
ATOM    104  O   UNL A   1      41.506  38.600  39.490  1.00  0.00    -0.237 OA
ATOM    105  O   UNL A   1      39.037  38.704  39.562  1.00  0.00    -0.237 OA
ATOM    106  O   UNL A   1      40.258  37.269  41.151  1.00  0.00    -0.744 OA
ENDBRANCH 102 103
ENDBRANCH  70  95
ENDBRANCH  44  45
ENDBRANCH  37  39
ENDBRANCH  36  37
ENDBRANCH  35  36
ENDBRANCH   1  35
TORSDOF 20
ENDMDL
