MODEL 1
REMARK VINA RESULT:     -11.5      0.000      0.000
REMARK SMILES O=C(NCc1ccc(C(=O)OCCOC(=O)c2ccc(-c3c4nc(c(-c5c(F)cc(S(=O)(=O)[O-])cc5F)c5ccc([nH]5)c(-c5c(F)cc(S(=O)(=O)[O-])cc5F)c5nc(c(-c6c(F)cc(S(=O)(=O)[O-])cc6F)c6ccc3[nH]6)C=C5)C=C4)cc2)o1)Nc1ccc(F)c(Cl)c1
REMARK SMILES IDX 12 1 11 2 9 3 10 4 8 5 5 6 6 7 83 8 7 9 4 10 3 11 1 12 2 13
REMARK SMILES IDX 84 14 85 17 86 18 92 19 87 20 90 21 88 22 91 23 89 24 13 25
REMARK SMILES IDX 14 26 15 27 16 28 17 29 18 30 82 31 19 32 81 33 20 34 21 35
REMARK SMILES IDX 22 36 75 37 23 38 80 39 74 40 76 41 24 42 79 43 73 44 72 45
REMARK SMILES IDX 25 47 59 48 38 49 58 50 39 51 42 52 57 53 77 54 40 55 41 56
REMARK SMILES IDX 56 58 78 59 43 60 26 61 27 62 36 63 28 64 29 65 35 66 37 67
REMARK SMILES IDX 30 68 31 69 32 70 33 71 34 72 60 73 61 74 70 75 62 76 63 77
REMARK SMILES IDX 69 78 71 79 64 80 65 81 66 82 67 83 68 84 44 85 45 86 54 87
REMARK SMILES IDX 46 88 47 89 53 90 55 91 48 92 49 93 50 94 51 95 52 96
REMARK H PARENT 3 15 84 16 76 46 42 57
REMARK Flexibility Score: inf
ROOT
ATOM      1  C   UNL A   1      42.987  21.506  26.152  1.00  0.00     0.275 C 
ENDROOT
BRANCH   1   2
ATOM      2  O   UNL A   1      41.756  20.888  25.734  1.00  0.00    -0.456 OA
BRANCH   2   3
ATOM      3  C   UNL A   1      40.765  20.842  26.674  1.00  0.00     0.374 C 
ATOM      4  O   UNL A   1      40.883  20.322  27.775  1.00  0.00    -0.242 OA
BRANCH   3   5
ATOM      5  C   UNL A   1      39.608  21.577  26.212  1.00  0.00     0.211 A 
ATOM      6  C   UNL A   1      37.585  21.699  25.337  1.00  0.00     0.124 A 
ATOM      7  C   UNL A   1      37.870  22.954  25.830  1.00  0.00     0.048 A 
ATOM      8  O   UNL A   1      38.663  20.884  25.500  1.00  0.00    -0.452 OA
ATOM      9  C   UNL A   1      39.167  22.873  26.399  1.00  0.00     0.058 A 
BRANCH   6  10
ATOM     10  C   UNL A   1      36.357  21.066  24.786  1.00  0.00     0.193 C 
BRANCH  10  11
ATOM     11  N   UNL A   1      35.440  20.887  25.895  1.00  0.00    -0.331 N 
ATOM     12  O   UNL A   1      34.017  21.507  27.477  1.00  0.00    -0.248 OA
ATOM     13  C   UNL A   1      34.423  21.673  26.331  1.00  0.00     0.319 C 
ATOM     14  N   UNL A   1      33.940  22.584  25.434  1.00  0.00    -0.308 N 
ATOM     15  H   UNL A   1      35.576  20.061  26.415  1.00  0.00     0.165 HD
ATOM     16  H   UNL A   1      34.244  22.487  24.504  1.00  0.00     0.171 HD
BRANCH  14  17
ATOM     17  C   UNL A   1      33.052  23.646  25.700  1.00  0.00     0.044 A 
ATOM     18  C   UNL A   1      31.680  23.369  25.620  1.00  0.00     0.029 A 
ATOM     19  C   UNL A   1      33.469  24.948  26.003  1.00  0.00     0.049 A 
ATOM     20  C   UNL A   1      30.738  24.373  25.853  1.00  0.00     0.043 A 
ATOM     21  C   UNL A   1      32.524  25.953  26.230  1.00  0.00     0.078 A 
ATOM     22  C   UNL A   1      31.166  25.661  26.155  1.00  0.00     0.141 A 
ATOM     23  Cl  UNL A   1      33.052  27.556  26.575  1.00  0.00    -0.081 Cl
ATOM     24  F   UNL A   1      30.244  26.613  26.359  1.00  0.00    -0.205 F 
ENDBRANCH  14  17
ENDBRANCH  10  11
ENDBRANCH   6  10
ENDBRANCH   3   5
ENDBRANCH   2   3
ENDBRANCH   1   2
BRANCH   1  25
ATOM     25  C   UNL A   1      43.074  22.966  25.688  1.00  0.00     0.275 C 
BRANCH  25  26
ATOM     26  O   UNL A   1      42.419  23.868  26.601  1.00  0.00    -0.458 OA
BRANCH  26  27
ATOM     27  C   UNL A   1      42.259  25.134  26.145  1.00  0.00     0.338 C 
ATOM     28  O   UNL A   1      42.303  25.499  24.981  1.00  0.00    -0.246 OA
BRANCH  27  29
ATOM     29  C   UNL A   1      41.867  26.024  27.254  1.00  0.00     0.060 A 
ATOM     30  C   UNL A   1      42.575  27.218  27.404  1.00  0.00     0.016 A 
ATOM     31  C   UNL A   1      40.867  25.679  28.165  1.00  0.00     0.016 A 
ATOM     32  C   UNL A   1      42.291  28.078  28.461  1.00  0.00     0.010 A 
ATOM     33  C   UNL A   1      40.584  26.543  29.233  1.00  0.00     0.010 A 
ATOM     34  C   UNL A   1      41.300  27.743  29.389  1.00  0.00    -0.014 A 
BRANCH  34  35
ATOM     35  C   UNL A   1      41.054  28.643  30.540  1.00  0.00     0.031 A 
ATOM     36  C   UNL A   1      41.927  28.560  31.758  1.00  0.00     0.074 A 
ATOM     37  C   UNL A   1      40.080  29.570  30.466  1.00  0.00     0.049 A 
ATOM     38  N   UNL A   1      41.864  29.249  32.868  1.00  0.00    -0.248 NA
ATOM     39  C   UNL A   1      43.018  27.573  31.721  1.00  0.00     0.031 C 
ATOM     40  C   UNL A   1      39.194  29.774  29.320  1.00  0.00     0.029 A 
ATOM     41  N   UNL A   1      39.677  30.518  31.373  1.00  0.00    -0.354 N 
ATOM     42  C   UNL A   1      42.897  28.774  33.668  1.00  0.00     0.074 A 
ATOM     43  C   UNL A   1      43.562  27.728  32.920  1.00  0.00     0.031 C 
ATOM     44  C   UNL A   1      38.358  30.789  29.588  1.00  0.00     0.029 A 
ATOM     45  C   UNL A   1      38.625  31.287  30.936  1.00  0.00     0.049 A 
ATOM     46  H   UNL A   1      40.102  30.637  32.252  1.00  0.00     0.167 HD
ATOM     47  C   UNL A   1      43.258  29.178  34.909  1.00  0.00     0.037 A 
ATOM     48  C   UNL A   1      37.945  32.269  31.557  1.00  0.00     0.037 A 
ATOM     49  C   UNL A   1      42.603  30.227  35.645  1.00  0.00     0.049 A 
ATOM     50  C   UNL A   1      38.340  32.672  32.950  1.00  0.00     0.074 A 
ATOM     51  C   UNL A   1      42.898  30.708  36.909  1.00  0.00     0.029 A 
ATOM     52  N   UNL A   1      41.520  30.960  35.183  1.00  0.00    -0.354 N 
ATOM     53  N   UNL A   1      39.312  32.206  33.698  1.00  0.00    -0.248 NA
ATOM     54  C   UNL A   1      37.544  33.730  33.589  1.00  0.00     0.031 C 
ATOM     55  C   UNL A   1      41.975  31.715  37.221  1.00  0.00     0.029 A 
ATOM     56  C   UNL A   1      41.126  31.881  36.139  1.00  0.00     0.049 A 
ATOM     57  H   UNL A   1      41.094  30.844  34.302  1.00  0.00     0.167 HD
ATOM     58  C   UNL A   1      39.252  32.921  34.889  1.00  0.00     0.074 A 
ATOM     59  C   UNL A   1      38.156  33.860  34.758  1.00  0.00     0.031 C 
ATOM     60  C   UNL A   1      40.032  32.808  35.992  1.00  0.00     0.037 A 
BRANCH  47  61
ATOM     61  C   UNL A   1      44.403  28.456  35.559  1.00  0.00     0.058 A 
ATOM     62  C   UNL A   1      44.213  27.264  36.273  1.00  0.00     0.135 A 
ATOM     63  C   UNL A   1      45.710  28.958  35.453  1.00  0.00     0.135 A 
ATOM     64  F   UNL A   1      42.981  26.750  36.414  1.00  0.00    -0.206 F 
ATOM     65  C   UNL A   1      45.276  26.605  36.884  1.00  0.00     0.059 A 
ATOM     66  C   UNL A   1      46.791  28.307  36.039  1.00  0.00     0.059 A 
ATOM     67  F   UNL A   1      45.945  30.097  34.783  1.00  0.00    -0.206 F 
ATOM     68  C   UNL A   1      46.562  27.138  36.766  1.00  0.00     0.060 A 
BRANCH  68  69
ATOM     69  S   UNL A   1      47.937  26.284  37.565  1.00  0.00     0.124 S 
ATOM     70  O   UNL A   1      47.233  25.324  38.408  1.00  0.00    -0.237 OA
ATOM     71  O   UNL A   1      48.662  25.720  36.431  1.00  0.00    -0.237 OA
ATOM     72  O   UNL A   1      48.632  27.354  38.276  1.00  0.00    -0.744 OA
ENDBRANCH  68  69
ENDBRANCH  47  61
BRANCH  48  73
ATOM     73  C   UNL A   1      36.812  32.934  30.864  1.00  0.00     0.058 A 
ATOM     74  C   UNL A   1      35.484  32.619  31.183  1.00  0.00     0.135 A 
ATOM     75  C   UNL A   1      37.037  33.910  29.881  1.00  0.00     0.135 A 
ATOM     76  F   UNL A   1      35.220  31.685  32.110  1.00  0.00    -0.206 F 
ATOM     77  C   UNL A   1      34.415  33.246  30.550  1.00  0.00     0.059 A 
ATOM     78  C   UNL A   1      35.987  34.565  29.248  1.00  0.00     0.059 A 
ATOM     79  F   UNL A   1      38.292  34.251  29.548  1.00  0.00    -0.206 F 
ATOM     80  C   UNL A   1      34.678  34.220  29.585  1.00  0.00     0.060 A 
BRANCH  80  81
ATOM     81  S   UNL A   1      33.289  35.077  28.811  1.00  0.00     0.124 S 
ATOM     82  O   UNL A   1      32.524  35.506  29.975  1.00  0.00    -0.237 OA
ATOM     83  O   UNL A   1      33.956  36.137  28.060  1.00  0.00    -0.237 OA
ATOM     84  O   UNL A   1      32.672  34.037  27.993  1.00  0.00    -0.744 OA
ENDBRANCH  80  81
ENDBRANCH  48  73
BRANCH  60  85
ATOM     85  C   UNL A   1      39.739  33.733  37.137  1.00  0.00     0.058 A 
ATOM     86  C   UNL A   1      38.833  33.379  38.148  1.00  0.00     0.135 A 
ATOM     87  C   UNL A   1      40.405  34.963  37.249  1.00  0.00     0.135 A 
ATOM     88  F   UNL A   1      38.167  32.216  38.081  1.00  0.00    -0.206 F 
ATOM     89  C   UNL A   1      38.584  34.224  39.226  1.00  0.00     0.059 A 
ATOM     90  C   UNL A   1      40.184  35.815  38.326  1.00  0.00     0.059 A 
ATOM     91  F   UNL A   1      41.287  35.343  36.310  1.00  0.00    -0.206 F 
ATOM     92  C   UNL A   1      39.262  35.441  39.304  1.00  0.00     0.060 A 
BRANCH  92  93
ATOM     93  S   UNL A   1      38.958  36.518  40.722  1.00  0.00     0.124 S 
ATOM     94  O   UNL A   1      37.986  35.736  41.479  1.00  0.00    -0.237 OA
ATOM     95  O   UNL A   1      40.283  36.635  41.323  1.00  0.00    -0.237 OA
ATOM     96  O   UNL A   1      38.444  37.741  40.112  1.00  0.00    -0.744 OA
ENDBRANCH  92  93
ENDBRANCH  60  85
ENDBRANCH  34  35
ENDBRANCH  27  29
ENDBRANCH  26  27
ENDBRANCH  25  26
ENDBRANCH   1  25
TORSDOF 17
ENDMDL
MODEL 2
REMARK VINA RESULT:     -11.4      1.479      2.057
REMARK SMILES O=C(NCc1ccc(C(=O)OCCOC(=O)c2ccc(-c3c4nc(c(-c5c(F)cc(S(=O)(=O)[O-])cc5F)c5ccc([nH]5)c(-c5c(F)cc(S(=O)(=O)[O-])cc5F)c5nc(c(-c6c(F)cc(S(=O)(=O)[O-])cc6F)c6ccc3[nH]6)C=C5)C=C4)cc2)o1)Nc1ccc(F)c(Cl)c1
REMARK SMILES IDX 12 1 11 2 9 3 10 4 8 5 5 6 6 7 83 8 7 9 4 10 3 11 1 12 2 13
REMARK SMILES IDX 84 14 85 17 86 18 92 19 87 20 90 21 88 22 91 23 89 24 13 25
REMARK SMILES IDX 14 26 15 27 16 28 17 29 18 30 82 31 19 32 81 33 20 34 21 35
REMARK SMILES IDX 22 36 75 37 23 38 80 39 74 40 76 41 24 42 79 43 73 44 72 45
REMARK SMILES IDX 25 47 59 48 38 49 58 50 39 51 42 52 57 53 77 54 40 55 41 56
REMARK SMILES IDX 56 58 78 59 43 60 26 61 27 62 36 63 28 64 29 65 35 66 37 67
REMARK SMILES IDX 30 68 31 69 32 70 33 71 34 72 60 73 61 74 70 75 62 76 63 77
REMARK SMILES IDX 69 78 71 79 64 80 65 81 66 82 67 83 68 84 44 85 45 86 54 87
REMARK SMILES IDX 46 88 47 89 53 90 55 91 48 92 49 93 50 94 51 95 52 96
REMARK H PARENT 3 15 84 16 76 46 42 57
REMARK Flexibility Score: inf
ROOT
ATOM      1  C   UNL A   1      44.738  23.761  24.796  1.00  0.00     0.275 C 
ENDROOT
BRANCH   1   2
ATOM      2  O   UNL A   1      44.011  22.592  24.374  1.00  0.00    -0.456 OA
BRANCH   2   3
ATOM      3  C   UNL A   1      44.015  21.542  25.248  1.00  0.00     0.374 C 
ATOM      4  O   UNL A   1      44.917  20.720  25.333  1.00  0.00    -0.242 OA
BRANCH   3   5
ATOM      5  C   UNL A   1      42.855  21.608  26.110  1.00  0.00     0.211 A 
ATOM      6  C   UNL A   1      40.687  21.447  26.494  1.00  0.00     0.124 A 
ATOM      7  C   UNL A   1      41.294  21.524  27.729  1.00  0.00     0.048 A 
ATOM      8  O   UNL A   1      41.622  21.573  25.512  1.00  0.00    -0.452 OA
ATOM      9  C   UNL A   1      42.688  21.619  27.482  1.00  0.00     0.058 A 
BRANCH   6  10
ATOM     10  C   UNL A   1      39.297  21.163  26.048  1.00  0.00     0.193 C 
BRANCH  10  11
ATOM     11  N   UNL A   1      38.680  22.441  25.750  1.00  0.00    -0.331 N 
ATOM     12  O   UNL A   1      37.098  23.814  25.027  1.00  0.00    -0.248 OA
ATOM     13  C   UNL A   1      37.371  22.776  25.620  1.00  0.00     0.319 C 
ATOM     14  N   UNL A   1      36.470  21.911  26.175  1.00  0.00    -0.308 N 
ATOM     15  H   UNL A   1      39.312  23.185  25.622  1.00  0.00     0.165 HD
ATOM     16  H   UNL A   1      36.838  21.214  26.764  1.00  0.00     0.171 HD
BRANCH  14  17
ATOM     17  C   UNL A   1      35.072  21.913  25.996  1.00  0.00     0.044 A 
ATOM     18  C   UNL A   1      34.305  22.597  26.950  1.00  0.00     0.029 A 
ATOM     19  C   UNL A   1      34.424  21.249  24.948  1.00  0.00     0.049 A 
ATOM     20  C   UNL A   1      32.912  22.630  26.851  1.00  0.00     0.043 A 
ATOM     21  C   UNL A   1      33.029  21.277  24.854  1.00  0.00     0.078 A 
ATOM     22  C   UNL A   1      32.282  21.968  25.803  1.00  0.00     0.141 A 
ATOM     23  Cl  UNL A   1      32.245  20.432  23.574  1.00  0.00    -0.081 Cl
ATOM     24  F   UNL A   1      30.943  21.998  25.737  1.00  0.00    -0.205 F 
ENDBRANCH  14  17
ENDBRANCH  10  11
ENDBRANCH   6  10
ENDBRANCH   3   5
ENDBRANCH   2   3
ENDBRANCH   1   2
BRANCH   1  25
ATOM     25  C   UNL A   1      43.805  24.960  25.013  1.00  0.00     0.275 C 
BRANCH  25  26
ATOM     26  O   UNL A   1      43.179  24.937  26.310  1.00  0.00    -0.458 OA
BRANCH  26  27
ATOM     27  C   UNL A   1      41.846  25.177  26.311  1.00  0.00     0.338 C 
ATOM     28  O   UNL A   1      41.009  24.636  25.607  1.00  0.00    -0.246 OA
BRANCH  27  29
ATOM     29  C   UNL A   1      41.500  26.099  27.409  1.00  0.00     0.060 A 
ATOM     30  C   UNL A   1      42.260  27.264  27.536  1.00  0.00     0.016 A 
ATOM     31  C   UNL A   1      40.493  25.812  28.332  1.00  0.00     0.016 A 
ATOM     32  C   UNL A   1      42.022  28.151  28.581  1.00  0.00     0.010 A 
ATOM     33  C   UNL A   1      40.255  26.703  29.388  1.00  0.00     0.010 A 
ATOM     34  C   UNL A   1      41.023  27.873  29.521  1.00  0.00    -0.014 A 
BRANCH  34  35
ATOM     35  C   UNL A   1      40.824  28.800  30.660  1.00  0.00     0.031 A 
ATOM     36  C   UNL A   1      41.725  28.722  31.858  1.00  0.00     0.074 A 
ATOM     37  C   UNL A   1      39.869  29.746  30.591  1.00  0.00     0.049 A 
ATOM     38  N   UNL A   1      41.704  29.433  32.955  1.00  0.00    -0.248 NA
ATOM     39  C   UNL A   1      42.793  27.710  31.814  1.00  0.00     0.031 C 
ATOM     40  C   UNL A   1      38.960  29.948  29.462  1.00  0.00     0.029 A 
ATOM     41  N   UNL A   1      39.509  30.720  31.489  1.00  0.00    -0.354 N 
ATOM     42  C   UNL A   1      42.745  28.951  33.740  1.00  0.00     0.074 A 
ATOM     43  C   UNL A   1      43.370  27.876  32.996  1.00  0.00     0.031 C 
ATOM     44  C   UNL A   1      38.153  30.986  29.731  1.00  0.00     0.029 A 
ATOM     45  C   UNL A   1      38.463  31.503  31.062  1.00  0.00     0.049 A 
ATOM     46  H   UNL A   1      39.958  30.847  32.355  1.00  0.00     0.167 HD
ATOM     47  C   UNL A   1      43.145  29.370  34.964  1.00  0.00     0.037 A 
ATOM     48  C   UNL A   1      37.820  32.512  31.679  1.00  0.00     0.037 A 
ATOM     49  C   UNL A   1      42.531  30.447  35.694  1.00  0.00     0.049 A 
ATOM     50  C   UNL A   1      38.257  32.933  33.055  1.00  0.00     0.074 A 
ATOM     51  C   UNL A   1      42.866  30.946  36.941  1.00  0.00     0.029 A 
ATOM     52  N   UNL A   1      41.453  31.195  35.244  1.00  0.00    -0.354 N 
ATOM     53  N   UNL A   1      39.237  32.460  33.788  1.00  0.00    -0.248 NA
ATOM     54  C   UNL A   1      37.499  34.019  33.691  1.00  0.00     0.031 C 
ATOM     55  C   UNL A   1      41.973  31.978  37.255  1.00  0.00     0.029 A 
ATOM     56  C   UNL A   1      41.102  32.142  36.191  1.00  0.00     0.049 A 
ATOM     57  H   UNL A   1      41.003  31.071  34.376  1.00  0.00     0.167 HD
ATOM     58  C   UNL A   1      39.221  33.199  34.966  1.00  0.00     0.074 A 
ATOM     59  C   UNL A   1      38.142  34.159  34.843  1.00  0.00     0.031 C 
ATOM     60  C   UNL A   1      40.025  33.090  36.052  1.00  0.00     0.037 A 
BRANCH  47  61
ATOM     61  C   UNL A   1      44.290  28.636  35.601  1.00  0.00     0.058 A 
ATOM     62  C   UNL A   1      44.082  27.529  36.437  1.00  0.00     0.135 A 
ATOM     63  C   UNL A   1      45.613  29.038  35.358  1.00  0.00     0.135 A 
ATOM     64  F   UNL A   1      42.836  27.114  36.710  1.00  0.00    -0.206 F 
ATOM     65  C   UNL A   1      45.146  26.860  37.033  1.00  0.00     0.059 A 
ATOM     66  C   UNL A   1      46.694  28.373  35.928  1.00  0.00     0.059 A 
ATOM     67  F   UNL A   1      45.865  30.093  34.567  1.00  0.00    -0.206 F 
ATOM     68  C   UNL A   1      46.450  27.293  36.778  1.00  0.00     0.060 A 
BRANCH  68  69
ATOM     69  S   UNL A   1      47.826  26.426  37.559  1.00  0.00     0.124 S 
ATOM     70  O   UNL A   1      47.780  26.965  38.914  1.00  0.00    -0.237 OA
ATOM     71  O   UNL A   1      47.440  25.025  37.420  1.00  0.00    -0.237 OA
ATOM     72  O   UNL A   1      48.979  26.834  36.760  1.00  0.00    -0.744 OA
ENDBRANCH  68  69
ENDBRANCH  47  61
BRANCH  48  73
ATOM     73  C   UNL A   1      36.684  33.188  31.001  1.00  0.00     0.058 A 
ATOM     74  C   UNL A   1      35.359  32.930  31.378  1.00  0.00     0.135 A 
ATOM     75  C   UNL A   1      36.906  34.118  29.974  1.00  0.00     0.135 A 
ATOM     76  F   UNL A   1      35.099  32.042  32.350  1.00  0.00    -0.206 F 
ATOM     77  C   UNL A   1      34.289  33.569  30.759  1.00  0.00     0.059 A 
ATOM     78  C   UNL A   1      35.855  34.784  29.352  1.00  0.00     0.059 A 
ATOM     79  F   UNL A   1      38.158  34.403  29.584  1.00  0.00    -0.206 F 
ATOM     80  C   UNL A   1      34.548  34.496  29.748  1.00  0.00     0.060 A 
BRANCH  80  81
ATOM     81  S   UNL A   1      33.161  35.370  28.989  1.00  0.00     0.124 S 
ATOM     82  O   UNL A   1      32.387  35.763  30.160  1.00  0.00    -0.237 OA
ATOM     83  O   UNL A   1      33.829  36.453  28.274  1.00  0.00    -0.237 OA
ATOM     84  O   UNL A   1      32.553  34.352  28.138  1.00  0.00    -0.744 OA
ENDBRANCH  80  81
ENDBRANCH  48  73
BRANCH  60  85
ATOM     85  C   UNL A   1      39.780  34.042  37.186  1.00  0.00     0.058 A 
ATOM     86  C   UNL A   1      38.963  33.691  38.271  1.00  0.00     0.135 A 
ATOM     87  C   UNL A   1      40.404  35.299  37.209  1.00  0.00     0.135 A 
ATOM     88  F   UNL A   1      38.340  32.503  38.290  1.00  0.00    -0.206 F 
ATOM     89  C   UNL A   1      38.760  34.563  39.337  1.00  0.00     0.059 A 
ATOM     90  C   UNL A   1      40.228  36.180  38.272  1.00  0.00     0.059 A 
ATOM     91  F   UNL A   1      41.200  35.678  36.196  1.00  0.00    -0.206 F 
ATOM     92  C   UNL A   1      39.395  35.807  39.326  1.00  0.00     0.060 A 
BRANCH  92  93
ATOM     93  S   UNL A   1      39.152  36.920  40.727  1.00  0.00     0.124 S 
ATOM     94  O   UNL A   1      40.524  37.311  41.031  1.00  0.00    -0.237 OA
ATOM     95  O   UNL A   1      38.306  37.965  40.160  1.00  0.00    -0.237 OA
ATOM     96  O   UNL A   1      38.504  36.072  41.723  1.00  0.00    -0.744 OA
ENDBRANCH  92  93
ENDBRANCH  60  85
ENDBRANCH  34  35
ENDBRANCH  27  29
ENDBRANCH  26  27
ENDBRANCH  25  26
ENDBRANCH   1  25
TORSDOF 17
ENDMDL
MODEL 3
REMARK VINA RESULT:     -11.2      6.576     12.267
REMARK SMILES O=C(NCc1ccc(C(=O)OCCOC(=O)c2ccc(-c3c4nc(c(-c5c(F)cc(S(=O)(=O)[O-])cc5F)c5ccc([nH]5)c(-c5c(F)cc(S(=O)(=O)[O-])cc5F)c5nc(c(-c6c(F)cc(S(=O)(=O)[O-])cc6F)c6ccc3[nH]6)C=C5)C=C4)cc2)o1)Nc1ccc(F)c(Cl)c1
REMARK SMILES IDX 12 1 11 2 9 3 10 4 8 5 5 6 6 7 83 8 7 9 4 10 3 11 1 12 2 13
REMARK SMILES IDX 84 14 85 17 86 18 92 19 87 20 90 21 88 22 91 23 89 24 13 25
REMARK SMILES IDX 14 26 15 27 16 28 17 29 18 30 82 31 19 32 81 33 20 34 21 35
REMARK SMILES IDX 22 36 75 37 23 38 80 39 74 40 76 41 24 42 79 43 73 44 72 45
REMARK SMILES IDX 25 47 59 48 38 49 58 50 39 51 42 52 57 53 77 54 40 55 41 56
REMARK SMILES IDX 56 58 78 59 43 60 26 61 27 62 36 63 28 64 29 65 35 66 37 67
REMARK SMILES IDX 30 68 31 69 32 70 33 71 34 72 60 73 61 74 70 75 62 76 63 77
REMARK SMILES IDX 69 78 71 79 64 80 65 81 66 82 67 83 68 84 44 85 45 86 54 87
REMARK SMILES IDX 46 88 47 89 53 90 55 91 48 92 49 93 50 94 51 95 52 96
REMARK H PARENT 3 15 84 16 76 46 42 57
REMARK Flexibility Score: inf
ROOT
ATOM      1  C   UNL A   1      34.873  33.706  30.683  1.00  0.00     0.275 C 
ENDROOT
BRANCH   1   2
ATOM      2  O   UNL A   1      33.912  33.380  29.662  1.00  0.00    -0.456 OA
BRANCH   2   3
ATOM      3  C   UNL A   1      34.411  33.243  28.397  1.00  0.00     0.374 C 
ATOM      4  O   UNL A   1      34.975  34.134  27.778  1.00  0.00    -0.242 OA
BRANCH   3   5
ATOM      5  C   UNL A   1      34.259  31.876  27.949  1.00  0.00     0.211 A 
ATOM      6  C   UNL A   1      33.282  30.305  26.743  1.00  0.00     0.124 A 
ATOM      7  C   UNL A   1      34.438  29.745  27.245  1.00  0.00     0.048 A 
ATOM      8  O   UNL A   1      33.134  31.569  27.228  1.00  0.00    -0.452 OA
ATOM      9  C   UNL A   1      35.069  30.758  28.012  1.00  0.00     0.058 A 
BRANCH   6  10
ATOM     10  C   UNL A   1      32.274  29.859  25.745  1.00  0.00     0.193 C 
BRANCH  10  11
ATOM     11  N   UNL A   1      32.984  29.616  24.505  1.00  0.00    -0.331 N 
ATOM     12  O   UNL A   1      34.338  28.548  23.114  1.00  0.00    -0.248 OA
ATOM     13  C   UNL A   1      33.480  28.464  23.986  1.00  0.00     0.319 C 
ATOM     14  N   UNL A   1      32.964  27.305  24.493  1.00  0.00    -0.308 N 
ATOM     15  H   UNL A   1      33.130  30.416  23.949  1.00  0.00     0.165 HD
ATOM     16  H   UNL A   1      32.165  27.393  25.061  1.00  0.00     0.171 HD
BRANCH  14  17
ATOM     17  C   UNL A   1      33.452  25.999  24.288  1.00  0.00     0.044 A 
ATOM     18  C   UNL A   1      34.350  25.495  25.239  1.00  0.00     0.029 A 
ATOM     19  C   UNL A   1      33.114  25.209  23.182  1.00  0.00     0.049 A 
ATOM     20  C   UNL A   1      34.891  24.215  25.096  1.00  0.00     0.043 A 
ATOM     21  C   UNL A   1      33.662  23.931  23.038  1.00  0.00     0.078 A 
ATOM     22  C   UNL A   1      34.545  23.441  23.995  1.00  0.00     0.141 A 
ATOM     23  Cl  UNL A   1      33.257  22.982  21.658  1.00  0.00    -0.081 Cl
ATOM     24  F   UNL A   1      35.089  22.222  23.869  1.00  0.00    -0.205 F 
ENDBRANCH  14  17
ENDBRANCH  10  11
ENDBRANCH   6  10
ENDBRANCH   3   5
ENDBRANCH   2   3
ENDBRANCH   1   2
BRANCH   1  25
ATOM     25  C   UNL A   1      35.396  32.449  31.390  1.00  0.00     0.275 C 
BRANCH  25  26
ATOM     26  O   UNL A   1      36.618  31.962  30.802  1.00  0.00    -0.458 OA
BRANCH  26  27
ATOM     27  C   UNL A   1      37.010  30.734  31.221  1.00  0.00     0.338 C 
ATOM     28  O   UNL A   1      36.319  29.907  31.793  1.00  0.00    -0.246 OA
BRANCH  27  29
ATOM     29  C   UNL A   1      38.381  30.455  30.754  1.00  0.00     0.060 A 
ATOM     30  C   UNL A   1      38.618  30.516  29.379  1.00  0.00     0.016 A 
ATOM     31  C   UNL A   1      39.404  30.087  31.630  1.00  0.00     0.016 A 
ATOM     32  C   UNL A   1      39.876  30.212  28.867  1.00  0.00     0.010 A 
ATOM     33  C   UNL A   1      40.670  29.775  31.114  1.00  0.00     0.010 A 
ATOM     34  C   UNL A   1      40.910  29.830  29.730  1.00  0.00    -0.014 A 
BRANCH  34  35
ATOM     35  C   UNL A   1      42.225  29.454  29.159  1.00  0.00     0.031 A 
ATOM     36  C   UNL A   1      42.446  28.063  28.638  1.00  0.00     0.074 A 
ATOM     37  C   UNL A   1      43.199  30.377  29.062  1.00  0.00     0.049 A 
ATOM     38  N   UNL A   1      43.525  27.540  28.116  1.00  0.00    -0.248 NA
ATOM     39  C   UNL A   1      41.301  27.142  28.711  1.00  0.00     0.031 C 
ATOM     40  C   UNL A   1      43.088  31.770  29.496  1.00  0.00     0.029 A 
ATOM     41  N   UNL A   1      44.473  30.284  28.561  1.00  0.00    -0.354 N 
ATOM     42  C   UNL A   1      43.196  26.225  27.808  1.00  0.00     0.074 A 
ATOM     43  C   UNL A   1      41.820  26.028  28.214  1.00  0.00     0.031 C 
ATOM     44  C   UNL A   1      44.243  32.403  29.234  1.00  0.00     0.029 A 
ATOM     45  C   UNL A   1      45.186  31.456  28.645  1.00  0.00     0.049 A 
ATOM     46  H   UNL A   1      44.841  29.456  28.176  1.00  0.00     0.167 HD
ATOM     47  C   UNL A   1      43.970  25.272  27.234  1.00  0.00     0.037 A 
ATOM     48  C   UNL A   1      46.458  31.730  28.300  1.00  0.00     0.037 A 
ATOM     49  C   UNL A   1      45.333  25.475  26.818  1.00  0.00     0.049 A 
ATOM     50  C   UNL A   1      47.310  30.645  27.701  1.00  0.00     0.074 A 
ATOM     51  C   UNL A   1      46.199  24.571  26.226  1.00  0.00     0.029 A 
ATOM     52  N   UNL A   1      46.031  26.666  26.950  1.00  0.00    -0.354 N 
ATOM     53  N   UNL A   1      46.988  29.403  27.426  1.00  0.00    -0.248 NA
ATOM     54  C   UNL A   1      48.699  30.994  27.372  1.00  0.00     0.031 C 
ATOM     55  C   UNL A   1      47.428  25.209  26.025  1.00  0.00     0.029 A 
ATOM     56  C   UNL A   1      47.319  26.519  26.464  1.00  0.00     0.049 A 
ATOM     57  H   UNL A   1      45.665  27.496  27.333  1.00  0.00     0.167 HD
ATOM     58  C   UNL A   1      48.129  28.827  26.880  1.00  0.00     0.074 A 
ATOM     59  C   UNL A   1      49.147  29.859  26.852  1.00  0.00     0.031 C 
ATOM     60  C   UNL A   1      48.319  27.557  26.444  1.00  0.00     0.037 A 
BRANCH  47  61
ATOM     61  C   UNL A   1      43.361  23.913  27.048  1.00  0.00     0.058 A 
ATOM     62  C   UNL A   1      43.302  22.982  28.097  1.00  0.00     0.135 A 
ATOM     63  C   UNL A   1      42.816  23.542  25.808  1.00  0.00     0.135 A 
ATOM     64  F   UNL A   1      43.821  23.284  29.298  1.00  0.00    -0.206 F 
ATOM     65  C   UNL A   1      42.747  21.719  27.917  1.00  0.00     0.059 A 
ATOM     66  C   UNL A   1      42.239  22.292  25.611  1.00  0.00     0.059 A 
ATOM     67  F   UNL A   1      42.850  24.395  24.773  1.00  0.00    -0.206 F 
ATOM     68  C   UNL A   1      42.223  21.380  26.667  1.00  0.00     0.060 A 
BRANCH  68  69
ATOM     69  S   UNL A   1      41.509  19.739  26.436  1.00  0.00     0.124 S 
ATOM     70  O   UNL A   1      42.282  19.242  25.303  1.00  0.00    -0.237 OA
ATOM     71  O   UNL A   1      41.775  19.093  27.717  1.00  0.00    -0.237 OA
ATOM     72  O   UNL A   1      40.102  20.018  26.162  1.00  0.00    -0.744 OA
ENDBRANCH  68  69
ENDBRANCH  47  61
BRANCH  48  73
ATOM     73  C   UNL A   1      47.006  33.092  28.523  1.00  0.00     0.058 A 
ATOM     74  C   UNL A   1      47.622  33.435  29.734  1.00  0.00     0.135 A 
ATOM     75  C   UNL A   1      46.939  34.072  27.520  1.00  0.00     0.135 A 
ATOM     76  F   UNL A   1      47.701  32.534  30.725  1.00  0.00    -0.206 F 
ATOM     77  C   UNL A   1      48.151  34.704  29.948  1.00  0.00     0.059 A 
ATOM     78  C   UNL A   1      47.477  35.341  27.701  1.00  0.00     0.059 A 
ATOM     79  F   UNL A   1      46.366  33.787  26.340  1.00  0.00    -0.206 F 
ATOM     80  C   UNL A   1      48.075  35.650  28.923  1.00  0.00     0.060 A 
BRANCH  80  81
ATOM     81  S   UNL A   1      48.819  37.276  29.180  1.00  0.00     0.124 S 
ATOM     82  O   UNL A   1      48.000  38.113  28.313  1.00  0.00    -0.237 OA
ATOM     83  O   UNL A   1      48.640  37.477  30.615  1.00  0.00    -0.237 OA
ATOM     84  O   UNL A   1      50.201  37.080  28.752  1.00  0.00    -0.744 OA
ENDBRANCH  80  81
ENDBRANCH  48  73
BRANCH  60  85
ATOM     85  C   UNL A   1      49.670  27.218  25.884  1.00  0.00     0.058 A 
ATOM     86  C   UNL A   1      50.728  26.826  26.718  1.00  0.00     0.135 A 
ATOM     87  C   UNL A   1      49.895  27.241  24.499  1.00  0.00     0.135 A 
ATOM     88  F   UNL A   1      50.563  26.796  28.050  1.00  0.00    -0.206 F 
ATOM     89  C   UNL A   1      51.972  26.483  26.197  1.00  0.00     0.059 A 
ATOM     90  C   UNL A   1      51.125  26.885  23.956  1.00  0.00     0.059 A 
ATOM     91  F   UNL A   1      48.911  27.603  23.660  1.00  0.00    -0.206 F 
ATOM     92  C   UNL A   1      52.162  26.518  24.814  1.00  0.00     0.060 A 
BRANCH  92  93
ATOM     93  S   UNL A   1      53.769  26.041  24.143  1.00  0.00     0.124 S 
ATOM     94  O   UNL A   1      53.872  24.655  24.588  1.00  0.00    -0.237 OA
ATOM     95  O   UNL A   1      53.583  26.232  22.708  1.00  0.00    -0.237 OA
ATOM     96  O   UNL A   1      54.691  26.976  24.778  1.00  0.00    -0.744 OA
ENDBRANCH  92  93
ENDBRANCH  60  85
ENDBRANCH  34  35
ENDBRANCH  27  29
ENDBRANCH  26  27
ENDBRANCH  25  26
ENDBRANCH   1  25
TORSDOF 17
ENDMDL
