MODEL 1
REMARK VINA RESULT:     -11.4      0.000      0.000
REMARK SMILES C[C@@H]1[C@H](C)CCC[C@H]1NC(=O)C[N@H+]1CCC[C@@H]1C(=O)OCCOC(=O)c1ccc(-c2c3nc(c(-c4c(F)cc(S(=O)(=O)[O-])cc4F)c4ccc([nH]4)c(-c4c(F)cc(S(=O)(=O)[O-])cc4F)c4nc(c(-c5c(F)cc(S(=O)(=O)[O-])cc5F)c5ccc2[nH]5)C=C4)C=C3)cc1
REMARK SMILES IDX 21 1 20 2 18 3 19 4 17 5 13 6 14 7 15 9 16 10 12 11 10 12
REMARK SMILES IDX 9 13 11 15 8 16 1 17 2 18 3 19 4 20 5 21 7 22 6 23 22 24
REMARK SMILES IDX 23 25 24 26 25 27 26 28 27 29 91 30 28 31 90 32 29 33 30 34
REMARK SMILES IDX 31 35 84 36 32 37 89 38 83 39 85 40 33 41 88 42 82 43 81 44
REMARK SMILES IDX 34 46 68 47 47 48 67 49 48 50 51 51 66 52 86 53 49 54 50 55
REMARK SMILES IDX 65 57 87 58 52 59 35 60 36 61 45 62 37 63 38 64 44 65 46 66
REMARK SMILES IDX 39 67 40 68 41 69 42 70 43 71 69 72 70 73 79 74 71 75 72 76
REMARK SMILES IDX 78 77 80 78 73 79 74 80 75 81 76 82 77 83 53 84 54 85 63 86
REMARK SMILES IDX 55 87 56 88 62 89 64 90 57 91 58 92 59 93 60 94 61 95
REMARK H PARENT 13 8 9 14 85 45 51 56
REMARK Flexibility Score: inf
ROOT
ATOM      1  C   UNL A   1      31.817  30.384  25.766  1.00  0.00     0.274 C 
ENDROOT
BRANCH   1   2
ATOM      2  O   UNL A   1      32.564  29.718  24.721  1.00  0.00    -0.458 OA
BRANCH   2   3
ATOM      3  C   UNL A   1      31.834  28.935  23.881  1.00  0.00     0.365 C 
ATOM      4  O   UNL A   1      31.810  29.068  22.659  1.00  0.00    -0.245 OA
BRANCH   3   5
ATOM      5  C   UNL A   1      30.973  27.882  24.585  1.00  0.00     0.295 C 
ATOM      6  N   UNL A   1      31.662  26.687  25.055  1.00  0.00    -0.315 N 
ATOM      7  C   UNL A   1      30.696  25.769  25.592  1.00  0.00     0.263 C 
ATOM      8  H   UNL A   1      32.259  26.413  24.274  1.00  0.00     0.349 HD
ATOM      9  C   UNL A   1      29.663  25.827  24.479  1.00  0.00     0.068 C 
ATOM     10  C   UNL A   1      29.851  27.195  23.806  1.00  0.00     0.083 C 
BRANCH   6  11
ATOM     11  C   UNL A   1      33.073  26.537  25.293  1.00  0.00     0.364 C 
BRANCH  11  12
ATOM     12  C   UNL A   1      33.736  25.764  24.142  1.00  0.00     0.275 C 
ATOM     13  N   UNL A   1      34.374  24.572  24.347  1.00  0.00    -0.348 N 
ATOM     14  H   UNL A   1      34.535  24.053  23.526  1.00  0.00     0.163 HD
ATOM     15  O   UNL A   1      33.703  26.195  22.986  1.00  0.00    -0.268 OA
BRANCH  13  16
ATOM     16  C   UNL A   1      34.861  23.933  25.574  1.00  0.00     0.085 C 
ATOM     17  C   UNL A   1      34.515  21.992  27.190  1.00  0.00     0.010 C 
ATOM     18  C   UNL A   1      34.267  22.510  25.759  1.00  0.00     0.011 C 
ATOM     19  C   UNL A   1      34.791  21.524  24.684  1.00  0.00    -0.009 C 
ATOM     20  C   UNL A   1      34.231  20.109  24.858  1.00  0.00     0.008 C 
ATOM     21  C   UNL A   1      36.326  21.498  24.636  1.00  0.00     0.004 C 
ATOM     22  C   UNL A   1      36.395  23.880  25.533  1.00  0.00     0.025 C 
ATOM     23  C   UNL A   1      36.921  22.896  24.485  1.00  0.00     0.002 C 
ENDBRANCH  13  16
ENDBRANCH  11  12
ENDBRANCH   6  11
ENDBRANCH   3   5
ENDBRANCH   2   3
ENDBRANCH   1   2
BRANCH   1  24
ATOM     24  C   UNL A   1      32.477  30.207  27.133  1.00  0.00     0.275 C 
BRANCH  24  25
ATOM     25  O   UNL A   1      33.905  30.148  26.999  1.00  0.00    -0.458 OA
BRANCH  25  26
ATOM     26  C   UNL A   1      34.570  30.778  27.994  1.00  0.00     0.338 C 
ATOM     27  O   UNL A   1      34.135  31.604  28.777  1.00  0.00    -0.246 OA
BRANCH  26  28
ATOM     28  C   UNL A   1      35.895  30.168  28.140  1.00  0.00     0.060 A 
ATOM     29  C   UNL A   1      36.229  29.704  29.410  1.00  0.00     0.016 A 
ATOM     30  C   UNL A   1      36.825  30.147  27.109  1.00  0.00     0.016 A 
ATOM     31  C   UNL A   1      37.520  29.290  29.695  1.00  0.00     0.010 A 
ATOM     32  C   UNL A   1      38.118  29.686  27.379  1.00  0.00     0.010 A 
ATOM     33  C   UNL A   1      38.481  29.290  28.681  1.00  0.00    -0.014 A 
BRANCH  33  34
ATOM     34  C   UNL A   1      39.882  28.947  29.015  1.00  0.00     0.031 A 
ATOM     35  C   UNL A   1      40.741  29.961  29.716  1.00  0.00     0.074 A 
ATOM     36  C   UNL A   1      40.358  27.721  28.732  1.00  0.00     0.049 A 
ATOM     37  N   UNL A   1      42.016  29.908  30.001  1.00  0.00    -0.248 NA
ATOM     38  C   UNL A   1      40.078  31.201  30.151  1.00  0.00     0.031 C 
ATOM     39  C   UNL A   1      39.590  26.637  28.114  1.00  0.00     0.029 A 
ATOM     40  N   UNL A   1      41.601  27.178  28.927  1.00  0.00    -0.354 N 
ATOM     41  C   UNL A   1      42.316  31.119  30.613  1.00  0.00     0.074 A 
ATOM     42  C   UNL A   1      41.093  31.890  30.652  1.00  0.00     0.031 C 
ATOM     43  C   UNL A   1      40.378  25.559  27.985  1.00  0.00     0.029 A 
ATOM     44  C   UNL A   1      41.719  25.892  28.454  1.00  0.00     0.049 A 
ATOM     45  H   UNL A   1      42.339  27.662  29.363  1.00  0.00     0.167 HD
ATOM     46  C   UNL A   1      43.508  31.545  31.095  1.00  0.00     0.037 A 
ATOM     47  C   UNL A   1      42.797  25.089  28.377  1.00  0.00     0.037 A 
ATOM     48  C   UNL A   1      44.709  30.752  31.072  1.00  0.00     0.049 A 
ATOM     49  C   UNL A   1      44.118  25.601  28.880  1.00  0.00     0.074 A 
ATOM     50  C   UNL A   1      45.971  31.084  31.533  1.00  0.00     0.029 A 
ATOM     51  N   UNL A   1      44.796  29.463  30.565  1.00  0.00    -0.354 N 
ATOM     52  N   UNL A   1      44.400  26.763  29.423  1.00  0.00    -0.248 NA
ATOM     53  C   UNL A   1      45.270  24.699  28.754  1.00  0.00     0.031 C 
ATOM     54  C   UNL A   1      46.828  30.008  31.272  1.00  0.00     0.029 A 
ATOM     55  C   UNL A   1      46.091  28.989  30.689  1.00  0.00     0.049 A 
ATOM     56  H   UNL A   1      44.046  28.958  30.175  1.00  0.00     0.167 HD
ATOM     57  C   UNL A   1      45.757  26.725  29.719  1.00  0.00     0.074 A 
ATOM     58  C   UNL A   1      46.236  25.420  29.310  1.00  0.00     0.031 C 
ATOM     59  C   UNL A   1      46.539  27.683  30.277  1.00  0.00     0.037 A 
BRANCH  46  60
ATOM     60  C   UNL A   1      43.574  32.940  31.650  1.00  0.00     0.058 A 
ATOM     61  C   UNL A   1      43.913  34.043  30.851  1.00  0.00     0.135 A 
ATOM     62  C   UNL A   1      43.279  33.178  33.003  1.00  0.00     0.135 A 
ATOM     63  F   UNL A   1      44.225  33.871  29.557  1.00  0.00    -0.206 F 
ATOM     64  C   UNL A   1      43.982  35.330  31.380  1.00  0.00     0.059 A 
ATOM     65  C   UNL A   1      43.319  34.458  33.547  1.00  0.00     0.059 A 
ATOM     66  F   UNL A   1      42.954  32.157  33.812  1.00  0.00    -0.206 F 
ATOM     67  C   UNL A   1      43.687  35.525  32.731  1.00  0.00     0.060 A 
BRANCH  67  68
ATOM     68  S   UNL A   1      43.787  37.198  33.405  1.00  0.00     0.124 S 
ATOM     69  O   UNL A   1      43.756  38.004  32.187  1.00  0.00    -0.237 OA
ATOM     70  O   UNL A   1      42.593  37.270  34.241  1.00  0.00    -0.237 OA
ATOM     71  O   UNL A   1      45.055  37.199  34.126  1.00  0.00    -0.744 OA
ENDBRANCH  67  68
ENDBRANCH  46  60
BRANCH  47  72
ATOM     72  C   UNL A   1      42.674  23.737  27.774  1.00  0.00     0.058 A 
ATOM     73  C   UNL A   1      42.746  23.551  26.387  1.00  0.00     0.135 A 
ATOM     74  C   UNL A   1      42.498  22.598  28.577  1.00  0.00     0.135 A 
ATOM     75  F   UNL A   1      42.906  24.609  25.577  1.00  0.00    -0.206 F 
ATOM     76  C   UNL A   1      42.635  22.288  25.814  1.00  0.00     0.059 A 
ATOM     77  C   UNL A   1      42.411  21.322  28.031  1.00  0.00     0.059 A 
ATOM     78  F   UNL A   1      42.436  22.720  29.913  1.00  0.00    -0.206 F 
ATOM     79  C   UNL A   1      42.470  21.178  26.645  1.00  0.00     0.060 A 
BRANCH  79  80
ATOM     80  S   UNL A   1      42.376  19.538  25.897  1.00  0.00     0.124 S 
ATOM     81  O   UNL A   1      42.676  18.679  27.036  1.00  0.00    -0.237 OA
ATOM     82  O   UNL A   1      40.998  19.498  25.413  1.00  0.00    -0.237 OA
ATOM     83  O   UNL A   1      43.396  19.585  24.854  1.00  0.00    -0.744 OA
ENDBRANCH  79  80
ENDBRANCH  47  72
BRANCH  59  84
ATOM     84  C   UNL A   1      47.983  27.338  30.504  1.00  0.00     0.058 A 
ATOM     85  C   UNL A   1      48.428  26.795  31.719  1.00  0.00     0.135 A 
ATOM     86  C   UNL A   1      48.925  27.522  29.480  1.00  0.00     0.135 A 
ATOM     87  F   UNL A   1      47.566  26.607  32.731  1.00  0.00    -0.206 F 
ATOM     88  C   UNL A   1      49.765  26.469  31.921  1.00  0.00     0.059 A 
ATOM     89  C   UNL A   1      50.262  27.180  29.651  1.00  0.00     0.059 A 
ATOM     90  F   UNL A   1      48.547  28.027  28.296  1.00  0.00    -0.206 F 
ATOM     91  C   UNL A   1      50.674  26.668  30.881  1.00  0.00     0.060 A 
BRANCH  91  92
ATOM     92  S   UNL A   1      52.404  26.223  31.143  1.00  0.00     0.124 S 
ATOM     93  O   UNL A   1      52.924  26.249  29.781  1.00  0.00    -0.237 OA
ATOM     94  O   UNL A   1      52.875  27.291  32.021  1.00  0.00    -0.237 OA
ATOM     95  O   UNL A   1      52.325  24.903  31.762  1.00  0.00    -0.744 OA
ENDBRANCH  91  92
ENDBRANCH  59  84
ENDBRANCH  33  34
ENDBRANCH  26  28
ENDBRANCH  25  26
ENDBRANCH  24  25
ENDBRANCH   1  24
TORSDOF 17
ENDMDL
MODEL 2
REMARK VINA RESULT:     -11.3      4.593     10.577
REMARK SMILES C[C@@H]1[C@H](C)CCC[C@H]1NC(=O)C[N@H+]1CCC[C@@H]1C(=O)OCCOC(=O)c1ccc(-c2c3nc(c(-c4c(F)cc(S(=O)(=O)[O-])cc4F)c4ccc([nH]4)c(-c4c(F)cc(S(=O)(=O)[O-])cc4F)c4nc(c(-c5c(F)cc(S(=O)(=O)[O-])cc5F)c5ccc2[nH]5)C=C4)C=C3)cc1
REMARK SMILES IDX 21 1 20 2 18 3 19 4 17 5 13 6 14 7 15 9 16 10 12 11 10 12
REMARK SMILES IDX 9 13 11 15 8 16 1 17 2 18 3 19 4 20 5 21 7 22 6 23 22 24
REMARK SMILES IDX 23 25 24 26 25 27 26 28 27 29 91 30 28 31 90 32 29 33 30 34
REMARK SMILES IDX 31 35 84 36 32 37 89 38 83 39 85 40 33 41 88 42 82 43 81 44
REMARK SMILES IDX 34 46 68 47 47 48 67 49 48 50 51 51 66 52 86 53 49 54 50 55
REMARK SMILES IDX 65 57 87 58 52 59 35 60 36 61 45 62 37 63 38 64 44 65 46 66
REMARK SMILES IDX 39 67 40 68 41 69 42 70 43 71 69 72 70 73 79 74 71 75 72 76
REMARK SMILES IDX 78 77 80 78 73 79 74 80 75 81 76 82 77 83 53 84 54 85 63 86
REMARK SMILES IDX 55 87 56 88 62 89 64 90 57 91 58 92 59 93 60 94 61 95
REMARK H PARENT 13 8 9 14 85 45 51 56
REMARK Flexibility Score: inf
ROOT
ATOM      1  C   UNL A   1      38.515  21.768  25.704  1.00  0.00     0.274 C 
ENDROOT
BRANCH   1   2
ATOM      2  O   UNL A   1      37.405  22.692  25.793  1.00  0.00    -0.458 OA
BRANCH   2   3
ATOM      3  C   UNL A   1      36.482  22.606  24.798  1.00  0.00     0.365 C 
ATOM      4  O   UNL A   1      36.740  22.731  23.603  1.00  0.00    -0.245 OA
BRANCH   3   5
ATOM      5  C   UNL A   1      35.044  22.394  25.284  1.00  0.00     0.295 C 
ATOM      6  N   UNL A   1      34.311  23.590  25.683  1.00  0.00    -0.315 N 
ATOM      7  C   UNL A   1      33.030  23.201  26.205  1.00  0.00     0.263 C 
ATOM      8  H   UNL A   1      34.970  24.111  26.262  1.00  0.00     0.349 HD
ATOM      9  C   UNL A   1      33.474  22.075  27.123  1.00  0.00     0.068 C 
ATOM     10  C   UNL A   1      34.797  21.557  26.539  1.00  0.00     0.083 C 
BRANCH   6  11
ATOM     11  C   UNL A   1      34.609  24.950  25.324  1.00  0.00     0.364 C 
BRANCH  11  12
ATOM     12  C   UNL A   1      33.865  25.346  24.040  1.00  0.00     0.275 C 
ATOM     13  N   UNL A   1      32.753  26.142  24.066  1.00  0.00    -0.348 N 
ATOM     14  H   UNL A   1      32.514  26.532  23.195  1.00  0.00     0.163 HD
ATOM     15  O   UNL A   1      34.259  24.963  22.935  1.00  0.00    -0.268 OA
BRANCH  13  16
ATOM     16  C   UNL A   1      31.856  26.515  25.164  1.00  0.00     0.085 C 
ATOM     17  C   UNL A   1      31.653  27.850  27.326  1.00  0.00     0.010 C 
ATOM     18  C   UNL A   1      32.426  27.693  26.002  1.00  0.00     0.011 C 
ATOM     19  C   UNL A   1      32.463  29.012  25.188  1.00  0.00    -0.009 C 
ATOM     20  C   UNL A   1      33.006  30.191  26.001  1.00  0.00     0.008 C 
ATOM     21  C   UNL A   1      31.089  29.350  24.592  1.00  0.00     0.004 C 
ATOM     22  C   UNL A   1      30.482  26.878  24.582  1.00  0.00     0.025 C 
ATOM     23  C   UNL A   1      30.506  28.188  23.791  1.00  0.00     0.002 C 
ENDBRANCH  13  16
ENDBRANCH  11  12
ENDBRANCH   6  11
ENDBRANCH   3   5
ENDBRANCH   2   3
ENDBRANCH   1   2
BRANCH   1  24
ATOM     24  C   UNL A   1      39.787  22.350  26.319  1.00  0.00     0.275 C 
BRANCH  24  25
ATOM     25  O   UNL A   1      39.650  23.767  26.510  1.00  0.00    -0.458 OA
BRANCH  25  26
ATOM     26  C   UNL A   1      40.806  24.383  26.846  1.00  0.00     0.338 C 
ATOM     27  O   UNL A   1      41.920  24.178  26.395  1.00  0.00    -0.246 OA
BRANCH  26  28
ATOM     28  C   UNL A   1      40.504  25.515  27.726  1.00  0.00     0.060 A 
ATOM     29  C   UNL A   1      41.408  26.574  27.711  1.00  0.00     0.016 A 
ATOM     30  C   UNL A   1      39.439  25.504  28.618  1.00  0.00     0.016 A 
ATOM     31  C   UNL A   1      41.317  27.596  28.640  1.00  0.00     0.010 A 
ATOM     32  C   UNL A   1      39.314  26.558  29.529  1.00  0.00     0.010 A 
ATOM     33  C   UNL A   1      40.272  27.590  29.568  1.00  0.00    -0.014 A 
BRANCH  33  34
ATOM     34  C   UNL A   1      40.239  28.627  30.623  1.00  0.00     0.031 A 
ATOM     35  C   UNL A   1      41.203  28.540  31.773  1.00  0.00     0.074 A 
ATOM     36  C   UNL A   1      39.382  29.659  30.523  1.00  0.00     0.049 A 
ATOM     37  N   UNL A   1      41.271  29.275  32.852  1.00  0.00    -0.248 NA
ATOM     38  C   UNL A   1      42.225  27.483  31.699  1.00  0.00     0.031 C 
ATOM     39  C   UNL A   1      38.448  29.878  29.415  1.00  0.00     0.029 A 
ATOM     40  N   UNL A   1      39.156  30.718  31.362  1.00  0.00    -0.354 N 
ATOM     41  C   UNL A   1      42.316  28.747  33.602  1.00  0.00     0.074 A 
ATOM     42  C   UNL A   1      42.848  27.626  32.859  1.00  0.00     0.031 C 
ATOM     43  C   UNL A   1      37.754  31.004  29.642  1.00  0.00     0.029 A 
ATOM     44  C   UNL A   1      38.149  31.553  30.935  1.00  0.00     0.049 A 
ATOM     45  H   UNL A   1      39.665  30.868  32.192  1.00  0.00     0.167 HD
ATOM     46  C   UNL A   1      42.782  29.164  34.803  1.00  0.00     0.037 A 
ATOM     47  C   UNL A   1      37.587  32.617  31.539  1.00  0.00     0.037 A 
ATOM     48  C   UNL A   1      42.256  30.299  35.515  1.00  0.00     0.049 A 
ATOM     49  C   UNL A   1      38.094  33.034  32.892  1.00  0.00     0.074 A 
ATOM     50  C   UNL A   1      42.654  30.810  36.739  1.00  0.00     0.029 A 
ATOM     51  N   UNL A   1      41.222  31.106  35.063  1.00  0.00    -0.354 N 
ATOM     52  N   UNL A   1      39.057  32.505  33.610  1.00  0.00    -0.248 NA
ATOM     53  C   UNL A   1      37.435  34.186  33.521  1.00  0.00     0.031 C 
ATOM     54  C   UNL A   1      41.835  31.905  37.041  1.00  0.00     0.029 A 
ATOM     55  C   UNL A   1      40.957  32.103  35.986  1.00  0.00     0.049 A 
ATOM     56  H   UNL A   1      40.746  30.988  34.209  1.00  0.00     0.167 HD
ATOM     57  C   UNL A   1      39.131  33.269  34.768  1.00  0.00     0.074 A 
ATOM     58  C   UNL A   1      38.126  34.307  34.647  1.00  0.00     0.031 C 
ATOM     59  C   UNL A   1      39.954  33.127  35.838  1.00  0.00     0.037 A 
BRANCH  46  60
ATOM     60  C   UNL A   1      43.886  28.363  35.435  1.00  0.00     0.058 A 
ATOM     61  C   UNL A   1      43.627  27.301  36.314  1.00  0.00     0.135 A 
ATOM     62  C   UNL A   1      45.229  28.659  35.142  1.00  0.00     0.135 A 
ATOM     63  F   UNL A   1      42.364  26.990  36.644  1.00  0.00    -0.206 F 
ATOM     64  C   UNL A   1      44.661  26.575  36.901  1.00  0.00     0.059 A 
ATOM     65  C   UNL A   1      46.276  27.931  35.699  1.00  0.00     0.059 A 
ATOM     66  F   UNL A   1      45.533  29.669  34.311  1.00  0.00    -0.206 F 
ATOM     67  C   UNL A   1      45.982  26.901  36.590  1.00  0.00     0.060 A 
BRANCH  67  68
ATOM     68  S   UNL A   1      47.312  25.956  37.364  1.00  0.00     0.124 S 
ATOM     69  O   UNL A   1      48.411  26.917  37.326  1.00  0.00    -0.237 OA
ATOM     70  O   UNL A   1      46.767  25.671  38.687  1.00  0.00    -0.237 OA
ATOM     71  O   UNL A   1      47.460  24.798  36.487  1.00  0.00    -0.744 OA
ENDBRANCH  67  68
ENDBRANCH  46  60
BRANCH  47  72
ATOM     72  C   UNL A   1      36.465  33.337  30.881  1.00  0.00     0.058 A 
ATOM     73  C   UNL A   1      35.150  33.215  31.351  1.00  0.00     0.135 A 
ATOM     74  C   UNL A   1      36.691  34.176  29.778  1.00  0.00     0.135 A 
ATOM     75  F   UNL A   1      34.884  32.420  32.398  1.00  0.00    -0.206 F 
ATOM     76  C   UNL A   1      34.095  33.888  30.743  1.00  0.00     0.059 A 
ATOM     77  C   UNL A   1      35.656  34.880  29.170  1.00  0.00     0.059 A 
ATOM     78  F   UNL A   1      37.933  34.337  29.297  1.00  0.00    -0.206 F 
ATOM     79  C   UNL A   1      34.358  34.721  29.653  1.00  0.00     0.060 A 
BRANCH  79  80
ATOM     80  S   UNL A   1      32.991  35.628  28.901  1.00  0.00     0.124 S 
ATOM     81  O   UNL A   1      33.698  36.678  28.179  1.00  0.00    -0.237 OA
ATOM     82  O   UNL A   1      32.357  34.603  28.077  1.00  0.00    -0.237 OA
ATOM     83  O   UNL A   1      32.207  36.068  30.052  1.00  0.00    -0.744 OA
ENDBRANCH  79  80
ENDBRANCH  47  72
BRANCH  59  84
ATOM     84  C   UNL A   1      39.819  34.137  36.941  1.00  0.00     0.058 A 
ATOM     85  C   UNL A   1      39.102  33.854  38.113  1.00  0.00     0.135 A 
ATOM     86  C   UNL A   1      40.444  35.389  36.836  1.00  0.00     0.135 A 
ATOM     87  F   UNL A   1      38.481  32.673  38.258  1.00  0.00    -0.206 F 
ATOM     88  C   UNL A   1      38.987  34.791  39.135  1.00  0.00     0.059 A 
ATOM     89  C   UNL A   1      40.363  36.330  37.855  1.00  0.00     0.059 A 
ATOM     90  F   UNL A   1      41.150  35.702  35.738  1.00  0.00    -0.206 F 
ATOM     91  C   UNL A   1      39.620  36.027  38.996  1.00  0.00     0.060 A 
BRANCH  91  92
ATOM     92  S   UNL A   1      39.484  37.228  40.336  1.00  0.00     0.124 S 
ATOM     93  O   UNL A   1      39.044  38.420  39.618  1.00  0.00    -0.237 OA
ATOM     94  O   UNL A   1      38.489  36.613  41.211  1.00  0.00    -0.237 OA
ATOM     95  O   UNL A   1      40.837  37.285  40.880  1.00  0.00    -0.744 OA
ENDBRANCH  91  92
ENDBRANCH  59  84
ENDBRANCH  33  34
ENDBRANCH  26  28
ENDBRANCH  25  26
ENDBRANCH  24  25
ENDBRANCH   1  24
TORSDOF 17
ENDMDL
MODEL 3
REMARK VINA RESULT:     -11.3      3.108      5.979
REMARK SMILES C[C@@H]1[C@H](C)CCC[C@H]1NC(=O)C[N@H+]1CCC[C@@H]1C(=O)OCCOC(=O)c1ccc(-c2c3nc(c(-c4c(F)cc(S(=O)(=O)[O-])cc4F)c4ccc([nH]4)c(-c4c(F)cc(S(=O)(=O)[O-])cc4F)c4nc(c(-c5c(F)cc(S(=O)(=O)[O-])cc5F)c5ccc2[nH]5)C=C4)C=C3)cc1
REMARK SMILES IDX 21 1 20 2 18 3 19 4 17 5 13 6 14 7 15 9 16 10 12 11 10 12
REMARK SMILES IDX 9 13 11 15 8 16 1 17 2 18 3 19 4 20 5 21 7 22 6 23 22 24
REMARK SMILES IDX 23 25 24 26 25 27 26 28 27 29 91 30 28 31 90 32 29 33 30 34
REMARK SMILES IDX 31 35 84 36 32 37 89 38 83 39 85 40 33 41 88 42 82 43 81 44
REMARK SMILES IDX 34 46 68 47 47 48 67 49 48 50 51 51 66 52 86 53 49 54 50 55
REMARK SMILES IDX 65 57 87 58 52 59 35 60 36 61 45 62 37 63 38 64 44 65 46 66
REMARK SMILES IDX 39 67 40 68 41 69 42 70 43 71 69 72 70 73 79 74 71 75 72 76
REMARK SMILES IDX 78 77 80 78 73 79 74 80 75 81 76 82 77 83 53 84 54 85 63 86
REMARK SMILES IDX 55 87 56 88 62 89 64 90 57 91 58 92 59 93 60 94 61 95
REMARK H PARENT 13 8 9 14 85 45 51 56
REMARK Flexibility Score: inf
ROOT
ATOM      1  C   UNL A   1      34.213  32.999  28.468  1.00  0.00     0.274 C 
ENDROOT
BRANCH   1   2
ATOM      2  O   UNL A   1      33.336  34.036  28.966  1.00  0.00    -0.458 OA
BRANCH   2   3
ATOM      3  C   UNL A   1      33.880  35.279  29.053  1.00  0.00     0.365 C 
ATOM      4  O   UNL A   1      34.514  35.822  28.151  1.00  0.00    -0.245 OA
BRANCH   3   5
ATOM      5  C   UNL A   1      33.695  35.957  30.415  1.00  0.00     0.295 C 
ATOM      6  N   UNL A   1      34.407  35.361  31.539  1.00  0.00    -0.315 N 
ATOM      7  C   UNL A   1      34.042  36.053  32.745  1.00  0.00     0.263 C 
ATOM      8  H   UNL A   1      34.238  34.359  31.446  1.00  0.00     0.349 HD
ATOM      9  C   UNL A   1      32.535  36.089  32.557  1.00  0.00     0.068 C 
ATOM     10  C   UNL A   1      32.302  36.007  31.040  1.00  0.00     0.083 C 
BRANCH   6  11
ATOM     11  C   UNL A   1      35.541  34.479  31.478  1.00  0.00     0.364 C 
BRANCH  11  12
ATOM     12  C   UNL A   1      35.213  33.129  32.132  1.00  0.00     0.275 C 
ATOM     13  N   UNL A   1      36.139  32.434  32.860  1.00  0.00    -0.348 N 
ATOM     14  H   UNL A   1      35.759  31.729  33.431  1.00  0.00     0.163 HD
ATOM     15  O   UNL A   1      34.088  32.630  32.028  1.00  0.00    -0.268 OA
BRANCH  13  16
ATOM     16  C   UNL A   1      37.599  32.558  32.938  1.00  0.00     0.085 C 
ATOM     17  C   UNL A   1      39.527  33.796  34.053  1.00  0.00     0.010 C 
ATOM     18  C   UNL A   1      38.042  33.398  34.167  1.00  0.00     0.011 C 
ATOM     19  C   UNL A   1      37.734  32.671  35.502  1.00  0.00    -0.009 C 
ATOM     20  C   UNL A   1      38.180  33.475  36.727  1.00  0.00     0.008 C 
ATOM     21  C   UNL A   1      38.335  31.258  35.531  1.00  0.00     0.004 C 
ATOM     22  C   UNL A   1      38.214  31.152  32.991  1.00  0.00     0.025 C 
ATOM     23  C   UNL A   1      37.929  30.434  34.311  1.00  0.00     0.002 C 
ENDBRANCH  13  16
ENDBRANCH  11  12
ENDBRANCH   6  11
ENDBRANCH   3   5
ENDBRANCH   2   3
ENDBRANCH   1   2
BRANCH   1  24
ATOM     24  C   UNL A   1      33.429  31.800  27.937  1.00  0.00     0.275 C 
BRANCH  24  25
ATOM     25  O   UNL A   1      34.268  30.973  27.117  1.00  0.00    -0.458 OA
BRANCH  25  26
ATOM     26  C   UNL A   1      34.507  29.751  27.644  1.00  0.00     0.338 C 
ATOM     27  O   UNL A   1      33.786  28.769  27.610  1.00  0.00    -0.246 OA
BRANCH  26  28
ATOM     28  C   UNL A   1      35.892  29.701  28.120  1.00  0.00     0.060 A 
ATOM     29  C   UNL A   1      36.885  29.914  27.167  1.00  0.00     0.016 A 
ATOM     30  C   UNL A   1      36.223  29.351  29.423  1.00  0.00     0.016 A 
ATOM     31  C   UNL A   1      38.218  29.698  27.472  1.00  0.00     0.010 A 
ATOM     32  C   UNL A   1      37.572  29.176  29.750  1.00  0.00     0.010 A 
ATOM     33  C   UNL A   1      38.572  29.314  28.768  1.00  0.00    -0.014 A 
BRANCH  33  34
ATOM     34  C   UNL A   1      39.985  28.984  29.062  1.00  0.00     0.031 A 
ATOM     35  C   UNL A   1      40.859  30.013  29.723  1.00  0.00     0.074 A 
ATOM     36  C   UNL A   1      40.461  27.757  28.780  1.00  0.00     0.049 A 
ATOM     37  N   UNL A   1      42.142  29.972  29.969  1.00  0.00    -0.248 NA
ATOM     38  C   UNL A   1      40.201  31.254  30.163  1.00  0.00     0.031 C 
ATOM     39  C   UNL A   1      39.681  26.661  28.199  1.00  0.00     0.029 A 
ATOM     40  N   UNL A   1      41.713  27.226  28.942  1.00  0.00    -0.354 N 
ATOM     41  C   UNL A   1      42.453  31.192  30.556  1.00  0.00     0.074 A 
ATOM     42  C   UNL A   1      41.226  31.956  30.624  1.00  0.00     0.031 C 
ATOM     43  C   UNL A   1      40.473  25.586  28.059  1.00  0.00     0.029 A 
ATOM     44  C   UNL A   1      41.825  25.935  28.483  1.00  0.00     0.049 A 
ATOM     45  H   UNL A   1      42.461  27.720  29.349  1.00  0.00     0.167 HD
ATOM     46  C   UNL A   1      43.656  31.632  30.996  1.00  0.00     0.037 A 
ATOM     47  C   UNL A   1      42.906  25.138  28.381  1.00  0.00     0.037 A 
ATOM     48  C   UNL A   1      44.862  30.847  30.944  1.00  0.00     0.049 A 
ATOM     49  C   UNL A   1      44.239  25.664  28.837  1.00  0.00     0.074 A 
ATOM     50  C   UNL A   1      46.135  31.193  31.362  1.00  0.00     0.029 A 
ATOM     51  N   UNL A   1      44.942  29.552  30.451  1.00  0.00    -0.354 N 
ATOM     52  N   UNL A   1      44.529  26.835  29.356  1.00  0.00    -0.248 NA
ATOM     53  C   UNL A   1      45.392  24.769  28.686  1.00  0.00     0.031 C 
ATOM     54  C   UNL A   1      46.991  30.119  31.088  1.00  0.00     0.029 A 
ATOM     55  C   UNL A   1      46.243  29.088  30.541  1.00  0.00     0.049 A 
ATOM     56  H   UNL A   1      44.183  29.037  30.091  1.00  0.00     0.167 HD
ATOM     57  C   UNL A   1      45.895  26.810  29.610  1.00  0.00     0.074 A 
ATOM     58  C   UNL A   1      46.370  25.502  29.202  1.00  0.00     0.031 C 
ATOM     59  C   UNL A   1      46.688  27.780  30.131  1.00  0.00     0.037 A 
BRANCH  46  60
ATOM     60  C   UNL A   1      43.730  33.035  31.530  1.00  0.00     0.058 A 
ATOM     61  C   UNL A   1      43.592  33.319  32.897  1.00  0.00     0.135 A 
ATOM     62  C   UNL A   1      43.958  34.112  30.657  1.00  0.00     0.135 A 
ATOM     63  F   UNL A   1      43.352  32.330  33.772  1.00  0.00    -0.206 F 
ATOM     64  C   UNL A   1      43.649  34.625  33.377  1.00  0.00     0.059 A 
ATOM     65  C   UNL A   1      44.043  35.422  31.118  1.00  0.00     0.059 A 
ATOM     66  F   UNL A   1      44.092  33.896  29.338  1.00  0.00    -0.206 F 
ATOM     67  C   UNL A   1      43.871  35.670  32.479  1.00  0.00     0.060 A 
BRANCH  67  68
ATOM     68  S   UNL A   1      43.939  37.359  33.114  1.00  0.00     0.124 S 
ATOM     69  O   UNL A   1      42.763  37.391  33.979  1.00  0.00    -0.237 OA
ATOM     70  O   UNL A   1      45.228  37.386  33.798  1.00  0.00    -0.237 OA
ATOM     71  O   UNL A   1      43.854  38.179  31.910  1.00  0.00    -0.744 OA
ENDBRANCH  67  68
ENDBRANCH  46  60
BRANCH  47  72
ATOM     72  C   UNL A   1      42.774  23.777  27.800  1.00  0.00     0.058 A 
ATOM     73  C   UNL A   1      42.600  22.652  28.617  1.00  0.00     0.135 A 
ATOM     74  C   UNL A   1      42.802  23.576  26.410  1.00  0.00     0.135 A 
ATOM     75  F   UNL A   1      42.574  22.791  29.952  1.00  0.00    -0.206 F 
ATOM     76  C   UNL A   1      42.472  21.374  28.081  1.00  0.00     0.059 A 
ATOM     77  C   UNL A   1      42.649  22.313  25.848  1.00  0.00     0.059 A 
ATOM     78  F   UNL A   1      42.953  24.622  25.582  1.00  0.00    -0.206 F 
ATOM     79  C   UNL A   1      42.496  21.215  26.694  1.00  0.00     0.060 A 
BRANCH  79  80
ATOM     80  S   UNL A   1      42.281  19.560  26.005  1.00  0.00     0.124 S 
ATOM     81  O   UNL A   1      43.176  19.603  24.856  1.00  0.00    -0.237 OA
ATOM     82  O   UNL A   1      42.704  18.707  27.112  1.00  0.00    -0.237 OA
ATOM     83  O   UNL A   1      40.855  19.509  25.695  1.00  0.00    -0.744 OA
ENDBRANCH  79  80
ENDBRANCH  47  72
BRANCH  59  84
ATOM     84  C   UNL A   1      48.140  27.447  30.317  1.00  0.00     0.058 A 
ATOM     85  C   UNL A   1      48.611  26.837  31.490  1.00  0.00     0.135 A 
ATOM     86  C   UNL A   1      49.064  27.711  29.295  1.00  0.00     0.135 A 
ATOM     87  F   UNL A   1      47.766  26.571  32.499  1.00  0.00    -0.206 F 
ATOM     88  C   UNL A   1      49.956  26.524  31.653  1.00  0.00     0.059 A 
ATOM     89  C   UNL A   1      50.409  27.383  29.427  1.00  0.00     0.059 A 
ATOM     90  F   UNL A   1      48.661  28.283  28.150  1.00  0.00    -0.206 F 
ATOM     91  C   UNL A   1      50.847  26.803  30.616  1.00  0.00     0.060 A 
BRANCH  91  92
ATOM     92  S   UNL A   1      52.588  26.373  30.828  1.00  0.00     0.124 S 
ATOM     93  O   UNL A   1      53.021  26.211  29.445  1.00  0.00    -0.237 OA
ATOM     94  O   UNL A   1      53.119  27.543  31.524  1.00  0.00    -0.237 OA
ATOM     95  O   UNL A   1      52.541  25.149  31.621  1.00  0.00    -0.744 OA
ENDBRANCH  91  92
ENDBRANCH  59  84
ENDBRANCH  33  34
ENDBRANCH  26  28
ENDBRANCH  25  26
ENDBRANCH  24  25
ENDBRANCH   1  24
TORSDOF 17
ENDMDL
