MODEL 1
REMARK VINA RESULT:     -11.9      0.000      0.000
REMARK SMILES Cc1cc2nc(C(F)(F)F)c(=O)n([C@H](C)C(=O)OCCOC(=O)c3ccc(-c4c5nc(c(-c6c(F)cc(S(=O)(=O)[O-])cc6F)c6ccc([nH]6)c(-c6c(F)cc(S(=O)(=O)[O-])cc6F)c6nc(c(-c7c(F)cc(S(=O)(=O)[O-])cc7F)c7ccc4[nH]7)C=C6)C=C5)cc3)c2cc1C
REMARK SMILES IDX 20 1 19 2 18 3 16 4 17 5 14 6 15 7 13 8 1 9 2 10 3 11 92 12
REMARK SMILES IDX 4 13 91 14 93 15 5 16 90 17 6 18 11 19 12 20 7 21 8 22 9 23
REMARK SMILES IDX 10 24 21 25 22 26 23 27 24 28 25 29 89 30 26 31 88 32 27 33
REMARK SMILES IDX 28 34 29 35 82 36 30 37 87 38 81 39 83 40 31 41 86 42 80 43
REMARK SMILES IDX 79 44 32 46 66 47 45 48 65 49 46 50 49 51 64 52 84 53 47 54
REMARK SMILES IDX 48 55 63 57 85 58 50 59 33 60 34 61 43 62 35 63 36 64 42 65
REMARK SMILES IDX 44 66 37 67 38 68 39 69 40 70 41 71 67 72 68 73 77 74 69 75
REMARK SMILES IDX 70 76 76 77 78 78 71 79 72 80 73 81 74 82 75 83 51 84 52 85
REMARK SMILES IDX 61 86 53 87 54 88 60 89 62 90 55 91 56 92 57 93 58 94 59 95
REMARK H PARENT 83 45 49 56
REMARK Flexibility Score: inf
ROOT
ATOM      1  C   UNL A   1      39.996  22.611  26.744  1.00  0.00     0.275 C 
ENDROOT
BRANCH   1   2
ATOM      2  C   UNL A   1      38.780  21.921  26.122  1.00  0.00     0.274 C 
BRANCH   2   3
ATOM      3  O   UNL A   1      38.135  22.788  25.170  1.00  0.00    -0.461 OA
BRANCH   3   4
ATOM      4  C   UNL A   1      36.883  23.200  25.502  1.00  0.00     0.329 C 
ATOM      5  O   UNL A   1      36.500  23.372  26.655  1.00  0.00    -0.250 OA
BRANCH   4   6
ATOM      6  C   UNL A   1      35.935  23.283  24.297  1.00  0.00     0.197 C 
ATOM      7  C   UNL A   1      36.476  22.897  22.921  1.00  0.00     0.044 C 
BRANCH   6   8
ATOM      8  N   UNL A   1      34.669  22.698  24.747  1.00  0.00    -0.291 N 
ATOM      9  C   UNL A   1      29.893  25.660  25.954  1.00  0.00     0.044 C 
ATOM     10  C   UNL A   1      31.153  24.923  25.601  1.00  0.00    -0.046 A 
ATOM     11  C   UNL A   1      31.147  23.520  25.560  1.00  0.00     0.034 A 
ATOM     12  C   UNL A   1      32.343  25.605  25.317  1.00  0.00    -0.046 A 
ATOM     13  C   UNL A   1      32.298  22.789  25.250  1.00  0.00     0.088 A 
ATOM     14  C   UNL A   1      33.489  24.866  24.993  1.00  0.00     0.032 A 
ATOM     15  C   UNL A   1      32.429  27.108  25.324  1.00  0.00     0.044 C 
ATOM     16  N   UNL A   1      32.167  21.397  25.129  1.00  0.00    -0.236 NA
ATOM     17  C   UNL A   1      33.498  23.467  24.988  1.00  0.00     0.071 A 
ATOM     18  C   UNL A   1      33.228  20.692  24.842  1.00  0.00     0.210 A 
ATOM     19  C   UNL A   1      34.604  21.299  24.768  1.00  0.00     0.282 A 
ATOM     20  O   UNL A   1      35.580  20.564  24.734  1.00  0.00    -0.267 OA
BRANCH  18  21
ATOM     21  C   UNL A   1      33.145  19.211  24.566  1.00  0.00     0.438 C 
ATOM     22  F   UNL A   1      34.368  18.613  24.648  1.00  0.00    -0.164 F 
ATOM     23  F   UNL A   1      32.367  18.581  25.497  1.00  0.00    -0.164 F 
ATOM     24  F   UNL A   1      32.620  18.853  23.366  1.00  0.00    -0.164 F 
ENDBRANCH  18  21
ENDBRANCH   6   8
ENDBRANCH   4   6
ENDBRANCH   3   4
ENDBRANCH   2   3
ENDBRANCH   1   2
BRANCH   1  25
ATOM     25  O   UNL A   1      39.977  24.033  26.513  1.00  0.00    -0.458 OA
BRANCH  25  26
ATOM     26  C   UNL A   1      41.133  24.677  26.802  1.00  0.00     0.338 C 
ATOM     27  O   UNL A   1      42.206  24.559  26.238  1.00  0.00    -0.246 OA
BRANCH  26  28
ATOM     28  C   UNL A   1      40.873  25.700  27.822  1.00  0.00     0.060 A 
ATOM     29  C   UNL A   1      39.669  25.730  28.519  1.00  0.00     0.016 A 
ATOM     30  C   UNL A   1      41.894  26.601  28.132  1.00  0.00     0.016 A 
ATOM     31  C   UNL A   1      39.493  26.685  29.524  1.00  0.00     0.010 A 
ATOM     32  C   UNL A   1      41.730  27.538  29.141  1.00  0.00     0.010 A 
ATOM     33  C   UNL A   1      40.524  27.589  29.843  1.00  0.00    -0.014 A 
BRANCH  33  34
ATOM     34  C   UNL A   1      40.382  28.558  30.951  1.00  0.00     0.031 A 
ATOM     35  C   UNL A   1      41.241  28.444  32.178  1.00  0.00     0.074 A 
ATOM     36  C   UNL A   1      39.434  29.509  30.854  1.00  0.00     0.049 A 
ATOM     37  N   UNL A   1      41.269  29.216  33.233  1.00  0.00    -0.248 NA
ATOM     38  C   UNL A   1      42.183  27.313  32.236  1.00  0.00     0.031 C 
ATOM     39  C   UNL A   1      38.504  29.657  29.730  1.00  0.00     0.029 A 
ATOM     40  N   UNL A   1      39.096  30.528  31.703  1.00  0.00    -0.354 N 
ATOM     41  C   UNL A   1      42.243  28.682  34.068  1.00  0.00     0.074 A 
ATOM     42  C   UNL A   1      42.740  27.483  33.427  1.00  0.00     0.031 C 
ATOM     43  C   UNL A   1      37.731  30.735  29.941  1.00  0.00     0.029 A 
ATOM     44  C   UNL A   1      38.087  31.330  31.225  1.00  0.00     0.049 A 
ATOM     45  H   UNL A   1      39.533  30.673  32.573  1.00  0.00     0.167 HD
ATOM     46  C   UNL A   1      42.702  29.170  35.244  1.00  0.00     0.037 A 
ATOM     47  C   UNL A   1      37.522  32.427  31.761  1.00  0.00     0.037 A 
ATOM     48  C   UNL A   1      42.187  30.360  35.872  1.00  0.00     0.049 A 
ATOM     49  C   UNL A   1      38.031  32.927  33.085  1.00  0.00     0.074 A 
ATOM     50  C   UNL A   1      42.590  30.952  37.057  1.00  0.00     0.029 A 
ATOM     51  N   UNL A   1      41.157  31.141  35.365  1.00  0.00    -0.354 N 
ATOM     52  N   UNL A   1      38.992  32.444  33.836  1.00  0.00    -0.248 NA
ATOM     53  C   UNL A   1      37.385  34.128  33.631  1.00  0.00     0.031 C 
ATOM     54  C   UNL A   1      41.779  32.068  37.286  1.00  0.00     0.029 A 
ATOM     55  C   UNL A   1      40.906  32.203  36.218  1.00  0.00     0.049 A 
ATOM     56  H   UNL A   1      40.677  30.966  34.525  1.00  0.00     0.167 HD
ATOM     57  C   UNL A   1      39.088  33.298  34.927  1.00  0.00     0.074 A 
ATOM     58  C   UNL A   1      38.097  34.336  34.730  1.00  0.00     0.031 C 
ATOM     59  C   UNL A   1      39.920  33.232  35.997  1.00  0.00     0.037 A 
BRANCH  46  60
ATOM     60  C   UNL A   1      43.838  28.448  35.917  1.00  0.00     0.058 A 
ATOM     61  C   UNL A   1      43.596  27.367  36.782  1.00  0.00     0.135 A 
ATOM     62  C   UNL A   1      45.173  28.765  35.625  1.00  0.00     0.135 A 
ATOM     63  F   UNL A   1      42.338  27.030  37.109  1.00  0.00    -0.206 F 
ATOM     64  C   UNL A   1      44.638  26.628  37.332  1.00  0.00     0.059 A 
ATOM     65  C   UNL A   1      46.231  28.024  36.146  1.00  0.00     0.059 A 
ATOM     66  F   UNL A   1      45.461  29.790  34.808  1.00  0.00    -0.206 F 
ATOM     67  C   UNL A   1      45.953  26.956  36.999  1.00  0.00     0.060 A 
BRANCH  67  68
ATOM     68  S   UNL A   1      47.284  25.940  37.673  1.00  0.00     0.124 S 
ATOM     69  O   UNL A   1      48.306  26.068  36.638  1.00  0.00    -0.237 OA
ATOM     70  O   UNL A   1      47.576  26.611  38.936  1.00  0.00    -0.237 OA
ATOM     71  O   UNL A   1      46.678  24.618  37.793  1.00  0.00    -0.744 OA
ENDBRANCH  67  68
ENDBRANCH  46  60
BRANCH  47  72
ATOM     72  C   UNL A   1      36.450  33.151  31.028  1.00  0.00     0.058 A 
ATOM     73  C   UNL A   1      36.751  33.926  29.899  1.00  0.00     0.135 A 
ATOM     74  C   UNL A   1      35.108  33.081  31.433  1.00  0.00     0.135 A 
ATOM     75  F   UNL A   1      38.019  34.023  29.470  1.00  0.00    -0.206 F 
ATOM     76  C   UNL A   1      35.767  34.630  29.213  1.00  0.00     0.059 A 
ATOM     77  C   UNL A   1      34.101  33.753  30.747  1.00  0.00     0.059 A 
ATOM     78  F   UNL A   1      34.764  32.335  32.495  1.00  0.00    -0.206 F 
ATOM     79  C   UNL A   1      34.443  34.537  29.647  1.00  0.00     0.060 A 
BRANCH  79  80
ATOM     80  S   UNL A   1      33.172  35.439  28.737  1.00  0.00     0.124 S 
ATOM     81  O   UNL A   1      33.978  36.349  27.931  1.00  0.00    -0.237 OA
ATOM     82  O   UNL A   1      32.499  34.368  28.009  1.00  0.00    -0.237 OA
ATOM     83  O   UNL A   1      32.380  36.063  29.793  1.00  0.00    -0.744 OA
ENDBRANCH  79  80
ENDBRANCH  47  72
BRANCH  59  84
ATOM     84  C   UNL A   1      39.819  34.332  37.015  1.00  0.00     0.058 A 
ATOM     85  C   UNL A   1      39.021  34.208  38.162  1.00  0.00     0.135 A 
ATOM     86  C   UNL A   1      40.563  35.513  36.858  1.00  0.00     0.135 A 
ATOM     87  F   UNL A   1      38.286  33.101  38.357  1.00  0.00    -0.206 F 
ATOM     88  C   UNL A   1      38.937  35.230  39.102  1.00  0.00     0.059 A 
ATOM     89  C   UNL A   1      40.520  36.535  37.801  1.00  0.00     0.059 A 
ATOM     90  F   UNL A   1      41.354  35.678  35.785  1.00  0.00    -0.206 F 
ATOM     91  C   UNL A   1      39.691  36.389  38.913  1.00  0.00     0.060 A 
BRANCH  91  92
ATOM     92  S   UNL A   1      39.581  37.699  40.149  1.00  0.00     0.124 S 
ATOM     93  O   UNL A   1      39.174  36.951  41.334  1.00  0.00    -0.237 OA
ATOM     94  O   UNL A   1      40.943  38.224  40.168  1.00  0.00    -0.237 OA
ATOM     95  O   UNL A   1      38.574  38.602  39.601  1.00  0.00    -0.744 OA
ENDBRANCH  91  92
ENDBRANCH  59  84
ENDBRANCH  33  34
ENDBRANCH  26  28
ENDBRANCH  25  26
ENDBRANCH   1  25
TORSDOF 16
ENDMDL
MODEL 2
REMARK VINA RESULT:     -11.9      8.908     16.703
REMARK SMILES Cc1cc2nc(C(F)(F)F)c(=O)n([C@H](C)C(=O)OCCOC(=O)c3ccc(-c4c5nc(c(-c6c(F)cc(S(=O)(=O)[O-])cc6F)c6ccc([nH]6)c(-c6c(F)cc(S(=O)(=O)[O-])cc6F)c6nc(c(-c7c(F)cc(S(=O)(=O)[O-])cc7F)c7ccc4[nH]7)C=C6)C=C5)cc3)c2cc1C
REMARK SMILES IDX 20 1 19 2 18 3 16 4 17 5 14 6 15 7 13 8 1 9 2 10 3 11 92 12
REMARK SMILES IDX 4 13 91 14 93 15 5 16 90 17 6 18 11 19 12 20 7 21 8 22 9 23
REMARK SMILES IDX 10 24 21 25 22 26 23 27 24 28 25 29 89 30 26 31 88 32 27 33
REMARK SMILES IDX 28 34 29 35 82 36 30 37 87 38 81 39 83 40 31 41 86 42 80 43
REMARK SMILES IDX 79 44 32 46 66 47 45 48 65 49 46 50 49 51 64 52 84 53 47 54
REMARK SMILES IDX 48 55 63 57 85 58 50 59 33 60 34 61 43 62 35 63 36 64 42 65
REMARK SMILES IDX 44 66 37 67 38 68 39 69 40 70 41 71 67 72 68 73 77 74 69 75
REMARK SMILES IDX 70 76 76 77 78 78 71 79 72 80 73 81 74 82 75 83 51 84 52 85
REMARK SMILES IDX 61 86 53 87 54 88 60 89 62 90 55 91 56 92 57 93 58 94 59 95
REMARK H PARENT 83 45 49 56
REMARK Flexibility Score: inf
ROOT
ATOM      1  C   UNL A   1      47.160  38.888  27.086  1.00  0.00     0.275 C 
ENDROOT
BRANCH   1   2
ATOM      2  C   UNL A   1      46.811  39.375  25.679  1.00  0.00     0.274 C 
BRANCH   2   3
ATOM      3  O   UNL A   1      46.953  40.805  25.585  1.00  0.00    -0.461 OA
BRANCH   3   4
ATOM      4  C   UNL A   1      46.348  41.388  24.516  1.00  0.00     0.329 C 
ATOM      5  O   UNL A   1      46.417  40.957  23.369  1.00  0.00    -0.250 OA
BRANCH   4   6
ATOM      6  C   UNL A   1      45.693  42.735  24.851  1.00  0.00     0.197 C 
ATOM      7  C   UNL A   1      46.357  44.013  24.336  1.00  0.00     0.044 C 
BRANCH   6   8
ATOM      8  N   UNL A   1      44.258  42.546  24.627  1.00  0.00    -0.291 N 
ATOM      9  C   UNL A   1      41.495  43.679  19.716  1.00  0.00     0.044 C 
ATOM     10  C   UNL A   1      42.260  43.370  20.970  1.00  0.00    -0.046 A 
ATOM     11  C   UNL A   1      41.616  42.717  22.033  1.00  0.00     0.034 A 
ATOM     12  C   UNL A   1      43.608  43.725  21.110  1.00  0.00    -0.046 A 
ATOM     13  C   UNL A   1      42.283  42.420  23.225  1.00  0.00     0.088 A 
ATOM     14  C   UNL A   1      44.274  43.411  22.302  1.00  0.00     0.032 A 
ATOM     15  C   UNL A   1      44.375  44.412  20.012  1.00  0.00     0.044 C 
ATOM     16  N   UNL A   1      41.586  41.672  24.186  1.00  0.00    -0.236 NA
ATOM     17  C   UNL A   1      43.625  42.795  23.378  1.00  0.00     0.071 A 
ATOM     18  C   UNL A   1      42.187  41.384  25.310  1.00  0.00     0.210 A 
ATOM     19  C   UNL A   1      43.542  41.934  25.664  1.00  0.00     0.282 A 
ATOM     20  O   UNL A   1      43.949  41.829  26.812  1.00  0.00    -0.267 OA
BRANCH  18  21
ATOM     21  C   UNL A   1      41.556  40.475  26.336  1.00  0.00     0.438 C 
ATOM     22  F   UNL A   1      40.600  41.122  27.062  1.00  0.00    -0.164 F 
ATOM     23  F   UNL A   1      40.913  39.428  25.736  1.00  0.00    -0.164 F 
ATOM     24  F   UNL A   1      42.401  39.904  27.232  1.00  0.00    -0.164 F 
ENDBRANCH  18  21
ENDBRANCH   6   8
ENDBRANCH   4   6
ENDBRANCH   3   4
ENDBRANCH   2   3
ENDBRANCH   1   2
BRANCH   1  25
ATOM     25  O   UNL A   1      46.739  37.527  27.299  1.00  0.00    -0.458 OA
BRANCH  25  26
ATOM     26  C   UNL A   1      47.311  36.908  28.359  1.00  0.00     0.338 C 
ATOM     27  O   UNL A   1      47.861  37.431  29.312  1.00  0.00    -0.246 OA
BRANCH  26  28
ATOM     28  C   UNL A   1      47.027  35.469  28.288  1.00  0.00     0.060 A 
ATOM     29  C   UNL A   1      47.190  34.649  29.400  1.00  0.00     0.016 A 
ATOM     30  C   UNL A   1      46.516  34.954  27.095  1.00  0.00     0.016 A 
ATOM     31  C   UNL A   1      46.846  33.298  29.299  1.00  0.00     0.010 A 
ATOM     32  C   UNL A   1      46.156  33.618  26.998  1.00  0.00     0.010 A 
ATOM     33  C   UNL A   1      46.323  32.778  28.100  1.00  0.00    -0.014 A 
BRANCH  33  34
ATOM     34  C   UNL A   1      45.888  31.369  27.998  1.00  0.00     0.031 A 
ATOM     35  C   UNL A   1      44.500  30.969  28.409  1.00  0.00     0.074 A 
ATOM     36  C   UNL A   1      46.779  30.451  27.577  1.00  0.00     0.049 A 
ATOM     37  N   UNL A   1      43.941  29.787  28.366  1.00  0.00    -0.248 NA
ATOM     38  C   UNL A   1      43.628  32.025  28.948  1.00  0.00     0.031 C 
ATOM     39  C   UNL A   1      48.173  30.733  27.221  1.00  0.00     0.029 A 
ATOM     40  N   UNL A   1      46.650  29.103  27.374  1.00  0.00    -0.354 N 
ATOM     41  C   UNL A   1      42.649  29.961  28.847  1.00  0.00     0.074 A 
ATOM     42  C   UNL A   1      42.525  31.348  29.238  1.00  0.00     0.031 C 
ATOM     43  C   UNL A   1      48.756  29.600  26.800  1.00  0.00     0.029 A 
ATOM     44  C   UNL A   1      47.790  28.509  26.889  1.00  0.00     0.049 A 
ATOM     45  H   UNL A   1      45.820  28.607  27.559  1.00  0.00     0.167 HD
ATOM     46  C   UNL A   1      41.651  29.050  28.923  1.00  0.00     0.037 A 
ATOM     47  C   UNL A   1      48.024  27.228  26.547  1.00  0.00     0.037 A 
ATOM     48  C   UNL A   1      41.797  27.668  28.540  1.00  0.00     0.049 A 
ATOM     49  C   UNL A   1      46.904  26.232  26.673  1.00  0.00     0.074 A 
ATOM     50  C   UNL A   1      40.845  26.663  28.561  1.00  0.00     0.029 A 
ATOM     51  N   UNL A   1      42.970  27.098  28.063  1.00  0.00    -0.354 N 
ATOM     52  N   UNL A   1      45.671  26.423  27.076  1.00  0.00    -0.248 NA
ATOM     53  C   UNL A   1      47.205  24.847  26.287  1.00  0.00     0.031 C 
ATOM     54  C   UNL A   1      41.452  25.478  28.135  1.00  0.00     0.029 A 
ATOM     55  C   UNL A   1      42.768  25.754  27.797  1.00  0.00     0.049 A 
ATOM     56  H   UNL A   1      43.819  27.577  27.934  1.00  0.00     0.167 HD
ATOM     57  C   UNL A   1      45.039  25.191  26.964  1.00  0.00     0.074 A 
ATOM     58  C   UNL A   1      46.023  24.266  26.440  1.00  0.00     0.031 C 
ATOM     59  C   UNL A   1      43.760  24.853  27.266  1.00  0.00     0.037 A 
BRANCH  46  60
ATOM     60  C   UNL A   1      40.302  29.514  29.402  1.00  0.00     0.058 A 
ATOM     61  C   UNL A   1      40.066  29.762  30.765  1.00  0.00     0.135 A 
ATOM     62  C   UNL A   1      39.272  29.808  28.496  1.00  0.00     0.135 A 
ATOM     63  F   UNL A   1      41.010  29.483  31.678  1.00  0.00    -0.206 F 
ATOM     64  C   UNL A   1      38.856  30.285  31.209  1.00  0.00     0.059 A 
ATOM     65  C   UNL A   1      38.062  30.355  28.916  1.00  0.00     0.059 A 
ATOM     66  F   UNL A   1      39.443  29.586  27.183  1.00  0.00    -0.206 F 
ATOM     67  C   UNL A   1      37.864  30.591  30.277  1.00  0.00     0.060 A 
BRANCH  67  68
ATOM     68  S   UNL A   1      36.329  31.331  30.872  1.00  0.00     0.124 S 
ATOM     69  O   UNL A   1      36.761  32.688  31.192  1.00  0.00    -0.237 OA
ATOM     70  O   UNL A   1      35.454  31.204  29.711  1.00  0.00    -0.237 OA
ATOM     71  O   UNL A   1      35.971  30.501  32.018  1.00  0.00    -0.744 OA
ENDBRANCH  67  68
ENDBRANCH  46  60
BRANCH  47  72
ATOM     72  C   UNL A   1      49.351  26.828  26.011  1.00  0.00     0.058 A 
ATOM     73  C   UNL A   1      50.315  26.243  26.844  1.00  0.00     0.135 A 
ATOM     74  C   UNL A   1      49.684  27.016  24.660  1.00  0.00     0.135 A 
ATOM     75  F   UNL A   1      50.044  26.041  28.143  1.00  0.00    -0.206 F 
ATOM     76  C   UNL A   1      51.572  25.884  26.368  1.00  0.00     0.059 A 
ATOM     77  C   UNL A   1      50.923  26.639  24.152  1.00  0.00     0.059 A 
ATOM     78  F   UNL A   1      48.789  27.551  23.814  1.00  0.00    -0.206 F 
ATOM     79  C   UNL A   1      51.866  26.087  25.018  1.00  0.00     0.060 A 
BRANCH  79  80
ATOM     80  S   UNL A   1      53.493  25.598  24.408  1.00  0.00     0.124 S 
ATOM     81  O   UNL A   1      53.358  25.852  22.978  1.00  0.00    -0.237 OA
ATOM     82  O   UNL A   1      54.377  26.502  25.136  1.00  0.00    -0.237 OA
ATOM     83  O   UNL A   1      53.588  24.193  24.793  1.00  0.00    -0.744 OA
ENDBRANCH  79  80
ENDBRANCH  47  72
BRANCH  59  84
ATOM     84  C   UNL A   1      43.344  23.434  27.001  1.00  0.00     0.058 A 
ATOM     85  C   UNL A   1      43.098  22.965  25.701  1.00  0.00     0.135 A 
ATOM     86  C   UNL A   1      43.228  22.519  28.061  1.00  0.00     0.135 A 
ATOM     87  F   UNL A   1      43.191  23.800  24.654  1.00  0.00    -0.206 F 
ATOM     88  C   UNL A   1      42.718  21.649  25.465  1.00  0.00     0.059 A 
ATOM     89  C   UNL A   1      42.880  21.190  27.845  1.00  0.00     0.059 A 
ATOM     90  F   UNL A   1      43.465  22.912  29.323  1.00  0.00    -0.206 F 
ATOM     91  C   UNL A   1      42.612  20.768  26.543  1.00  0.00     0.060 A 
BRANCH  91  92
ATOM     92  S   UNL A   1      42.131  19.060  26.216  1.00  0.00     0.124 S 
ATOM     93  O   UNL A   1      43.024  18.709  25.116  1.00  0.00    -0.237 OA
ATOM     94  O   UNL A   1      42.411  18.409  27.492  1.00  0.00    -0.237 OA
ATOM     95  O   UNL A   1      40.717  19.164  25.868  1.00  0.00    -0.744 OA
ENDBRANCH  91  92
ENDBRANCH  59  84
ENDBRANCH  33  34
ENDBRANCH  26  28
ENDBRANCH  25  26
ENDBRANCH   1  25
TORSDOF 16
ENDMDL
MODEL 3
REMARK VINA RESULT:     -11.9      6.301      8.460
REMARK SMILES Cc1cc2nc(C(F)(F)F)c(=O)n([C@H](C)C(=O)OCCOC(=O)c3ccc(-c4c5nc(c(-c6c(F)cc(S(=O)(=O)[O-])cc6F)c6ccc([nH]6)c(-c6c(F)cc(S(=O)(=O)[O-])cc6F)c6nc(c(-c7c(F)cc(S(=O)(=O)[O-])cc7F)c7ccc4[nH]7)C=C6)C=C5)cc3)c2cc1C
REMARK SMILES IDX 20 1 19 2 18 3 16 4 17 5 14 6 15 7 13 8 1 9 2 10 3 11 92 12
REMARK SMILES IDX 4 13 91 14 93 15 5 16 90 17 6 18 11 19 12 20 7 21 8 22 9 23
REMARK SMILES IDX 10 24 21 25 22 26 23 27 24 28 25 29 89 30 26 31 88 32 27 33
REMARK SMILES IDX 28 34 29 35 82 36 30 37 87 38 81 39 83 40 31 41 86 42 80 43
REMARK SMILES IDX 79 44 32 46 66 47 45 48 65 49 46 50 49 51 64 52 84 53 47 54
REMARK SMILES IDX 48 55 63 57 85 58 50 59 33 60 34 61 43 62 35 63 36 64 42 65
REMARK SMILES IDX 44 66 37 67 38 68 39 69 40 70 41 71 67 72 68 73 77 74 69 75
REMARK SMILES IDX 70 76 76 77 78 78 71 79 72 80 73 81 74 82 75 83 51 84 52 85
REMARK SMILES IDX 61 86 53 87 54 88 60 89 62 90 55 91 56 92 57 93 58 94 59 95
REMARK H PARENT 83 45 49 56
REMARK Flexibility Score: inf
ROOT
ATOM      1  C   UNL A   1      39.622  20.065  25.753  1.00  0.00     0.275 C 
ENDROOT
BRANCH   1   2
ATOM      2  C   UNL A   1      39.131  21.472  26.102  1.00  0.00     0.274 C 
BRANCH   2   3
ATOM      3  O   UNL A   1      38.260  21.977  25.073  1.00  0.00    -0.461 OA
BRANCH   3   4
ATOM      4  C   UNL A   1      37.399  22.955  25.458  1.00  0.00     0.329 C 
ATOM      5  O   UNL A   1      37.366  23.436  26.586  1.00  0.00    -0.250 OA
BRANCH   4   6
ATOM      6  C   UNL A   1      36.356  23.300  24.385  1.00  0.00     0.197 C 
ATOM      7  C   UNL A   1      36.652  22.912  22.936  1.00  0.00     0.044 C 
BRANCH   6   8
ATOM      8  N   UNL A   1      35.059  22.938  24.961  1.00  0.00    -0.291 N 
ATOM      9  C   UNL A   1      30.982  26.664  26.551  1.00  0.00     0.044 C 
ATOM     10  C   UNL A   1      32.061  25.725  26.096  1.00  0.00    -0.046 A 
ATOM     11  C   UNL A   1      31.817  24.342  26.081  1.00  0.00     0.034 A 
ATOM     12  C   UNL A   1      33.316  26.196  25.690  1.00  0.00    -0.046 A 
ATOM     13  C   UNL A   1      32.795  23.427  25.680  1.00  0.00     0.088 A 
ATOM     14  C   UNL A   1      34.287  25.274  25.275  1.00  0.00     0.032 A 
ATOM     15  C   UNL A   1      33.652  27.663  25.661  1.00  0.00     0.044 C 
ATOM     16  N   UNL A   1      32.422  22.077  25.597  1.00  0.00    -0.236 NA
ATOM     17  C   UNL A   1      34.061  23.893  25.296  1.00  0.00     0.071 A 
ATOM     18  C   UNL A   1      33.318  21.203  25.226  1.00  0.00     0.210 A 
ATOM     19  C   UNL A   1      34.763  21.569  25.014  1.00  0.00     0.282 A 
ATOM     20  O   UNL A   1      35.595  20.681  24.903  1.00  0.00    -0.267 OA
BRANCH  18  21
ATOM     21  C   UNL A   1      32.963  19.756  24.987  1.00  0.00     0.438 C 
ATOM     22  F   UNL A   1      33.916  19.118  24.249  1.00  0.00    -0.164 F 
ATOM     23  F   UNL A   1      32.890  19.067  26.165  1.00  0.00    -0.164 F 
ATOM     24  F   UNL A   1      31.776  19.524  24.367  1.00  0.00    -0.164 F 
ENDBRANCH  18  21
ENDBRANCH   6   8
ENDBRANCH   4   6
ENDBRANCH   3   4
ENDBRANCH   2   3
ENDBRANCH   1   2
BRANCH   1  25
ATOM     25  O   UNL A   1      40.578  19.581  26.715  1.00  0.00    -0.458 OA
BRANCH  25  26
ATOM     26  C   UNL A   1      41.860  19.538  26.279  1.00  0.00     0.338 C 
ATOM     27  O   UNL A   1      42.411  18.623  25.694  1.00  0.00    -0.246 OA
BRANCH  26  28
ATOM     28  C   UNL A   1      42.477  20.857  26.466  1.00  0.00     0.060 A 
ATOM     29  C   UNL A   1      42.895  21.616  25.377  1.00  0.00     0.016 A 
ATOM     30  C   UNL A   1      42.568  21.368  27.762  1.00  0.00     0.016 A 
ATOM     31  C   UNL A   1      43.419  22.891  25.603  1.00  0.00     0.010 A 
ATOM     32  C   UNL A   1      43.070  22.640  27.988  1.00  0.00     0.010 A 
ATOM     33  C   UNL A   1      43.504  23.411  26.909  1.00  0.00    -0.014 A 
BRANCH  33  34
ATOM     34  C   UNL A   1      43.989  24.785  27.159  1.00  0.00     0.031 A 
ATOM     35  C   UNL A   1      45.438  25.129  26.963  1.00  0.00     0.074 A 
ATOM     36  C   UNL A   1      43.113  25.702  27.613  1.00  0.00     0.049 A 
ATOM     37  N   UNL A   1      46.034  26.284  27.113  1.00  0.00    -0.248 NA
ATOM     38  C   UNL A   1      46.339  24.037  26.559  1.00  0.00     0.031 C 
ATOM     39  C   UNL A   1      41.699  25.444  27.899  1.00  0.00     0.029 A 
ATOM     40  N   UNL A   1      43.277  27.028  27.908  1.00  0.00    -0.354 N 
ATOM     41  C   UNL A   1      47.369  26.065  26.799  1.00  0.00     0.074 A 
ATOM     42  C   UNL A   1      47.512  24.653  26.513  1.00  0.00     0.031 C 
ATOM     43  C   UNL A   1      41.115  26.589  28.286  1.00  0.00     0.029 A 
ATOM     44  C   UNL A   1      42.117  27.649  28.308  1.00  0.00     0.049 A 
ATOM     45  H   UNL A   1      44.142  27.493  27.842  1.00  0.00     0.167 HD
ATOM     46  C   UNL A   1      48.374  26.968  26.725  1.00  0.00     0.037 A 
ATOM     47  C   UNL A   1      41.891  28.933  28.644  1.00  0.00     0.037 A 
ATOM     48  C   UNL A   1      48.215  28.369  27.025  1.00  0.00     0.049 A 
ATOM     49  C   UNL A   1      43.035  29.907  28.583  1.00  0.00     0.074 A 
ATOM     50  C   UNL A   1      49.164  29.375  26.967  1.00  0.00     0.029 A 
ATOM     51  N   UNL A   1      47.030  28.961  27.438  1.00  0.00    -0.354 N 
ATOM     52  N   UNL A   1      44.281  29.697  28.230  1.00  0.00    -0.248 NA
ATOM     53  C   UNL A   1      42.741  31.296  28.958  1.00  0.00     0.031 C 
ATOM     54  C   UNL A   1      48.562  30.567  27.382  1.00  0.00     0.029 A 
ATOM     55  C   UNL A   1      47.226  30.316  27.647  1.00  0.00     0.049 A 
ATOM     56  H   UNL A   1      46.176  28.488  27.563  1.00  0.00     0.167 HD
ATOM     57  C   UNL A   1      44.912  30.932  28.309  1.00  0.00     0.074 A 
ATOM     58  C   UNL A   1      43.906  31.886  28.729  1.00  0.00     0.031 C 
ATOM     59  C   UNL A   1      46.206  31.250  28.056  1.00  0.00     0.037 A 
BRANCH  46  60
ATOM     60  C   UNL A   1      49.726  26.490  26.270  1.00  0.00     0.058 A 
ATOM     61  C   UNL A   1      50.148  26.673  24.942  1.00  0.00     0.135 A 
ATOM     62  C   UNL A   1      50.644  25.938  27.177  1.00  0.00     0.135 A 
ATOM     63  F   UNL A   1      49.305  27.181  24.028  1.00  0.00    -0.206 F 
ATOM     64  C   UNL A   1      51.431  26.326  24.532  1.00  0.00     0.059 A 
ATOM     65  C   UNL A   1      51.941  25.606  26.793  1.00  0.00     0.059 A 
ATOM     66  F   UNL A   1      50.292  25.739  28.457  1.00  0.00    -0.206 F 
ATOM     67  C   UNL A   1      52.325  25.804  25.467  1.00  0.00     0.060 A 
BRANCH  67  68
ATOM     68  S   UNL A   1      54.004  25.424  24.926  1.00  0.00     0.124 S 
ATOM     69  O   UNL A   1      54.013  25.980  23.576  1.00  0.00    -0.237 OA
ATOM     70  O   UNL A   1      54.816  26.137  25.908  1.00  0.00    -0.237 OA
ATOM     71  O   UNL A   1      54.068  23.968  25.003  1.00  0.00    -0.744 OA
ENDBRANCH  67  68
ENDBRANCH  46  60
BRANCH  47  72
ATOM     72  C   UNL A   1      40.523  29.377  29.019  1.00  0.00     0.058 A 
ATOM     73  C   UNL A   1      39.533  29.556  28.042  1.00  0.00     0.135 A 
ATOM     74  C   UNL A   1      40.174  29.627  30.356  1.00  0.00     0.135 A 
ATOM     75  F   UNL A   1      39.817  29.328  26.750  1.00  0.00    -0.206 F 
ATOM     76  C   UNL A   1      38.254  29.994  28.370  1.00  0.00     0.059 A 
ATOM     77  C   UNL A   1      38.893  30.038  30.712  1.00  0.00     0.059 A 
ATOM     78  F   UNL A   1      41.078  29.449  31.332  1.00  0.00    -0.206 F 
ATOM     79  C   UNL A   1      37.945  30.234  29.710  1.00  0.00     0.060 A 
BRANCH  79  80
ATOM     80  S   UNL A   1      36.276  30.783  30.125  1.00  0.00     0.124 S 
ATOM     81  O   UNL A   1      35.965  29.935  31.270  1.00  0.00    -0.237 OA
ATOM     82  O   UNL A   1      36.483  32.197  30.415  1.00  0.00    -0.237 OA
ATOM     83  O   UNL A   1      35.518  30.503  28.908  1.00  0.00    -0.744 OA
ENDBRANCH  79  80
ENDBRANCH  47  72
BRANCH  59  84
ATOM     84  C   UNL A   1      46.597  32.695  28.192  1.00  0.00     0.058 A 
ATOM     85  C   UNL A   1      46.421  33.610  27.143  1.00  0.00     0.135 A 
ATOM     86  C   UNL A   1      47.120  33.177  29.404  1.00  0.00     0.135 A 
ATOM     87  F   UNL A   1      45.930  33.199  25.963  1.00  0.00    -0.206 F 
ATOM     88  C   UNL A   1      46.781  34.947  27.279  1.00  0.00     0.059 A 
ATOM     89  C   UNL A   1      47.457  34.516  29.572  1.00  0.00     0.059 A 
ATOM     90  F   UNL A   1      47.296  32.346  30.443  1.00  0.00    -0.206 F 
ATOM     91  C   UNL A   1      47.298  35.390  28.497  1.00  0.00     0.060 A 
BRANCH  91  92
ATOM     92  S   UNL A   1      47.747  37.130  28.660  1.00  0.00     0.124 S 
ATOM     93  O   UNL A   1      47.073  37.717  27.507  1.00  0.00    -0.237 OA
ATOM     94  O   UNL A   1      47.189  37.475  29.964  1.00  0.00    -0.237 OA
ATOM     95  O   UNL A   1      49.206  37.114  28.593  1.00  0.00    -0.744 OA
ENDBRANCH  91  92
ENDBRANCH  59  84
ENDBRANCH  33  34
ENDBRANCH  26  28
ENDBRANCH  25  26
ENDBRANCH   1  25
TORSDOF 16
ENDMDL
