MODEL 1
REMARK VINA RESULT:     -12.0      0.000      0.000
REMARK SMILES Cc1cccc(C[C@H](C(=O)OCCOC(=O)c2ccc(-c3c4nc(c(-c5c(F)cc(S(=O)(=O)[O-])cc5F)c5ccc([nH]5)c(-c5c(F)cc(S(=O)(=O)[O-])cc5F)c5nc(c(-c6c(F)cc(S(=O)(=O)[O-])cc6F)c6ccc3[nH]6)C=C5)C=C4)cc2)[C@@H]2CCCC[C@@H]2O)c1
REMARK SMILES IDX 13 1 12 2 11 3 9 4 10 5 8 6 7 7 6 8 1 9 2 10 3 11 90 12 4 13
REMARK SMILES IDX 5 14 83 15 84 16 88 17 85 18 87 19 86 20 89 21 14 23 15 24
REMARK SMILES IDX 16 25 17 26 18 27 82 28 19 29 81 30 20 31 21 32 22 33 75 34
REMARK SMILES IDX 23 35 80 36 74 37 76 38 24 39 79 40 73 41 72 42 25 44 59 45
REMARK SMILES IDX 38 46 58 47 39 48 42 49 57 50 77 51 40 52 41 53 56 55 78 56
REMARK SMILES IDX 43 57 26 58 27 59 36 60 28 61 29 62 35 63 37 64 30 65 31 66
REMARK SMILES IDX 32 67 33 68 34 69 60 70 61 71 70 72 62 73 63 74 69 75 71 76
REMARK SMILES IDX 64 77 65 78 66 79 67 80 68 81 44 82 45 83 54 84 46 85 47 86
REMARK SMILES IDX 53 87 55 88 48 89 49 90 50 91 51 92 52 93
REMARK H PARENT 89 22 76 43 42 54
REMARK Flexibility Score: inf
ROOT
ATOM      1  C   UNL A   1      38.295  22.352  25.519  1.00  0.00     0.275 C 
ENDROOT
BRANCH   1   2
ATOM      2  C   UNL A   1      36.849  21.827  25.736  1.00  0.00     0.274 C 
BRANCH   2   3
ATOM      3  O   UNL A   1      35.762  22.745  25.468  1.00  0.00    -0.462 OA
BRANCH   3   4
ATOM      4  C   UNL A   1      34.586  22.501  26.098  1.00  0.00     0.309 C 
ATOM      5  O   UNL A   1      34.341  21.439  26.656  1.00  0.00    -0.252 OA
BRANCH   4   6
ATOM      6  C   UNL A   1      33.710  23.772  26.213  1.00  0.00     0.109 C 
BRANCH   6   7
ATOM      7  C   UNL A   1      34.499  24.891  25.457  1.00  0.00     0.051 C 
BRANCH   7   8
ATOM      8  C   UNL A   1      33.947  26.260  25.094  1.00  0.00    -0.047 A 
ATOM      9  C   UNL A   1      33.091  29.524  26.933  1.00  0.00     0.044 C 
ATOM     10  C   UNL A   1      33.362  28.534  25.840  1.00  0.00    -0.051 A 
ATOM     11  C   UNL A   1      33.289  28.951  24.511  1.00  0.00     0.003 A 
ATOM     12  C   UNL A   1      33.722  27.201  26.121  1.00  0.00     0.007 A 
ATOM     13  C   UNL A   1      33.434  28.019  23.492  1.00  0.00     0.001 A 
ATOM     14  C   UNL A   1      33.699  26.680  23.796  1.00  0.00     0.004 A 
ENDBRANCH   7   8
ENDBRANCH   6   7
BRANCH   6  15
ATOM     15  C   UNL A   1      32.322  23.226  25.723  1.00  0.00     0.032 C 
ATOM     16  C   UNL A   1      32.374  22.483  24.382  1.00  0.00     0.007 C 
ATOM     17  C   UNL A   1      31.019  24.050  25.825  1.00  0.00     0.118 C 
ATOM     18  C   UNL A   1      32.215  23.411  23.199  1.00  0.00     0.001 C 
ATOM     19  C   UNL A   1      30.515  24.760  24.561  1.00  0.00     0.032 C 
ATOM     20  C   UNL A   1      30.857  24.087  23.234  1.00  0.00     0.003 C 
BRANCH  17  21
ATOM     21  O   UNL A   1      30.947  24.895  26.966  1.00  0.00    -0.393 OA
ATOM     22  H   UNL A   1      30.611  25.766  26.703  1.00  0.00     0.210 HD
ENDBRANCH  17  21
ENDBRANCH   6  15
ENDBRANCH   4   6
ENDBRANCH   3   4
ENDBRANCH   2   3
ENDBRANCH   1   2
BRANCH   1  23
ATOM     23  O   UNL A   1      39.201  22.001  26.574  1.00  0.00    -0.458 OA
BRANCH  23  24
ATOM     24  C   UNL A   1      40.450  22.499  26.440  1.00  0.00     0.338 C 
ATOM     25  O   UNL A   1      41.351  22.084  25.710  1.00  0.00    -0.246 OA
BRANCH  24  26
ATOM     26  C   UNL A   1      40.435  23.883  26.942  1.00  0.00     0.060 A 
ATOM     27  C   UNL A   1      40.804  24.960  26.127  1.00  0.00     0.016 A 
ATOM     28  C   UNL A   1      39.769  24.100  28.159  1.00  0.00     0.016 A 
ATOM     29  C   UNL A   1      40.593  26.247  26.596  1.00  0.00     0.010 A 
ATOM     30  C   UNL A   1      39.312  25.337  28.486  1.00  0.00     0.010 A 
ATOM     31  C   UNL A   1      39.899  26.394  27.809  1.00  0.00    -0.014 A 
BRANCH  31  32
ATOM     32  C   UNL A   1      40.303  27.393  28.780  1.00  0.00     0.031 A 
ATOM     33  C   UNL A   1      39.466  28.564  28.958  1.00  0.00     0.074 A 
ATOM     34  C   UNL A   1      41.403  27.029  29.481  1.00  0.00     0.049 A 
ATOM     35  N   UNL A   1      39.835  29.768  28.693  1.00  0.00    -0.248 NA
ATOM     36  C   UNL A   1      38.065  28.443  29.374  1.00  0.00     0.031 C 
ATOM     37  C   UNL A   1      42.097  27.663  30.576  1.00  0.00     0.029 A 
ATOM     38  N   UNL A   1      42.229  25.942  29.151  1.00  0.00    -0.354 N 
ATOM     39  C   UNL A   1      38.900  30.550  29.331  1.00  0.00     0.074 A 
ATOM     40  C   UNL A   1      37.716  29.730  29.480  1.00  0.00     0.031 C 
ATOM     41  C   UNL A   1      43.365  27.197  30.588  1.00  0.00     0.029 A 
ATOM     42  C   UNL A   1      43.538  26.246  29.487  1.00  0.00     0.049 A 
ATOM     43  H   UNL A   1      41.926  25.098  28.745  1.00  0.00     0.167 HD
ATOM     44  C   UNL A   1      39.297  31.595  30.112  1.00  0.00     0.037 A 
ATOM     45  C   UNL A   1      44.423  26.328  28.452  1.00  0.00     0.037 A 
ATOM     46  C   UNL A   1      40.750  31.550  30.309  1.00  0.00     0.049 A 
ATOM     47  C   UNL A   1      44.696  27.784  28.129  1.00  0.00     0.074 A 
ATOM     48  C   UNL A   1      41.514  31.084  31.368  1.00  0.00     0.029 A 
ATOM     49  N   UNL A   1      41.616  31.609  29.215  1.00  0.00    -0.354 N 
ATOM     50  N   UNL A   1      43.897  28.766  28.461  1.00  0.00    -0.248 NA
ATOM     51  C   UNL A   1      45.927  28.258  27.508  1.00  0.00     0.031 C 
ATOM     52  C   UNL A   1      42.826  30.822  30.901  1.00  0.00     0.029 A 
ATOM     53  C   UNL A   1      42.867  31.113  29.550  1.00  0.00     0.049 A 
ATOM     54  H   UNL A   1      41.373  31.954  28.326  1.00  0.00     0.167 HD
ATOM     55  C   UNL A   1      44.514  29.969  28.222  1.00  0.00     0.074 A 
ATOM     56  C   UNL A   1      45.775  29.593  27.601  1.00  0.00     0.031 C 
ATOM     57  C   UNL A   1      43.978  31.168  28.609  1.00  0.00     0.037 A 
BRANCH  44  58
ATOM     58  C   UNL A   1      38.292  32.292  30.998  1.00  0.00     0.058 A 
ATOM     59  C   UNL A   1      37.994  31.869  32.306  1.00  0.00     0.135 A 
ATOM     60  C   UNL A   1      37.563  33.417  30.546  1.00  0.00     0.135 A 
ATOM     61  F   UNL A   1      38.640  30.850  32.882  1.00  0.00    -0.206 F 
ATOM     62  C   UNL A   1      36.997  32.463  33.081  1.00  0.00     0.059 A 
ATOM     63  C   UNL A   1      36.543  34.013  31.293  1.00  0.00     0.059 A 
ATOM     64  F   UNL A   1      37.812  33.946  29.335  1.00  0.00    -0.206 F 
ATOM     65  C   UNL A   1      36.265  33.524  32.564  1.00  0.00     0.060 A 
BRANCH  65  66
ATOM     66  S   UNL A   1      34.952  34.235  33.575  1.00  0.00     0.124 S 
ATOM     67  O   UNL A   1      35.235  33.669  34.891  1.00  0.00    -0.237 OA
ATOM     68  O   UNL A   1      35.202  35.665  33.432  1.00  0.00    -0.237 OA
ATOM     69  O   UNL A   1      33.731  33.744  32.942  1.00  0.00    -0.744 OA
ENDBRANCH  65  66
ENDBRANCH  44  58
BRANCH  45  70
ATOM     70  C   UNL A   1      44.446  25.131  27.529  1.00  0.00     0.058 A 
ATOM     71  C   UNL A   1      44.184  25.356  26.151  1.00  0.00     0.135 A 
ATOM     72  C   UNL A   1      44.836  23.823  27.857  1.00  0.00     0.135 A 
ATOM     73  F   UNL A   1      43.773  26.566  25.736  1.00  0.00    -0.206 F 
ATOM     74  C   UNL A   1      44.366  24.387  25.162  1.00  0.00     0.059 A 
ATOM     75  C   UNL A   1      45.014  22.820  26.874  1.00  0.00     0.059 A 
ATOM     76  F   UNL A   1      45.108  23.501  29.130  1.00  0.00    -0.206 F 
ATOM     77  C   UNL A   1      44.788  23.116  25.528  1.00  0.00     0.060 A 
BRANCH  77  78
ATOM     78  S   UNL A   1      45.072  21.906  24.200  1.00  0.00     0.124 S 
ATOM     79  O   UNL A   1      44.297  20.764  24.675  1.00  0.00    -0.237 OA
ATOM     80  O   UNL A   1      44.513  22.588  23.036  1.00  0.00    -0.237 OA
ATOM     81  O   UNL A   1      46.518  21.723  24.210  1.00  0.00    -0.744 OA
ENDBRANCH  77  78
ENDBRANCH  45  70
BRANCH  57  82
ATOM     82  C   UNL A   1      44.502  32.550  28.280  1.00  0.00     0.058 A 
ATOM     83  C   UNL A   1      45.190  33.371  29.184  1.00  0.00     0.135 A 
ATOM     84  C   UNL A   1      44.460  33.023  26.939  1.00  0.00     0.135 A 
ATOM     85  F   UNL A   1      45.379  33.003  30.458  1.00  0.00    -0.206 F 
ATOM     86  C   UNL A   1      45.759  34.587  28.797  1.00  0.00     0.059 A 
ATOM     87  C   UNL A   1      45.084  34.188  26.520  1.00  0.00     0.059 A 
ATOM     88  F   UNL A   1      43.820  32.356  25.966  1.00  0.00    -0.206 F 
ATOM     89  C   UNL A   1      45.714  34.979  27.463  1.00  0.00     0.060 A 
BRANCH  89  90
ATOM     90  S   UNL A   1      46.531  36.489  26.926  1.00  0.00     0.124 S 
ATOM     91  O   UNL A   1      45.400  37.403  26.808  1.00  0.00    -0.237 OA
ATOM     92  O   UNL A   1      47.454  36.764  28.023  1.00  0.00    -0.237 OA
ATOM     93  O   UNL A   1      47.162  36.095  25.670  1.00  0.00    -0.744 OA
ENDBRANCH  89  90
ENDBRANCH  57  82
ENDBRANCH  31  32
ENDBRANCH  24  26
ENDBRANCH  23  24
ENDBRANCH   1  23
TORSDOF 18
ENDMDL
MODEL 2
REMARK VINA RESULT:     -11.9      3.703     10.082
REMARK SMILES Cc1cccc(C[C@H](C(=O)OCCOC(=O)c2ccc(-c3c4nc(c(-c5c(F)cc(S(=O)(=O)[O-])cc5F)c5ccc([nH]5)c(-c5c(F)cc(S(=O)(=O)[O-])cc5F)c5nc(c(-c6c(F)cc(S(=O)(=O)[O-])cc6F)c6ccc3[nH]6)C=C5)C=C4)cc2)[C@@H]2CCCC[C@@H]2O)c1
REMARK SMILES IDX 13 1 12 2 11 3 9 4 10 5 8 6 7 7 6 8 1 9 2 10 3 11 90 12 4 13
REMARK SMILES IDX 5 14 83 15 84 16 88 17 85 18 87 19 86 20 89 21 14 23 15 24
REMARK SMILES IDX 16 25 17 26 18 27 82 28 19 29 81 30 20 31 21 32 22 33 75 34
REMARK SMILES IDX 23 35 80 36 74 37 76 38 24 39 79 40 73 41 72 42 25 44 59 45
REMARK SMILES IDX 38 46 58 47 39 48 42 49 57 50 77 51 40 52 41 53 56 55 78 56
REMARK SMILES IDX 43 57 26 58 27 59 36 60 28 61 29 62 35 63 37 64 30 65 31 66
REMARK SMILES IDX 32 67 33 68 34 69 60 70 61 71 70 72 62 73 63 74 69 75 71 76
REMARK SMILES IDX 64 77 65 78 66 79 67 80 68 81 44 82 45 83 54 84 46 85 47 86
REMARK SMILES IDX 53 87 55 88 48 89 49 90 50 91 51 92 52 93
REMARK H PARENT 89 22 76 43 42 54
REMARK Flexibility Score: inf
ROOT
ATOM      1  C   UNL A   1      33.281  31.414  27.405  1.00  0.00     0.275 C 
ENDROOT
BRANCH   1   2
ATOM      2  C   UNL A   1      33.299  29.944  26.902  1.00  0.00     0.274 C 
BRANCH   2   3
ATOM      3  O   UNL A   1      32.021  29.314  26.647  1.00  0.00    -0.462 OA
BRANCH   3   4
ATOM      4  C   UNL A   1      31.961  27.967  26.802  1.00  0.00     0.309 C 
ATOM      5  O   UNL A   1      31.159  27.421  27.549  1.00  0.00    -0.252 OA
BRANCH   4   6
ATOM      6  C   UNL A   1      32.853  27.222  25.780  1.00  0.00     0.109 C 
BRANCH   6   7
ATOM      7  C   UNL A   1      32.799  25.717  26.200  1.00  0.00     0.051 C 
BRANCH   7   8
ATOM      8  C   UNL A   1      33.583  24.594  25.540  1.00  0.00    -0.047 A 
ATOM      9  C   UNL A   1      32.811  21.168  23.977  1.00  0.00     0.044 C 
ATOM     10  C   UNL A   1      33.531  22.421  24.379  1.00  0.00    -0.051 A 
ATOM     11  C   UNL A   1      34.850  22.610  23.967  1.00  0.00     0.003 A 
ATOM     12  C   UNL A   1      32.897  23.428  25.133  1.00  0.00     0.007 A 
ATOM     13  C   UNL A   1      35.558  23.714  24.421  1.00  0.00     0.001 A 
ATOM     14  C   UNL A   1      34.937  24.656  25.248  1.00  0.00     0.004 A 
ENDBRANCH   7   8
ENDBRANCH   6   7
BRANCH   6  15
ATOM     15  C   UNL A   1      32.265  27.753  24.425  1.00  0.00     0.032 C 
ATOM     16  C   UNL A   1      31.007  27.015  23.951  1.00  0.00     0.007 C 
ATOM     17  C   UNL A   1      33.155  28.117  23.216  1.00  0.00     0.118 C 
ATOM     18  C   UNL A   1      31.330  25.795  23.116  1.00  0.00     0.001 C 
ATOM     19  C   UNL A   1      33.276  27.096  22.076  1.00  0.00     0.032 C 
ATOM     20  C   UNL A   1      32.063  26.198  21.850  1.00  0.00     0.003 C 
BRANCH  17  21
ATOM     21  O   UNL A   1      34.419  28.670  23.562  1.00  0.00    -0.393 OA
ATOM     22  H   UNL A   1      34.719  28.287  24.401  1.00  0.00     0.210 HD
ENDBRANCH  17  21
ENDBRANCH   6  15
ENDBRANCH   4   6
ENDBRANCH   3   4
ENDBRANCH   2   3
ENDBRANCH   1   2
BRANCH   1  23
ATOM     23  O   UNL A   1      34.584  31.942  27.689  1.00  0.00    -0.458 OA
BRANCH  23  24
ATOM     24  C   UNL A   1      34.897  32.009  29.002  1.00  0.00     0.338 C 
ATOM     25  O   UNL A   1      34.167  32.355  29.932  1.00  0.00    -0.246 OA
BRANCH  24  26
ATOM     26  C   UNL A   1      36.085  31.169  29.220  1.00  0.00     0.060 A 
ATOM     27  C   UNL A   1      36.334  30.560  30.457  1.00  0.00     0.016 A 
ATOM     28  C   UNL A   1      36.793  30.775  28.072  1.00  0.00     0.016 A 
ATOM     29  C   UNL A   1      37.365  29.638  30.545  1.00  0.00     0.010 A 
ATOM     30  C   UNL A   1      37.600  29.682  28.098  1.00  0.00     0.010 A 
ATOM     31  C   UNL A   1      38.015  29.270  29.355  1.00  0.00    -0.014 A 
BRANCH  31  32
ATOM     32  C   UNL A   1      39.453  29.078  29.322  1.00  0.00     0.031 A 
ATOM     33  C   UNL A   1      39.971  27.805  28.859  1.00  0.00     0.074 A 
ATOM     34  C   UNL A   1      40.140  30.197  29.652  1.00  0.00     0.049 A 
ATOM     35  N   UNL A   1      40.639  26.984  29.591  1.00  0.00    -0.248 NA
ATOM     36  C   UNL A   1      39.676  27.306  27.512  1.00  0.00     0.031 C 
ATOM     37  C   UNL A   1      41.554  30.483  29.678  1.00  0.00     0.029 A 
ATOM     38  N   UNL A   1      39.560  31.345  30.218  1.00  0.00    -0.354 N 
ATOM     39  C   UNL A   1      41.214  26.124  28.684  1.00  0.00     0.074 A 
ATOM     40  C   UNL A   1      40.392  26.177  27.493  1.00  0.00     0.031 C 
ATOM     41  C   UNL A   1      41.752  31.516  30.525  1.00  0.00     0.029 A 
ATOM     42  C   UNL A   1      40.464  31.931  31.088  1.00  0.00     0.049 A 
ATOM     43  H   UNL A   1      38.654  31.680  30.026  1.00  0.00     0.167 HD
ATOM     44  C   UNL A   1      42.542  25.824  28.771  1.00  0.00     0.037 A 
ATOM     45  C   UNL A   1      40.104  31.958  32.404  1.00  0.00     0.037 A 
ATOM     46  C   UNL A   1      43.192  26.701  29.750  1.00  0.00     0.049 A 
ATOM     47  C   UNL A   1      40.847  30.872  33.158  1.00  0.00     0.074 A 
ATOM     48  C   UNL A   1      43.949  27.851  29.585  1.00  0.00     0.029 A 
ATOM     49  N   UNL A   1      42.770  26.714  31.081  1.00  0.00    -0.354 N 
ATOM     50  N   UNL A   1      41.375  29.820  32.587  1.00  0.00    -0.248 NA
ATOM     51  C   UNL A   1      41.144  30.935  34.583  1.00  0.00     0.031 C 
ATOM     52  C   UNL A   1      43.945  28.576  30.803  1.00  0.00     0.029 A 
ATOM     53  C   UNL A   1      43.173  27.880  31.714  1.00  0.00     0.049 A 
ATOM     54  H   UNL A   1      42.254  25.995  31.512  1.00  0.00     0.167 HD
ATOM     55  C   UNL A   1      42.153  29.141  33.491  1.00  0.00     0.074 A 
ATOM     56  C   UNL A   1      41.952  29.868  34.734  1.00  0.00     0.031 C 
ATOM     57  C   UNL A   1      42.947  28.081  33.140  1.00  0.00     0.037 A 
BRANCH  44  58
ATOM     58  C   UNL A   1      43.218  25.083  27.642  1.00  0.00     0.058 A 
ATOM     59  C   UNL A   1      43.420  23.691  27.646  1.00  0.00     0.135 A 
ATOM     60  C   UNL A   1      43.715  25.761  26.505  1.00  0.00     0.135 A 
ATOM     61  F   UNL A   1      42.961  22.914  28.633  1.00  0.00    -0.206 F 
ATOM     62  C   UNL A   1      44.128  23.030  26.642  1.00  0.00     0.059 A 
ATOM     63  C   UNL A   1      44.449  25.126  25.499  1.00  0.00     0.059 A 
ATOM     64  F   UNL A   1      43.521  27.084  26.364  1.00  0.00    -0.206 F 
ATOM     65  C   UNL A   1      44.653  23.753  25.579  1.00  0.00     0.060 A 
BRANCH  65  66
ATOM     66  S   UNL A   1      45.605  22.873  24.326  1.00  0.00     0.124 S 
ATOM     67  O   UNL A   1      44.563  22.431  23.401  1.00  0.00    -0.237 OA
ATOM     68  O   UNL A   1      46.491  23.920  23.830  1.00  0.00    -0.237 OA
ATOM     69  O   UNL A   1      46.254  21.804  25.079  1.00  0.00    -0.744 OA
ENDBRANCH  65  66
ENDBRANCH  44  58
BRANCH  45  70
ATOM     70  C   UNL A   1      38.740  32.545  32.686  1.00  0.00     0.058 A 
ATOM     71  C   UNL A   1      38.477  33.858  32.212  1.00  0.00     0.135 A 
ATOM     72  C   UNL A   1      37.639  31.883  33.250  1.00  0.00     0.135 A 
ATOM     73  F   UNL A   1      39.472  34.591  31.682  1.00  0.00    -0.206 F 
ATOM     74  C   UNL A   1      37.210  34.445  32.225  1.00  0.00     0.059 A 
ATOM     75  C   UNL A   1      36.349  32.461  33.287  1.00  0.00     0.059 A 
ATOM     76  F   UNL A   1      37.776  30.637  33.729  1.00  0.00    -0.206 F 
ATOM     77  C   UNL A   1      36.142  33.738  32.760  1.00  0.00     0.060 A 
BRANCH  77  78
ATOM     78  S   UNL A   1      34.500  34.517  32.699  1.00  0.00     0.124 S 
ATOM     79  O   UNL A   1      34.453  34.992  31.319  1.00  0.00    -0.237 OA
ATOM     80  O   UNL A   1      33.614  33.394  32.993  1.00  0.00    -0.237 OA
ATOM     81  O   UNL A   1      34.580  35.561  33.713  1.00  0.00    -0.744 OA
ENDBRANCH  77  78
ENDBRANCH  45  70
BRANCH  57  82
ATOM     82  C   UNL A   1      43.734  27.184  34.071  1.00  0.00     0.058 A 
ATOM     83  C   UNL A   1      43.183  26.121  34.800  1.00  0.00     0.135 A 
ATOM     84  C   UNL A   1      45.152  27.284  34.121  1.00  0.00     0.135 A 
ATOM     85  F   UNL A   1      41.870  25.859  34.769  1.00  0.00    -0.206 F 
ATOM     86  C   UNL A   1      43.973  25.247  35.551  1.00  0.00     0.059 A 
ATOM     87  C   UNL A   1      45.959  26.383  34.798  1.00  0.00     0.059 A 
ATOM     88  F   UNL A   1      45.821  28.263  33.491  1.00  0.00    -0.206 F 
ATOM     89  C   UNL A   1      45.359  25.377  35.532  1.00  0.00     0.060 A 
BRANCH  89  90
ATOM     90  S   UNL A   1      46.398  24.200  36.409  1.00  0.00     0.124 S 
ATOM     91  O   UNL A   1      47.031  25.059  37.404  1.00  0.00    -0.237 OA
ATOM     92  O   UNL A   1      45.431  23.238  36.927  1.00  0.00    -0.237 OA
ATOM     93  O   UNL A   1      47.277  23.691  35.360  1.00  0.00    -0.744 OA
ENDBRANCH  89  90
ENDBRANCH  57  82
ENDBRANCH  31  32
ENDBRANCH  24  26
ENDBRANCH  23  24
ENDBRANCH   1  23
TORSDOF 18
ENDMDL
MODEL 3
REMARK VINA RESULT:     -11.9      3.735     10.197
REMARK SMILES Cc1cccc(C[C@H](C(=O)OCCOC(=O)c2ccc(-c3c4nc(c(-c5c(F)cc(S(=O)(=O)[O-])cc5F)c5ccc([nH]5)c(-c5c(F)cc(S(=O)(=O)[O-])cc5F)c5nc(c(-c6c(F)cc(S(=O)(=O)[O-])cc6F)c6ccc3[nH]6)C=C5)C=C4)cc2)[C@@H]2CCCC[C@@H]2O)c1
REMARK SMILES IDX 13 1 12 2 11 3 9 4 10 5 8 6 7 7 6 8 1 9 2 10 3 11 90 12 4 13
REMARK SMILES IDX 5 14 83 15 84 16 88 17 85 18 87 19 86 20 89 21 14 23 15 24
REMARK SMILES IDX 16 25 17 26 18 27 82 28 19 29 81 30 20 31 21 32 22 33 75 34
REMARK SMILES IDX 23 35 80 36 74 37 76 38 24 39 79 40 73 41 72 42 25 44 59 45
REMARK SMILES IDX 38 46 58 47 39 48 42 49 57 50 77 51 40 52 41 53 56 55 78 56
REMARK SMILES IDX 43 57 26 58 27 59 36 60 28 61 29 62 35 63 37 64 30 65 31 66
REMARK SMILES IDX 32 67 33 68 34 69 60 70 61 71 70 72 62 73 63 74 69 75 71 76
REMARK SMILES IDX 64 77 65 78 66 79 67 80 68 81 44 82 45 83 54 84 46 85 47 86
REMARK SMILES IDX 53 87 55 88 48 89 49 90 50 91 51 92 52 93
REMARK H PARENT 89 22 76 43 42 54
REMARK Flexibility Score: inf
ROOT
ATOM      1  C   UNL A   1      33.403  32.209  27.697  1.00  0.00     0.275 C 
ENDROOT
BRANCH   1   2
ATOM      2  C   UNL A   1      32.674  31.209  26.759  1.00  0.00     0.274 C 
BRANCH   2   3
ATOM      3  O   UNL A   1      32.508  29.852  27.235  1.00  0.00    -0.462 OA
BRANCH   3   4
ATOM      4  C   UNL A   1      33.473  28.961  26.894  1.00  0.00     0.309 C 
ATOM      5  O   UNL A   1      34.412  28.687  27.631  1.00  0.00    -0.252 OA
BRANCH   4   6
ATOM      6  C   UNL A   1      33.128  28.194  25.595  1.00  0.00     0.109 C 
BRANCH   6   7
ATOM      7  C   UNL A   1      33.996  26.895  25.635  1.00  0.00     0.051 C 
BRANCH   7   8
ATOM      8  C   UNL A   1      34.035  25.833  24.548  1.00  0.00    -0.047 A 
ATOM      9  C   UNL A   1      35.137  22.163  24.242  1.00  0.00     0.044 C 
ATOM     10  C   UNL A   1      34.517  23.495  23.938  1.00  0.00    -0.051 A 
ATOM     11  C   UNL A   1      33.820  23.664  22.742  1.00  0.00     0.003 A 
ATOM     12  C   UNL A   1      34.590  24.570  24.846  1.00  0.00     0.007 A 
ATOM     13  C   UNL A   1      33.334  24.919  22.403  1.00  0.00     0.001 A 
ATOM     14  C   UNL A   1      33.500  25.997  23.279  1.00  0.00     0.004 A 
ENDBRANCH   7   8
ENDBRANCH   6   7
BRANCH   6  15
ATOM     15  C   UNL A   1      31.559  28.176  25.665  1.00  0.00     0.032 C 
ATOM     16  C   UNL A   1      30.977  27.012  26.476  1.00  0.00     0.007 C 
ATOM     17  C   UNL A   1      30.666  28.468  24.438  1.00  0.00     0.118 C 
ATOM     18  C   UNL A   1      30.767  25.770  25.639  1.00  0.00     0.001 C 
ATOM     19  C   UNL A   1      30.053  27.275  23.693  1.00  0.00     0.032 C 
ATOM     20  C   UNL A   1      29.759  26.037  24.538  1.00  0.00     0.003 C 
BRANCH  17  21
ATOM     21  O   UNL A   1      31.201  29.431  23.539  1.00  0.00    -0.393 OA
ATOM     22  H   UNL A   1      31.191  29.072  22.638  1.00  0.00     0.210 HD
ENDBRANCH  17  21
ENDBRANCH   6  15
ENDBRANCH   4   6
ENDBRANCH   3   4
ENDBRANCH   2   3
ENDBRANCH   1   2
BRANCH   1  23
ATOM     23  O   UNL A   1      34.803  31.940  27.852  1.00  0.00    -0.458 OA
BRANCH  23  24
ATOM     24  C   UNL A   1      35.247  31.952  29.128  1.00  0.00     0.338 C 
ATOM     25  O   UNL A   1      34.644  32.338  30.130  1.00  0.00    -0.246 OA
BRANCH  24  26
ATOM     26  C   UNL A   1      36.374  31.009  29.216  1.00  0.00     0.060 A 
ATOM     27  C   UNL A   1      36.498  30.116  30.288  1.00  0.00     0.016 A 
ATOM     28  C   UNL A   1      37.147  30.847  28.055  1.00  0.00     0.016 A 
ATOM     29  C   UNL A   1      37.473  29.134  30.220  1.00  0.00     0.010 A 
ATOM     30  C   UNL A   1      37.896  29.728  27.873  1.00  0.00     0.010 A 
ATOM     31  C   UNL A   1      38.194  29.011  29.021  1.00  0.00    -0.014 A 
BRANCH  31  32
ATOM     32  C   UNL A   1      39.619  28.739  29.034  1.00  0.00     0.031 A 
ATOM     33  C   UNL A   1      40.075  27.414  28.659  1.00  0.00     0.074 A 
ATOM     34  C   UNL A   1      40.361  29.837  29.315  1.00  0.00     0.049 A 
ATOM     35  N   UNL A   1      40.681  26.603  29.453  1.00  0.00    -0.248 NA
ATOM     36  C   UNL A   1      39.781  26.853  27.336  1.00  0.00     0.031 C 
ATOM     37  C   UNL A   1      41.787  30.046  29.358  1.00  0.00     0.029 A 
ATOM     38  N   UNL A   1      39.833  31.047  29.798  1.00  0.00    -0.354 N 
ATOM     39  C   UNL A   1      41.227  25.661  28.612  1.00  0.00     0.074 A 
ATOM     40  C   UNL A   1      40.434  25.687  27.400  1.00  0.00     0.031 C 
ATOM     41  C   UNL A   1      42.025  31.116  30.148  1.00  0.00     0.029 A 
ATOM     42  C   UNL A   1      40.751  31.633  30.655  1.00  0.00     0.049 A 
ATOM     43  H   UNL A   1      38.952  31.418  29.565  1.00  0.00     0.167 HD
ATOM     44  C   UNL A   1      42.533  25.295  28.748  1.00  0.00     0.037 A 
ATOM     45  C   UNL A   1      40.365  31.758  31.958  1.00  0.00     0.037 A 
ATOM     46  C   UNL A   1      43.211  26.192  29.690  1.00  0.00     0.049 A 
ATOM     47  C   UNL A   1      41.030  30.680  32.791  1.00  0.00     0.074 A 
ATOM     48  C   UNL A   1      44.033  27.288  29.477  1.00  0.00     0.029 A 
ATOM     49  N   UNL A   1      42.762  26.308  31.007  1.00  0.00    -0.354 N 
ATOM     50  N   UNL A   1      41.511  29.568  32.295  1.00  0.00    -0.248 NA
ATOM     51  C   UNL A   1      41.300  30.812  34.217  1.00  0.00     0.031 C 
ATOM     52  C   UNL A   1      44.044  28.083  30.649  1.00  0.00     0.029 A 
ATOM     53  C   UNL A   1      43.216  27.485  31.581  1.00  0.00     0.049 A 
ATOM     54  H   UNL A   1      42.198  25.644  31.467  1.00  0.00     0.167 HD
ATOM     55  C   UNL A   1      42.231  28.903  33.256  1.00  0.00     0.074 A 
ATOM     56  C   UNL A   1      42.045  29.713  34.450  1.00  0.00     0.031 C 
ATOM     57  C   UNL A   1      42.972  27.783  32.987  1.00  0.00     0.037 A 
BRANCH  44  58
ATOM     58  C   UNL A   1      43.190  24.452  27.681  1.00  0.00     0.058 A 
ATOM     59  C   UNL A   1      43.729  24.990  26.499  1.00  0.00     0.135 A 
ATOM     60  C   UNL A   1      43.281  23.046  27.800  1.00  0.00     0.135 A 
ATOM     61  F   UNL A   1      43.757  26.307  26.272  1.00  0.00    -0.206 F 
ATOM     62  C   UNL A   1      44.249  24.194  25.477  1.00  0.00     0.059 A 
ATOM     63  C   UNL A   1      43.774  22.225  26.782  1.00  0.00     0.059 A 
ATOM     64  F   UNL A   1      42.856  22.430  28.917  1.00  0.00    -0.206 F 
ATOM     65  C   UNL A   1      44.256  22.812  25.618  1.00  0.00     0.060 A 
BRANCH  65  66
ATOM     66  S   UNL A   1      44.890  21.813  24.257  1.00  0.00     0.124 S 
ATOM     67  O   UNL A   1      46.320  21.766  24.549  1.00  0.00    -0.237 OA
ATOM     68  O   UNL A   1      44.164  20.560  24.440  1.00  0.00    -0.237 OA
ATOM     69  O   UNL A   1      44.527  22.583  23.071  1.00  0.00    -0.744 OA
ENDBRANCH  65  66
ENDBRANCH  44  58
BRANCH  45  70
ATOM     70  C   UNL A   1      39.030  32.434  32.172  1.00  0.00     0.058 A 
ATOM     71  C   UNL A   1      38.038  31.721  32.894  1.00  0.00     0.135 A 
ATOM     72  C   UNL A   1      38.699  33.760  31.852  1.00  0.00     0.135 A 
ATOM     73  F   UNL A   1      38.243  30.433  33.223  1.00  0.00    -0.206 F 
ATOM     74  C   UNL A   1      36.842  32.292  33.335  1.00  0.00     0.059 A 
ATOM     75  C   UNL A   1      37.488  34.357  32.275  1.00  0.00     0.059 A 
ATOM     76  F   UNL A   1      39.564  34.525  31.171  1.00  0.00    -0.206 F 
ATOM     77  C   UNL A   1      36.571  33.618  33.027  1.00  0.00     0.060 A 
BRANCH  77  78
ATOM     78  S   UNL A   1      35.032  34.337  33.674  1.00  0.00     0.124 S 
ATOM     79  O   UNL A   1      35.175  34.094  35.106  1.00  0.00    -0.237 OA
ATOM     80  O   UNL A   1      35.151  35.736  33.273  1.00  0.00    -0.237 OA
ATOM     81  O   UNL A   1      33.990  33.561  33.013  1.00  0.00    -0.744 OA
ENDBRANCH  77  78
ENDBRANCH  45  70
BRANCH  57  82
ATOM     82  C   UNL A   1      43.688  26.901  33.987  1.00  0.00     0.058 A 
ATOM     83  C   UNL A   1      43.061  25.928  34.777  1.00  0.00     0.135 A 
ATOM     84  C   UNL A   1      45.109  26.913  34.052  1.00  0.00     0.135 A 
ATOM     85  F   UNL A   1      41.733  25.750  34.743  1.00  0.00    -0.206 F 
ATOM     86  C   UNL A   1      43.783  25.057  35.596  1.00  0.00     0.059 A 
ATOM     87  C   UNL A   1      45.847  26.008  34.800  1.00  0.00     0.059 A 
ATOM     88  F   UNL A   1      45.848  27.801  33.369  1.00  0.00    -0.206 F 
ATOM     89  C   UNL A   1      45.174  25.095  35.590  1.00  0.00     0.060 A 
BRANCH  89  90
ATOM     90  S   UNL A   1      46.124  23.915  36.559  1.00  0.00     0.124 S 
ATOM     91  O   UNL A   1      45.230  22.761  36.565  1.00  0.00    -0.237 OA
ATOM     92  O   UNL A   1      47.346  23.763  35.776  1.00  0.00    -0.237 OA
ATOM     93  O   UNL A   1      46.290  24.595  37.840  1.00  0.00    -0.744 OA
ENDBRANCH  89  90
ENDBRANCH  57  82
ENDBRANCH  31  32
ENDBRANCH  24  26
ENDBRANCH  23  24
ENDBRANCH   1  23
TORSDOF 18
ENDMDL
