MODEL 1
REMARK VINA RESULT:     -10.9      0.000      0.000
REMARK SMILES COC(=O)[C@@H]1CCN(S(=O)(=O)N2CCC(C(=O)OCCOC(=O)c3ccc(-c4c5nc(c(-c6c(F)cc(S(=O)(=O)[O-])cc6F)c6ccc([nH]6)c(-c6c(F)cc(S(=O)(=O)[O-])cc6F)c6nc(c(-c7c(F)cc(S(=O)(=O)[O-])cc7F)c7ccc4[nH]7)C=C6)C=C5)cc3)CC2)C1
REMARK SMILES IDX 19 1 18 2 16 3 17 4 15 5 12 6 13 7 91 8 14 9 90 10 9 11
REMARK SMILES IDX 10 12 11 13 8 14 5 15 6 16 92 17 7 18 3 19 4 20 2 21 1 22
REMARK SMILES IDX 20 23 21 24 22 25 23 26 24 27 25 28 89 29 26 30 88 31 27 32
REMARK SMILES IDX 28 33 29 34 82 35 30 36 87 37 81 38 83 39 31 40 86 41 80 42
REMARK SMILES IDX 79 43 32 45 66 46 45 47 65 48 46 49 49 50 64 51 84 52 47 53
REMARK SMILES IDX 48 54 63 56 85 57 50 58 33 59 34 60 43 61 35 62 36 63 42 64
REMARK SMILES IDX 44 65 37 66 38 67 39 68 40 69 41 70 67 71 68 72 77 73 69 74
REMARK SMILES IDX 70 75 76 76 78 77 71 78 72 79 73 80 74 81 75 82 51 83 52 84
REMARK SMILES IDX 61 85 53 86 54 87 60 88 62 89 55 90 56 91 57 92 58 93 59 94
REMARK H PARENT 83 44 49 55
REMARK Flexibility Score: inf
ROOT
ATOM      1  C   UNL A   1      33.647  32.173  27.646  1.00  0.00     0.274 C 
ENDROOT
BRANCH   1   2
ATOM      2  O   UNL A   1      33.100  30.841  27.623  1.00  0.00    -0.462 OA
BRANCH   2   3
ATOM      3  C   UNL A   1      32.179  30.632  26.654  1.00  0.00     0.309 C 
ATOM      4  O   UNL A   1      31.401  31.479  26.229  1.00  0.00    -0.252 OA
BRANCH   3   5
ATOM      5  C   UNL A   1      32.149  29.220  26.137  1.00  0.00     0.102 C 
ATOM      6  N   UNL A   1      32.428  26.391  25.850  1.00  0.00    -0.189 NA
ATOM      7  C   UNL A   1      33.100  27.277  24.866  1.00  0.00     0.104 C 
ATOM      8  C   UNL A   1      31.270  26.986  26.543  1.00  0.00     0.104 C 
ATOM      9  C   UNL A   1      33.409  28.646  25.494  1.00  0.00     0.032 C 
ATOM     10  C   UNL A   1      31.660  28.279  27.226  1.00  0.00     0.032 C 
BRANCH   6  11
ATOM     11  S   UNL A   1      32.354  24.749  25.474  1.00  0.00     0.281 S 
ATOM     12  O   UNL A   1      31.121  24.499  24.758  1.00  0.00    -0.195 OA
ATOM     13  O   UNL A   1      32.663  24.006  26.673  1.00  0.00    -0.195 OA
BRANCH  11  14
ATOM     14  N   UNL A   1      33.636  24.503  24.383  1.00  0.00    -0.188 NA
ATOM     15  C   UNL A   1      35.161  22.579  24.488  1.00  0.00     0.116 C 
ATOM     16  C   UNL A   1      33.889  22.242  23.726  1.00  0.00     0.033 C 
ATOM     17  C   UNL A   1      34.896  23.985  25.054  1.00  0.00     0.118 C 
ATOM     18  C   UNL A   1      33.439  23.595  23.233  1.00  0.00     0.104 C 
BRANCH  15  19
ATOM     19  C   UNL A   1      36.397  22.532  23.606  1.00  0.00     0.310 C 
ATOM     20  O   UNL A   1      36.484  23.045  22.500  1.00  0.00    -0.252 OA
BRANCH  19  21
ATOM     21  O   UNL A   1      37.420  21.910  24.256  1.00  0.00    -0.469 OA
ATOM     22  C   UNL A   1      37.036  20.841  25.121  1.00  0.00     0.282 C 
ENDBRANCH  19  21
ENDBRANCH  15  19
ENDBRANCH  11  14
ENDBRANCH   6  11
ENDBRANCH   3   5
ENDBRANCH   2   3
ENDBRANCH   1   2
BRANCH   1  23
ATOM     23  C   UNL A   1      35.067  32.182  28.219  1.00  0.00     0.275 C 
BRANCH  23  24
ATOM     24  O   UNL A   1      35.494  30.875  28.648  1.00  0.00    -0.458 OA
BRANCH  24  25
ATOM     25  C   UNL A   1      36.282  30.862  29.748  1.00  0.00     0.338 C 
ATOM     26  O   UNL A   1      35.984  31.235  30.871  1.00  0.00    -0.246 OA
BRANCH  25  27
ATOM     27  C   UNL A   1      37.580  30.237  29.451  1.00  0.00     0.060 A 
ATOM     28  C   UNL A   1      38.483  30.040  30.498  1.00  0.00     0.016 A 
ATOM     29  C   UNL A   1      37.962  29.985  28.135  1.00  0.00     0.016 A 
ATOM     30  C   UNL A   1      39.783  29.617  30.237  1.00  0.00     0.010 A 
ATOM     31  C   UNL A   1      39.260  29.529  27.876  1.00  0.00     0.010 A 
ATOM     32  C   UNL A   1      40.186  29.359  28.922  1.00  0.00    -0.014 A 
BRANCH  32  33
ATOM     33  C   UNL A   1      41.583  28.943  28.640  1.00  0.00     0.031 A 
ATOM     34  C   UNL A   1      42.690  29.962  28.662  1.00  0.00     0.074 A 
ATOM     35  C   UNL A   1      41.855  27.653  28.364  1.00  0.00     0.049 A 
ATOM     36  N   UNL A   1      43.946  29.825  28.327  1.00  0.00    -0.248 NA
ATOM     37  C   UNL A   1      42.332  31.316  29.113  1.00  0.00     0.031 C 
ATOM     38  C   UNL A   1      40.873  26.567  28.353  1.00  0.00     0.029 A 
ATOM     39  N   UNL A   1      43.034  27.037  28.027  1.00  0.00    -0.354 N 
ATOM     40  C   UNL A   1      44.525  31.077  28.498  1.00  0.00     0.074 A 
ATOM     41  C   UNL A   1      43.475  31.967  28.948  1.00  0.00     0.031 C 
ATOM     42  C   UNL A   1      41.488  25.422  28.025  1.00  0.00     0.029 A 
ATOM     43  C   UNL A   1      42.893  25.699  27.742  1.00  0.00     0.049 A 
ATOM     44  H   UNL A   1      43.898  27.508  27.994  1.00  0.00     0.167 HD
ATOM     45  C   UNL A   1      45.814  31.447  28.300  1.00  0.00     0.037 A 
ATOM     46  C   UNL A   1      43.782  24.807  27.266  1.00  0.00     0.037 A 
ATOM     47  C   UNL A   1      46.851  30.545  27.866  1.00  0.00     0.049 A 
ATOM     48  C   UNL A   1      45.193  25.255  26.996  1.00  0.00     0.074 A 
ATOM     49  C   UNL A   1      48.193  30.814  27.656  1.00  0.00     0.029 A 
ATOM     50  N   UNL A   1      46.665  29.201  27.570  1.00  0.00    -0.354 N 
ATOM     51  N   UNL A   1      45.728  26.441  27.164  1.00  0.00    -0.248 NA
ATOM     52  C   UNL A   1      46.122  24.247  26.468  1.00  0.00     0.031 C 
ATOM     53  C   UNL A   1      48.804  29.649  27.179  1.00  0.00     0.029 A 
ATOM     54  C   UNL A   1      47.859  28.637  27.154  1.00  0.00     0.049 A 
ATOM     55  H   UNL A   1      45.809  28.721  27.645  1.00  0.00     0.167 HD
ATOM     56  C   UNL A   1      47.062  26.314  26.791  1.00  0.00     0.074 A 
ATOM     57  C   UNL A   1      47.254  24.933  26.400  1.00  0.00     0.031 C 
ATOM     58  C   UNL A   1      48.038  27.256  26.775  1.00  0.00     0.037 A 
BRANCH  45  59
ATOM     59  C   UNL A   1      46.171  32.893  28.517  1.00  0.00     0.058 A 
ATOM     60  C   UNL A   1      46.626  33.372  29.757  1.00  0.00     0.135 A 
ATOM     61  C   UNL A   1      46.096  33.809  27.453  1.00  0.00     0.135 A 
ATOM     62  F   UNL A   1      46.703  32.547  30.812  1.00  0.00    -0.206 F 
ATOM     63  C   UNL A   1      46.965  34.709  29.941  1.00  0.00     0.059 A 
ATOM     64  C   UNL A   1      46.459  35.143  27.607  1.00  0.00     0.059 A 
ATOM     65  F   UNL A   1      45.669  33.408  26.246  1.00  0.00    -0.206 F 
ATOM     66  C   UNL A   1      46.879  35.587  28.860  1.00  0.00     0.060 A 
BRANCH  66  67
ATOM     67  S   UNL A   1      47.327  37.318  29.115  1.00  0.00     0.124 S 
ATOM     68  O   UNL A   1      47.408  37.804  27.741  1.00  0.00    -0.237 OA
ATOM     69  O   UNL A   1      46.202  37.818  29.898  1.00  0.00    -0.237 OA
ATOM     70  O   UNL A   1      48.599  37.240  29.828  1.00  0.00    -0.744 OA
ENDBRANCH  66  67
ENDBRANCH  45  59
BRANCH  46  71
ATOM     71  C   UNL A   1      43.358  23.407  26.995  1.00  0.00     0.058 A 
ATOM     72  C   UNL A   1      43.192  22.941  25.683  1.00  0.00     0.135 A 
ATOM     73  C   UNL A   1      43.121  22.502  28.043  1.00  0.00     0.135 A 
ATOM     74  F   UNL A   1      43.399  23.767  24.646  1.00  0.00    -0.206 F 
ATOM     75  C   UNL A   1      42.792  21.635  25.418  1.00  0.00     0.059 A 
ATOM     76  C   UNL A   1      42.750  21.183  27.804  1.00  0.00     0.059 A 
ATOM     77  F   UNL A   1      43.277  22.893  29.317  1.00  0.00    -0.206 F 
ATOM     78  C   UNL A   1      42.578  20.761  26.486  1.00  0.00     0.060 A 
BRANCH  78  79
ATOM     79  S   UNL A   1      42.108  19.055  26.127  1.00  0.00     0.124 S 
ATOM     80  O   UNL A   1      43.025  18.719  25.046  1.00  0.00    -0.237 OA
ATOM     81  O   UNL A   1      42.358  18.397  27.406  1.00  0.00    -0.237 OA
ATOM     82  O   UNL A   1      40.701  19.166  25.752  1.00  0.00    -0.744 OA
ENDBRANCH  78  79
ENDBRANCH  46  71
BRANCH  58  83
ATOM     83  C   UNL A   1      49.417  26.816  26.364  1.00  0.00     0.058 A 
ATOM     84  C   UNL A   1      50.309  26.220  27.269  1.00  0.00     0.135 A 
ATOM     85  C   UNL A   1      49.833  26.950  25.028  1.00  0.00     0.135 A 
ATOM     86  F   UNL A   1      49.966  26.075  28.559  1.00  0.00    -0.206 F 
ATOM     87  C   UNL A   1      51.573  25.797  26.871  1.00  0.00     0.059 A 
ATOM     88  C   UNL A   1      51.080  26.504  24.601  1.00  0.00     0.059 A 
ATOM     89  F   UNL A   1      49.017  27.505  24.118  1.00  0.00    -0.206 F 
ATOM     90  C   UNL A   1      51.948  25.939  25.535  1.00  0.00     0.060 A 
BRANCH  90  91
ATOM     91  S   UNL A   1      53.579  25.356  25.027  1.00  0.00     0.124 S 
ATOM     92  O   UNL A   1      53.672  24.086  25.739  1.00  0.00    -0.237 OA
ATOM     93  O   UNL A   1      53.438  25.262  23.577  1.00  0.00    -0.237 OA
ATOM     94  O   UNL A   1      54.478  26.406  25.496  1.00  0.00    -0.744 OA
ENDBRANCH  90  91
ENDBRANCH  58  83
ENDBRANCH  32  33
ENDBRANCH  25  27
ENDBRANCH  24  25
ENDBRANCH  23  24
ENDBRANCH   1  23
TORSDOF 18
ENDMDL
MODEL 2
REMARK VINA RESULT:     -10.9      0.750      1.728
REMARK SMILES COC(=O)[C@@H]1CCN(S(=O)(=O)N2CCC(C(=O)OCCOC(=O)c3ccc(-c4c5nc(c(-c6c(F)cc(S(=O)(=O)[O-])cc6F)c6ccc([nH]6)c(-c6c(F)cc(S(=O)(=O)[O-])cc6F)c6nc(c(-c7c(F)cc(S(=O)(=O)[O-])cc7F)c7ccc4[nH]7)C=C6)C=C5)cc3)CC2)C1
REMARK SMILES IDX 19 1 18 2 16 3 17 4 15 5 12 6 13 7 91 8 14 9 90 10 9 11
REMARK SMILES IDX 10 12 11 13 8 14 5 15 6 16 92 17 7 18 3 19 4 20 2 21 1 22
REMARK SMILES IDX 20 23 21 24 22 25 23 26 24 27 25 28 89 29 26 30 88 31 27 32
REMARK SMILES IDX 28 33 29 34 82 35 30 36 87 37 81 38 83 39 31 40 86 41 80 42
REMARK SMILES IDX 79 43 32 45 66 46 45 47 65 48 46 49 49 50 64 51 84 52 47 53
REMARK SMILES IDX 48 54 63 56 85 57 50 58 33 59 34 60 43 61 35 62 36 63 42 64
REMARK SMILES IDX 44 65 37 66 38 67 39 68 40 69 41 70 67 71 68 72 77 73 69 74
REMARK SMILES IDX 70 75 76 76 78 77 71 78 72 79 73 80 74 81 75 82 51 83 52 84
REMARK SMILES IDX 61 85 53 86 54 87 60 88 62 89 55 90 56 91 57 92 58 93 59 94
REMARK H PARENT 83 44 49 55
REMARK Flexibility Score: inf
ROOT
ATOM      1  C   UNL A   1      33.203  30.800  27.589  1.00  0.00     0.274 C 
ENDROOT
BRANCH   1   2
ATOM      2  O   UNL A   1      33.066  29.555  26.879  1.00  0.00    -0.462 OA
BRANCH   2   3
ATOM      3  C   UNL A   1      32.049  29.528  25.988  1.00  0.00     0.309 C 
ATOM      4  O   UNL A   1      31.450  30.516  25.575  1.00  0.00    -0.252 OA
BRANCH   3   5
ATOM      5  C   UNL A   1      31.660  28.143  25.548  1.00  0.00     0.102 C 
ATOM      6  N   UNL A   1      31.647  25.346  24.965  1.00  0.00    -0.189 NA
ATOM      7  C   UNL A   1      31.444  26.308  23.852  1.00  0.00     0.104 C 
ATOM      8  C   UNL A   1      31.304  25.857  26.306  1.00  0.00     0.104 C 
ATOM      9  C   UNL A   1      32.111  27.656  24.174  1.00  0.00     0.032 C 
ATOM     10  C   UNL A   1      32.066  27.130  26.606  1.00  0.00     0.032 C 
BRANCH   6  11
ATOM     11  S   UNL A   1      31.324  23.723  24.641  1.00  0.00     0.281 S 
ATOM     12  O   UNL A   1      30.743  23.628  23.319  1.00  0.00    -0.195 OA
ATOM     13  O   UNL A   1      30.630  23.174  25.783  1.00  0.00    -0.195 OA
BRANCH  11  14
ATOM     14  N   UNL A   1      32.857  22.988  24.581  1.00  0.00    -0.188 NA
ATOM     15  C   UNL A   1      34.925  24.197  24.031  1.00  0.00     0.116 C 
ATOM     16  C   UNL A   1      34.578  24.327  25.506  1.00  0.00     0.033 C 
ATOM     17  C   UNL A   1      33.707  23.479  23.423  1.00  0.00     0.118 C 
ATOM     18  C   UNL A   1      33.751  23.089  25.754  1.00  0.00     0.104 C 
BRANCH  15  19
ATOM     19  C   UNL A   1      36.219  23.436  23.803  1.00  0.00     0.310 C 
ATOM     20  O   UNL A   1      36.555  22.934  22.741  1.00  0.00    -0.252 OA
BRANCH  19  21
ATOM     21  O   UNL A   1      36.989  23.463  24.927  1.00  0.00    -0.469 OA
ATOM     22  C   UNL A   1      37.568  22.213  25.303  1.00  0.00     0.282 C 
ENDBRANCH  19  21
ENDBRANCH  15  19
ENDBRANCH  11  14
ENDBRANCH   6  11
ENDBRANCH   3   5
ENDBRANCH   2   3
ENDBRANCH   1   2
BRANCH   1  23
ATOM     23  C   UNL A   1      34.676  31.176  27.775  1.00  0.00     0.275 C 
BRANCH  23  24
ATOM     24  O   UNL A   1      35.445  30.111  28.368  1.00  0.00    -0.458 OA
BRANCH  24  25
ATOM     25  C   UNL A   1      36.182  30.467  29.445  1.00  0.00     0.338 C 
ATOM     26  O   UNL A   1      35.767  30.862  30.522  1.00  0.00    -0.246 OA
BRANCH  25  27
ATOM     27  C   UNL A   1      37.613  30.233  29.196  1.00  0.00     0.060 A 
ATOM     28  C   UNL A   1      38.022  29.901  27.903  1.00  0.00     0.016 A 
ATOM     29  C   UNL A   1      38.520  30.197  30.252  1.00  0.00     0.016 A 
ATOM     30  C   UNL A   1      39.332  29.501  27.658  1.00  0.00     0.010 A 
ATOM     31  C   UNL A   1      39.846  29.825  30.001  1.00  0.00     0.010 A 
ATOM     32  C   UNL A   1      40.258  29.457  28.707  1.00  0.00    -0.014 A 
BRANCH  32  33
ATOM     33  C   UNL A   1      41.647  28.995  28.453  1.00  0.00     0.031 A 
ATOM     34  C   UNL A   1      42.781  29.983  28.469  1.00  0.00     0.074 A 
ATOM     35  C   UNL A   1      41.886  27.692  28.209  1.00  0.00     0.049 A 
ATOM     36  N   UNL A   1      44.038  29.803  28.154  1.00  0.00    -0.248 NA
ATOM     37  C   UNL A   1      42.456  31.356  28.885  1.00  0.00     0.031 C 
ATOM     38  C   UNL A   1      40.873  26.635  28.207  1.00  0.00     0.029 A 
ATOM     39  N   UNL A   1      43.051  27.036  27.902  1.00  0.00    -0.354 N 
ATOM     40  C   UNL A   1      44.649  31.042  28.306  1.00  0.00     0.074 A 
ATOM     41  C   UNL A   1      43.620  31.971  28.722  1.00  0.00     0.031 C 
ATOM     42  C   UNL A   1      41.460  25.465  27.913  1.00  0.00     0.029 A 
ATOM     43  C   UNL A   1      42.875  25.697  27.643  1.00  0.00     0.049 A 
ATOM     44  H   UNL A   1      43.928  27.481  27.871  1.00  0.00     0.167 HD
ATOM     45  C   UNL A   1      45.951  31.371  28.118  1.00  0.00     0.037 A 
ATOM     46  C   UNL A   1      43.745  24.770  27.199  1.00  0.00     0.037 A 
ATOM     47  C   UNL A   1      46.968  30.431  27.717  1.00  0.00     0.049 A 
ATOM     48  C   UNL A   1      45.172  25.172  26.939  1.00  0.00     0.074 A 
ATOM     49  C   UNL A   1      48.319  30.658  27.521  1.00  0.00     0.029 A 
ATOM     50  N   UNL A   1      46.747  29.087  27.448  1.00  0.00    -0.354 N 
ATOM     51  N   UNL A   1      45.737  26.346  27.090  1.00  0.00    -0.248 NA
ATOM     52  C   UNL A   1      46.079  24.127  26.446  1.00  0.00     0.031 C 
ATOM     53  C   UNL A   1      48.903  29.466  27.077  1.00  0.00     0.029 A 
ATOM     54  C   UNL A   1      47.930  28.480  27.061  1.00  0.00     0.049 A 
ATOM     55  H   UNL A   1      45.877  28.633  27.521  1.00  0.00     0.167 HD
ATOM     56  C   UNL A   1      47.072  26.173  26.737  1.00  0.00     0.074 A 
ATOM     57  C   UNL A   1      47.230  24.779  26.379  1.00  0.00     0.031 C 
ATOM     58  C   UNL A   1      48.075  27.087  26.715  1.00  0.00     0.037 A 
BRANCH  45  59
ATOM     59  C   UNL A   1      46.346  32.811  28.309  1.00  0.00     0.058 A 
ATOM     60  C   UNL A   1      46.217  33.762  27.283  1.00  0.00     0.135 A 
ATOM     61  C   UNL A   1      46.825  33.257  29.553  1.00  0.00     0.135 A 
ATOM     62  F   UNL A   1      45.781  33.392  26.069  1.00  0.00    -0.206 F 
ATOM     63  C   UNL A   1      46.574  35.093  27.475  1.00  0.00     0.059 A 
ATOM     64  C   UNL A   1      47.158  34.589  29.777  1.00  0.00     0.059 A 
ATOM     65  F   UNL A   1      46.969  32.393  30.570  1.00  0.00    -0.206 F 
ATOM     66  C   UNL A   1      47.043  35.498  28.727  1.00  0.00     0.060 A 
BRANCH  66  67
ATOM     67  S   UNL A   1      47.498  37.230  28.960  1.00  0.00     0.124 S 
ATOM     68  O   UNL A   1      48.107  37.194  30.286  1.00  0.00    -0.237 OA
ATOM     69  O   UNL A   1      48.414  37.463  27.848  1.00  0.00    -0.237 OA
ATOM     70  O   UNL A   1      46.222  37.932  28.876  1.00  0.00    -0.744 OA
ENDBRANCH  66  67
ENDBRANCH  45  59
BRANCH  46  71
ATOM     71  C   UNL A   1      43.285  23.376  26.952  1.00  0.00     0.058 A 
ATOM     72  C   UNL A   1      43.050  22.910  25.651  1.00  0.00     0.135 A 
ATOM     73  C   UNL A   1      43.082  22.479  28.014  1.00  0.00     0.135 A 
ATOM     74  F   UNL A   1      43.223  23.731  24.604  1.00  0.00    -0.206 F 
ATOM     75  C   UNL A   1      42.617  21.611  25.409  1.00  0.00     0.059 A 
ATOM     76  C   UNL A   1      42.678  21.166  27.796  1.00  0.00     0.059 A 
ATOM     77  F   UNL A   1      43.304  22.870  29.278  1.00  0.00    -0.206 F 
ATOM     78  C   UNL A   1      42.437  20.744  26.489  1.00  0.00     0.060 A 
BRANCH  78  79
ATOM     79  S   UNL A   1      41.922  19.045  26.158  1.00  0.00     0.124 S 
ATOM     80  O   UNL A   1      42.278  18.382  27.406  1.00  0.00    -0.237 OA
ATOM     81  O   UNL A   1      40.494  19.206  25.903  1.00  0.00    -0.237 OA
ATOM     82  O   UNL A   1      42.721  18.672  24.993  1.00  0.00    -0.744 OA
ENDBRANCH  78  79
ENDBRANCH  46  71
BRANCH  58  83
ATOM     83  C   UNL A   1      49.447  26.599  26.332  1.00  0.00     0.058 A 
ATOM     84  C   UNL A   1      49.958  26.758  25.035  1.00  0.00     0.135 A 
ATOM     85  C   UNL A   1      50.280  26.006  27.296  1.00  0.00     0.135 A 
ATOM     86  F   UNL A   1      49.201  27.311  24.074  1.00  0.00    -0.206 F 
ATOM     87  C   UNL A   1      51.236  26.323  24.700  1.00  0.00     0.059 A 
ATOM     88  C   UNL A   1      51.574  25.594  26.991  1.00  0.00     0.059 A 
ATOM     89  F   UNL A   1      49.845  25.838  28.555  1.00  0.00    -0.206 F 
ATOM     90  C   UNL A   1      52.038  25.745  25.685  1.00  0.00     0.060 A 
BRANCH  90  91
ATOM     91  S   UNL A   1      53.706  25.216  25.243  1.00  0.00     0.124 S 
ATOM     92  O   UNL A   1      53.592  23.766  25.350  1.00  0.00    -0.237 OA
ATOM     93  O   UNL A   1      53.852  25.743  23.890  1.00  0.00    -0.237 OA
ATOM     94  O   UNL A   1      54.545  25.855  26.252  1.00  0.00    -0.744 OA
ENDBRANCH  90  91
ENDBRANCH  58  83
ENDBRANCH  32  33
ENDBRANCH  25  27
ENDBRANCH  24  25
ENDBRANCH  23  24
ENDBRANCH   1  23
TORSDOF 18
ENDMDL
MODEL 3
REMARK VINA RESULT:     -10.8      6.599     11.862
REMARK SMILES COC(=O)[C@@H]1CCN(S(=O)(=O)N2CCC(C(=O)OCCOC(=O)c3ccc(-c4c5nc(c(-c6c(F)cc(S(=O)(=O)[O-])cc6F)c6ccc([nH]6)c(-c6c(F)cc(S(=O)(=O)[O-])cc6F)c6nc(c(-c7c(F)cc(S(=O)(=O)[O-])cc7F)c7ccc4[nH]7)C=C6)C=C5)cc3)CC2)C1
REMARK SMILES IDX 19 1 18 2 16 3 17 4 15 5 12 6 13 7 91 8 14 9 90 10 9 11
REMARK SMILES IDX 10 12 11 13 8 14 5 15 6 16 92 17 7 18 3 19 4 20 2 21 1 22
REMARK SMILES IDX 20 23 21 24 22 25 23 26 24 27 25 28 89 29 26 30 88 31 27 32
REMARK SMILES IDX 28 33 29 34 82 35 30 36 87 37 81 38 83 39 31 40 86 41 80 42
REMARK SMILES IDX 79 43 32 45 66 46 45 47 65 48 46 49 49 50 64 51 84 52 47 53
REMARK SMILES IDX 48 54 63 56 85 57 50 58 33 59 34 60 43 61 35 62 36 63 42 64
REMARK SMILES IDX 44 65 37 66 38 67 39 68 40 69 41 70 67 71 68 72 77 73 69 74
REMARK SMILES IDX 70 75 76 76 78 77 71 78 72 79 73 80 74 81 75 82 51 83 52 84
REMARK SMILES IDX 61 85 53 86 54 87 60 88 62 89 55 90 56 91 57 92 58 93 59 94
REMARK H PARENT 83 44 49 55
REMARK Flexibility Score: inf
ROOT
ATOM      1  C   UNL A   1      39.321  21.943  26.168  1.00  0.00     0.274 C 
ENDROOT
BRANCH   1   2
ATOM      2  O   UNL A   1      38.192  22.439  25.424  1.00  0.00    -0.462 OA
BRANCH   2   3
ATOM      3  C   UNL A   1      37.317  21.485  25.033  1.00  0.00     0.309 C 
ATOM      4  O   UNL A   1      37.618  20.329  24.752  1.00  0.00    -0.252 OA
BRANCH   3   5
ATOM      5  C   UNL A   1      35.897  21.967  24.926  1.00  0.00     0.102 C 
ATOM      6  N   UNL A   1      33.555  23.571  24.597  1.00  0.00    -0.189 NA
ATOM      7  C   UNL A   1      33.751  22.848  25.880  1.00  0.00     0.104 C 
ATOM      8  C   UNL A   1      34.268  22.998  23.439  1.00  0.00     0.104 C 
ATOM      9  C   UNL A   1      35.247  22.614  26.146  1.00  0.00     0.032 C 
ATOM     10  C   UNL A   1      35.750  22.884  23.723  1.00  0.00     0.032 C 
BRANCH   6  11
ATOM     11  S   UNL A   1      32.034  24.245  24.323  1.00  0.00     0.281 S 
ATOM     12  O   UNL A   1      31.222  24.033  25.503  1.00  0.00    -0.195 OA
ATOM     13  O   UNL A   1      31.575  23.790  23.032  1.00  0.00    -0.195 OA
BRANCH  11  14
ATOM     14  N   UNL A   1      32.325  25.916  24.196  1.00  0.00    -0.188 NA
ATOM     15  C   UNL A   1      31.929  27.509  26.024  1.00  0.00     0.116 C 
ATOM     16  C   UNL A   1      33.295  26.851  26.144  1.00  0.00     0.033 C 
ATOM     17  C   UNL A   1      31.253  26.759  24.863  1.00  0.00     0.118 C 
ATOM     18  C   UNL A   1      33.595  26.467  24.715  1.00  0.00     0.104 C 
BRANCH  15  19
ATOM     19  C   UNL A   1      32.024  29.003  25.772  1.00  0.00     0.310 C 
ATOM     20  O   UNL A   1      32.054  29.523  24.666  1.00  0.00    -0.252 OA
BRANCH  19  21
ATOM     21  O   UNL A   1      31.987  29.687  26.950  1.00  0.00    -0.469 OA
ATOM     22  C   UNL A   1      33.168  30.423  27.268  1.00  0.00     0.282 C 
ENDBRANCH  19  21
ENDBRANCH  15  19
ENDBRANCH  11  14
ENDBRANCH   6  11
ENDBRANCH   3   5
ENDBRANCH   2   3
ENDBRANCH   1   2
BRANCH   1  23
ATOM     23  C   UNL A   1      40.241  23.084  26.612  1.00  0.00     0.275 C 
BRANCH  23  24
ATOM     24  O   UNL A   1      39.593  24.370  26.545  1.00  0.00    -0.458 OA
BRANCH  24  25
ATOM     25  C   UNL A   1      40.429  25.427  26.427  1.00  0.00     0.338 C 
ATOM     26  O   UNL A   1      41.021  25.787  25.423  1.00  0.00    -0.246 OA
BRANCH  25  27
ATOM     27  C   UNL A   1      40.484  26.189  27.684  1.00  0.00     0.060 A 
ATOM     28  C   UNL A   1      39.504  25.956  28.651  1.00  0.00     0.016 A 
ATOM     29  C   UNL A   1      41.400  27.226  27.845  1.00  0.00     0.016 A 
ATOM     30  C   UNL A   1      39.414  26.773  29.774  1.00  0.00     0.010 A 
ATOM     31  C   UNL A   1      41.329  28.029  28.990  1.00  0.00     0.010 A 
ATOM     32  C   UNL A   1      40.324  27.820  29.954  1.00  0.00    -0.014 A 
BRANCH  32  33
ATOM     33  C   UNL A   1      40.206  28.715  31.134  1.00  0.00     0.031 A 
ATOM     34  C   UNL A   1      39.199  29.833  31.130  1.00  0.00     0.074 A 
ATOM     35  C   UNL A   1      41.001  28.522  32.204  1.00  0.00     0.049 A 
ATOM     36  N   UNL A   1      39.025  30.790  32.004  1.00  0.00    -0.248 NA
ATOM     37  C   UNL A   1      38.274  29.885  29.988  1.00  0.00     0.031 C 
ATOM     38  C   UNL A   1      41.986  27.447  32.340  1.00  0.00     0.029 A 
ATOM     39  N   UNL A   1      41.118  29.228  33.374  1.00  0.00    -0.354 N 
ATOM     40  C   UNL A   1      37.991  31.576  31.507  1.00  0.00     0.074 A 
ATOM     41  C   UNL A   1      37.592  30.994  30.243  1.00  0.00     0.031 C 
ATOM     42  C   UNL A   1      42.605  27.566  33.524  1.00  0.00     0.029 A 
ATOM     43  C   UNL A   1      42.109  28.759  34.203  1.00  0.00     0.049 A 
ATOM     44  H   UNL A   1      40.545  29.997  33.599  1.00  0.00     0.167 HD
ATOM     45  C   UNL A   1      37.427  32.678  32.058  1.00  0.00     0.037 A 
ATOM     46  C   UNL A   1      42.593  29.255  35.358  1.00  0.00     0.037 A 
ATOM     47  C   UNL A   1      37.827  33.238  33.324  1.00  0.00     0.049 A 
ATOM     48  C   UNL A   1      41.992  30.516  35.919  1.00  0.00     0.074 A 
ATOM     49  C   UNL A   1      37.306  34.339  33.981  1.00  0.00     0.029 A 
ATOM     50  N   UNL A   1      38.848  32.744  34.126  1.00  0.00    -0.354 N 
ATOM     51  N   UNL A   1      41.013  31.246  35.441  1.00  0.00    -0.248 NA
ATOM     52  C   UNL A   1      42.562  31.022  37.175  1.00  0.00     0.031 C 
ATOM     53  C   UNL A   1      38.048  34.545  35.149  1.00  0.00     0.029 A 
ATOM     54  C   UNL A   1      38.989  33.533  35.255  1.00  0.00     0.049 A 
ATOM     55  H   UNL A   1      39.391  31.949  33.921  1.00  0.00     0.167 HD
ATOM     56  C   UNL A   1      40.831  32.282  36.352  1.00  0.00     0.074 A 
ATOM     57  C   UNL A   1      41.792  32.074  37.415  1.00  0.00     0.031 C 
ATOM     58  C   UNL A   1      39.946  33.309  36.311  1.00  0.00     0.037 A 
BRANCH  45  59
ATOM     59  C   UNL A   1      36.342  33.376  31.281  1.00  0.00     0.058 A 
ATOM     60  C   UNL A   1      34.999  33.352  31.690  1.00  0.00     0.135 A 
ATOM     61  C   UNL A   1      36.659  34.114  30.127  1.00  0.00     0.135 A 
ATOM     62  F   UNL A   1      34.635  32.650  32.774  1.00  0.00    -0.206 F 
ATOM     63  C   UNL A   1      34.007  34.011  30.970  1.00  0.00     0.059 A 
ATOM     64  C   UNL A   1      35.688  34.806  29.410  1.00  0.00     0.059 A 
ATOM     65  F   UNL A   1      37.926  34.172  29.689  1.00  0.00    -0.206 F 
ATOM     66  C   UNL A   1      34.362  34.736  29.831  1.00  0.00     0.060 A 
BRANCH  66  67
ATOM     67  S   UNL A   1      33.062  35.589  28.910  1.00  0.00     0.124 S 
ATOM     68  O   UNL A   1      32.478  34.491  28.147  1.00  0.00    -0.237 OA
ATOM     69  O   UNL A   1      32.230  36.132  29.979  1.00  0.00    -0.237 OA
ATOM     70  O   UNL A   1      33.794  36.579  28.125  1.00  0.00    -0.744 OA
ENDBRANCH  66  67
ENDBRANCH  45  59
BRANCH  46  71
ATOM     71  C   UNL A   1      43.720  28.570  36.047  1.00  0.00     0.058 A 
ATOM     72  C   UNL A   1      43.491  27.492  36.913  1.00  0.00     0.135 A 
ATOM     73  C   UNL A   1      45.050  28.973  35.843  1.00  0.00     0.135 A 
ATOM     74  F   UNL A   1      42.238  27.074  37.147  1.00  0.00    -0.206 F 
ATOM     75  C   UNL A   1      44.537  26.846  37.566  1.00  0.00     0.059 A 
ATOM     76  C   UNL A   1      46.115  28.325  36.460  1.00  0.00     0.059 A 
ATOM     77  F   UNL A   1      45.325  29.991  35.014  1.00  0.00    -0.206 F 
ATOM     78  C   UNL A   1      45.847  27.268  37.329  1.00  0.00     0.060 A 
BRANCH  78  79
ATOM     79  S   UNL A   1      47.198  26.390  38.143  1.00  0.00     0.124 S 
ATOM     80  O   UNL A   1      47.655  27.383  39.107  1.00  0.00    -0.237 OA
ATOM     81  O   UNL A   1      46.513  25.227  38.698  1.00  0.00    -0.237 OA
ATOM     82  O   UNL A   1      48.119  26.101  37.047  1.00  0.00    -0.744 OA
ENDBRANCH  78  79
ENDBRANCH  46  71
BRANCH  58  83
ATOM     83  C   UNL A   1      39.944  34.266  37.473  1.00  0.00     0.058 A 
ATOM     84  C   UNL A   1      40.715  35.438  37.474  1.00  0.00     0.135 A 
ATOM     85  C   UNL A   1      39.116  34.027  38.583  1.00  0.00     0.135 A 
ATOM     86  F   UNL A   1      41.530  35.711  36.442  1.00  0.00    -0.206 F 
ATOM     87  C   UNL A   1      40.687  36.326  38.545  1.00  0.00     0.059 A 
ATOM     88  C   UNL A   1      39.047  34.918  39.650  1.00  0.00     0.059 A 
ATOM     89  F   UNL A   1      38.349  32.926  38.631  1.00  0.00    -0.206 F 
ATOM     90  C   UNL A   1      39.847  36.059  39.627  1.00  0.00     0.060 A 
BRANCH  90  91
ATOM     91  S   UNL A   1      39.797  37.237  40.994  1.00  0.00     0.124 S 
ATOM     92  O   UNL A   1      41.200  37.621  41.103  1.00  0.00    -0.237 OA
ATOM     93  O   UNL A   1      38.894  38.265  40.486  1.00  0.00    -0.237 OA
ATOM     94  O   UNL A   1      39.275  36.447  42.105  1.00  0.00    -0.744 OA
ENDBRANCH  90  91
ENDBRANCH  58  83
ENDBRANCH  32  33
ENDBRANCH  25  27
ENDBRANCH  24  25
ENDBRANCH  23  24
ENDBRANCH   1  23
TORSDOF 18
ENDMDL
