MODEL 1
REMARK VINA RESULT:     -10.8      0.000      0.000
REMARK SMILES CCCCCCNC(=O)Oc1cccc(-c2ccc([C@@H](C)C(=O)OCCOC(=O)c3ccc(-c4c5nc(c(-c6c(F)cc(S(=O)(=O)[O-])cc6F)c6ccc([nH]6)c(-c6c(F)cc(S(=O)(=O)[O-])cc6F)c6nc(c(-c7c(F)cc(S(=O)(=O)[O-])cc7F)c7ccc4[nH]7)C=C6)C=C5)cc3)cc2C(F)(F)F)c1
REMARK SMILES IDX 20 1 21 2 19 3 16 4 17 5 97 6 18 7 96 8 15 9 11 10 12 11
REMARK SMILES IDX 102 12 13 13 14 14 10 15 8 16 7 17 9 19 6 20 5 21 4 22 3 23
REMARK SMILES IDX 2 24 1 25 98 26 99 27 100 28 101 29 22 30 23 31 24 32 25 33
REMARK SMILES IDX 26 34 27 35 28 36 29 37 30 38 31 39 95 40 32 41 94 42 33 43
REMARK SMILES IDX 34 44 35 45 88 46 36 47 93 48 87 49 89 50 37 51 92 52 86 53
REMARK SMILES IDX 85 54 38 56 72 57 51 58 71 59 52 60 55 61 70 62 90 63 53 64
REMARK SMILES IDX 54 65 69 67 91 68 56 69 39 70 40 71 49 72 41 73 42 74 48 75
REMARK SMILES IDX 50 76 43 77 44 78 45 79 46 80 47 81 73 82 74 83 83 84 75 85
REMARK SMILES IDX 76 86 82 87 84 88 77 89 78 90 79 91 80 92 81 93 57 94 58 95
REMARK SMILES IDX 67 96 59 97 60 98 66 99 68 100 61 101 62 102 63 103 64 104
REMARK SMILES IDX 65 105
REMARK H PARENT 7 18 89 55 55 66
REMARK Flexibility Score: inf
ROOT
ATOM      1  C   UNL A   1      31.520  30.402  25.058  1.00  0.00     0.126 C 
ATOM      2  C   UNL A   1      30.136  30.719  24.499  1.00  0.00     0.025 C 
ENDROOT
BRANCH   1   3
ATOM      3  C   UNL A   1      31.955  28.975  24.752  1.00  0.00    -0.033 A 
ATOM      4  C   UNL A   1      32.697  26.286  24.170  1.00  0.00    -0.006 A 
ATOM      5  C   UNL A   1      33.638  27.333  24.154  1.00  0.00     0.009 A 
ATOM      6  C   UNL A   1      31.362  26.594  24.507  1.00  0.00     0.064 A 
ATOM      7  C   UNL A   1      33.279  28.650  24.452  1.00  0.00     0.005 A 
ATOM      8  C   UNL A   1      31.011  27.938  24.774  1.00  0.00     0.018 A 
BRANCH   4   9
ATOM      9  C   UNL A   1      33.158  24.919  23.864  1.00  0.00    -0.014 A 
ATOM     10  C   UNL A   1      34.128  22.798  24.526  1.00  0.00     0.133 A 
ATOM     11  C   UNL A   1      34.113  22.349  23.207  1.00  0.00     0.047 A 
ATOM     12  C   UNL A   1      33.654  24.067  24.863  1.00  0.00     0.056 A 
ATOM     13  C   UNL A   1      33.600  23.172  22.211  1.00  0.00     0.004 A 
ATOM     14  C   UNL A   1      33.130  24.447  22.537  1.00  0.00     0.009 A 
BRANCH  10  15
ATOM     15  O   UNL A   1      34.786  21.980  25.461  1.00  0.00    -0.410 OA
BRANCH  15  16
ATOM     16  C   UNL A   1      34.037  21.265  26.381  1.00  0.00     0.412 C 
ATOM     17  N   UNL A   1      33.746  19.995  25.962  1.00  0.00    -0.321 N 
ATOM     18  H   UNL A   1      33.218  19.438  26.578  1.00  0.00     0.167 HD
ATOM     19  O   UNL A   1      33.629  21.684  27.458  1.00  0.00    -0.224 OA
BRANCH  17  20
ATOM     20  C   UNL A   1      34.134  19.383  24.705  1.00  0.00     0.119 C 
BRANCH  20  21
ATOM     21  C   UNL A   1      32.931  18.944  23.872  1.00  0.00     0.021 C 
BRANCH  21  22
ATOM     22  C   UNL A   1      32.767  17.428  23.716  1.00  0.00     0.002 C 
BRANCH  22  23
ATOM     23  C   UNL A   1      34.051  16.602  23.850  1.00  0.00    -0.000 C 
BRANCH  23  24
ATOM     24  C   UNL A   1      34.144  15.724  25.100  1.00  0.00    -0.003 C 
ATOM     25  C   UNL A   1      32.866  14.950  25.388  1.00  0.00     0.004 C 
ENDBRANCH  23  24
ENDBRANCH  22  23
ENDBRANCH  21  22
ENDBRANCH  20  21
ENDBRANCH  17  20
ENDBRANCH  15  16
ENDBRANCH  10  15
ENDBRANCH   4   9
BRANCH   6  26
ATOM     26  C   UNL A   1      30.269  25.549  24.579  1.00  0.00     0.417 C 
ATOM     27  F   UNL A   1      29.949  25.046  23.349  1.00  0.00    -0.166 F 
ATOM     28  F   UNL A   1      30.620  24.471  25.333  1.00  0.00    -0.166 F 
ATOM     29  F   UNL A   1      29.087  26.002  25.083  1.00  0.00    -0.166 F 
ENDBRANCH   6  26
ENDBRANCH   1   3
BRANCH   1  30
ATOM     30  C   UNL A   1      31.606  30.836  26.518  1.00  0.00     0.313 C 
ATOM     31  O   UNL A   1      32.209  30.174  27.358  1.00  0.00    -0.252 OA
BRANCH  30  32
ATOM     32  O   UNL A   1      30.998  32.022  26.776  1.00  0.00    -0.462 OA
BRANCH  32  33
ATOM     33  C   UNL A   1      31.784  33.214  26.581  1.00  0.00     0.274 C 
BRANCH  33  34
ATOM     34  C   UNL A   1      32.900  33.308  27.622  1.00  0.00     0.275 C 
BRANCH  34  35
ATOM     35  O   UNL A   1      32.510  34.144  28.726  1.00  0.00    -0.458 OA
BRANCH  35  36
ATOM     36  C   UNL A   1      33.366  35.149  29.020  1.00  0.00     0.338 C 
ATOM     37  O   UNL A   1      33.224  36.338  28.796  1.00  0.00    -0.246 OA
BRANCH  36  38
ATOM     38  C   UNL A   1      34.497  34.608  29.784  1.00  0.00     0.060 A 
ATOM     39  C   UNL A   1      35.770  34.661  29.214  1.00  0.00     0.016 A 
ATOM     40  C   UNL A   1      34.294  33.994  31.020  1.00  0.00     0.016 A 
ATOM     41  C   UNL A   1      36.854  34.092  29.874  1.00  0.00     0.010 A 
ATOM     42  C   UNL A   1      35.386  33.438  31.691  1.00  0.00     0.010 A 
ATOM     43  C   UNL A   1      36.671  33.477  31.118  1.00  0.00    -0.014 A 
BRANCH  43  44
ATOM     44  C   UNL A   1      37.823  32.860  31.818  1.00  0.00     0.031 A 
ATOM     45  C   UNL A   1      38.525  31.683  31.209  1.00  0.00     0.074 A 
ATOM     46  C   UNL A   1      38.228  33.361  33.000  1.00  0.00     0.049 A 
ATOM     47  N   UNL A   1      39.469  30.933  31.714  1.00  0.00    -0.248 NA
ATOM     48  C   UNL A   1      38.109  31.296  29.851  1.00  0.00     0.031 C 
ATOM     49  C   UNL A   1      37.651  34.532  33.663  1.00  0.00     0.029 A 
ATOM     50  N   UNL A   1      39.215  32.944  33.857  1.00  0.00    -0.354 N 
ATOM     51  C   UNL A   1      39.741  29.967  30.753  1.00  0.00     0.074 A 
ATOM     52  C   UNL A   1      38.858  30.224  29.635  1.00  0.00     0.031 C 
ATOM     53  C   UNL A   1      38.296  34.742  34.822  1.00  0.00     0.029 A 
ATOM     54  C   UNL A   1      39.291  33.689  35.011  1.00  0.00     0.049 A 
ATOM     55  H   UNL A   1      39.811  32.185  33.666  1.00  0.00     0.167 HD
ATOM     56  C   UNL A   1      40.646  28.961  30.804  1.00  0.00     0.037 A 
ATOM     57  C   UNL A   1      40.051  33.519  36.109  1.00  0.00     0.037 A 
ATOM     58  C   UNL A   1      41.537  28.733  31.913  1.00  0.00     0.049 A 
ATOM     59  C   UNL A   1      40.994  32.350  36.172  1.00  0.00     0.074 A 
ATOM     60  C   UNL A   1      42.520  27.768  32.044  1.00  0.00     0.029 A 
ATOM     61  N   UNL A   1      41.546  29.476  33.084  1.00  0.00    -0.354 N 
ATOM     62  N   UNL A   1      41.245  31.444  35.257  1.00  0.00    -0.248 NA
ATOM     63  C   UNL A   1      41.741  32.165  37.424  1.00  0.00     0.031 C 
ATOM     64  C   UNL A   1      43.094  27.901  33.313  1.00  0.00     0.029 A 
ATOM     65  C   UNL A   1      42.495  28.971  33.958  1.00  0.00     0.049 A 
ATOM     66  H   UNL A   1      40.965  30.250  33.268  1.00  0.00     0.167 HD
ATOM     67  C   UNL A   1      42.184  30.588  35.817  1.00  0.00     0.074 A 
ATOM     68  C   UNL A   1      42.468  31.091  37.146  1.00  0.00     0.031 C 
ATOM     69  C   UNL A   1      42.759  29.483  35.281  1.00  0.00     0.037 A 
BRANCH  56  70
ATOM     70  C   UNL A   1      40.692  28.007  29.645  1.00  0.00     0.058 A 
ATOM     71  C   UNL A   1      41.663  28.108  28.637  1.00  0.00     0.135 A 
ATOM     72  C   UNL A   1      39.762  26.958  29.557  1.00  0.00     0.135 A 
ATOM     73  F   UNL A   1      42.565  29.101  28.666  1.00  0.00    -0.206 F 
ATOM     74  C   UNL A   1      41.694  27.219  27.567  1.00  0.00     0.059 A 
ATOM     75  C   UNL A   1      39.788  26.044  28.507  1.00  0.00     0.059 A 
ATOM     76  F   UNL A   1      38.812  26.817  30.494  1.00  0.00    -0.206 F 
ATOM     77  C   UNL A   1      40.748  26.191  27.508  1.00  0.00     0.060 A 
BRANCH  77  78
ATOM     78  S   UNL A   1      40.795  25.049  26.112  1.00  0.00     0.124 S 
ATOM     79  O   UNL A   1      39.423  24.547  26.100  1.00  0.00    -0.237 OA
ATOM     80  O   UNL A   1      41.158  25.923  25.001  1.00  0.00    -0.237 OA
ATOM     81  O   UNL A   1      41.813  24.077  26.501  1.00  0.00    -0.744 OA
ENDBRANCH  77  78
ENDBRANCH  56  70
BRANCH  57  82
ATOM     82  C   UNL A   1      39.924  34.463  37.250  1.00  0.00     0.058 A 
ATOM     83  C   UNL A   1      39.024  34.214  38.295  1.00  0.00     0.135 A 
ATOM     84  C   UNL A   1      40.712  35.622  37.327  1.00  0.00     0.135 A 
ATOM     85  F   UNL A   1      38.241  33.125  38.259  1.00  0.00    -0.206 F 
ATOM     86  C   UNL A   1      38.907  35.079  39.378  1.00  0.00     0.059 A 
ATOM     87  C   UNL A   1      40.630  36.492  38.410  1.00  0.00     0.059 A 
ATOM     88  F   UNL A   1      41.594  35.902  36.356  1.00  0.00    -0.206 F 
ATOM     89  C   UNL A   1      39.718  36.215  39.428  1.00  0.00     0.060 A 
BRANCH  89  90
ATOM     90  S   UNL A   1      39.604  37.301  40.866  1.00  0.00     0.124 S 
ATOM     91  O   UNL A   1      41.007  37.622  41.103  1.00  0.00    -0.237 OA
ATOM     92  O   UNL A   1      38.776  38.393  40.364  1.00  0.00    -0.237 OA
ATOM     93  O   UNL A   1      38.969  36.456  41.875  1.00  0.00    -0.744 OA
ENDBRANCH  89  90
ENDBRANCH  57  82
BRANCH  69  94
ATOM     94  C   UNL A   1      43.757  28.745  36.126  1.00  0.00     0.058 A 
ATOM     95  C   UNL A   1      45.090  29.170  36.218  1.00  0.00     0.135 A 
ATOM     96  C   UNL A   1      43.361  27.643  36.898  1.00  0.00     0.135 A 
ATOM     97  F   UNL A   1      45.520  30.213  35.490  1.00  0.00    -0.206 F 
ATOM     98  C   UNL A   1      46.001  28.523  37.046  1.00  0.00     0.059 A 
ATOM     99  C   UNL A   1      44.251  26.992  37.749  1.00  0.00     0.059 A 
ATOM    100  F   UNL A   1      42.094  27.200  36.848  1.00  0.00    -0.206 F 
ATOM    101  C   UNL A   1      45.571  27.437  37.811  1.00  0.00     0.060 A 
BRANCH 101 102
ATOM    102  S   UNL A   1      46.748  26.639  38.924  1.00  0.00     0.124 S 
ATOM    103  O   UNL A   1      46.510  27.361  40.170  1.00  0.00    -0.237 OA
ATOM    104  O   UNL A   1      46.306  25.248  38.905  1.00  0.00    -0.237 OA
ATOM    105  O   UNL A   1      48.038  26.889  38.289  1.00  0.00    -0.744 OA
ENDBRANCH 101 102
ENDBRANCH  69  94
ENDBRANCH  43  44
ENDBRANCH  36  38
ENDBRANCH  35  36
ENDBRANCH  34  35
ENDBRANCH  33  34
ENDBRANCH  32  33
ENDBRANCH  30  32
ENDBRANCH   1  30
TORSDOF 24
ENDMDL
MODEL 2
REMARK VINA RESULT:     -10.6      0.611      7.808
REMARK SMILES CCCCCCNC(=O)Oc1cccc(-c2ccc([C@@H](C)C(=O)OCCOC(=O)c3ccc(-c4c5nc(c(-c6c(F)cc(S(=O)(=O)[O-])cc6F)c6ccc([nH]6)c(-c6c(F)cc(S(=O)(=O)[O-])cc6F)c6nc(c(-c7c(F)cc(S(=O)(=O)[O-])cc7F)c7ccc4[nH]7)C=C6)C=C5)cc3)cc2C(F)(F)F)c1
REMARK SMILES IDX 20 1 21 2 19 3 16 4 17 5 97 6 18 7 96 8 15 9 11 10 12 11
REMARK SMILES IDX 102 12 13 13 14 14 10 15 8 16 7 17 9 19 6 20 5 21 4 22 3 23
REMARK SMILES IDX 2 24 1 25 98 26 99 27 100 28 101 29 22 30 23 31 24 32 25 33
REMARK SMILES IDX 26 34 27 35 28 36 29 37 30 38 31 39 95 40 32 41 94 42 33 43
REMARK SMILES IDX 34 44 35 45 88 46 36 47 93 48 87 49 89 50 37 51 92 52 86 53
REMARK SMILES IDX 85 54 38 56 72 57 51 58 71 59 52 60 55 61 70 62 90 63 53 64
REMARK SMILES IDX 54 65 69 67 91 68 56 69 39 70 40 71 49 72 41 73 42 74 48 75
REMARK SMILES IDX 50 76 43 77 44 78 45 79 46 80 47 81 73 82 74 83 83 84 75 85
REMARK SMILES IDX 76 86 82 87 84 88 77 89 78 90 79 91 80 92 81 93 57 94 58 95
REMARK SMILES IDX 67 96 59 97 60 98 66 99 68 100 61 101 62 102 63 103 64 104
REMARK SMILES IDX 65 105
REMARK H PARENT 7 18 89 55 55 66
REMARK Flexibility Score: inf
ROOT
ATOM      1  C   UNL A   1      31.711  30.373  25.241  1.00  0.00     0.126 C 
ATOM      2  C   UNL A   1      30.337  30.752  24.696  1.00  0.00     0.025 C 
ENDROOT
BRANCH   1   3
ATOM      3  C   UNL A   1      32.095  28.941  24.898  1.00  0.00    -0.033 A 
ATOM      4  C   UNL A   1      32.741  26.241  24.251  1.00  0.00    -0.006 A 
ATOM      5  C   UNL A   1      33.703  27.268  24.190  1.00  0.00     0.009 A 
ATOM      6  C   UNL A   1      31.435  26.576  24.667  1.00  0.00     0.064 A 
ATOM      7  C   UNL A   1      33.392  28.589  24.520  1.00  0.00     0.005 A 
ATOM      8  C   UNL A   1      31.130  27.924  24.965  1.00  0.00     0.018 A 
BRANCH   4   9
ATOM      9  C   UNL A   1      33.152  24.867  23.907  1.00  0.00    -0.014 A 
ATOM     10  C   UNL A   1      34.064  22.703  24.506  1.00  0.00     0.133 A 
ATOM     11  C   UNL A   1      34.013  22.283  23.178  1.00  0.00     0.047 A 
ATOM     12  C   UNL A   1      33.637  23.978  24.879  1.00  0.00     0.056 A 
ATOM     13  C   UNL A   1      33.509  23.144  22.209  1.00  0.00     0.004 A 
ATOM     14  C   UNL A   1      33.087  24.427  22.571  1.00  0.00     0.009 A 
BRANCH  10  15
ATOM     15  O   UNL A   1      34.711  21.843  25.411  1.00  0.00    -0.410 OA
BRANCH  15  16
ATOM     16  C   UNL A   1      33.951  21.080  26.282  1.00  0.00     0.412 C 
ATOM     17  N   UNL A   1      33.707  19.818  25.814  1.00  0.00    -0.321 N 
ATOM     18  H   UNL A   1      33.173  19.229  26.394  1.00  0.00     0.167 HD
ATOM     19  O   UNL A   1      33.499  21.454  27.358  1.00  0.00    -0.224 OA
BRANCH  17  20
ATOM     20  C   UNL A   1      34.151  19.257  24.551  1.00  0.00     0.119 C 
BRANCH  20  21
ATOM     21  C   UNL A   1      33.135  18.284  23.955  1.00  0.00     0.021 C 
BRANCH  21  22
ATOM     22  C   UNL A   1      33.719  16.953  23.468  1.00  0.00     0.002 C 
BRANCH  22  23
ATOM     23  C   UNL A   1      34.537  16.169  24.499  1.00  0.00    -0.000 C 
BRANCH  23  24
ATOM     24  C   UNL A   1      33.787  15.768  25.771  1.00  0.00    -0.003 C 
ATOM     25  C   UNL A   1      32.541  14.938  25.500  1.00  0.00     0.004 C 
ENDBRANCH  23  24
ENDBRANCH  22  23
ENDBRANCH  21  22
ENDBRANCH  20  21
ENDBRANCH  17  20
ENDBRANCH  15  16
ENDBRANCH  10  15
ENDBRANCH   4   9
BRANCH   6  26
ATOM     26  C   UNL A   1      30.324  25.554  24.793  1.00  0.00     0.417 C 
ATOM     27  F   UNL A   1      30.031  24.954  23.600  1.00  0.00    -0.166 F 
ATOM     28  F   UNL A   1      30.637  24.539  25.644  1.00  0.00    -0.166 F 
ATOM     29  F   UNL A   1      29.135  26.063  25.223  1.00  0.00    -0.166 F 
ENDBRANCH   6  26
ENDBRANCH   1   3
BRANCH   1  30
ATOM     30  C   UNL A   1      31.818  30.768  26.711  1.00  0.00     0.313 C 
ATOM     31  O   UNL A   1      32.468  30.107  27.515  1.00  0.00    -0.252 OA
BRANCH  30  32
ATOM     32  O   UNL A   1      31.169  31.920  27.019  1.00  0.00    -0.462 OA
BRANCH  32  33
ATOM     33  C   UNL A   1      31.831  33.153  26.676  1.00  0.00     0.274 C 
BRANCH  33  34
ATOM     34  C   UNL A   1      32.937  33.477  27.681  1.00  0.00     0.275 C 
BRANCH  34  35
ATOM     35  O   UNL A   1      32.521  34.506  28.596  1.00  0.00    -0.458 OA
BRANCH  35  36
ATOM     36  C   UNL A   1      33.497  35.350  29.000  1.00  0.00     0.338 C 
ATOM     37  O   UNL A   1      33.500  36.567  28.944  1.00  0.00    -0.246 OA
BRANCH  36  38
ATOM     38  C   UNL A   1      34.562  34.576  29.649  1.00  0.00     0.060 A 
ATOM     39  C   UNL A   1      34.269  33.919  30.846  1.00  0.00     0.016 A 
ATOM     40  C   UNL A   1      35.852  34.552  29.119  1.00  0.00     0.016 A 
ATOM     41  C   UNL A   1      35.271  33.237  31.530  1.00  0.00     0.010 A 
ATOM     42  C   UNL A   1      36.853  33.853  29.797  1.00  0.00     0.010 A 
ATOM     43  C   UNL A   1      36.570  33.197  31.010  1.00  0.00    -0.014 A 
BRANCH  43  44
ATOM     44  C   UNL A   1      37.641  32.480  31.742  1.00  0.00     0.031 A 
ATOM     45  C   UNL A   1      38.097  32.982  33.081  1.00  0.00     0.074 A 
ATOM     46  C   UNL A   1      38.200  31.384  31.196  1.00  0.00     0.049 A 
ATOM     47  N   UNL A   1      39.092  32.570  33.821  1.00  0.00    -0.248 NA
ATOM     48  C   UNL A   1      37.333  34.097  33.663  1.00  0.00     0.031 C 
ATOM     49  C   UNL A   1      37.803  30.778  29.925  1.00  0.00     0.029 A 
ATOM     50  N   UNL A   1      39.226  30.589  31.640  1.00  0.00    -0.354 N 
ATOM     51  C   UNL A   1      39.097  33.392  34.942  1.00  0.00     0.074 A 
ATOM     52  C   UNL A   1      38.005  34.330  34.782  1.00  0.00     0.031 C 
ATOM     53  C   UNL A   1      38.575  29.704  29.691  1.00  0.00     0.029 A 
ATOM     54  C   UNL A   1      39.556  29.580  30.765  1.00  0.00     0.049 A 
ATOM     55  H   UNL A   1      39.683  30.726  32.501  1.00  0.00     0.167 HD
ATOM     56  C   UNL A   1      39.937  33.361  36.004  1.00  0.00     0.037 A 
ATOM     57  C   UNL A   1      40.558  28.681  30.809  1.00  0.00     0.037 A 
ATOM     58  C   UNL A   1      41.002  32.405  36.161  1.00  0.00     0.049 A 
ATOM     59  C   UNL A   1      41.522  28.717  31.962  1.00  0.00     0.074 A 
ATOM     60  C   UNL A   1      41.880  32.263  37.222  1.00  0.00     0.029 A 
ATOM     61  N   UNL A   1      41.337  31.434  35.230  1.00  0.00    -0.354 N 
ATOM     62  N   UNL A   1      41.515  29.496  33.017  1.00  0.00    -0.248 NA
ATOM     63  C   UNL A   1      42.643  27.768  31.920  1.00  0.00     0.031 C 
ATOM     64  C   UNL A   1      42.775  31.232  36.910  1.00  0.00     0.029 A 
ATOM     65  C   UNL A   1      42.431  30.709  35.674  1.00  0.00     0.049 A 
ATOM     66  H   UNL A   1      40.867  31.281  34.379  1.00  0.00     0.167 HD
ATOM     67  C   UNL A   1      42.623  29.126  33.770  1.00  0.00     0.074 A 
ATOM     68  C   UNL A   1      43.270  28.044  33.056  1.00  0.00     0.031 C 
ATOM     69  C   UNL A   1      43.065  29.638  34.945  1.00  0.00     0.037 A 
BRANCH  56  70
ATOM     70  C   UNL A   1      39.761  34.415  37.059  1.00  0.00     0.058 A 
ATOM     71  C   UNL A   1      40.268  35.714  36.903  1.00  0.00     0.135 A 
ATOM     72  C   UNL A   1      39.050  34.125  38.235  1.00  0.00     0.135 A 
ATOM     73  F   UNL A   1      40.966  36.040  35.805  1.00  0.00    -0.206 F 
ATOM     74  C   UNL A   1      40.099  36.682  37.889  1.00  0.00     0.059 A 
ATOM     75  C   UNL A   1      38.852  35.084  39.225  1.00  0.00     0.059 A 
ATOM     76  F   UNL A   1      38.546  32.897  38.435  1.00  0.00    -0.206 F 
ATOM     77  C   UNL A   1      39.393  36.356  39.050  1.00  0.00     0.060 A 
BRANCH  77  78
ATOM     78  S   UNL A   1      39.187  37.617  40.324  1.00  0.00     0.124 S 
ATOM     79  O   UNL A   1      38.211  38.507  39.700  1.00  0.00    -0.237 OA
ATOM     80  O   UNL A   1      38.699  36.841  41.461  1.00  0.00    -0.237 OA
ATOM     81  O   UNL A   1      40.530  38.169  40.477  1.00  0.00    -0.744 OA
ENDBRANCH  77  78
ENDBRANCH  56  70
BRANCH  57  82
ATOM     82  C   UNL A   1      40.717  27.696  29.707  1.00  0.00     0.058 A 
ATOM     83  C   UNL A   1      39.813  26.637  29.552  1.00  0.00     0.135 A 
ATOM     84  C   UNL A   1      41.764  27.806  28.778  1.00  0.00     0.135 A 
ATOM     85  F   UNL A   1      38.804  26.484  30.423  1.00  0.00    -0.206 F 
ATOM     86  C   UNL A   1      39.939  25.718  28.515  1.00  0.00     0.059 A 
ATOM     87  C   UNL A   1      41.898  26.913  27.719  1.00  0.00     0.059 A 
ATOM     88  F   UNL A   1      42.651  28.807  28.878  1.00  0.00    -0.206 F 
ATOM     89  C   UNL A   1      40.984  25.867  27.601  1.00  0.00     0.060 A 
BRANCH  89  90
ATOM     90  S   UNL A   1      41.105  24.706  26.223  1.00  0.00     0.124 S 
ATOM     91  O   UNL A   1      42.399  24.084  26.477  1.00  0.00    -0.237 OA
ATOM     92  O   UNL A   1      39.937  23.857  26.430  1.00  0.00    -0.237 OA
ATOM     93  O   UNL A   1      41.040  25.572  25.048  1.00  0.00    -0.744 OA
ENDBRANCH  89  90
ENDBRANCH  57  82
BRANCH  69  94
ATOM     94  C   UNL A   1      44.304  29.031  35.539  1.00  0.00     0.058 A 
ATOM     95  C   UNL A   1      45.576  29.555  35.265  1.00  0.00     0.135 A 
ATOM     96  C   UNL A   1      44.212  27.959  36.440  1.00  0.00     0.135 A 
ATOM     97  F   UNL A   1      45.716  30.574  34.401  1.00  0.00    -0.206 F 
ATOM     98  C   UNL A   1      46.718  29.033  35.860  1.00  0.00     0.059 A 
ATOM     99  C   UNL A   1      45.341  27.433  37.063  1.00  0.00     0.059 A 
ATOM    100  F   UNL A   1      43.017  27.426  36.739  1.00  0.00    -0.206 F 
ATOM    101  C   UNL A   1      46.590  27.974  36.761  1.00  0.00     0.060 A 
BRANCH 101 102
ATOM    102  S   UNL A   1      48.074  27.339  37.571  1.00  0.00     0.124 S 
ATOM    103  O   UNL A   1      47.815  25.903  37.577  1.00  0.00    -0.237 OA
ATOM    104  O   UNL A   1      49.136  27.787  36.676  1.00  0.00    -0.237 OA
ATOM    105  O   UNL A   1      48.051  27.987  38.879  1.00  0.00    -0.744 OA
ENDBRANCH 101 102
ENDBRANCH  69  94
ENDBRANCH  43  44
ENDBRANCH  36  38
ENDBRANCH  35  36
ENDBRANCH  34  35
ENDBRANCH  33  34
ENDBRANCH  32  33
ENDBRANCH  30  32
ENDBRANCH   1  30
TORSDOF 24
ENDMDL
MODEL 3
REMARK VINA RESULT:     -10.4     10.035     16.116
REMARK SMILES CCCCCCNC(=O)Oc1cccc(-c2ccc([C@@H](C)C(=O)OCCOC(=O)c3ccc(-c4c5nc(c(-c6c(F)cc(S(=O)(=O)[O-])cc6F)c6ccc([nH]6)c(-c6c(F)cc(S(=O)(=O)[O-])cc6F)c6nc(c(-c7c(F)cc(S(=O)(=O)[O-])cc7F)c7ccc4[nH]7)C=C6)C=C5)cc3)cc2C(F)(F)F)c1
REMARK SMILES IDX 20 1 21 2 19 3 16 4 17 5 97 6 18 7 96 8 15 9 11 10 12 11
REMARK SMILES IDX 102 12 13 13 14 14 10 15 8 16 7 17 9 19 6 20 5 21 4 22 3 23
REMARK SMILES IDX 2 24 1 25 98 26 99 27 100 28 101 29 22 30 23 31 24 32 25 33
REMARK SMILES IDX 26 34 27 35 28 36 29 37 30 38 31 39 95 40 32 41 94 42 33 43
REMARK SMILES IDX 34 44 35 45 88 46 36 47 93 48 87 49 89 50 37 51 92 52 86 53
REMARK SMILES IDX 85 54 38 56 72 57 51 58 71 59 52 60 55 61 70 62 90 63 53 64
REMARK SMILES IDX 54 65 69 67 91 68 56 69 39 70 40 71 49 72 41 73 42 74 48 75
REMARK SMILES IDX 50 76 43 77 44 78 45 79 46 80 47 81 73 82 74 83 83 84 75 85
REMARK SMILES IDX 76 86 82 87 84 88 77 89 78 90 79 91 80 92 81 93 57 94 58 95
REMARK SMILES IDX 67 96 59 97 60 98 66 99 68 100 61 101 62 102 63 103 64 104
REMARK SMILES IDX 65 105
REMARK H PARENT 7 18 89 55 55 66
REMARK Flexibility Score: inf
ROOT
ATOM      1  C   UNL A   1      43.278  39.891  27.555  1.00  0.00     0.126 C 
ATOM      2  C   UNL A   1      41.901  40.171  28.150  1.00  0.00     0.025 C 
ENDROOT
BRANCH   1   3
ATOM      3  C   UNL A   1      43.637  40.866  26.442  1.00  0.00    -0.033 A 
ATOM      4  C   UNL A   1      44.235  42.701  24.345  1.00  0.00    -0.006 A 
ATOM      5  C   UNL A   1      45.201  42.327  25.299  1.00  0.00     0.009 A 
ATOM      6  C   UNL A   1      42.951  42.125  24.436  1.00  0.00     0.064 A 
ATOM      7  C   UNL A   1      44.914  41.417  26.319  1.00  0.00     0.005 A 
ATOM      8  C   UNL A   1      42.669  41.231  25.494  1.00  0.00     0.018 A 
BRANCH   4   9
ATOM      9  C   UNL A   1      44.622  43.651  23.285  1.00  0.00    -0.014 A 
ATOM     10  C   UNL A   1      45.456  44.142  21.063  1.00  0.00     0.133 A 
ATOM     11  C   UNL A   1      45.438  45.510  21.328  1.00  0.00     0.047 A 
ATOM     12  C   UNL A   1      45.051  43.213  22.023  1.00  0.00     0.056 A 
ATOM     13  C   UNL A   1      44.990  45.959  22.566  1.00  0.00     0.004 A 
ATOM     14  C   UNL A   1      44.590  45.037  23.537  1.00  0.00     0.009 A 
BRANCH  10  15
ATOM     15  O   UNL A   1      46.050  43.745  19.852  1.00  0.00    -0.410 OA
BRANCH  15  16
ATOM     16  C   UNL A   1      46.735  44.682  19.095  1.00  0.00     0.412 C 
ATOM     17  N   UNL A   1      46.004  45.150  18.037  1.00  0.00    -0.321 N 
ATOM     18  H   UNL A   1      46.439  45.822  17.464  1.00  0.00     0.167 HD
ATOM     19  O   UNL A   1      47.881  45.066  19.291  1.00  0.00    -0.224 OA
BRANCH  17  20
ATOM     20  C   UNL A   1      44.655  44.761  17.670  1.00  0.00     0.119 C 
BRANCH  20  21
ATOM     21  C   UNL A   1      43.654  45.903  17.826  1.00  0.00     0.021 C 
BRANCH  21  22
ATOM     22  C   UNL A   1      42.475  45.874  16.846  1.00  0.00     0.002 C 
BRANCH  22  23
ATOM     23  C   UNL A   1      41.303  44.970  17.243  1.00  0.00    -0.000 C 
BRANCH  23  24
ATOM     24  C   UNL A   1      41.068  44.815  18.747  1.00  0.00    -0.003 C 
ATOM     25  C   UNL A   1      41.456  43.443  19.278  1.00  0.00     0.004 C 
ENDBRANCH  23  24
ENDBRANCH  22  23
ENDBRANCH  21  22
ENDBRANCH  20  21
ENDBRANCH  17  20
ENDBRANCH  15  16
ENDBRANCH  10  15
ENDBRANCH   4   9
BRANCH   6  26
ATOM     26  C   UNL A   1      41.840  42.433  23.454  1.00  0.00     0.417 C 
ATOM     27  F   UNL A   1      41.795  43.758  23.118  1.00  0.00    -0.166 F 
ATOM     28  F   UNL A   1      41.975  41.764  22.277  1.00  0.00    -0.166 F 
ATOM     29  F   UNL A   1      40.588  42.153  23.913  1.00  0.00    -0.166 F 
ENDBRANCH   6  26
ENDBRANCH   1   3
BRANCH   1  30
ATOM     30  C   UNL A   1      43.413  38.408  27.223  1.00  0.00     0.313 C 
ATOM     31  O   UNL A   1      42.609  37.829  26.499  1.00  0.00    -0.252 OA
BRANCH  30  32
ATOM     32  O   UNL A   1      44.511  37.822  27.765  1.00  0.00    -0.462 OA
BRANCH  32  33
ATOM     33  C   UNL A   1      45.227  38.576  28.763  1.00  0.00     0.274 C 
BRANCH  33  34
ATOM     34  C   UNL A   1      46.731  38.562  28.483  1.00  0.00     0.275 C 
BRANCH  34  35
ATOM     35  O   UNL A   1      47.059  37.604  27.462  1.00  0.00    -0.458 OA
BRANCH  35  36
ATOM     36  C   UNL A   1      48.052  36.741  27.776  1.00  0.00     0.338 C 
ATOM     37  O   UNL A   1      49.189  37.008  28.121  1.00  0.00    -0.246 OA
BRANCH  36  38
ATOM     38  C   UNL A   1      47.522  35.372  27.753  1.00  0.00     0.060 A 
ATOM     39  C   UNL A   1      47.576  34.620  28.928  1.00  0.00     0.016 A 
ATOM     40  C   UNL A   1      47.039  34.814  26.570  1.00  0.00     0.016 A 
ATOM     41  C   UNL A   1      47.153  33.295  28.927  1.00  0.00     0.010 A 
ATOM     42  C   UNL A   1      46.598  33.488  26.574  1.00  0.00     0.010 A 
ATOM     43  C   UNL A   1      46.659  32.719  27.751  1.00  0.00    -0.014 A 
BRANCH  43  44
ATOM     44  C   UNL A   1      46.218  31.304  27.745  1.00  0.00     0.031 A 
ATOM     45  C   UNL A   1      47.202  30.215  27.432  1.00  0.00     0.074 A 
ATOM     46  C   UNL A   1      44.933  31.007  28.017  1.00  0.00     0.049 A 
ATOM     47  N   UNL A   1      46.990  28.936  27.262  1.00  0.00    -0.248 NA
ATOM     48  C   UNL A   1      48.610  30.618  27.291  1.00  0.00     0.031 C 
ATOM     49  C   UNL A   1      43.902  31.979  28.382  1.00  0.00     0.029 A 
ATOM     50  N   UNL A   1      44.276  29.804  28.022  1.00  0.00    -0.354 N 
ATOM     51  C   UNL A   1      48.230  28.384  26.963  1.00  0.00     0.074 A 
ATOM     52  C   UNL A   1      49.189  29.469  26.971  1.00  0.00     0.031 C 
ATOM     53  C   UNL A   1      42.741  31.334  28.579  1.00  0.00     0.029 A 
ATOM     54  C   UNL A   1      42.933  29.913  28.298  1.00  0.00     0.049 A 
ATOM     55  H   UNL A   1      44.721  28.944  27.846  1.00  0.00     0.167 HD
ATOM     56  C   UNL A   1      48.534  27.089  26.706  1.00  0.00     0.037 A 
ATOM     57  C   UNL A   1      41.962  28.980  28.290  1.00  0.00     0.037 A 
ATOM     58  C   UNL A   1      47.574  26.017  26.726  1.00  0.00     0.049 A 
ATOM     59  C   UNL A   1      42.313  27.563  27.928  1.00  0.00     0.074 A 
ATOM     60  C   UNL A   1      47.789  24.665  26.523  1.00  0.00     0.029 A 
ATOM     61  N   UNL A   1      46.215  26.176  26.957  1.00  0.00    -0.354 N 
ATOM     62  N   UNL A   1      43.488  27.052  27.649  1.00  0.00    -0.248 NA
ATOM     63  C   UNL A   1      41.204  26.601  27.856  1.00  0.00     0.031 C 
ATOM     64  C   UNL A   1      46.552  24.012  26.587  1.00  0.00     0.029 A 
ATOM     65  C   UNL A   1      45.573  24.952  26.868  1.00  0.00     0.049 A 
ATOM     66  H   UNL A   1      45.772  27.032  27.156  1.00  0.00     0.167 HD
ATOM     67  C   UNL A   1      43.264  25.708  27.379  1.00  0.00     0.074 A 
ATOM     68  C   UNL A   1      41.841  25.482  27.540  1.00  0.00     0.031 C 
ATOM     69  C   UNL A   1      44.154  24.748  27.026  1.00  0.00     0.037 A 
BRANCH  56  70
ATOM     70  C   UNL A   1      49.955  26.768  26.343  1.00  0.00     0.058 A 
ATOM     71  C   UNL A   1      50.908  26.415  27.311  1.00  0.00     0.135 A 
ATOM     72  C   UNL A   1      50.363  26.790  24.999  1.00  0.00     0.135 A 
ATOM     73  F   UNL A   1      50.574  26.393  28.610  1.00  0.00    -0.206 F 
ATOM     74  C   UNL A   1      52.223  26.120  26.962  1.00  0.00     0.059 A 
ATOM     75  C   UNL A   1      51.668  26.478  24.625  1.00  0.00     0.059 A 
ATOM     76  F   UNL A   1      49.492  27.122  24.034  1.00  0.00    -0.206 F 
ATOM     77  C   UNL A   1      52.595  26.159  25.615  1.00  0.00     0.060 A 
BRANCH  77  78
ATOM     78  S   UNL A   1      54.304  25.782  25.176  1.00  0.00     0.124 S 
ATOM     79  O   UNL A   1      55.006  26.130  26.410  1.00  0.00    -0.237 OA
ATOM     80  O   UNL A   1      54.243  24.358  24.863  1.00  0.00    -0.237 OA
ATOM     81  O   UNL A   1      54.565  26.660  24.039  1.00  0.00    -0.744 OA
ENDBRANCH  77  78
ENDBRANCH  56  70
BRANCH  57  82
ATOM     82  C   UNL A   1      40.562  29.366  28.603  1.00  0.00     0.058 A 
ATOM     83  C   UNL A   1      39.611  29.519  27.586  1.00  0.00     0.135 A 
ATOM     84  C   UNL A   1      40.142  29.570  29.928  1.00  0.00     0.135 A 
ATOM     85  F   UNL A   1      39.969  29.347  26.304  1.00  0.00    -0.206 F 
ATOM     86  C   UNL A   1      38.292  29.863  27.865  1.00  0.00     0.059 A 
ATOM     87  C   UNL A   1      38.824  29.893  30.236  1.00  0.00     0.059 A 
ATOM     88  F   UNL A   1      41.012  29.427  30.939  1.00  0.00    -0.206 F 
ATOM     89  C   UNL A   1      37.907  30.044  29.195  1.00  0.00     0.060 A 
BRANCH  89  90
ATOM     90  S   UNL A   1      36.180  30.430  29.555  1.00  0.00     0.124 S 
ATOM     91  O   UNL A   1      35.483  29.510  28.664  1.00  0.00    -0.237 OA
ATOM     92  O   UNL A   1      36.087  30.133  30.980  1.00  0.00    -0.237 OA
ATOM     93  O   UNL A   1      36.074  31.846  29.210  1.00  0.00    -0.744 OA
ENDBRANCH  89  90
ENDBRANCH  57  82
BRANCH  69  94
ATOM     94  C   UNL A   1      43.621  23.363  26.797  1.00  0.00     0.058 A 
ATOM     95  C   UNL A   1      43.533  22.820  25.506  1.00  0.00     0.135 A 
ATOM     96  C   UNL A   1      43.256  22.550  27.880  1.00  0.00     0.135 A 
ATOM     97  F   UNL A   1      43.860  23.563  24.436  1.00  0.00    -0.206 F 
ATOM     98  C   UNL A   1      43.095  21.517  25.297  1.00  0.00     0.059 A 
ATOM     99  C   UNL A   1      42.834  21.236  27.696  1.00  0.00     0.059 A 
ATOM    100  F   UNL A   1      43.327  23.022  29.135  1.00  0.00    -0.206 F 
ATOM    101  C   UNL A   1      42.752  20.731  26.399  1.00  0.00     0.060 A 
BRANCH 101 102
ATOM    102  S   UNL A   1      42.238  19.023  26.119  1.00  0.00     0.124 S 
ATOM    103  O   UNL A   1      40.792  19.168  25.986  1.00  0.00    -0.237 OA
ATOM    104  O   UNL A   1      42.954  18.675  24.896  1.00  0.00    -0.237 OA
ATOM    105  O   UNL A   1      42.692  18.331  27.322  1.00  0.00    -0.744 OA
ENDBRANCH 101 102
ENDBRANCH  69  94
ENDBRANCH  43  44
ENDBRANCH  36  38
ENDBRANCH  35  36
ENDBRANCH  34  35
ENDBRANCH  33  34
ENDBRANCH  32  33
ENDBRANCH  30  32
ENDBRANCH   1  30
TORSDOF 24
ENDMDL
