MODEL 1
REMARK VINA RESULT:     -11.4      0.000      0.000
REMARK SMILES NS(=O)(=O)c1ccc(/N=C/c2ccc(O)c(C(=O)OCCOC(=O)c3ccc(-c4c5nc(c(-c6c(F)cc(S(=O)(=O)[O-])cc6F)c6ccc([nH]6)c(-c6c(F)cc(S(=O)(=O)[O-])cc6F)c6nc(c(-c7c(F)cc(S(=O)(=O)[O-])cc7F)c7ccc4[nH]7)C=C6)C=C5)cc3)c2)cc1
REMARK SMILES IDX 20 1 19 2 17 3 18 4 16 5 11 6 12 7 91 8 13 9 14 10 10 11
REMARK SMILES IDX 9 12 8 13 5 14 6 15 93 16 7 17 92 18 2 19 3 20 4 21 1 22
REMARK SMILES IDX 15 25 21 27 22 28 23 29 24 30 25 31 26 32 90 33 27 34 89 35
REMARK SMILES IDX 28 36 29 37 30 38 83 39 31 40 88 41 82 42 84 43 32 44 87 45
REMARK SMILES IDX 81 46 80 47 33 49 67 50 46 51 66 52 47 53 50 54 65 55 85 56
REMARK SMILES IDX 48 57 49 58 64 60 86 61 51 62 34 63 35 64 44 65 36 66 37 67
REMARK SMILES IDX 43 68 45 69 38 70 39 71 40 72 41 73 42 74 68 75 69 76 78 77
REMARK SMILES IDX 70 78 71 79 77 80 79 81 72 82 73 83 74 84 75 85 76 86 52 87
REMARK SMILES IDX 53 88 62 89 54 90 55 91 61 92 63 93 56 94 57 95 58 96 59 97
REMARK SMILES IDX 60 98
REMARK H PARENT 1 23 1 24 15 26 84 48 50 59
REMARK Flexibility Score: inf
ROOT
ATOM      1  C   UNL A   1      41.070  20.014  27.053  1.00  0.00     0.275 C 
ENDROOT
BRANCH   1   2
ATOM      2  O   UNL A   1      41.639  19.810  25.743  1.00  0.00    -0.458 OA
BRANCH   2   3
ATOM      3  C   UNL A   1      42.728  19.008  25.676  1.00  0.00     0.342 C 
ATOM      4  O   UNL A   1      42.752  17.788  25.762  1.00  0.00    -0.246 OA
BRANCH   3   5
ATOM      5  C   UNL A   1      43.946  19.786  25.363  1.00  0.00     0.102 A 
ATOM      6  C   UNL A   1      45.090  21.872  24.964  1.00  0.00    -0.006 A 
ATOM      7  C   UNL A   1      46.278  21.188  24.687  1.00  0.00     0.013 A 
ATOM      8  C   UNL A   1      43.907  21.178  25.243  1.00  0.00     0.029 A 
ATOM      9  C   UNL A   1      46.319  19.805  24.829  1.00  0.00     0.048 A 
ATOM     10  C   UNL A   1      45.176  19.124  25.238  1.00  0.00     0.130 A 
BRANCH   6  11
ATOM     11  C   UNL A   1      45.167  23.336  25.119  1.00  0.00     0.119 C 
ATOM     12  N   UNL A   1      44.608  23.936  26.119  1.00  0.00    -0.256 NA
BRANCH  12  13
ATOM     13  C   UNL A   1      44.845  25.304  26.322  1.00  0.00     0.063 A 
ATOM     14  C   UNL A   1      45.242  28.070  26.556  1.00  0.00     0.082 A 
ATOM     15  C   UNL A   1      44.293  27.583  25.657  1.00  0.00     0.024 A 
ATOM     16  C   UNL A   1      45.990  27.191  27.341  1.00  0.00     0.024 A 
ATOM     17  C   UNL A   1      44.102  26.204  25.547  1.00  0.00     0.030 A 
ATOM     18  C   UNL A   1      45.795  25.812  27.216  1.00  0.00     0.030 A 
BRANCH  14  19
ATOM     19  S   UNL A   1      45.578  29.801  26.659  1.00  0.00     0.238 S 
ATOM     20  O   UNL A   1      46.248  30.219  25.445  1.00  0.00    -0.207 OA
ATOM     21  O   UNL A   1      46.087  30.099  27.973  1.00  0.00    -0.207 OA
BRANCH  19  22
ATOM     22  N   UNL A   1      44.057  30.514  26.573  1.00  0.00    -0.225 NA
ATOM     23  H   UNL A   1      43.562  30.368  27.454  1.00  0.00     0.137 HD
ATOM     24  H   UNL A   1      43.527  30.092  25.811  1.00  0.00     0.137 HD
ENDBRANCH  19  22
ENDBRANCH  14  19
ENDBRANCH  12  13
ENDBRANCH   6  11
BRANCH  10  25
ATOM     25  O   UNL A   1      45.359  17.807  25.562  1.00  0.00    -0.507 OA
ATOM     26  H   UNL A   1      45.816  17.577  26.347  1.00  0.00     0.293 HD
ENDBRANCH  10  25
ENDBRANCH   3   5
ENDBRANCH   2   3
ENDBRANCH   1   2
BRANCH   1  27
ATOM     27  C   UNL A   1      40.809  21.496  27.316  1.00  0.00     0.275 C 
BRANCH  27  28
ATOM     28  O   UNL A   1      40.544  22.177  26.078  1.00  0.00    -0.458 OA
BRANCH  28  29
ATOM     29  C   UNL A   1      39.353  22.814  26.003  1.00  0.00     0.338 C 
ATOM     30  O   UNL A   1      38.329  22.415  25.477  1.00  0.00    -0.246 OA
BRANCH  29  31
ATOM     31  C   UNL A   1      39.445  24.100  26.710  1.00  0.00     0.060 A 
ATOM     32  C   UNL A   1      40.297  25.076  26.206  1.00  0.00     0.016 A 
ATOM     33  C   UNL A   1      38.810  24.290  27.932  1.00  0.00     0.016 A 
ATOM     34  C   UNL A   1      40.600  26.209  26.958  1.00  0.00     0.010 A 
ATOM     35  C   UNL A   1      39.034  25.476  28.641  1.00  0.00     0.010 A 
ATOM     36  C   UNL A   1      39.963  26.433  28.183  1.00  0.00    -0.014 A 
BRANCH  36  37
ATOM     37  C   UNL A   1      40.297  27.615  29.032  1.00  0.00     0.031 A 
ATOM     38  C   UNL A   1      41.582  27.619  29.819  1.00  0.00     0.074 A 
ATOM     39  C   UNL A   1      39.468  28.676  29.122  1.00  0.00     0.049 A 
ATOM     40  N   UNL A   1      41.935  28.364  30.834  1.00  0.00    -0.248 NA
ATOM     41  C   UNL A   1      42.597  26.631  29.418  1.00  0.00     0.031 C 
ATOM     42  C   UNL A   1      38.240  28.868  28.350  1.00  0.00     0.029 A 
ATOM     43  N   UNL A   1      39.535  29.796  29.916  1.00  0.00    -0.354 N 
ATOM     44  C   UNL A   1      43.172  27.879  31.248  1.00  0.00     0.074 A 
ATOM     45  C   UNL A   1      43.512  26.784  30.364  1.00  0.00     0.031 C 
ATOM     46  C   UNL A   1      37.691  30.047  28.679  1.00  0.00     0.029 A 
ATOM     47  C   UNL A   1      38.462  30.643  29.764  1.00  0.00     0.049 A 
ATOM     48  H   UNL A   1      40.282  29.976  30.533  1.00  0.00     0.167 HD
ATOM     49  C   UNL A   1      43.942  28.301  32.280  1.00  0.00     0.037 A 
ATOM     50  C   UNL A   1      38.102  31.741  30.457  1.00  0.00     0.037 A 
ATOM     51  C   UNL A   1      43.618  29.435  33.107  1.00  0.00     0.049 A 
ATOM     52  C   UNL A   1      38.937  32.170  31.632  1.00  0.00     0.074 A 
ATOM     53  C   UNL A   1      44.322  29.953  34.180  1.00  0.00     0.029 A 
ATOM     54  N   UNL A   1      42.500  30.243  32.937  1.00  0.00    -0.354 N 
ATOM     55  N   UNL A   1      40.047  31.642  32.088  1.00  0.00    -0.248 NA
ATOM     56  C   UNL A   1      38.454  33.323  32.406  1.00  0.00     0.031 C 
ATOM     57  C   UNL A   1      43.614  31.052  34.678  1.00  0.00     0.029 A 
ATOM     58  C   UNL A   1      42.492  31.248  33.888  1.00  0.00     0.049 A 
ATOM     59  H   UNL A   1      41.815  30.117  32.241  1.00  0.00     0.167 HD
ATOM     60  C   UNL A   1      40.410  32.411  33.187  1.00  0.00     0.074 A 
ATOM     61  C   UNL A   1      39.400  33.440  33.330  1.00  0.00     0.031 C 
ATOM     62  C   UNL A   1      41.488  32.278  34.000  1.00  0.00     0.037 A 
BRANCH  49  63
ATOM     63  C   UNL A   1      45.168  27.491  32.608  1.00  0.00     0.058 A 
ATOM     64  C   UNL A   1      45.143  26.411  33.504  1.00  0.00     0.135 A 
ATOM     65  C   UNL A   1      46.403  27.822  32.023  1.00  0.00     0.135 A 
ATOM     66  F   UNL A   1      43.994  26.056  34.102  1.00  0.00    -0.206 F 
ATOM     67  C   UNL A   1      46.304  25.729  33.856  1.00  0.00     0.059 A 
ATOM     68  C   UNL A   1      47.572  27.134  32.336  1.00  0.00     0.059 A 
ATOM     69  F   UNL A   1      46.487  28.840  31.151  1.00  0.00    -0.206 F 
ATOM     70  C   UNL A   1      47.518  26.108  33.276  1.00  0.00     0.060 A 
BRANCH  70  71
ATOM     71  S   UNL A   1      49.028  25.259  33.783  1.00  0.00     0.124 S 
ATOM     72  O   UNL A   1      49.652  26.264  34.639  1.00  0.00    -0.237 OA
ATOM     73  O   UNL A   1      48.512  24.077  34.469  1.00  0.00    -0.237 OA
ATOM     74  O   UNL A   1      49.711  24.998  32.521  1.00  0.00    -0.744 OA
ENDBRANCH  70  71
ENDBRANCH  49  63
BRANCH  50  75
ATOM     75  C   UNL A   1      36.874  32.486  30.068  1.00  0.00     0.058 A 
ATOM     76  C   UNL A   1      35.671  32.297  30.765  1.00  0.00     0.135 A 
ATOM     77  C   UNL A   1      36.890  33.446  29.044  1.00  0.00     0.135 A 
ATOM     78  F   UNL A   1      35.599  31.379  31.742  1.00  0.00    -0.206 F 
ATOM     79  C   UNL A   1      34.535  33.044  30.473  1.00  0.00     0.059 A 
ATOM     80  C   UNL A   1      35.775  34.224  28.751  1.00  0.00     0.059 A 
ATOM     81  F   UNL A   1      38.019  33.669  28.351  1.00  0.00    -0.206 F 
ATOM     82  C   UNL A   1      34.601  34.016  29.472  1.00  0.00     0.060 A 
BRANCH  82  83
ATOM     83  S   UNL A   1      33.150  35.051  29.172  1.00  0.00     0.124 S 
ATOM     84  O   UNL A   1      32.489  35.016  30.471  1.00  0.00    -0.237 OA
ATOM     85  O   UNL A   1      33.756  36.326  28.797  1.00  0.00    -0.237 OA
ATOM     86  O   UNL A   1      32.459  34.353  28.091  1.00  0.00    -0.744 OA
ENDBRANCH  82  83
ENDBRANCH  50  75
BRANCH  62  87
ATOM     87  C   UNL A   1      41.673  33.302  35.082  1.00  0.00     0.058 A 
ATOM     88  C   UNL A   1      42.176  34.583  34.810  1.00  0.00     0.135 A 
ATOM     89  C   UNL A   1      41.251  33.024  36.392  1.00  0.00     0.135 A 
ATOM     90  F   UNL A   1      42.602  34.893  33.574  1.00  0.00    -0.206 F 
ATOM     91  C   UNL A   1      42.251  35.556  35.800  1.00  0.00     0.059 A 
ATOM     92  C   UNL A   1      41.299  33.988  37.393  1.00  0.00     0.059 A 
ATOM     93  F   UNL A   1      40.759  31.814  36.700  1.00  0.00    -0.206 F 
ATOM     94  C   UNL A   1      41.801  35.252  37.087  1.00  0.00     0.060 A 
BRANCH  94  95
ATOM     95  S   UNL A   1      41.829  36.547  38.345  1.00  0.00     0.124 S 
ATOM     96  O   UNL A   1      40.552  37.214  38.109  1.00  0.00    -0.237 OA
ATOM     97  O   UNL A   1      41.923  35.780  39.583  1.00  0.00    -0.237 OA
ATOM     98  O   UNL A   1      43.017  37.325  38.007  1.00  0.00    -0.744 OA
ENDBRANCH  94  95
ENDBRANCH  62  87
ENDBRANCH  36  37
ENDBRANCH  29  31
ENDBRANCH  28  29
ENDBRANCH  27  28
ENDBRANCH   1  27
TORSDOF 19
ENDMDL
MODEL 2
REMARK VINA RESULT:     -11.4      1.183      2.124
REMARK SMILES NS(=O)(=O)c1ccc(/N=C/c2ccc(O)c(C(=O)OCCOC(=O)c3ccc(-c4c5nc(c(-c6c(F)cc(S(=O)(=O)[O-])cc6F)c6ccc([nH]6)c(-c6c(F)cc(S(=O)(=O)[O-])cc6F)c6nc(c(-c7c(F)cc(S(=O)(=O)[O-])cc7F)c7ccc4[nH]7)C=C6)C=C5)cc3)c2)cc1
REMARK SMILES IDX 20 1 19 2 17 3 18 4 16 5 11 6 12 7 91 8 13 9 14 10 10 11
REMARK SMILES IDX 9 12 8 13 5 14 6 15 93 16 7 17 92 18 2 19 3 20 4 21 1 22
REMARK SMILES IDX 15 25 21 27 22 28 23 29 24 30 25 31 26 32 90 33 27 34 89 35
REMARK SMILES IDX 28 36 29 37 30 38 83 39 31 40 88 41 82 42 84 43 32 44 87 45
REMARK SMILES IDX 81 46 80 47 33 49 67 50 46 51 66 52 47 53 50 54 65 55 85 56
REMARK SMILES IDX 48 57 49 58 64 60 86 61 51 62 34 63 35 64 44 65 36 66 37 67
REMARK SMILES IDX 43 68 45 69 38 70 39 71 40 72 41 73 42 74 68 75 69 76 78 77
REMARK SMILES IDX 70 78 71 79 77 80 79 81 72 82 73 83 74 84 75 85 76 86 52 87
REMARK SMILES IDX 53 88 62 89 54 90 55 91 61 92 63 93 56 94 57 95 58 96 59 97
REMARK SMILES IDX 60 98
REMARK H PARENT 1 23 1 24 15 26 84 48 50 59
REMARK Flexibility Score: inf
ROOT
ATOM      1  C   UNL A   1      41.960  20.065  26.386  1.00  0.00     0.275 C 
ENDROOT
BRANCH   1   2
ATOM      2  O   UNL A   1      43.079  20.976  26.407  1.00  0.00    -0.458 OA
BRANCH   2   3
ATOM      3  C   UNL A   1      43.908  20.937  25.337  1.00  0.00     0.342 C 
ATOM      4  O   UNL A   1      43.992  20.047  24.502  1.00  0.00    -0.246 OA
BRANCH   3   5
ATOM      5  C   UNL A   1      44.671  22.197  25.206  1.00  0.00     0.102 A 
ATOM      6  C   UNL A   1      44.978  24.550  25.641  1.00  0.00    -0.006 A 
ATOM      7  C   UNL A   1      46.129  24.564  24.848  1.00  0.00     0.013 A 
ATOM      8  C   UNL A   1      44.210  23.387  25.777  1.00  0.00     0.029 A 
ATOM      9  C   UNL A   1      46.597  23.374  24.300  1.00  0.00     0.048 A 
ATOM     10  C   UNL A   1      45.908  22.190  24.545  1.00  0.00     0.130 A 
BRANCH   6  11
ATOM     11  C   UNL A   1      44.699  25.744  26.459  1.00  0.00     0.119 C 
ATOM     12  N   UNL A   1      45.313  26.862  26.248  1.00  0.00    -0.256 NA
BRANCH  12  13
ATOM     13  C   UNL A   1      44.902  28.014  26.934  1.00  0.00     0.063 A 
ATOM     14  C   UNL A   1      44.208  30.278  28.438  1.00  0.00     0.082 A 
ATOM     15  C   UNL A   1      45.453  29.678  28.628  1.00  0.00     0.024 A 
ATOM     16  C   UNL A   1      43.309  29.761  27.502  1.00  0.00     0.024 A 
ATOM     17  C   UNL A   1      45.790  28.552  27.874  1.00  0.00     0.030 A 
ATOM     18  C   UNL A   1      43.656  28.629  26.759  1.00  0.00     0.030 A 
BRANCH  14  19
ATOM     19  S   UNL A   1      43.707  31.647  29.434  1.00  0.00     0.238 S 
ATOM     20  O   UNL A   1      43.606  32.822  28.594  1.00  0.00    -0.207 OA
ATOM     21  O   UNL A   1      44.458  31.629  30.662  1.00  0.00    -0.207 OA
BRANCH  19  22
ATOM     22  N   UNL A   1      42.119  31.284  29.851  1.00  0.00    -0.225 NA
ATOM     23  H   UNL A   1      41.481  31.771  29.221  1.00  0.00     0.137 HD
ATOM     24  H   UNL A   1      41.943  31.582  30.810  1.00  0.00     0.137 HD
ENDBRANCH  19  22
ENDBRANCH  14  19
ENDBRANCH  12  13
ENDBRANCH   6  11
BRANCH  10  25
ATOM     25  O   UNL A   1      46.549  21.045  24.158  1.00  0.00    -0.507 OA
ATOM     26  H   UNL A   1      47.448  20.910  24.387  1.00  0.00     0.293 HD
ENDBRANCH  10  25
ENDBRANCH   3   5
ENDBRANCH   2   3
ENDBRANCH   1   2
BRANCH   1  27
ATOM     27  C   UNL A   1      40.652  20.791  26.699  1.00  0.00     0.275 C 
BRANCH  27  28
ATOM     28  O   UNL A   1      40.720  22.150  26.234  1.00  0.00    -0.458 OA
BRANCH  28  29
ATOM     29  C   UNL A   1      39.532  22.785  26.106  1.00  0.00     0.338 C 
ATOM     30  O   UNL A   1      38.532  22.383  25.537  1.00  0.00    -0.246 OA
BRANCH  29  31
ATOM     31  C   UNL A   1      39.592  24.074  26.812  1.00  0.00     0.060 A 
ATOM     32  C   UNL A   1      40.330  25.108  26.248  1.00  0.00     0.016 A 
ATOM     33  C   UNL A   1      39.046  24.217  28.083  1.00  0.00     0.016 A 
ATOM     34  C   UNL A   1      40.612  26.258  26.981  1.00  0.00     0.010 A 
ATOM     35  C   UNL A   1      39.244  25.414  28.780  1.00  0.00     0.010 A 
ATOM     36  C   UNL A   1      40.063  26.435  28.255  1.00  0.00    -0.014 A 
BRANCH  36  37
ATOM     37  C   UNL A   1      40.382  27.636  29.083  1.00  0.00     0.031 A 
ATOM     38  C   UNL A   1      41.658  27.664  29.884  1.00  0.00     0.074 A 
ATOM     39  C   UNL A   1      39.547  28.694  29.142  1.00  0.00     0.049 A 
ATOM     40  N   UNL A   1      41.996  28.431  30.887  1.00  0.00    -0.248 NA
ATOM     41  C   UNL A   1      42.682  26.672  29.515  1.00  0.00     0.031 C 
ATOM     42  C   UNL A   1      38.327  28.864  28.352  1.00  0.00     0.029 A 
ATOM     43  N   UNL A   1      39.600  29.831  29.913  1.00  0.00    -0.354 N 
ATOM     44  C   UNL A   1      43.231  27.961  31.325  1.00  0.00     0.074 A 
ATOM     45  C   UNL A   1      43.586  26.850  30.467  1.00  0.00     0.031 C 
ATOM     46  C   UNL A   1      37.768  30.046  28.651  1.00  0.00     0.029 A 
ATOM     47  C   UNL A   1      38.524  30.669  29.732  1.00  0.00     0.049 A 
ATOM     48  H   UNL A   1      40.338  30.028  30.534  1.00  0.00     0.167 HD
ATOM     49  C   UNL A   1      43.987  28.410  32.356  1.00  0.00     0.037 A 
ATOM     50  C   UNL A   1      38.151  31.779  30.397  1.00  0.00     0.037 A 
ATOM     51  C   UNL A   1      43.648  29.559  33.155  1.00  0.00     0.049 A 
ATOM     52  C   UNL A   1      38.970  32.237  31.571  1.00  0.00     0.074 A 
ATOM     53  C   UNL A   1      44.338  30.102  34.224  1.00  0.00     0.029 A 
ATOM     54  N   UNL A   1      42.529  30.356  32.956  1.00  0.00    -0.354 N 
ATOM     55  N   UNL A   1      40.077  31.725  32.051  1.00  0.00    -0.248 NA
ATOM     56  C   UNL A   1      38.473  33.403  32.316  1.00  0.00     0.031 C 
ATOM     57  C   UNL A   1      43.619  31.208  34.692  1.00  0.00     0.029 A 
ATOM     58  C   UNL A   1      42.505  31.382  33.886  1.00  0.00     0.049 A 
ATOM     59  H   UNL A   1      41.851  30.213  32.256  1.00  0.00     0.167 HD
ATOM     60  C   UNL A   1      40.425  32.518  33.137  1.00  0.00     0.074 A 
ATOM     61  C   UNL A   1      39.408  33.545  33.248  1.00  0.00     0.031 C 
ATOM     62  C   UNL A   1      41.494  32.408  33.965  1.00  0.00     0.037 A 
BRANCH  49  63
ATOM     63  C   UNL A   1      45.214  27.612  32.714  1.00  0.00     0.058 A 
ATOM     64  C   UNL A   1      46.486  27.914  32.203  1.00  0.00     0.135 A 
ATOM     65  C   UNL A   1      45.103  26.506  33.573  1.00  0.00     0.135 A 
ATOM     66  F   UNL A   1      46.650  28.953  31.368  1.00  0.00    -0.206 F 
ATOM     67  C   UNL A   1      47.591  27.114  32.481  1.00  0.00     0.059 A 
ATOM     68  C   UNL A   1      46.200  25.709  33.890  1.00  0.00     0.059 A 
ATOM     69  F   UNL A   1      43.913  26.174  34.100  1.00  0.00    -0.206 F 
ATOM     70  C   UNL A   1      47.434  26.004  33.316  1.00  0.00     0.060 A 
BRANCH  70  71
ATOM     71  S   UNL A   1      48.857  24.937  33.623  1.00  0.00     0.124 S 
ATOM     72  O   UNL A   1      49.552  25.675  34.673  1.00  0.00    -0.237 OA
ATOM     73  O   UNL A   1      48.230  23.685  34.040  1.00  0.00    -0.237 OA
ATOM     74  O   UNL A   1      49.535  24.894  32.332  1.00  0.00    -0.744 OA
ENDBRANCH  70  71
ENDBRANCH  49  63
BRANCH  50  75
ATOM     75  C   UNL A   1      36.923  32.509  29.979  1.00  0.00     0.058 A 
ATOM     76  C   UNL A   1      35.687  32.236  30.583  1.00  0.00     0.135 A 
ATOM     77  C   UNL A   1      36.969  33.537  29.023  1.00  0.00     0.135 A 
ATOM     78  F   UNL A   1      35.587  31.252  31.490  1.00  0.00    -0.206 F 
ATOM     79  C   UNL A   1      34.545  32.965  30.268  1.00  0.00     0.059 A 
ATOM     80  C   UNL A   1      35.846  34.297  28.710  1.00  0.00     0.059 A 
ATOM     81  F   UNL A   1      38.129  33.842  28.420  1.00  0.00    -0.206 F 
ATOM     82  C   UNL A   1      34.638  34.004  29.339  1.00  0.00     0.060 A 
BRANCH  82  83
ATOM     83  S   UNL A   1      33.173  35.010  29.014  1.00  0.00     0.124 S 
ATOM     84  O   UNL A   1      33.768  36.248  28.525  1.00  0.00    -0.237 OA
ATOM     85  O   UNL A   1      32.464  34.206  28.022  1.00  0.00    -0.237 OA
ATOM     86  O   UNL A   1      32.526  35.092  30.320  1.00  0.00    -0.744 OA
ENDBRANCH  82  83
ENDBRANCH  50  75
BRANCH  62  87
ATOM     87  C   UNL A   1      41.662  33.456  35.027  1.00  0.00     0.058 A 
ATOM     88  C   UNL A   1      41.194  33.265  36.335  1.00  0.00     0.135 A 
ATOM     89  C   UNL A   1      42.388  34.626  34.750  1.00  0.00     0.135 A 
ATOM     90  F   UNL A   1      40.486  32.167  36.646  1.00  0.00    -0.206 F 
ATOM     91  C   UNL A   1      41.442  34.198  37.335  1.00  0.00     0.059 A 
ATOM     92  C   UNL A   1      42.665  35.562  35.740  1.00  0.00     0.059 A 
ATOM     93  F   UNL A   1      42.861  34.851  33.515  1.00  0.00    -0.206 F 
ATOM     94  C   UNL A   1      42.186  35.340  37.030  1.00  0.00     0.060 A 
BRANCH  94  95
ATOM     95  S   UNL A   1      42.571  36.506  38.355  1.00  0.00     0.124 S 
ATOM     96  O   UNL A   1      43.630  37.304  37.747  1.00  0.00    -0.237 OA
ATOM     97  O   UNL A   1      41.296  37.189  38.551  1.00  0.00    -0.237 OA
ATOM     98  O   UNL A   1      42.987  35.643  39.457  1.00  0.00    -0.744 OA
ENDBRANCH  94  95
ENDBRANCH  62  87
ENDBRANCH  36  37
ENDBRANCH  29  31
ENDBRANCH  28  29
ENDBRANCH  27  28
ENDBRANCH   1  27
TORSDOF 19
ENDMDL
MODEL 3
REMARK VINA RESULT:     -11.3      3.823     11.891
REMARK SMILES NS(=O)(=O)c1ccc(/N=C/c2ccc(O)c(C(=O)OCCOC(=O)c3ccc(-c4c5nc(c(-c6c(F)cc(S(=O)(=O)[O-])cc6F)c6ccc([nH]6)c(-c6c(F)cc(S(=O)(=O)[O-])cc6F)c6nc(c(-c7c(F)cc(S(=O)(=O)[O-])cc7F)c7ccc4[nH]7)C=C6)C=C5)cc3)c2)cc1
REMARK SMILES IDX 20 1 19 2 17 3 18 4 16 5 11 6 12 7 91 8 13 9 14 10 10 11
REMARK SMILES IDX 9 12 8 13 5 14 6 15 93 16 7 17 92 18 2 19 3 20 4 21 1 22
REMARK SMILES IDX 15 25 21 27 22 28 23 29 24 30 25 31 26 32 90 33 27 34 89 35
REMARK SMILES IDX 28 36 29 37 30 38 83 39 31 40 88 41 82 42 84 43 32 44 87 45
REMARK SMILES IDX 81 46 80 47 33 49 67 50 46 51 66 52 47 53 50 54 65 55 85 56
REMARK SMILES IDX 48 57 49 58 64 60 86 61 51 62 34 63 35 64 44 65 36 66 37 67
REMARK SMILES IDX 43 68 45 69 38 70 39 71 40 72 41 73 42 74 68 75 69 76 78 77
REMARK SMILES IDX 70 78 71 79 77 80 79 81 72 82 73 83 74 84 75 85 76 86 52 87
REMARK SMILES IDX 53 88 62 89 54 90 55 91 61 92 63 93 56 94 57 95 58 96 59 97
REMARK SMILES IDX 60 98
REMARK H PARENT 1 23 1 24 15 26 84 48 50 59
REMARK Flexibility Score: inf
ROOT
ATOM      1  C   UNL A   1      34.601  34.065  30.103  1.00  0.00     0.275 C 
ENDROOT
BRANCH   1   2
ATOM      2  O   UNL A   1      35.185  33.404  31.244  1.00  0.00    -0.458 OA
BRANCH   2   3
ATOM      3  C   UNL A   1      34.580  33.613  32.438  1.00  0.00     0.342 C 
ATOM      4  O   UNL A   1      33.404  33.889  32.629  1.00  0.00    -0.246 OA
BRANCH   3   5
ATOM      5  C   UNL A   1      35.508  33.354  33.560  1.00  0.00     0.102 A 
ATOM      6  C   UNL A   1      37.370  32.183  34.550  1.00  0.00    -0.006 A 
ATOM      7  C   UNL A   1      37.178  32.863  35.757  1.00  0.00     0.013 A 
ATOM      8  C   UNL A   1      36.504  32.378  33.467  1.00  0.00     0.029 A 
ATOM      9  C   UNL A   1      36.201  33.849  35.838  1.00  0.00     0.048 A 
ATOM     10  C   UNL A   1      35.426  34.140  34.719  1.00  0.00     0.130 A 
BRANCH   6  11
ATOM     11  C   UNL A   1      38.605  31.392  34.402  1.00  0.00     0.119 C 
ATOM     12  N   UNL A   1      38.694  30.443  33.528  1.00  0.00    -0.256 NA
BRANCH  12  13
ATOM     13  C   UNL A   1      39.935  29.828  33.303  1.00  0.00     0.063 A 
ATOM     14  C   UNL A   1      42.494  28.770  32.861  1.00  0.00     0.082 A 
ATOM     15  C   UNL A   1      42.360  30.030  33.445  1.00  0.00     0.024 A 
ATOM     16  C   UNL A   1      41.365  28.032  32.501  1.00  0.00     0.024 A 
ATOM     17  C   UNL A   1      41.081  30.548  33.662  1.00  0.00     0.030 A 
ATOM     18  C   UNL A   1      40.091  28.566  32.716  1.00  0.00     0.030 A 
BRANCH  14  19
ATOM     19  S   UNL A   1      44.092  28.118  32.487  1.00  0.00     0.238 S 
ATOM     20  O   UNL A   1      44.322  26.948  33.308  1.00  0.00    -0.207 OA
ATOM     21  O   UNL A   1      45.031  29.206  32.401  1.00  0.00    -0.207 OA
BRANCH  19  22
ATOM     22  N   UNL A   1      43.928  27.517  30.925  1.00  0.00    -0.225 NA
ATOM     23  H   UNL A   1      44.774  27.010  30.664  1.00  0.00     0.137 HD
ATOM     24  H   UNL A   1      43.781  28.291  30.277  1.00  0.00     0.137 HD
ENDBRANCH  19  22
ENDBRANCH  14  19
ENDBRANCH  12  13
ENDBRANCH   6  11
BRANCH  10  25
ATOM     25  O   UNL A   1      34.647  35.260  34.817  1.00  0.00    -0.507 OA
ATOM     26  H   UNL A   1      33.887  35.257  35.365  1.00  0.00     0.293 HD
ENDBRANCH  10  25
ENDBRANCH   3   5
ENDBRANCH   2   3
ENDBRANCH   1   2
BRANCH   1  27
ATOM     27  C   UNL A   1      34.394  33.090  28.946  1.00  0.00     0.275 C 
BRANCH  27  28
ATOM     28  O   UNL A   1      34.665  31.746  29.380  1.00  0.00    -0.458 OA
BRANCH  28  29
ATOM     29  C   UNL A   1      34.740  30.817  28.399  1.00  0.00     0.338 C 
ATOM     30  O   UNL A   1      33.898  30.553  27.560  1.00  0.00    -0.246 OA
BRANCH  29  31
ATOM     31  C   UNL A   1      36.055  30.159  28.454  1.00  0.00     0.060 A 
ATOM     32  C   UNL A   1      36.500  29.663  29.673  1.00  0.00     0.016 A 
ATOM     33  C   UNL A   1      36.899  30.159  27.349  1.00  0.00     0.016 A 
ATOM     34  C   UNL A   1      37.821  29.249  29.829  1.00  0.00     0.010 A 
ATOM     35  C   UNL A   1      38.195  29.647  27.479  1.00  0.00     0.010 A 
ATOM     36  C   UNL A   1      38.687  29.223  28.731  1.00  0.00    -0.014 A 
BRANCH  36  37
ATOM     37  C   UNL A   1      40.119  28.825  28.875  1.00  0.00     0.031 A 
ATOM     38  C   UNL A   1      41.121  29.838  29.365  1.00  0.00     0.074 A 
ATOM     39  C   UNL A   1      40.541  27.582  28.563  1.00  0.00     0.049 A 
ATOM     40  N   UNL A   1      42.426  29.829  29.279  1.00  0.00    -0.248 NA
ATOM     41  C   UNL A   1      40.571  31.037  30.020  1.00  0.00     0.031 C 
ATOM     42  C   UNL A   1      39.683  26.463  28.172  1.00  0.00     0.029 A 
ATOM     43  N   UNL A   1      41.809  27.054  28.521  1.00  0.00    -0.354 N 
ATOM     44  C   UNL A   1      42.848  31.053  29.789  1.00  0.00     0.074 A 
ATOM     45  C   UNL A   1      41.659  31.773  30.193  1.00  0.00     0.031 C 
ATOM     46  C   UNL A   1      40.442  25.376  27.967  1.00  0.00     0.029 A 
ATOM     47  C   UNL A   1      41.847  25.746  28.099  1.00  0.00     0.049 A 
ATOM     48  H   UNL A   1      42.614  27.564  28.771  1.00  0.00     0.167 HD
ATOM     49  C   UNL A   1      44.111  31.533  29.895  1.00  0.00     0.037 A 
ATOM     50  C   UNL A   1      42.889  24.949  27.793  1.00  0.00     0.037 A 
ATOM     51  C   UNL A   1      45.285  30.774  29.549  1.00  0.00     0.049 A 
ATOM     52  C   UNL A   1      44.283  25.508  27.866  1.00  0.00     0.074 A 
ATOM     53  C   UNL A   1      46.613  31.159  29.614  1.00  0.00     0.029 A 
ATOM     54  N   UNL A   1      45.272  29.463  29.092  1.00  0.00    -0.354 N 
ATOM     55  N   UNL A   1      44.670  26.703  28.242  1.00  0.00    -0.248 NA
ATOM     56  C   UNL A   1      45.378  24.625  27.440  1.00  0.00     0.031 C 
ATOM     57  C   UNL A   1      47.399  30.092  29.165  1.00  0.00     0.029 A 
ATOM     58  C   UNL A   1      46.566  29.026  28.864  1.00  0.00     0.049 A 
ATOM     59  H   UNL A   1      44.460  28.923  28.951  1.00  0.00     0.167 HD
ATOM     60  C   UNL A   1      46.055  26.709  28.124  1.00  0.00     0.074 A 
ATOM     61  C   UNL A   1      46.438  25.399  27.637  1.00  0.00     0.031 C 
ATOM     62  C   UNL A   1      46.928  27.709  28.400  1.00  0.00     0.037 A 
BRANCH  49  63
ATOM     63  C   UNL A   1      44.274  32.963  30.339  1.00  0.00     0.058 A 
ATOM     64  C   UNL A   1      44.585  33.312  31.662  1.00  0.00     0.135 A 
ATOM     65  C   UNL A   1      44.092  34.007  29.415  1.00  0.00     0.135 A 
ATOM     66  F   UNL A   1      44.759  32.356  32.589  1.00  0.00    -0.206 F 
ATOM     67  C   UNL A   1      44.650  34.642  32.069  1.00  0.00     0.059 A 
ATOM     68  C   UNL A   1      44.182  35.344  29.793  1.00  0.00     0.059 A 
ATOM     69  F   UNL A   1      43.802  33.734  28.133  1.00  0.00    -0.206 F 
ATOM     70  C   UNL A   1      44.432  35.652  31.128  1.00  0.00     0.060 A 
BRANCH  70  71
ATOM     71  S   UNL A   1      44.457  37.372  31.675  1.00  0.00     0.124 S 
ATOM     72  O   UNL A   1      44.243  38.079  30.416  1.00  0.00    -0.237 OA
ATOM     73  O   UNL A   1      43.347  37.419  32.622  1.00  0.00    -0.237 OA
ATOM     74  O   UNL A   1      45.784  37.523  32.263  1.00  0.00    -0.744 OA
ENDBRANCH  70  71
ENDBRANCH  49  63
BRANCH  50  75
ATOM     75  C   UNL A   1      42.641  23.546  27.362  1.00  0.00     0.058 A 
ATOM     76  C   UNL A   1      42.589  23.214  26.000  1.00  0.00     0.135 A 
ATOM     77  C   UNL A   1      42.518  22.502  28.293  1.00  0.00     0.135 A 
ATOM     78  F   UNL A   1      42.685  24.179  25.072  1.00  0.00    -0.206 F 
ATOM     79  C   UNL A   1      42.443  21.898  25.576  1.00  0.00     0.059 A 
ATOM     80  C   UNL A   1      42.397  21.175  27.893  1.00  0.00     0.059 A 
ATOM     81  F   UNL A   1      42.567  22.765  29.609  1.00  0.00    -0.206 F 
ATOM     82  C   UNL A   1      42.362  20.882  26.531  1.00  0.00     0.060 A 
BRANCH  82  83
ATOM     83  S   UNL A   1      42.276  19.167  25.968  1.00  0.00     0.124 S 
ATOM     84  O   UNL A   1      40.844  19.003  25.744  1.00  0.00    -0.237 OA
ATOM     85  O   UNL A   1      43.111  19.196  24.771  1.00  0.00    -0.237 OA
ATOM     86  O   UNL A   1      42.830  18.418  27.092  1.00  0.00    -0.744 OA
ENDBRANCH  82  83
ENDBRANCH  50  75
BRANCH  62  87
ATOM     87  C   UNL A   1      48.392  27.416  28.245  1.00  0.00     0.058 A 
ATOM     88  C   UNL A   1      49.098  27.766  27.084  1.00  0.00     0.135 A 
ATOM     89  C   UNL A   1      49.115  26.862  29.314  1.00  0.00     0.135 A 
ATOM     90  F   UNL A   1      48.450  28.289  26.031  1.00  0.00    -0.206 F 
ATOM     91  C   UNL A   1      50.473  27.581  26.990  1.00  0.00     0.059 A 
ATOM     92  C   UNL A   1      50.493  26.686  29.249  1.00  0.00     0.059 A 
ATOM     93  F   UNL A   1      48.484  26.515  30.447  1.00  0.00    -0.206 F 
ATOM     94  C   UNL A   1      51.163  27.047  28.082  1.00  0.00     0.060 A 
BRANCH  94  95
ATOM     95  S   UNL A   1      52.959  26.885  27.978  1.00  0.00     0.124 S 
ATOM     96  O   UNL A   1      53.099  25.639  27.232  1.00  0.00    -0.237 OA
ATOM     97  O   UNL A   1      53.342  28.099  27.263  1.00  0.00    -0.237 OA
ATOM     98  O   UNL A   1      53.377  26.832  29.376  1.00  0.00    -0.744 OA
ENDBRANCH  94  95
ENDBRANCH  62  87
ENDBRANCH  36  37
ENDBRANCH  29  31
ENDBRANCH  28  29
ENDBRANCH  27  28
ENDBRANCH   1  27
TORSDOF 19
ENDMDL
