MODEL 1
REMARK VINA RESULT:     -11.1      0.000      0.000
REMARK SMILES N#Cc1ccc(/C=C/C(=O)N2C[C@@H](O)C[C@H]2C(=O)OCCOC(=O)c2ccc(-c3c4nc(c(-c5c(F)cc(S(=O)(=O)[O-])cc5F)c5ccc([nH]5)c(-c5c(F)cc(S(=O)(=O)[O-])cc5F)c5nc(c(-c6c(F)cc(S(=O)(=O)[O-])cc6F)c6ccc3[nH]6)C=C5)C=C4)cc2)cc1
REMARK SMILES IDX 20 1 19 2 17 3 18 4 16 5 11 6 12 7 13 8 15 9 9 10 10 11 8 12
REMARK SMILES IDX 7 13 6 14 3 15 4 16 92 17 5 18 91 19 2 20 1 21 14 22 21 24
REMARK SMILES IDX 22 25 23 26 24 27 25 28 26 29 90 30 27 31 89 32 28 33 29 34
REMARK SMILES IDX 30 35 83 36 31 37 88 38 82 39 84 40 32 41 87 42 81 43 80 44
REMARK SMILES IDX 33 46 67 47 46 48 66 49 47 50 50 51 65 52 85 53 48 54 49 55
REMARK SMILES IDX 64 57 86 58 51 59 34 60 35 61 44 62 36 63 37 64 43 65 45 66
REMARK SMILES IDX 38 67 39 68 40 69 41 70 42 71 68 72 69 73 78 74 70 75 71 76
REMARK SMILES IDX 77 77 79 78 72 79 73 80 74 81 75 82 76 83 52 84 53 85 62 86
REMARK SMILES IDX 54 87 55 88 61 89 63 90 56 91 57 92 58 93 59 94 60 95
REMARK H PARENT 14 23 84 45 50 56
REMARK Flexibility Score: inf
ROOT
ATOM      1  C   UNL A   1      44.619  24.409  25.572  1.00  0.00     0.274 C 
ENDROOT
BRANCH   1   2
ATOM      2  O   UNL A   1      43.797  23.716  24.605  1.00  0.00    -0.461 OA
BRANCH   2   3
ATOM      3  C   UNL A   1      44.267  22.496  24.228  1.00  0.00     0.329 C 
ATOM      4  O   UNL A   1      44.509  22.182  23.065  1.00  0.00    -0.250 OA
BRANCH   3   5
ATOM      5  C   UNL A   1      44.354  21.466  25.361  1.00  0.00     0.198 C 
ATOM      6  N   UNL A   1      43.243  20.546  25.627  1.00  0.00    -0.323 N 
ATOM      7  C   UNL A   1      43.599  19.202  25.224  1.00  0.00     0.152 C 
ATOM      8  C   UNL A   1      45.099  19.170  25.500  1.00  0.00     0.136 C 
ATOM      9  C   UNL A   1      45.556  20.560  25.068  1.00  0.00     0.071 C 
BRANCH   6  10
ATOM     10  C   UNL A   1      42.262  20.935  26.509  1.00  0.00     0.247 C 
ATOM     11  O   UNL A   1      42.487  21.141  27.697  1.00  0.00    -0.270 OA
BRANCH  10  12
ATOM     12  C   UNL A   1      40.853  20.987  26.050  1.00  0.00     0.072 C 
ATOM     13  C   UNL A   1      40.049  21.908  26.606  1.00  0.00     0.014 C 
BRANCH  13  14
ATOM     14  C   UNL A   1      38.718  22.311  26.123  1.00  0.00    -0.025 A 
ATOM     15  C   UNL A   1      36.325  23.273  24.979  1.00  0.00     0.052 A 
ATOM     16  C   UNL A   1      36.736  21.957  24.752  1.00  0.00     0.020 A 
ATOM     17  C   UNL A   1      37.105  24.107  25.787  1.00  0.00     0.020 A 
ATOM     18  C   UNL A   1      37.927  21.480  25.319  1.00  0.00     0.009 A 
ATOM     19  C   UNL A   1      38.294  23.628  26.349  1.00  0.00     0.009 A 
BRANCH  15  20
ATOM     20  C   UNL A   1      35.125  23.776  24.382  1.00  0.00     0.099 C 
ATOM     21  N   UNL A   1      34.165  24.197  23.875  1.00  0.00    -0.192 NA
ENDBRANCH  15  20
ENDBRANCH  13  14
ENDBRANCH  10  12
ENDBRANCH   6  10
BRANCH   8  22
ATOM     22  O   UNL A   1      45.775  18.149  24.791  1.00  0.00    -0.391 OA
ATOM     23  H   UNL A   1      45.166  17.737  24.159  1.00  0.00     0.211 HD
ENDBRANCH   8  22
ENDBRANCH   3   5
ENDBRANCH   2   3
ENDBRANCH   1   2
BRANCH   1  24
ATOM     24  C   UNL A   1      43.823  24.791  26.819  1.00  0.00     0.275 C 
BRANCH  24  25
ATOM     25  O   UNL A   1      42.414  24.625  26.584  1.00  0.00    -0.458 OA
BRANCH  25  26
ATOM     26  C   UNL A   1      41.795  25.731  26.100  1.00  0.00     0.338 C 
ATOM     27  O   UNL A   1      41.620  26.008  24.926  1.00  0.00    -0.246 OA
BRANCH  26  28
ATOM     28  C   UNL A   1      41.384  26.602  27.213  1.00  0.00     0.060 A 
ATOM     29  C   UNL A   1      41.936  27.874  27.352  1.00  0.00     0.016 A 
ATOM     30  C   UNL A   1      40.554  26.090  28.204  1.00  0.00     0.016 A 
ATOM     31  C   UNL A   1      41.743  28.601  28.523  1.00  0.00     0.010 A 
ATOM     32  C   UNL A   1      40.283  26.860  29.340  1.00  0.00     0.010 A 
ATOM     33  C   UNL A   1      40.901  28.109  29.527  1.00  0.00    -0.014 A 
BRANCH  33  34
ATOM     34  C   UNL A   1      40.668  28.894  30.769  1.00  0.00     0.031 A 
ATOM     35  C   UNL A   1      39.588  29.942  30.816  1.00  0.00     0.074 A 
ATOM     36  C   UNL A   1      41.442  28.675  31.852  1.00  0.00     0.049 A 
ATOM     37  N   UNL A   1      39.334  30.826  31.747  1.00  0.00    -0.248 NA
ATOM     38  C   UNL A   1      38.681  30.013  29.659  1.00  0.00     0.031 C 
ATOM     39  C   UNL A   1      42.498  27.663  31.947  1.00  0.00     0.029 A 
ATOM     40  N   UNL A   1      41.470  29.295  33.075  1.00  0.00    -0.354 N 
ATOM     41  C   UNL A   1      38.261  31.576  31.279  1.00  0.00     0.074 A 
ATOM     42  C   UNL A   1      37.930  31.062  29.966  1.00  0.00     0.031 C 
ATOM     43  C   UNL A   1      43.058  27.722  33.165  1.00  0.00     0.029 A 
ATOM     44  C   UNL A   1      42.459  28.824  33.908  1.00  0.00     0.049 A 
ATOM     45  H   UNL A   1      40.843  30.008  33.333  1.00  0.00     0.167 HD
ATOM     46  C   UNL A   1      37.610  32.595  31.893  1.00  0.00     0.037 A 
ATOM     47  C   UNL A   1      42.868  29.254  35.117  1.00  0.00     0.037 A 
ATOM     48  C   UNL A   1      37.939  33.088  33.207  1.00  0.00     0.049 A 
ATOM     49  C   UNL A   1      42.178  30.434  35.743  1.00  0.00     0.074 A 
ATOM     50  C   UNL A   1      37.333  34.107  33.922  1.00  0.00     0.029 A 
ATOM     51  N   UNL A   1      38.963  32.598  34.007  1.00  0.00    -0.354 N 
ATOM     52  N   UNL A   1      41.170  31.139  35.286  1.00  0.00    -0.248 NA
ATOM     53  C   UNL A   1      42.680  30.880  37.049  1.00  0.00     0.031 C 
ATOM     54  C   UNL A   1      38.025  34.271  35.126  1.00  0.00     0.029 A 
ATOM     55  C   UNL A   1      39.020  33.310  35.196  1.00  0.00     0.049 A 
ATOM     56  H   UNL A   1      39.561  31.854  33.766  1.00  0.00     0.167 HD
ATOM     57  C   UNL A   1      40.897  32.089  36.263  1.00  0.00     0.074 A 
ATOM     58  C   UNL A   1      41.837  31.859  37.342  1.00  0.00     0.031 C 
ATOM     59  C   UNL A   1      39.953  33.063  36.268  1.00  0.00     0.037 A 
BRANCH  46  60
ATOM     60  C   UNL A   1      36.487  33.266  31.143  1.00  0.00     0.058 A 
ATOM     61  C   UNL A   1      35.148  33.149  31.548  1.00  0.00     0.135 A 
ATOM     62  C   UNL A   1      36.761  34.082  30.031  1.00  0.00     0.135 A 
ATOM     63  F   UNL A   1      34.823  32.376  32.596  1.00  0.00    -0.206 F 
ATOM     64  C   UNL A   1      34.120  33.791  30.862  1.00  0.00     0.059 A 
ATOM     65  C   UNL A   1      35.752  34.758  29.349  1.00  0.00     0.059 A 
ATOM     66  F   UNL A   1      38.023  34.233  29.598  1.00  0.00    -0.206 F 
ATOM     67  C   UNL A   1      34.433  34.595  29.765  1.00  0.00     0.060 A 
BRANCH  67  68
ATOM     68  S   UNL A   1      33.087  35.426  28.893  1.00  0.00     0.124 S 
ATOM     69  O   UNL A   1      33.812  36.447  28.144  1.00  0.00    -0.237 OA
ATOM     70  O   UNL A   1      32.516  34.343  28.098  1.00  0.00    -0.237 OA
ATOM     71  O   UNL A   1      32.238  35.924  29.971  1.00  0.00    -0.744 OA
ENDBRANCH  67  68
ENDBRANCH  46  60
BRANCH  47  72
ATOM     72  C   UNL A   1      44.003  28.580  35.805  1.00  0.00     0.058 A 
ATOM     73  C   UNL A   1      43.780  27.517  36.690  1.00  0.00     0.135 A 
ATOM     74  C   UNL A   1      45.332  28.985  35.594  1.00  0.00     0.135 A 
ATOM     75  F   UNL A   1      42.528  27.096  36.932  1.00  0.00    -0.206 F 
ATOM     76  C   UNL A   1      44.828  26.895  37.362  1.00  0.00     0.059 A 
ATOM     77  C   UNL A   1      46.399  28.356  36.227  1.00  0.00     0.059 A 
ATOM     78  F   UNL A   1      45.604  29.989  34.744  1.00  0.00    -0.206 F 
ATOM     79  C   UNL A   1      46.135  27.321  37.122  1.00  0.00     0.060 A 
BRANCH  79  80
ATOM     80  S   UNL A   1      47.487  26.486  37.977  1.00  0.00     0.124 S 
ATOM     81  O   UNL A   1      48.503  27.531  38.012  1.00  0.00    -0.237 OA
ATOM     82  O   UNL A   1      46.874  26.148  39.258  1.00  0.00    -0.237 OA
ATOM     83  O   UNL A   1      47.781  25.348  37.111  1.00  0.00    -0.744 OA
ENDBRANCH  79  80
ENDBRANCH  47  72
BRANCH  59  84
ATOM     84  C   UNL A   1      39.852  33.922  37.501  1.00  0.00     0.058 A 
ATOM     85  C   UNL A   1      40.528  35.146  37.614  1.00  0.00     0.135 A 
ATOM     86  C   UNL A   1      39.033  33.527  38.572  1.00  0.00     0.135 A 
ATOM     87  F   UNL A   1      41.332  35.569  36.625  1.00  0.00    -0.206 F 
ATOM     88  C   UNL A   1      40.422  35.933  38.757  1.00  0.00     0.059 A 
ATOM     89  C   UNL A   1      38.884  34.315  39.710  1.00  0.00     0.059 A 
ATOM     90  F   UNL A   1      38.355  32.368  38.515  1.00  0.00    -0.206 F 
ATOM     91  C   UNL A   1      39.595  35.510  39.799  1.00  0.00     0.060 A 
BRANCH  91  92
ATOM     92  S   UNL A   1      39.444  36.555  41.262  1.00  0.00     0.124 S 
ATOM     93  O   UNL A   1      40.809  36.544  41.775  1.00  0.00    -0.237 OA
ATOM     94  O   UNL A   1      38.991  37.821  40.694  1.00  0.00    -0.237 OA
ATOM     95  O   UNL A   1      38.459  35.855  42.082  1.00  0.00    -0.744 OA
ENDBRANCH  91  92
ENDBRANCH  59  84
ENDBRANCH  33  34
ENDBRANCH  26  28
ENDBRANCH  25  26
ENDBRANCH  24  25
ENDBRANCH   1  24
TORSDOF 19
ENDMDL
MODEL 2
REMARK VINA RESULT:     -11.0      5.969     13.832
REMARK SMILES N#Cc1ccc(/C=C/C(=O)N2C[C@@H](O)C[C@H]2C(=O)OCCOC(=O)c2ccc(-c3c4nc(c(-c5c(F)cc(S(=O)(=O)[O-])cc5F)c5ccc([nH]5)c(-c5c(F)cc(S(=O)(=O)[O-])cc5F)c5nc(c(-c6c(F)cc(S(=O)(=O)[O-])cc6F)c6ccc3[nH]6)C=C5)C=C4)cc2)cc1
REMARK SMILES IDX 20 1 19 2 17 3 18 4 16 5 11 6 12 7 13 8 15 9 9 10 10 11 8 12
REMARK SMILES IDX 7 13 6 14 3 15 4 16 92 17 5 18 91 19 2 20 1 21 14 22 21 24
REMARK SMILES IDX 22 25 23 26 24 27 25 28 26 29 90 30 27 31 89 32 28 33 29 34
REMARK SMILES IDX 30 35 83 36 31 37 88 38 82 39 84 40 32 41 87 42 81 43 80 44
REMARK SMILES IDX 33 46 67 47 46 48 66 49 47 50 50 51 65 52 85 53 48 54 49 55
REMARK SMILES IDX 64 57 86 58 51 59 34 60 35 61 44 62 36 63 37 64 43 65 45 66
REMARK SMILES IDX 38 67 39 68 40 69 41 70 42 71 68 72 69 73 78 74 70 75 71 76
REMARK SMILES IDX 77 77 79 78 72 79 73 80 74 81 75 82 76 83 52 84 53 85 62 86
REMARK SMILES IDX 54 87 55 88 61 89 63 90 56 91 57 92 58 93 59 94 60 95
REMARK H PARENT 14 23 84 45 50 56
REMARK Flexibility Score: inf
ROOT
ATOM      1  C   UNL A   1      34.419  33.334  28.007  1.00  0.00     0.274 C 
ENDROOT
BRANCH   1   2
ATOM      2  O   UNL A   1      33.919  33.600  29.337  1.00  0.00    -0.461 OA
BRANCH   2   3
ATOM      3  C   UNL A   1      33.655  34.910  29.594  1.00  0.00     0.329 C 
ATOM      4  O   UNL A   1      33.811  35.817  28.778  1.00  0.00    -0.250 OA
BRANCH   3   5
ATOM      5  C   UNL A   1      33.266  35.211  31.047  1.00  0.00     0.198 C 
ATOM      6  N   UNL A   1      34.221  34.996  32.140  1.00  0.00    -0.323 N 
ATOM      7  C   UNL A   1      34.679  36.268  32.660  1.00  0.00     0.152 C 
ATOM      8  C   UNL A   1      33.450  37.153  32.476  1.00  0.00     0.136 C 
ATOM      9  C   UNL A   1      32.900  36.698  31.128  1.00  0.00     0.071 C 
BRANCH   6  10
ATOM     10  C   UNL A   1      34.252  33.768  32.756  1.00  0.00     0.247 C 
ATOM     11  O   UNL A   1      33.271  33.281  33.308  1.00  0.00    -0.270 OA
BRANCH  10  12
ATOM     12  C   UNL A   1      35.543  33.050  32.878  1.00  0.00     0.072 C 
ATOM     13  C   UNL A   1      36.571  33.480  32.127  1.00  0.00     0.014 C 
BRANCH  13  14
ATOM     14  C   UNL A   1      37.984  33.100  32.282  1.00  0.00    -0.025 A 
ATOM     15  C   UNL A   1      40.609  32.079  32.451  1.00  0.00     0.052 A 
ATOM     16  C   UNL A   1      40.291  33.051  31.499  1.00  0.00     0.020 A 
ATOM     17  C   UNL A   1      39.618  31.624  33.327  1.00  0.00     0.020 A 
ATOM     18  C   UNL A   1      38.985  33.556  31.414  1.00  0.00     0.009 A 
ATOM     19  C   UNL A   1      38.316  32.129  33.238  1.00  0.00     0.009 A 
BRANCH  15  20
ATOM     20  C   UNL A   1      41.933  31.538  32.528  1.00  0.00     0.099 C 
ATOM     21  N   UNL A   1      42.998  31.074  32.603  1.00  0.00    -0.192 NA
ENDBRANCH  15  20
ENDBRANCH  13  14
ENDBRANCH  10  12
ENDBRANCH   6  10
BRANCH   8  22
ATOM     22  O   UNL A   1      33.753  38.535  32.483  1.00  0.00    -0.391 OA
ATOM     23  H   UNL A   1      34.713  38.656  32.410  1.00  0.00     0.211 HD
ENDBRANCH   8  22
ENDBRANCH   3   5
ENDBRANCH   2   3
ENDBRANCH   1   2
BRANCH   1  24
ATOM     24  C   UNL A   1      35.862  32.831  28.037  1.00  0.00     0.275 C 
BRANCH  24  25
ATOM     25  O   UNL A   1      35.892  31.394  28.001  1.00  0.00    -0.458 OA
BRANCH  25  26
ATOM     26  C   UNL A   1      36.267  30.815  29.169  1.00  0.00     0.338 C 
ATOM     27  O   UNL A   1      35.644  30.825  30.217  1.00  0.00    -0.246 OA
BRANCH  26  28
ATOM     28  C   UNL A   1      37.588  30.184  29.013  1.00  0.00     0.060 A 
ATOM     29  C   UNL A   1      38.428  30.030  30.114  1.00  0.00     0.016 A 
ATOM     30  C   UNL A   1      38.047  29.880  27.736  1.00  0.00     0.016 A 
ATOM     31  C   UNL A   1      39.761  29.667  29.937  1.00  0.00     0.010 A 
ATOM     32  C   UNL A   1      39.359  29.423  27.568  1.00  0.00     0.010 A 
ATOM     33  C   UNL A   1      40.240  29.344  28.662  1.00  0.00    -0.014 A 
BRANCH  33  34
ATOM     34  C   UNL A   1      41.655  28.928  28.470  1.00  0.00     0.031 A 
ATOM     35  C   UNL A   1      42.763  29.944  28.539  1.00  0.00     0.074 A 
ATOM     36  C   UNL A   1      41.941  27.635  28.216  1.00  0.00     0.049 A 
ATOM     37  N   UNL A   1      44.032  29.804  28.251  1.00  0.00    -0.248 NA
ATOM     38  C   UNL A   1      42.395  31.299  28.979  1.00  0.00     0.031 C 
ATOM     39  C   UNL A   1      40.961  26.546  28.160  1.00  0.00     0.029 A 
ATOM     40  N   UNL A   1      43.135  27.016  27.946  1.00  0.00    -0.354 N 
ATOM     41  C   UNL A   1      44.608  31.055  28.445  1.00  0.00     0.074 A 
ATOM     42  C   UNL A   1      43.544  31.950  28.848  1.00  0.00     0.031 C 
ATOM     43  C   UNL A   1      41.595  25.395  27.888  1.00  0.00     0.029 A 
ATOM     44  C   UNL A   1      43.010  25.674  27.673  1.00  0.00     0.049 A 
ATOM     45  H   UNL A   1      43.999  27.487  27.947  1.00  0.00     0.167 HD
ATOM     46  C   UNL A   1      45.907  31.418  28.305  1.00  0.00     0.037 A 
ATOM     47  C   UNL A   1      43.921  24.773  27.256  1.00  0.00     0.037 A 
ATOM     48  C   UNL A   1      46.961  30.514  27.918  1.00  0.00     0.049 A 
ATOM     49  C   UNL A   1      45.340  25.219  27.037  1.00  0.00     0.074 A 
ATOM     50  C   UNL A   1      48.311  30.781  27.760  1.00  0.00     0.029 A 
ATOM     51  N   UNL A   1      46.788  29.167  27.629  1.00  0.00    -0.354 N 
ATOM     52  N   UNL A   1      45.869  26.406  27.217  1.00  0.00    -0.248 NA
ATOM     53  C   UNL A   1      46.287  24.204  26.556  1.00  0.00     0.031 C 
ATOM     54  C   UNL A   1      48.941  29.612  27.321  1.00  0.00     0.029 A 
ATOM     55  C   UNL A   1      48.000  28.597  27.270  1.00  0.00     0.049 A 
ATOM     56  H   UNL A   1      45.929  28.686  27.671  1.00  0.00     0.167 HD
ATOM     57  C   UNL A   1      47.217  26.272  26.903  1.00  0.00     0.074 A 
ATOM     58  C   UNL A   1      47.423  24.886  26.537  1.00  0.00     0.031 C 
ATOM     59  C   UNL A   1      48.195  27.212  26.919  1.00  0.00     0.037 A 
BRANCH  46  60
ATOM     60  C   UNL A   1      46.264  32.862  28.549  1.00  0.00     0.058 A 
ATOM     61  C   UNL A   1      46.220  33.822  27.525  1.00  0.00     0.135 A 
ATOM     62  C   UNL A   1      46.607  33.303  29.839  1.00  0.00     0.135 A 
ATOM     63  F   UNL A   1      45.910  33.460  26.271  1.00  0.00    -0.206 F 
ATOM     64  C   UNL A   1      46.530  35.158  27.764  1.00  0.00     0.059 A 
ATOM     65  C   UNL A   1      46.891  34.640  30.108  1.00  0.00     0.059 A 
ATOM     66  F   UNL A   1      46.665  32.431  30.859  1.00  0.00    -0.206 F 
ATOM     67  C   UNL A   1      46.863  35.558  29.060  1.00  0.00     0.060 A 
BRANCH  67  68
ATOM     68  S   UNL A   1      47.254  37.296  29.353  1.00  0.00     0.124 S 
ATOM     69  O   UNL A   1      48.702  37.243  29.534  1.00  0.00    -0.237 OA
ATOM     70  O   UNL A   1      46.793  37.930  28.122  1.00  0.00    -0.237 OA
ATOM     71  O   UNL A   1      46.486  37.623  30.550  1.00  0.00    -0.744 OA
ENDBRANCH  67  68
ENDBRANCH  46  60
BRANCH  47  72
ATOM     72  C   UNL A   1      43.514  23.365  26.996  1.00  0.00     0.058 A 
ATOM     73  C   UNL A   1      43.408  22.875  25.687  1.00  0.00     0.135 A 
ATOM     74  C   UNL A   1      43.223  22.481  28.049  1.00  0.00     0.135 A 
ATOM     75  F   UNL A   1      43.669  23.680  24.646  1.00  0.00    -0.206 F 
ATOM     76  C   UNL A   1      43.003  21.569  25.428  1.00  0.00     0.059 A 
ATOM     77  C   UNL A   1      42.849  21.161  27.816  1.00  0.00     0.059 A 
ATOM     78  F   UNL A   1      43.323  22.894  29.323  1.00  0.00    -0.206 F 
ATOM     79  C   UNL A   1      42.728  20.719  26.501  1.00  0.00     0.060 A 
BRANCH  79  80
ATOM     80  S   UNL A   1      42.232  19.019  26.151  1.00  0.00     0.124 S 
ATOM     81  O   UNL A   1      42.537  18.358  27.414  1.00  0.00    -0.237 OA
ATOM     82  O   UNL A   1      40.814  19.174  25.836  1.00  0.00    -0.237 OA
ATOM     83  O   UNL A   1      43.080  18.647  25.022  1.00  0.00    -0.744 OA
ENDBRANCH  79  80
ENDBRANCH  47  72
BRANCH  59  84
ATOM     84  C   UNL A   1      49.592  26.761  26.580  1.00  0.00     0.058 A 
ATOM     85  C   UNL A   1      50.476  26.276  27.555  1.00  0.00     0.135 A 
ATOM     86  C   UNL A   1      50.037  26.783  25.248  1.00  0.00     0.135 A 
ATOM     87  F   UNL A   1      50.107  26.242  28.846  1.00  0.00    -0.206 F 
ATOM     88  C   UNL A   1      51.762  25.857  27.228  1.00  0.00     0.059 A 
ATOM     89  C   UNL A   1      51.307  26.336  24.893  1.00  0.00     0.059 A 
ATOM     90  F   UNL A   1      49.231  27.229  24.270  1.00  0.00    -0.206 F 
ATOM     91  C   UNL A   1      52.167  25.888  25.893  1.00  0.00     0.060 A 
BRANCH  91  92
ATOM     92  S   UNL A   1      53.827  25.315  25.480  1.00  0.00     0.124 S 
ATOM     93  O   UNL A   1      54.271  24.753  26.751  1.00  0.00    -0.237 OA
ATOM     94  O   UNL A   1      53.567  24.349  24.416  1.00  0.00    -0.237 OA
ATOM     95  O   UNL A   1      54.515  26.532  25.058  1.00  0.00    -0.744 OA
ENDBRANCH  91  92
ENDBRANCH  59  84
ENDBRANCH  33  34
ENDBRANCH  26  28
ENDBRANCH  25  26
ENDBRANCH  24  25
ENDBRANCH   1  24
TORSDOF 19
ENDMDL
MODEL 3
REMARK VINA RESULT:     -10.9      1.933      3.708
REMARK SMILES N#Cc1ccc(/C=C/C(=O)N2C[C@@H](O)C[C@H]2C(=O)OCCOC(=O)c2ccc(-c3c4nc(c(-c5c(F)cc(S(=O)(=O)[O-])cc5F)c5ccc([nH]5)c(-c5c(F)cc(S(=O)(=O)[O-])cc5F)c5nc(c(-c6c(F)cc(S(=O)(=O)[O-])cc6F)c6ccc3[nH]6)C=C5)C=C4)cc2)cc1
REMARK SMILES IDX 20 1 19 2 17 3 18 4 16 5 11 6 12 7 13 8 15 9 9 10 10 11 8 12
REMARK SMILES IDX 7 13 6 14 3 15 4 16 92 17 5 18 91 19 2 20 1 21 14 22 21 24
REMARK SMILES IDX 22 25 23 26 24 27 25 28 26 29 90 30 27 31 89 32 28 33 29 34
REMARK SMILES IDX 30 35 83 36 31 37 88 38 82 39 84 40 32 41 87 42 81 43 80 44
REMARK SMILES IDX 33 46 67 47 46 48 66 49 47 50 50 51 65 52 85 53 48 54 49 55
REMARK SMILES IDX 64 57 86 58 51 59 34 60 35 61 44 62 36 63 37 64 43 65 45 66
REMARK SMILES IDX 38 67 39 68 40 69 41 70 42 71 68 72 69 73 78 74 70 75 71 76
REMARK SMILES IDX 77 77 79 78 72 79 73 80 74 81 75 82 76 83 52 84 53 85 62 86
REMARK SMILES IDX 54 87 55 88 61 89 63 90 56 91 57 92 58 93 59 94 60 95
REMARK H PARENT 14 23 84 45 50 56
REMARK Flexibility Score: inf
ROOT
ATOM      1  C   UNL A   1      44.729  24.033  24.925  1.00  0.00     0.274 C 
ENDROOT
BRANCH   1   2
ATOM      2  O   UNL A   1      43.637  23.096  24.783  1.00  0.00    -0.461 OA
BRANCH   2   3
ATOM      3  C   UNL A   1      44.008  21.787  24.764  1.00  0.00     0.329 C 
ATOM      4  O   UNL A   1      44.523  21.232  23.795  1.00  0.00    -0.250 OA
BRANCH   3   5
ATOM      5  C   UNL A   1      43.614  20.992  26.014  1.00  0.00     0.198 C 
ATOM      6  N   UNL A   1      42.260  21.092  26.572  1.00  0.00    -0.323 N 
ATOM      7  C   UNL A   1      41.527  19.868  26.329  1.00  0.00     0.152 C 
ATOM      8  C   UNL A   1      42.629  18.815  26.388  1.00  0.00     0.136 C 
ATOM      9  C   UNL A   1      43.798  19.504  25.691  1.00  0.00     0.071 C 
BRANCH   6  10
ATOM     10  C   UNL A   1      42.008  22.058  27.518  1.00  0.00     0.247 C 
ATOM     11  O   UNL A   1      40.950  22.678  27.561  1.00  0.00    -0.270 OA
BRANCH  10  12
ATOM     12  C   UNL A   1      43.090  22.468  28.444  1.00  0.00     0.072 C 
ATOM     13  C   UNL A   1      43.108  23.745  28.860  1.00  0.00     0.014 C 
BRANCH  13  14
ATOM     14  C   UNL A   1      43.910  24.293  29.965  1.00  0.00    -0.025 A 
ATOM     15  C   UNL A   1      45.622  25.064  32.071  1.00  0.00     0.052 A 
ATOM     16  C   UNL A   1      45.723  25.678  30.819  1.00  0.00     0.020 A 
ATOM     17  C   UNL A   1      44.658  24.071  32.274  1.00  0.00     0.020 A 
ATOM     18  C   UNL A   1      44.873  25.292  29.773  1.00  0.00     0.009 A 
ATOM     19  C   UNL A   1      43.813  23.688  31.227  1.00  0.00     0.009 A 
BRANCH  15  20
ATOM     20  C   UNL A   1      46.504  25.433  33.137  1.00  0.00     0.099 C 
ATOM     21  N   UNL A   1      47.209  25.710  34.021  1.00  0.00    -0.192 NA
ENDBRANCH  15  20
ENDBRANCH  13  14
ENDBRANCH  10  12
ENDBRANCH   6  10
BRANCH   8  22
ATOM     22  O   UNL A   1      42.276  17.602  25.751  1.00  0.00    -0.391 OA
ATOM     23  H   UNL A   1      43.058  17.223  25.321  1.00  0.00     0.211 HD
ENDBRANCH   8  22
ENDBRANCH   3   5
ENDBRANCH   2   3
ENDBRANCH   1   2
BRANCH   1  24
ATOM     24  C   UNL A   1      44.436  25.083  25.995  1.00  0.00     0.275 C 
BRANCH  24  25
ATOM     25  O   UNL A   1      43.718  26.191  25.426  1.00  0.00    -0.458 OA
BRANCH  25  26
ATOM     26  C   UNL A   1      42.398  26.220  25.739  1.00  0.00     0.338 C 
ATOM     27  O   UNL A   1      41.477  25.854  25.030  1.00  0.00    -0.246 OA
BRANCH  26  28
ATOM     28  C   UNL A   1      42.214  26.808  27.076  1.00  0.00     0.060 A 
ATOM     29  C   UNL A   1      41.242  26.304  27.939  1.00  0.00     0.016 A 
ATOM     30  C   UNL A   1      42.917  27.960  27.413  1.00  0.00     0.016 A 
ATOM     31  C   UNL A   1      40.896  27.001  29.093  1.00  0.00     0.010 A 
ATOM     32  C   UNL A   1      42.635  28.608  28.620  1.00  0.00     0.010 A 
ATOM     33  C   UNL A   1      41.599  28.156  29.457  1.00  0.00    -0.014 A 
BRANCH  33  34
ATOM     34  C   UNL A   1      41.253  28.889  30.703  1.00  0.00     0.031 A 
ATOM     35  C   UNL A   1      40.106  29.865  30.719  1.00  0.00     0.074 A 
ATOM     36  C   UNL A   1      41.983  28.689  31.819  1.00  0.00     0.049 A 
ATOM     37  N   UNL A   1      39.749  30.705  31.657  1.00  0.00    -0.248 NA
ATOM     38  C   UNL A   1      39.256  29.911  29.518  1.00  0.00     0.031 C 
ATOM     39  C   UNL A   1      43.096  27.744  31.945  1.00  0.00     0.029 A 
ATOM     40  N   UNL A   1      41.909  29.276  33.057  1.00  0.00    -0.354 N 
ATOM     41  C   UNL A   1      38.654  31.399  31.151  1.00  0.00     0.074 A 
ATOM     42  C   UNL A   1      38.424  30.902  29.811  1.00  0.00     0.031 C 
ATOM     43  C   UNL A   1      43.588  27.805  33.191  1.00  0.00     0.029 A 
ATOM     44  C   UNL A   1      42.882  28.846  33.929  1.00  0.00     0.049 A 
ATOM     45  H   UNL A   1      41.224  29.940  33.299  1.00  0.00     0.167 HD
ATOM     46  C   UNL A   1      37.908  32.357  31.755  1.00  0.00     0.037 A 
ATOM     47  C   UNL A   1      43.201  29.267  35.168  1.00  0.00     0.037 A 
ATOM     48  C   UNL A   1      38.138  32.833  33.096  1.00  0.00     0.049 A 
ATOM     49  C   UNL A   1      42.405  30.383  35.785  1.00  0.00     0.074 A 
ATOM     50  C   UNL A   1      37.432  33.791  33.803  1.00  0.00     0.029 A 
ATOM     51  N   UNL A   1      39.149  32.387  33.937  1.00  0.00    -0.354 N 
ATOM     52  N   UNL A   1      41.378  31.035  35.294  1.00  0.00    -0.248 NA
ATOM     53  C   UNL A   1      42.810  30.823  37.127  1.00  0.00     0.031 C 
ATOM     54  C   UNL A   1      38.049  33.965  35.045  1.00  0.00     0.029 A 
ATOM     55  C   UNL A   1      39.100  33.068  35.143  1.00  0.00     0.049 A 
ATOM     56  H   UNL A   1      39.806  31.689  33.709  1.00  0.00     0.167 HD
ATOM     57  C   UNL A   1      40.995  31.939  36.278  1.00  0.00     0.074 A 
ATOM     58  C   UNL A   1      41.891  31.739  37.399  1.00  0.00     0.031 C 
ATOM     59  C   UNL A   1      39.991  32.851  36.257  1.00  0.00     0.037 A 
BRANCH  46  60
ATOM     60  C   UNL A   1      36.784  32.976  30.964  1.00  0.00     0.058 A 
ATOM     61  C   UNL A   1      35.439  32.656  31.207  1.00  0.00     0.135 A 
ATOM     62  C   UNL A   1      37.054  33.944  29.980  1.00  0.00     0.135 A 
ATOM     63  F   UNL A   1      35.119  31.732  32.126  1.00  0.00    -0.206 F 
ATOM     64  C   UNL A   1      34.406  33.249  30.487  1.00  0.00     0.059 A 
ATOM     65  C   UNL A   1      36.035  34.573  29.270  1.00  0.00     0.059 A 
ATOM     66  F   UNL A   1      38.321  34.292  29.705  1.00  0.00    -0.206 F 
ATOM     67  C   UNL A   1      34.715  34.209  29.521  1.00  0.00     0.060 A 
BRANCH  67  68
ATOM     68  S   UNL A   1      33.361  34.974  28.602  1.00  0.00     0.124 S 
ATOM     69  O   UNL A   1      32.503  35.444  29.686  1.00  0.00    -0.237 OA
ATOM     70  O   UNL A   1      34.049  36.013  27.843  1.00  0.00    -0.237 OA
ATOM     71  O   UNL A   1      32.821  33.874  27.809  1.00  0.00    -0.744 OA
ENDBRANCH  67  68
ENDBRANCH  46  60
BRANCH  47  72
ATOM     72  C   UNL A   1      44.341  28.648  35.898  1.00  0.00     0.058 A 
ATOM     73  C   UNL A   1      45.650  29.117  35.723  1.00  0.00     0.135 A 
ATOM     74  C   UNL A   1      44.146  27.574  36.783  1.00  0.00     0.135 A 
ATOM     75  F   UNL A   1      45.891  30.137  34.883  1.00  0.00    -0.206 F 
ATOM     76  C   UNL A   1      46.729  28.531  36.377  1.00  0.00     0.059 A 
ATOM     77  C   UNL A   1      45.204  26.993  37.475  1.00  0.00     0.059 A 
ATOM     78  F   UNL A   1      42.910  27.095  36.999  1.00  0.00    -0.206 F 
ATOM     79  C   UNL A   1      46.495  27.470  37.253  1.00  0.00     0.060 A 
BRANCH  79  80
ATOM     80  S   UNL A   1      47.899  26.737  38.118  1.00  0.00     0.124 S 
ATOM     81  O   UNL A   1      47.327  26.465  39.431  1.00  0.00    -0.237 OA
ATOM     82  O   UNL A   1      48.189  25.569  37.292  1.00  0.00    -0.237 OA
ATOM     83  O   UNL A   1      48.908  27.792  38.075  1.00  0.00    -0.744 OA
ENDBRANCH  79  80
ENDBRANCH  47  72
BRANCH  59  84
ATOM     84  C   UNL A   1      39.772  33.667  37.503  1.00  0.00     0.058 A 
ATOM     85  C   UNL A   1      40.419  34.894  37.715  1.00  0.00     0.135 A 
ATOM     86  C   UNL A   1      38.869  33.227  38.486  1.00  0.00     0.135 A 
ATOM     87  F   UNL A   1      41.299  35.358  36.813  1.00  0.00    -0.206 F 
ATOM     88  C   UNL A   1      40.204  35.641  38.868  1.00  0.00     0.059 A 
ATOM     89  C   UNL A   1      38.612  33.975  39.632  1.00  0.00     0.059 A 
ATOM     90  F   UNL A   1      38.215  32.064  38.334  1.00  0.00    -0.206 F 
ATOM     91  C   UNL A   1      39.296  35.175  39.820  1.00  0.00     0.060 A 
BRANCH  91  92
ATOM     92  S   UNL A   1      39.004  36.169  41.297  1.00  0.00     0.124 S 
ATOM     93  O   UNL A   1      40.204  35.893  42.080  1.00  0.00    -0.237 OA
ATOM     94  O   UNL A   1      38.901  37.518  40.749  1.00  0.00    -0.237 OA
ATOM     95  O   UNL A   1      37.763  35.621  41.839  1.00  0.00    -0.744 OA
ENDBRANCH  91  92
ENDBRANCH  59  84
ENDBRANCH  33  34
ENDBRANCH  26  28
ENDBRANCH  25  26
ENDBRANCH  24  25
ENDBRANCH   1  24
TORSDOF 19
ENDMDL
