MODEL 1
REMARK VINA RESULT:     -11.9      0.000      0.000
REMARK SMILES CC(=O)c1nnn(-c2ccc(C(=O)OCCOC(=O)c3ccc(-c4c5nc(c(-c6c(F)cc(S(=O)(=O)[O-])cc6F)c6ccc([nH]6)c(-c6c(F)cc(S(=O)(=O)[O-])cc6F)c6nc(c(-c7c(F)cc(S(=O)(=O)[O-])cc7F)c7ccc4[nH]7)C=C6)C=C5)cc3)cc2)c1C
REMARK SMILES IDX 16 1 15 2 14 3 12 4 13 5 11 6 8 7 9 8 87 9 10 10 86 11 7 12
REMARK SMILES IDX 4 13 5 14 88 15 6 16 89 17 2 18 1 19 3 20 17 21 18 22 19 23
REMARK SMILES IDX 20 24 21 25 85 26 22 27 84 28 23 29 24 30 25 31 78 32 26 33
REMARK SMILES IDX 83 34 77 35 79 36 27 37 82 38 76 39 75 40 28 42 62 43 41 44
REMARK SMILES IDX 61 45 42 46 45 47 60 48 80 49 43 50 44 51 59 53 81 54 46 55
REMARK SMILES IDX 29 56 30 57 39 58 31 59 32 60 38 61 40 62 33 63 34 64 35 65
REMARK SMILES IDX 36 66 37 67 63 68 64 69 73 70 65 71 66 72 72 73 74 74 67 75
REMARK SMILES IDX 68 76 69 77 70 78 71 79 47 80 48 81 57 82 49 83 50 84 56 85
REMARK SMILES IDX 58 86 51 87 52 88 53 89 54 90 55 91
REMARK H PARENT 79 41 45 52
REMARK Flexibility Score: inf
ROOT
ATOM      1  C   UNL A   1      44.360  19.049  24.949  1.00  0.00     0.275 C 
ENDROOT
BRANCH   1   2
ATOM      2  C   UNL A   1      43.141  18.526  25.696  1.00  0.00     0.275 C 
BRANCH   2   3
ATOM      3  O   UNL A   1      41.980  19.318  25.402  1.00  0.00    -0.458 OA
BRANCH   3   4
ATOM      4  C   UNL A   1      41.420  19.966  26.454  1.00  0.00     0.338 C 
ATOM      5  O   UNL A   1      41.944  20.179  27.539  1.00  0.00    -0.246 OA
BRANCH   4   6
ATOM      6  C   UNL A   1      40.058  20.440  26.102  1.00  0.00     0.060 A 
ATOM      7  C   UNL A   1      37.645  21.391  25.116  1.00  0.00     0.067 A 
ATOM      8  C   UNL A   1      37.965  20.045  24.927  1.00  0.00     0.029 A 
ATOM      9  C   UNL A   1      38.439  22.213  25.926  1.00  0.00     0.029 A 
ATOM     10  C   UNL A   1      39.193  19.579  25.405  1.00  0.00     0.018 A 
ATOM     11  C   UNL A   1      39.645  21.736  26.424  1.00  0.00     0.018 A 
BRANCH   7  12
ATOM     12  N   UNL A   1      36.624  21.980  24.344  1.00  0.00    -0.217 N 
ATOM     13  C   UNL A   1      34.698  22.645  23.563  1.00  0.00     0.151 A 
ATOM     14  N   UNL A   1      35.706  23.148  22.778  1.00  0.00    -0.126 NA
ATOM     15  C   UNL A   1      35.259  21.935  24.612  1.00  0.00     0.073 A 
ATOM     16  N   UNL A   1      36.868  22.837  23.337  1.00  0.00    -0.061 NA
ATOM     17  C   UNL A   1      34.691  21.319  25.839  1.00  0.00     0.069 C 
BRANCH  13  18
ATOM     18  C   UNL A   1      33.299  22.934  23.287  1.00  0.00     0.181 C 
ATOM     19  C   UNL A   1      32.472  21.871  22.606  1.00  0.00     0.095 C 
ATOM     20  O   UNL A   1      32.780  24.002  23.614  1.00  0.00    -0.293 OA
ENDBRANCH  13  18
ENDBRANCH   7  12
ENDBRANCH   4   6
ENDBRANCH   3   4
ENDBRANCH   2   3
ENDBRANCH   1   2
BRANCH   1  21
ATOM     21  O   UNL A   1      44.050  20.229  24.213  1.00  0.00    -0.458 OA
BRANCH  21  22
ATOM     22  C   UNL A   1      44.877  21.275  24.439  1.00  0.00     0.338 C 
ATOM     23  O   UNL A   1      46.049  21.375  24.113  1.00  0.00    -0.246 OA
BRANCH  22  24
ATOM     24  C   UNL A   1      44.219  22.218  25.343  1.00  0.00     0.060 A 
ATOM     25  C   UNL A   1      43.351  23.158  24.778  1.00  0.00     0.016 A 
ATOM     26  C   UNL A   1      44.691  22.339  26.658  1.00  0.00     0.016 A 
ATOM     27  C   UNL A   1      43.086  24.312  25.484  1.00  0.00     0.010 A 
ATOM     28  C   UNL A   1      44.436  23.493  27.354  1.00  0.00     0.010 A 
ATOM     29  C   UNL A   1      43.699  24.496  26.729  1.00  0.00    -0.014 A 
BRANCH  29  30
ATOM     30  C   UNL A   1      43.476  25.746  27.424  1.00  0.00     0.031 A 
ATOM     31  C   UNL A   1      44.508  26.768  27.129  1.00  0.00     0.074 A 
ATOM     32  C   UNL A   1      42.358  25.976  28.138  1.00  0.00     0.049 A 
ATOM     33  N   UNL A   1      45.358  27.297  27.941  1.00  0.00    -0.248 NA
ATOM     34  C   UNL A   1      44.736  27.112  25.714  1.00  0.00     0.031 C 
ATOM     35  C   UNL A   1      41.155  25.145  28.237  1.00  0.00     0.029 A 
ATOM     36  N   UNL A   1      42.019  27.081  28.849  1.00  0.00    -0.354 N 
ATOM     37  C   UNL A   1      46.084  28.211  27.182  1.00  0.00     0.074 A 
ATOM     38  C   UNL A   1      45.796  27.914  25.805  1.00  0.00     0.031 C 
ATOM     39  C   UNL A   1      40.148  25.881  28.758  1.00  0.00     0.029 A 
ATOM     40  C   UNL A   1      40.666  27.183  29.143  1.00  0.00     0.049 A 
ATOM     41  H   UNL A   1      42.678  27.755  29.133  1.00  0.00     0.167 HD
ATOM     42  C   UNL A   1      46.672  29.296  27.753  1.00  0.00     0.037 A 
ATOM     43  C   UNL A   1      40.027  28.298  29.583  1.00  0.00     0.037 A 
ATOM     44  C   UNL A   1      46.808  29.125  29.177  1.00  0.00     0.049 A 
ATOM     45  C   UNL A   1      41.070  29.204  30.141  1.00  0.00     0.074 A 
ATOM     46  C   UNL A   1      47.462  28.210  29.981  1.00  0.00     0.029 A 
ATOM     47  N   UNL A   1      45.894  29.752  29.989  1.00  0.00    -0.354 N 
ATOM     48  N   UNL A   1      41.771  28.936  31.209  1.00  0.00    -0.248 NA
ATOM     49  C   UNL A   1      41.663  30.186  29.242  1.00  0.00     0.031 C 
ATOM     50  C   UNL A   1      46.589  27.999  31.087  1.00  0.00     0.029 A 
ATOM     51  C   UNL A   1      45.485  28.840  30.930  1.00  0.00     0.049 A 
ATOM     52  H   UNL A   1      45.588  30.685  29.911  1.00  0.00     0.167 HD
ATOM     53  C   UNL A   1      43.056  29.376  30.917  1.00  0.00     0.074 A 
ATOM     54  C   UNL A   1      42.909  30.208  29.725  1.00  0.00     0.031 C 
ATOM     55  C   UNL A   1      44.153  28.800  31.493  1.00  0.00     0.037 A 
BRANCH  42  56
ATOM     56  C   UNL A   1      46.780  30.644  27.083  1.00  0.00     0.058 A 
ATOM     57  C   UNL A   1      48.029  31.296  27.048  1.00  0.00     0.135 A 
ATOM     58  C   UNL A   1      45.667  31.442  26.731  1.00  0.00     0.135 A 
ATOM     59  F   UNL A   1      49.154  30.637  27.366  1.00  0.00    -0.206 F 
ATOM     60  C   UNL A   1      48.152  32.657  26.769  1.00  0.00     0.059 A 
ATOM     61  C   UNL A   1      45.775  32.785  26.395  1.00  0.00     0.059 A 
ATOM     62  F   UNL A   1      44.409  30.992  26.794  1.00  0.00    -0.206 F 
ATOM     63  C   UNL A   1      47.014  33.396  26.461  1.00  0.00     0.060 A 
BRANCH  63  64
ATOM     64  S   UNL A   1      47.151  35.174  26.217  1.00  0.00     0.124 S 
ATOM     65  O   UNL A   1      47.719  35.598  27.491  1.00  0.00    -0.237 OA
ATOM     66  O   UNL A   1      48.038  35.253  25.061  1.00  0.00    -0.237 OA
ATOM     67  O   UNL A   1      45.772  35.586  25.970  1.00  0.00    -0.744 OA
ENDBRANCH  63  64
ENDBRANCH  42  56
BRANCH  43  68
ATOM     68  C   UNL A   1      38.674  28.781  29.187  1.00  0.00     0.058 A 
ATOM     69  C   UNL A   1      37.655  28.956  30.143  1.00  0.00     0.135 A 
ATOM     70  C   UNL A   1      38.433  29.350  27.919  1.00  0.00     0.135 A 
ATOM     71  F   UNL A   1      37.804  28.467  31.383  1.00  0.00    -0.206 F 
ATOM     72  C   UNL A   1      36.494  29.693  29.873  1.00  0.00     0.059 A 
ATOM     73  C   UNL A   1      37.280  30.076  27.624  1.00  0.00     0.059 A 
ATOM     74  F   UNL A   1      39.355  29.299  26.948  1.00  0.00    -0.206 F 
ATOM     75  C   UNL A   1      36.327  30.269  28.615  1.00  0.00     0.060 A 
BRANCH  75  76
ATOM     76  S   UNL A   1      34.926  31.374  28.315  1.00  0.00     0.124 S 
ATOM     77  O   UNL A   1      34.592  31.811  29.666  1.00  0.00    -0.237 OA
ATOM     78  O   UNL A   1      35.512  32.386  27.443  1.00  0.00    -0.237 OA
ATOM     79  O   UNL A   1      33.940  30.505  27.679  1.00  0.00    -0.744 OA
ENDBRANCH  75  76
ENDBRANCH  43  68
BRANCH  55  80
ATOM     80  C   UNL A   1      43.945  27.872  32.663  1.00  0.00     0.058 A 
ATOM     81  C   UNL A   1      43.837  26.473  32.563  1.00  0.00     0.135 A 
ATOM     82  C   UNL A   1      44.021  28.415  33.954  1.00  0.00     0.135 A 
ATOM     83  F   UNL A   1      43.865  25.863  31.370  1.00  0.00    -0.206 F 
ATOM     84  C   UNL A   1      43.767  25.657  33.694  1.00  0.00     0.059 A 
ATOM     85  C   UNL A   1      43.986  27.619  35.096  1.00  0.00     0.059 A 
ATOM     86  F   UNL A   1      44.188  29.738  34.118  1.00  0.00    -0.206 F 
ATOM     87  C   UNL A   1      43.844  26.240  34.959  1.00  0.00     0.060 A 
BRANCH  87  88
ATOM     88  S   UNL A   1      43.826  25.181  36.422  1.00  0.00     0.124 S 
ATOM     89  O   UNL A   1      44.959  25.693  37.186  1.00  0.00    -0.237 OA
ATOM     90  O   UNL A   1      42.507  25.444  36.989  1.00  0.00    -0.237 OA
ATOM     91  O   UNL A   1      44.001  23.839  35.873  1.00  0.00    -0.744 OA
ENDBRANCH  87  88
ENDBRANCH  55  80
ENDBRANCH  29  30
ENDBRANCH  22  24
ENDBRANCH  21  22
ENDBRANCH   1  21
TORSDOF 16
ENDMDL
MODEL 2
REMARK VINA RESULT:     -11.8      3.921     11.700
REMARK SMILES CC(=O)c1nnn(-c2ccc(C(=O)OCCOC(=O)c3ccc(-c4c5nc(c(-c6c(F)cc(S(=O)(=O)[O-])cc6F)c6ccc([nH]6)c(-c6c(F)cc(S(=O)(=O)[O-])cc6F)c6nc(c(-c7c(F)cc(S(=O)(=O)[O-])cc7F)c7ccc4[nH]7)C=C6)C=C5)cc3)cc2)c1C
REMARK SMILES IDX 16 1 15 2 14 3 12 4 13 5 11 6 8 7 9 8 87 9 10 10 86 11 7 12
REMARK SMILES IDX 4 13 5 14 88 15 6 16 89 17 2 18 1 19 3 20 17 21 18 22 19 23
REMARK SMILES IDX 20 24 21 25 85 26 22 27 84 28 23 29 24 30 25 31 78 32 26 33
REMARK SMILES IDX 83 34 77 35 79 36 27 37 82 38 76 39 75 40 28 42 62 43 41 44
REMARK SMILES IDX 61 45 42 46 45 47 60 48 80 49 43 50 44 51 59 53 81 54 46 55
REMARK SMILES IDX 29 56 30 57 39 58 31 59 32 60 38 61 40 62 33 63 34 64 35 65
REMARK SMILES IDX 36 66 37 67 63 68 64 69 73 70 65 71 66 72 72 73 74 74 67 75
REMARK SMILES IDX 68 76 69 77 70 78 71 79 47 80 48 81 57 82 49 83 50 84 56 85
REMARK SMILES IDX 58 86 51 87 52 88 53 89 54 90 55 91
REMARK H PARENT 79 41 45 52
REMARK Flexibility Score: inf
ROOT
ATOM      1  C   UNL A   1      33.584  33.412  27.822  1.00  0.00     0.275 C 
ENDROOT
BRANCH   1   2
ATOM      2  C   UNL A   1      33.191  34.727  28.481  1.00  0.00     0.275 C 
BRANCH   2   3
ATOM      3  O   UNL A   1      34.107  35.066  29.534  1.00  0.00    -0.458 OA
BRANCH   3   4
ATOM      4  C   UNL A   1      33.549  35.535  30.679  1.00  0.00     0.338 C 
ATOM      5  O   UNL A   1      32.686  36.399  30.766  1.00  0.00    -0.246 OA
BRANCH   4   6
ATOM      6  C   UNL A   1      34.102  34.819  31.855  1.00  0.00     0.060 A 
ATOM      7  C   UNL A   1      35.461  33.582  33.934  1.00  0.00     0.067 A 
ATOM      8  C   UNL A   1      35.136  34.935  34.054  1.00  0.00     0.029 A 
ATOM      9  C   UNL A   1      34.973  32.817  32.868  1.00  0.00     0.029 A 
ATOM     10  C   UNL A   1      34.473  35.557  32.992  1.00  0.00     0.018 A 
ATOM     11  C   UNL A   1      34.289  33.434  31.829  1.00  0.00     0.018 A 
BRANCH   7  12
ATOM     12  N   UNL A   1      36.432  33.021  34.786  1.00  0.00    -0.217 N 
ATOM     13  C   UNL A   1      38.186  32.000  35.589  1.00  0.00     0.151 A 
ATOM     14  N   UNL A   1      37.442  32.509  36.624  1.00  0.00    -0.126 NA
ATOM     15  C   UNL A   1      37.592  32.361  34.390  1.00  0.00     0.073 A 
ATOM     16  N   UNL A   1      36.451  33.228  36.115  1.00  0.00    -0.061 NA
ATOM     17  C   UNL A   1      38.016  32.242  32.972  1.00  0.00     0.069 C 
BRANCH  13  18
ATOM     18  C   UNL A   1      39.425  31.273  35.824  1.00  0.00     0.181 C 
ATOM     19  C   UNL A   1      40.726  32.029  35.717  1.00  0.00     0.095 C 
ATOM     20  O   UNL A   1      39.429  30.079  36.126  1.00  0.00    -0.293 OA
ENDBRANCH  13  18
ENDBRANCH   7  12
ENDBRANCH   4   6
ENDBRANCH   3   4
ENDBRANCH   2   3
ENDBRANCH   1   2
BRANCH   1  21
ATOM     21  O   UNL A   1      34.683  32.803  28.494  1.00  0.00    -0.458 OA
BRANCH  21  22
ATOM     22  C   UNL A   1      34.826  31.477  28.267  1.00  0.00     0.338 C 
ATOM     23  O   UNL A   1      34.024  30.728  27.734  1.00  0.00    -0.246 OA
BRANCH  22  24
ATOM     24  C   UNL A   1      36.024  31.001  28.958  1.00  0.00     0.060 A 
ATOM     25  C   UNL A   1      37.067  31.913  29.150  1.00  0.00     0.016 A 
ATOM     26  C   UNL A   1      36.202  29.621  29.132  1.00  0.00     0.016 A 
ATOM     27  C   UNL A   1      38.337  31.421  29.358  1.00  0.00     0.010 A 
ATOM     28  C   UNL A   1      37.469  29.132  29.327  1.00  0.00     0.010 A 
ATOM     29  C   UNL A   1      38.530  30.034  29.363  1.00  0.00    -0.014 A 
BRANCH  29  30
ATOM     30  C   UNL A   1      39.880  29.531  29.502  1.00  0.00     0.031 A 
ATOM     31  C   UNL A   1      40.281  29.323  30.914  1.00  0.00     0.074 A 
ATOM     32  C   UNL A   1      40.616  29.159  28.439  1.00  0.00     0.049 A 
ATOM     33  N   UNL A   1      41.207  29.930  31.575  1.00  0.00    -0.248 NA
ATOM     34  C   UNL A   1      39.426  28.454  31.741  1.00  0.00     0.031 C 
ATOM     35  C   UNL A   1      40.198  29.045  27.038  1.00  0.00     0.029 A 
ATOM     36  N   UNL A   1      41.889  28.689  28.410  1.00  0.00    -0.354 N 
ATOM     37  C   UNL A   1      41.199  29.358  32.844  1.00  0.00     0.074 A 
ATOM     38  C   UNL A   1      39.974  28.611  32.945  1.00  0.00     0.031 C 
ATOM     39  C   UNL A   1      41.114  28.317  26.359  1.00  0.00     0.029 A 
ATOM     40  C   UNL A   1      42.233  28.028  27.239  1.00  0.00     0.049 A 
ATOM     41  H   UNL A   1      42.517  28.805  29.160  1.00  0.00     0.167 HD
ATOM     42  C   UNL A   1      42.314  29.344  33.621  1.00  0.00     0.037 A 
ATOM     43  C   UNL A   1      43.320  27.232  27.061  1.00  0.00     0.037 A 
ATOM     44  C   UNL A   1      43.276  30.317  33.169  1.00  0.00     0.049 A 
ATOM     45  C   UNL A   1      44.290  27.576  28.138  1.00  0.00     0.074 A 
ATOM     46  C   UNL A   1      43.261  31.692  33.023  1.00  0.00     0.029 A 
ATOM     47  N   UNL A   1      44.336  29.872  32.418  1.00  0.00    -0.354 N 
ATOM     48  N   UNL A   1      44.896  28.729  28.231  1.00  0.00    -0.248 NA
ATOM     49  C   UNL A   1      44.226  26.809  29.375  1.00  0.00     0.031 C 
ATOM     50  C   UNL A   1      43.997  31.945  31.829  1.00  0.00     0.029 A 
ATOM     51  C   UNL A   1      44.470  30.723  31.349  1.00  0.00     0.049 A 
ATOM     52  H   UNL A   1      44.898  29.086  32.611  1.00  0.00     0.167 HD
ATOM     53  C   UNL A   1      44.909  29.020  29.588  1.00  0.00     0.074 A 
ATOM     54  C   UNL A   1      44.555  27.766  30.248  1.00  0.00     0.031 C 
ATOM     55  C   UNL A   1      44.924  30.311  30.039  1.00  0.00     0.037 A 
BRANCH  42  56
ATOM     56  C   UNL A   1      42.683  28.208  34.545  1.00  0.00     0.058 A 
ATOM     57  C   UNL A   1      42.875  28.472  35.915  1.00  0.00     0.135 A 
ATOM     58  C   UNL A   1      43.129  26.942  34.100  1.00  0.00     0.135 A 
ATOM     59  F   UNL A   1      42.492  29.643  36.448  1.00  0.00    -0.206 F 
ATOM     60  C   UNL A   1      43.538  27.581  36.760  1.00  0.00     0.059 A 
ATOM     61  C   UNL A   1      43.739  26.017  34.937  1.00  0.00     0.059 A 
ATOM     62  F   UNL A   1      43.090  26.575  32.814  1.00  0.00    -0.206 F 
ATOM     63  C   UNL A   1      43.981  26.363  36.254  1.00  0.00     0.060 A 
BRANCH  63  64
ATOM     64  S   UNL A   1      44.940  25.262  37.307  1.00  0.00     0.124 S 
ATOM     65  O   UNL A   1      44.388  25.567  38.622  1.00  0.00    -0.237 OA
ATOM     66  O   UNL A   1      44.604  23.952  36.759  1.00  0.00    -0.237 OA
ATOM     67  O   UNL A   1      46.315  25.695  37.082  1.00  0.00    -0.744 OA
ENDBRANCH  63  64
ENDBRANCH  42  56
BRANCH  43  68
ATOM     68  C   UNL A   1      43.389  25.955  26.296  1.00  0.00     0.058 A 
ATOM     69  C   UNL A   1      44.433  25.709  25.385  1.00  0.00     0.135 A 
ATOM     70  C   UNL A   1      42.601  24.839  26.646  1.00  0.00     0.135 A 
ATOM     71  F   UNL A   1      45.248  26.706  25.009  1.00  0.00    -0.206 F 
ATOM     72  C   UNL A   1      44.711  24.426  24.893  1.00  0.00     0.059 A 
ATOM     73  C   UNL A   1      42.851  23.556  26.160  1.00  0.00     0.059 A 
ATOM     74  F   UNL A   1      41.616  24.938  27.550  1.00  0.00    -0.206 F 
ATOM     75  C   UNL A   1      43.925  23.351  25.305  1.00  0.00     0.060 A 
BRANCH  75  76
ATOM     76  S   UNL A   1      44.387  21.669  24.825  1.00  0.00     0.124 S 
ATOM     77  O   UNL A   1      45.645  21.485  25.541  1.00  0.00    -0.237 OA
ATOM     78  O   UNL A   1      43.256  20.887  25.311  1.00  0.00    -0.237 OA
ATOM     79  O   UNL A   1      44.503  21.752  23.372  1.00  0.00    -0.744 OA
ENDBRANCH  75  76
ENDBRANCH  43  68
BRANCH  55  80
ATOM     80  C   UNL A   1      45.214  31.411  29.050  1.00  0.00     0.058 A 
ATOM     81  C   UNL A   1      46.501  31.767  28.606  1.00  0.00     0.135 A 
ATOM     82  C   UNL A   1      44.126  32.019  28.406  1.00  0.00     0.135 A 
ATOM     83  F   UNL A   1      47.591  31.158  29.092  1.00  0.00    -0.206 F 
ATOM     84  C   UNL A   1      46.696  32.714  27.598  1.00  0.00     0.059 A 
ATOM     85  C   UNL A   1      44.296  32.941  27.376  1.00  0.00     0.059 A 
ATOM     86  F   UNL A   1      42.871  31.676  28.739  1.00  0.00    -0.206 F 
ATOM     87  C   UNL A   1      45.586  33.295  26.986  1.00  0.00     0.060 A 
BRANCH  87  88
ATOM     88  S   UNL A   1      45.835  34.465  25.633  1.00  0.00     0.124 S 
ATOM     89  O   UNL A   1      45.000  33.898  24.579  1.00  0.00    -0.237 OA
ATOM     90  O   UNL A   1      45.364  35.722  26.208  1.00  0.00    -0.237 OA
ATOM     91  O   UNL A   1      47.274  34.403  25.390  1.00  0.00    -0.744 OA
ENDBRANCH  87  88
ENDBRANCH  55  80
ENDBRANCH  29  30
ENDBRANCH  22  24
ENDBRANCH  21  22
ENDBRANCH   1  21
TORSDOF 16
ENDMDL
MODEL 3
REMARK VINA RESULT:     -11.8      3.185      5.444
REMARK SMILES CC(=O)c1nnn(-c2ccc(C(=O)OCCOC(=O)c3ccc(-c4c5nc(c(-c6c(F)cc(S(=O)(=O)[O-])cc6F)c6ccc([nH]6)c(-c6c(F)cc(S(=O)(=O)[O-])cc6F)c6nc(c(-c7c(F)cc(S(=O)(=O)[O-])cc7F)c7ccc4[nH]7)C=C6)C=C5)cc3)cc2)c1C
REMARK SMILES IDX 16 1 15 2 14 3 12 4 13 5 11 6 8 7 9 8 87 9 10 10 86 11 7 12
REMARK SMILES IDX 4 13 5 14 88 15 6 16 89 17 2 18 1 19 3 20 17 21 18 22 19 23
REMARK SMILES IDX 20 24 21 25 85 26 22 27 84 28 23 29 24 30 25 31 78 32 26 33
REMARK SMILES IDX 83 34 77 35 79 36 27 37 82 38 76 39 75 40 28 42 62 43 41 44
REMARK SMILES IDX 61 45 42 46 45 47 60 48 80 49 43 50 44 51 59 53 81 54 46 55
REMARK SMILES IDX 29 56 30 57 39 58 31 59 32 60 38 61 40 62 33 63 34 64 35 65
REMARK SMILES IDX 36 66 37 67 63 68 64 69 73 70 65 71 66 72 72 73 74 74 67 75
REMARK SMILES IDX 68 76 69 77 70 78 71 79 47 80 48 81 57 82 49 83 50 84 56 85
REMARK SMILES IDX 58 86 51 87 52 88 53 89 54 90 55 91
REMARK H PARENT 79 41 45 52
REMARK Flexibility Score: inf
ROOT
ATOM      1  C   UNL A   1      40.592  20.336  26.550  1.00  0.00     0.275 C 
ENDROOT
BRANCH   1   2
ATOM      2  C   UNL A   1      41.854  19.495  26.429  1.00  0.00     0.275 C 
BRANCH   2   3
ATOM      3  O   UNL A   1      42.410  19.589  25.108  1.00  0.00    -0.458 OA
BRANCH   3   4
ATOM      4  C   UNL A   1      43.764  19.631  25.034  1.00  0.00     0.338 C 
ATOM      5  O   UNL A   1      44.508  18.693  24.779  1.00  0.00    -0.246 OA
BRANCH   4   6
ATOM      6  C   UNL A   1      44.252  21.013  25.268  1.00  0.00     0.060 A 
ATOM      7  C   UNL A   1      45.274  23.592  25.359  1.00  0.00     0.067 A 
ATOM      8  C   UNL A   1      43.971  23.400  24.892  1.00  0.00     0.029 A 
ATOM      9  C   UNL A   1      45.998  22.535  25.925  1.00  0.00     0.029 A 
ATOM     10  C   UNL A   1      43.473  22.096  24.826  1.00  0.00     0.018 A 
ATOM     11  C   UNL A   1      45.485  21.245  25.884  1.00  0.00     0.018 A 
BRANCH   7  12
ATOM     12  N   UNL A   1      45.937  24.806  25.096  1.00  0.00    -0.217 N 
ATOM     13  C   UNL A   1      46.666  26.861  25.168  1.00  0.00     0.151 A 
ATOM     14  N   UNL A   1      47.274  26.200  24.130  1.00  0.00    -0.126 NA
ATOM     15  C   UNL A   1      45.842  25.976  25.844  1.00  0.00     0.073 A 
ATOM     16  N   UNL A   1      46.914  24.924  24.178  1.00  0.00    -0.061 NA
ATOM     17  C   UNL A   1      45.075  26.070  27.112  1.00  0.00     0.069 C 
BRANCH  13  18
ATOM     18  C   UNL A   1      46.967  28.254  25.467  1.00  0.00     0.181 C 
ATOM     19  C   UNL A   1      47.955  28.550  26.569  1.00  0.00     0.095 C 
ATOM     20  O   UNL A   1      46.457  29.178  24.833  1.00  0.00    -0.293 OA
ENDBRANCH  13  18
ENDBRANCH   7  12
ENDBRANCH   4   6
ENDBRANCH   3   4
ENDBRANCH   2   3
ENDBRANCH   1   2
BRANCH   1  21
ATOM     21  O   UNL A   1      40.895  21.669  26.955  1.00  0.00    -0.458 OA
BRANCH  21  22
ATOM     22  C   UNL A   1      39.942  22.583  26.662  1.00  0.00     0.338 C 
ATOM     23  O   UNL A   1      38.885  22.391  26.084  1.00  0.00    -0.246 OA
BRANCH  22  24
ATOM     24  C   UNL A   1      40.458  23.921  26.956  1.00  0.00     0.060 A 
ATOM     25  C   UNL A   1      41.585  24.014  27.778  1.00  0.00     0.016 A 
ATOM     26  C   UNL A   1      39.659  25.035  26.660  1.00  0.00     0.016 A 
ATOM     27  C   UNL A   1      41.816  25.201  28.439  1.00  0.00     0.010 A 
ATOM     28  C   UNL A   1      39.884  26.212  27.328  1.00  0.00     0.010 A 
ATOM     29  C   UNL A   1      40.914  26.257  28.264  1.00  0.00    -0.014 A 
BRANCH  29  30
ATOM     30  C   UNL A   1      41.124  27.470  29.026  1.00  0.00     0.031 A 
ATOM     31  C   UNL A   1      42.198  28.327  28.471  1.00  0.00     0.074 A 
ATOM     32  C   UNL A   1      40.311  27.827  30.038  1.00  0.00     0.049 A 
ATOM     33  N   UNL A   1      43.323  28.645  29.017  1.00  0.00    -0.248 NA
ATOM     34  C   UNL A   1      42.080  28.736  27.061  1.00  0.00     0.031 C 
ATOM     35  C   UNL A   1      39.054  27.200  30.459  1.00  0.00     0.029 A 
ATOM     36  N   UNL A   1      40.389  28.914  30.846  1.00  0.00    -0.354 N 
ATOM     37  C   UNL A   1      43.959  29.481  28.105  1.00  0.00     0.074 A 
ATOM     38  C   UNL A   1      43.249  29.343  26.862  1.00  0.00     0.031 C 
ATOM     39  C   UNL A   1      38.383  28.052  31.268  1.00  0.00     0.029 A 
ATOM     40  C   UNL A   1      39.214  29.216  31.521  1.00  0.00     0.049 A 
ATOM     41  H   UNL A   1      41.211  29.447  30.944  1.00  0.00     0.167 HD
ATOM     42  C   UNL A   1      44.869  30.407  28.509  1.00  0.00     0.037 A 
ATOM     43  C   UNL A   1      38.936  30.385  32.155  1.00  0.00     0.037 A 
ATOM     44  C   UNL A   1      45.365  30.108  29.828  1.00  0.00     0.049 A 
ATOM     45  C   UNL A   1      40.239  31.060  32.410  1.00  0.00     0.074 A 
ATOM     46  C   UNL A   1      46.042  29.039  30.385  1.00  0.00     0.029 A 
ATOM     47  N   UNL A   1      44.844  30.813  30.886  1.00  0.00    -0.354 N 
ATOM     48  N   UNL A   1      41.151  30.599  33.224  1.00  0.00    -0.248 NA
ATOM     49  C   UNL A   1      40.723  31.997  31.405  1.00  0.00     0.031 C 
ATOM     50  C   UNL A   1      45.490  28.891  31.690  1.00  0.00     0.029 A 
ATOM     51  C   UNL A   1      44.557  29.912  31.880  1.00  0.00     0.049 A 
ATOM     52  H   UNL A   1      44.702  31.787  30.923  1.00  0.00     0.167 HD
ATOM     53  C   UNL A   1      42.359  30.842  32.584  1.00  0.00     0.074 A 
ATOM     54  C   UNL A   1      42.037  31.775  31.507  1.00  0.00     0.031 C 
ATOM     55  C   UNL A   1      43.451  30.050  32.803  1.00  0.00     0.037 A 
BRANCH  42  56
ATOM     56  C   UNL A   1      45.027  31.767  27.871  1.00  0.00     0.058 A 
ATOM     57  C   UNL A   1      46.288  32.149  27.371  1.00  0.00     0.135 A 
ATOM     58  C   UNL A   1      44.077  32.807  27.988  1.00  0.00     0.135 A 
ATOM     59  F   UNL A   1      47.268  31.244  27.221  1.00  0.00    -0.206 F 
ATOM     60  C   UNL A   1      46.606  33.477  27.089  1.00  0.00     0.059 A 
ATOM     61  C   UNL A   1      44.356  34.127  27.658  1.00  0.00     0.059 A 
ATOM     62  F   UNL A   1      42.865  32.621  28.521  1.00  0.00    -0.206 F 
ATOM     63  C   UNL A   1      45.637  34.461  27.253  1.00  0.00     0.060 A 
BRANCH  63  64
ATOM     64  S   UNL A   1      46.075  36.188  27.006  1.00  0.00     0.124 S 
ATOM     65  O   UNL A   1      46.944  36.433  28.150  1.00  0.00    -0.237 OA
ATOM     66  O   UNL A   1      46.729  36.150  25.701  1.00  0.00    -0.237 OA
ATOM     67  O   UNL A   1      44.785  36.870  27.033  1.00  0.00    -0.744 OA
ENDBRANCH  63  64
ENDBRANCH  42  56
BRANCH  43  68
ATOM     68  C   UNL A   1      37.636  31.113  32.180  1.00  0.00     0.058 A 
ATOM     69  C   UNL A   1      37.106  31.617  33.383  1.00  0.00     0.135 A 
ATOM     70  C   UNL A   1      37.026  31.579  30.996  1.00  0.00     0.135 A 
ATOM     71  F   UNL A   1      37.636  31.247  34.559  1.00  0.00    -0.206 F 
ATOM     72  C   UNL A   1      36.073  32.563  33.408  1.00  0.00     0.059 A 
ATOM     73  C   UNL A   1      35.988  32.510  30.997  1.00  0.00     0.059 A 
ATOM     74  F   UNL A   1      37.483  31.215  29.789  1.00  0.00    -0.206 F 
ATOM     75  C   UNL A   1      35.535  33.020  32.206  1.00  0.00     0.060 A 
BRANCH  75  76
ATOM     76  S   UNL A   1      34.333  34.372  32.219  1.00  0.00     0.124 S 
ATOM     77  O   UNL A   1      35.037  35.394  32.986  1.00  0.00    -0.237 OA
ATOM     78  O   UNL A   1      34.161  34.646  30.797  1.00  0.00    -0.237 OA
ATOM     79  O   UNL A   1      33.171  33.785  32.882  1.00  0.00    -0.744 OA
ENDBRANCH  75  76
ENDBRANCH  43  68
BRANCH  55  80
ATOM     80  C   UNL A   1      43.415  29.083  33.959  1.00  0.00     0.058 A 
ATOM     81  C   UNL A   1      43.738  29.415  35.288  1.00  0.00     0.135 A 
ATOM     82  C   UNL A   1      42.873  27.809  33.734  1.00  0.00     0.135 A 
ATOM     83  F   UNL A   1      44.162  30.645  35.607  1.00  0.00    -0.206 F 
ATOM     84  C   UNL A   1      43.569  28.507  36.335  1.00  0.00     0.059 A 
ATOM     85  C   UNL A   1      42.664  26.900  34.768  1.00  0.00     0.059 A 
ATOM     86  F   UNL A   1      42.484  27.453  32.498  1.00  0.00    -0.206 F 
ATOM     87  C   UNL A   1      43.028  27.250  36.065  1.00  0.00     0.060 A 
BRANCH  87  88
ATOM     88  S   UNL A   1      42.741  26.101  37.429  1.00  0.00     0.124 S 
ATOM     89  O   UNL A   1      41.315  26.277  37.683  1.00  0.00    -0.237 OA
ATOM     90  O   UNL A   1      43.129  24.818  36.852  1.00  0.00    -0.237 OA
ATOM     91  O   UNL A   1      43.626  26.594  38.482  1.00  0.00    -0.744 OA
ENDBRANCH  87  88
ENDBRANCH  55  80
ENDBRANCH  29  30
ENDBRANCH  22  24
ENDBRANCH  21  22
ENDBRANCH   1  21
TORSDOF 16
ENDMDL
