MODEL 1
REMARK VINA RESULT:     -12.6      0.000      0.000
REMARK SMILES O=C(OCCOC(=O)[C@]1(NC(=O)C2CCN(C(=O)C3CC3)CC2)CCCc2ccccc21)c1ccc(-c2c3nc(c(-c4c(F)cc(S(=O)(=O)[O-])cc4F)c4ccc([nH]4)c(-c4c(F)cc(S(=O)(=O)[O-])cc4F)c4nc(c(-c5c(F)cc(S(=O)(=O)[O-])cc5F)c5ccc2[nH]5)C=C4)C=C3)cc1
REMARK SMILES IDX 4 1 3 2 2 3 1 4 33 5 34 6 98 7 35 8 97 9 36 10 37 11 38 12
REMARK SMILES IDX 91 13 39 14 96 15 90 16 92 17 40 18 95 19 89 20 88 21 41 23
REMARK SMILES IDX 75 24 54 25 74 26 55 27 58 28 73 29 93 30 56 31 57 32 72 34
REMARK SMILES IDX 94 35 59 36 42 37 43 38 52 39 44 40 45 41 51 42 53 43 46 44
REMARK SMILES IDX 47 45 48 46 49 47 50 48 76 49 77 50 86 51 78 52 79 53 85 54
REMARK SMILES IDX 87 55 80 56 81 57 82 58 83 59 84 60 60 61 61 62 70 63 62 64
REMARK SMILES IDX 63 65 69 66 71 67 64 68 65 69 66 70 67 71 68 72 5 73 6 74
REMARK SMILES IDX 7 75 8 76 9 77 24 78 32 79 25 80 27 81 31 82 26 83 28 84
REMARK SMILES IDX 30 85 29 86 10 87 11 88 12 90 13 91 14 92 23 93 15 94 22 95
REMARK SMILES IDX 16 96 17 97 18 98 19 99 20 100 21 101
REMARK H PARENT 92 22 58 33 10 89
REMARK Flexibility Score: inf
ROOT
ATOM      1  C   UNL A   1      38.014  23.948  26.510  1.00  0.00     0.275 C 
ENDROOT
BRANCH   1   2
ATOM      2  O   UNL A   1      39.437  24.204  26.434  1.00  0.00    -0.458 OA
BRANCH   2   3
ATOM      3  C   UNL A   1      40.117  25.379  26.342  1.00  0.00     0.338 C 
ATOM      4  O   UNL A   1      40.872  25.553  25.387  1.00  0.00    -0.246 OA
BRANCH   3   5
ATOM      5  C   UNL A   1      40.212  26.336  27.494  1.00  0.00     0.060 A 
ATOM      6  C   UNL A   1      39.458  26.247  28.652  1.00  0.00     0.016 A 
ATOM      7  C   UNL A   1      41.163  27.377  27.437  1.00  0.00     0.016 A 
ATOM      8  C   UNL A   1      39.741  27.036  29.777  1.00  0.00     0.010 A 
ATOM      9  C   UNL A   1      41.427  28.205  28.554  1.00  0.00     0.010 A 
ATOM     10  C   UNL A   1      40.741  28.009  29.759  1.00  0.00    -0.014 A 
BRANCH  10  11
ATOM     11  C   UNL A   1      40.768  28.961  30.908  1.00  0.00     0.031 A 
ATOM     12  C   UNL A   1      39.622  29.922  30.987  1.00  0.00     0.074 A 
ATOM     13  C   UNL A   1      41.631  28.875  31.944  1.00  0.00     0.049 A 
ATOM     14  N   UNL A   1      39.381  30.850  31.870  1.00  0.00    -0.248 NA
ATOM     15  C   UNL A   1      38.619  29.823  29.914  1.00  0.00     0.031 C 
ATOM     16  C   UNL A   1      42.731  27.930  32.040  1.00  0.00     0.029 A 
ATOM     17  N   UNL A   1      41.680  29.541  33.151  1.00  0.00    -0.354 N 
ATOM     18  C   UNL A   1      38.246  31.500  31.412  1.00  0.00     0.074 A 
ATOM     19  C   UNL A   1      37.825  30.838  30.198  1.00  0.00     0.031 C 
ATOM     20  C   UNL A   1      43.277  27.989  33.268  1.00  0.00     0.029 A 
ATOM     21  C   UNL A   1      42.616  29.036  34.036  1.00  0.00     0.049 A 
ATOM     22  H   UNL A   1      41.101  30.308  33.363  1.00  0.00     0.167 HD
ATOM     23  C   UNL A   1      37.632  32.582  31.939  1.00  0.00     0.037 A 
ATOM     24  C   UNL A   1      42.899  29.376  35.314  1.00  0.00     0.037 A 
ATOM     25  C   UNL A   1      38.042  33.212  33.160  1.00  0.00     0.049 A 
ATOM     26  C   UNL A   1      42.174  30.564  35.904  1.00  0.00     0.074 A 
ATOM     27  C   UNL A   1      37.562  34.373  33.733  1.00  0.00     0.029 A 
ATOM     28  N   UNL A   1      39.017  32.712  34.009  1.00  0.00    -0.354 N 
ATOM     29  N   UNL A   1      41.185  31.262  35.395  1.00  0.00    -0.248 NA
ATOM     30  C   UNL A   1      42.635  31.051  37.214  1.00  0.00     0.031 C 
ATOM     31  C   UNL A   1      38.262  34.587  34.925  1.00  0.00     0.029 A 
ATOM     32  C   UNL A   1      39.148  33.535  35.112  1.00  0.00     0.049 A 
ATOM     33  H   UNL A   1      39.541  31.893  33.851  1.00  0.00     0.167 HD
ATOM     34  C   UNL A   1      40.920  32.274  36.311  1.00  0.00     0.074 A 
ATOM     35  C   UNL A   1      41.817  32.070  37.430  1.00  0.00     0.031 C 
ATOM     36  C   UNL A   1      40.037  33.299  36.221  1.00  0.00     0.037 A 
BRANCH  23  37
ATOM     37  C   UNL A   1      36.545  33.188  31.107  1.00  0.00     0.058 A 
ATOM     38  C   UNL A   1      36.815  33.935  29.952  1.00  0.00     0.135 A 
ATOM     39  C   UNL A   1      35.215  33.110  31.551  1.00  0.00     0.135 A 
ATOM     40  F   UNL A   1      38.078  34.081  29.520  1.00  0.00    -0.206 F 
ATOM     41  C   UNL A   1      35.807  34.626  29.290  1.00  0.00     0.059 A 
ATOM     42  C   UNL A   1      34.188  33.768  30.887  1.00  0.00     0.059 A 
ATOM     43  F   UNL A   1      34.912  32.425  32.665  1.00  0.00    -0.206 F 
ATOM     44  C   UNL A   1      34.499  34.544  29.772  1.00  0.00     0.060 A 
BRANCH  44  45
ATOM     45  S   UNL A   1      33.201  35.483  28.941  1.00  0.00     0.124 S 
ATOM     46  O   UNL A   1      32.535  34.431  28.172  1.00  0.00    -0.237 OA
ATOM     47  O   UNL A   1      32.432  36.014  30.071  1.00  0.00    -0.237 OA
ATOM     48  O   UNL A   1      33.930  36.464  28.167  1.00  0.00    -0.744 OA
ENDBRANCH  44  45
ENDBRANCH  23  37
BRANCH  24  49
ATOM     49  C   UNL A   1      43.930  28.652  36.130  1.00  0.00     0.058 A 
ATOM     50  C   UNL A   1      43.580  27.558  36.943  1.00  0.00     0.135 A 
ATOM     51  C   UNL A   1      45.266  29.079  36.185  1.00  0.00     0.135 A 
ATOM     52  F   UNL A   1      42.314  27.112  36.958  1.00  0.00    -0.206 F 
ATOM     53  C   UNL A   1      44.499  26.940  37.792  1.00  0.00     0.059 A 
ATOM     54  C   UNL A   1      46.213  28.456  36.999  1.00  0.00     0.059 A 
ATOM     55  F   UNL A   1      45.672  30.121  35.443  1.00  0.00    -0.206 F 
ATOM     56  C   UNL A   1      45.816  27.398  37.815  1.00  0.00     0.060 A 
BRANCH  56  57
ATOM     57  S   UNL A   1      47.012  26.585  38.901  1.00  0.00     0.124 S 
ATOM     58  O   UNL A   1      47.902  25.949  37.937  1.00  0.00    -0.237 OA
ATOM     59  O   UNL A   1      47.573  27.707  39.646  1.00  0.00    -0.237 OA
ATOM     60  O   UNL A   1      46.183  25.675  39.688  1.00  0.00    -0.744 OA
ENDBRANCH  56  57
ENDBRANCH  24  49
BRANCH  36  61
ATOM     61  C   UNL A   1      39.981  34.274  37.361  1.00  0.00     0.058 A 
ATOM     62  C   UNL A   1      40.797  35.415  37.388  1.00  0.00     0.135 A 
ATOM     63  C   UNL A   1      39.029  34.117  38.380  1.00  0.00     0.135 A 
ATOM     64  F   UNL A   1      41.724  35.608  36.437  1.00  0.00    -0.206 F 
ATOM     65  C   UNL A   1      40.675  36.367  38.394  1.00  0.00     0.059 A 
ATOM     66  C   UNL A   1      38.874  35.069  39.383  1.00  0.00     0.059 A 
ATOM     67  F   UNL A   1      38.218  33.048  38.389  1.00  0.00    -0.206 F 
ATOM     68  C   UNL A   1      39.705  36.188  39.383  1.00  0.00     0.060 A 
BRANCH  68  69
ATOM     69  S   UNL A   1      39.510  37.466  40.643  1.00  0.00     0.124 S 
ATOM     70  O   UNL A   1      40.800  38.143  40.579  1.00  0.00    -0.237 OA
ATOM     71  O   UNL A   1      38.369  38.227  40.145  1.00  0.00    -0.237 OA
ATOM     72  O   UNL A   1      39.261  36.703  41.864  1.00  0.00    -0.744 OA
ENDBRANCH  68  69
ENDBRANCH  36  61
ENDBRANCH  10  11
ENDBRANCH   3   5
ENDBRANCH   2   3
ENDBRANCH   1   2
BRANCH   1  73
ATOM     73  C   UNL A   1      37.439  23.639  25.125  1.00  0.00     0.274 C 
BRANCH  73  74
ATOM     74  O   UNL A   1      36.080  24.093  24.998  1.00  0.00    -0.460 OA
BRANCH  74  75
ATOM     75  C   UNL A   1      35.333  23.527  24.003  1.00  0.00     0.336 C 
ATOM     76  O   UNL A   1      35.823  23.081  22.970  1.00  0.00    -0.249 OA
BRANCH  75  77
ATOM     77  C   UNL A   1      33.851  23.320  24.450  1.00  0.00     0.164 C 
ATOM     78  C   UNL A   1      33.847  22.973  25.956  1.00  0.00     0.046 C 
ATOM     79  C   UNL A   1      33.258  22.053  23.770  1.00  0.00    -0.008 A 
ATOM     80  C   UNL A   1      34.657  21.731  26.320  1.00  0.00     0.008 C 
ATOM     81  C   UNL A   1      33.384  20.760  24.345  1.00  0.00    -0.042 A 
ATOM     82  C   UNL A   1      32.538  22.180  22.571  1.00  0.00     0.007 A 
ATOM     83  C   UNL A   1      34.064  20.497  25.668  1.00  0.00     0.036 C 
ATOM     84  C   UNL A   1      32.784  19.654  23.721  1.00  0.00     0.004 A 
ATOM     85  C   UNL A   1      31.924  21.074  21.981  1.00  0.00     0.000 A 
ATOM     86  C   UNL A   1      32.049  19.813  22.552  1.00  0.00     0.000 A 
BRANCH  77  87
ATOM     87  N   UNL A   1      32.885  24.475  24.223  1.00  0.00    -0.336 N 
ATOM     88  C   UNL A   1      31.945  25.192  24.896  1.00  0.00     0.224 C 
ATOM     89  H   UNL A   1      32.965  24.807  23.299  1.00  0.00     0.164 HD
ATOM     90  O   UNL A   1      30.888  25.384  24.292  1.00  0.00    -0.275 OA
BRANCH  88  91
ATOM     91  C   UNL A   1      32.195  25.994  26.179  1.00  0.00     0.082 C 
ATOM     92  C   UNL A   1      31.222  27.162  26.387  1.00  0.00     0.035 C 
ATOM     93  C   UNL A   1      33.648  26.568  26.163  1.00  0.00     0.035 C 
ATOM     94  C   UNL A   1      31.480  28.359  25.472  1.00  0.00     0.120 C 
ATOM     95  C   UNL A   1      33.822  27.861  25.332  1.00  0.00     0.120 C 
ATOM     96  N   UNL A   1      32.819  28.841  25.741  1.00  0.00    -0.342 N 
ATOM     97  C   UNL A   1      32.939  30.002  26.502  1.00  0.00     0.225 C 
ATOM     98  O   UNL A   1      31.933  30.585  26.919  1.00  0.00    -0.275 OA
BRANCH  97  99
ATOM     99  C   UNL A   1      34.231  30.624  26.907  1.00  0.00     0.079 C 
ATOM    100  C   UNL A   1      34.523  31.306  28.211  1.00  0.00     0.014 C 
ATOM    101  C   UNL A   1      35.207  30.005  27.867  1.00  0.00     0.014 C 
ENDBRANCH  97  99
ENDBRANCH  88  91
ENDBRANCH  77  87
ENDBRANCH  75  77
ENDBRANCH  74  75
ENDBRANCH  73  74
ENDBRANCH   1  73
TORSDOF 17
ENDMDL
MODEL 2
REMARK VINA RESULT:     -12.3      7.093     12.211
REMARK SMILES O=C(OCCOC(=O)[C@]1(NC(=O)C2CCN(C(=O)C3CC3)CC2)CCCc2ccccc21)c1ccc(-c2c3nc(c(-c4c(F)cc(S(=O)(=O)[O-])cc4F)c4ccc([nH]4)c(-c4c(F)cc(S(=O)(=O)[O-])cc4F)c4nc(c(-c5c(F)cc(S(=O)(=O)[O-])cc5F)c5ccc2[nH]5)C=C4)C=C3)cc1
REMARK SMILES IDX 4 1 3 2 2 3 1 4 33 5 34 6 98 7 35 8 97 9 36 10 37 11 38 12
REMARK SMILES IDX 91 13 39 14 96 15 90 16 92 17 40 18 95 19 89 20 88 21 41 23
REMARK SMILES IDX 75 24 54 25 74 26 55 27 58 28 73 29 93 30 56 31 57 32 72 34
REMARK SMILES IDX 94 35 59 36 42 37 43 38 52 39 44 40 45 41 51 42 53 43 46 44
REMARK SMILES IDX 47 45 48 46 49 47 50 48 76 49 77 50 86 51 78 52 79 53 85 54
REMARK SMILES IDX 87 55 80 56 81 57 82 58 83 59 84 60 60 61 61 62 70 63 62 64
REMARK SMILES IDX 63 65 69 66 71 67 64 68 65 69 66 70 67 71 68 72 5 73 6 74
REMARK SMILES IDX 7 75 8 76 9 77 24 78 32 79 25 80 27 81 31 82 26 83 28 84
REMARK SMILES IDX 30 85 29 86 10 87 11 88 12 90 13 91 14 92 23 93 15 94 22 95
REMARK SMILES IDX 16 96 17 97 18 98 19 99 20 100 21 101
REMARK H PARENT 92 22 58 33 10 89
REMARK Flexibility Score: inf
ROOT
ATOM      1  C   UNL A   1      34.078  30.212  27.281  1.00  0.00     0.275 C 
ENDROOT
BRANCH   1   2
ATOM      2  O   UNL A   1      35.230  29.454  27.722  1.00  0.00    -0.458 OA
BRANCH   2   3
ATOM      3  C   UNL A   1      36.107  29.693  28.734  1.00  0.00     0.338 C 
ATOM      4  O   UNL A   1      35.734  30.364  29.694  1.00  0.00    -0.246 OA
BRANCH   3   5
ATOM      5  C   UNL A   1      37.577  29.427  28.592  1.00  0.00     0.060 A 
ATOM      6  C   UNL A   1      38.276  29.497  27.399  1.00  0.00     0.016 A 
ATOM      7  C   UNL A   1      38.330  29.134  29.749  1.00  0.00     0.016 A 
ATOM      8  C   UNL A   1      39.677  29.452  27.362  1.00  0.00     0.010 A 
ATOM      9  C   UNL A   1      39.742  29.046  29.716  1.00  0.00     0.010 A 
ATOM     10  C   UNL A   1      40.436  29.251  28.517  1.00  0.00    -0.014 A 
BRANCH  10  11
ATOM     11  C   UNL A   1      41.884  28.952  28.320  1.00  0.00     0.031 A 
ATOM     12  C   UNL A   1      42.204  27.585  27.799  1.00  0.00     0.074 A 
ATOM     13  C   UNL A   1      42.867  29.876  28.398  1.00  0.00     0.049 A 
ATOM     14  N   UNL A   1      43.363  27.053  27.529  1.00  0.00    -0.248 NA
ATOM     15  C   UNL A   1      41.054  26.697  27.561  1.00  0.00     0.031 C 
ATOM     16  C   UNL A   1      42.684  31.260  28.800  1.00  0.00     0.029 A 
ATOM     17  N   UNL A   1      44.207  29.816  28.074  1.00  0.00    -0.354 N 
ATOM     18  C   UNL A   1      43.087  25.742  27.171  1.00  0.00     0.074 A 
ATOM     19  C   UNL A   1      41.653  25.572  27.220  1.00  0.00     0.031 C 
ATOM     20  C   UNL A   1      43.822  31.949  28.597  1.00  0.00     0.029 A 
ATOM     21  C   UNL A   1      44.853  31.039  28.117  1.00  0.00     0.049 A 
ATOM     22  H   UNL A   1      44.662  28.977  27.834  1.00  0.00     0.167 HD
ATOM     23  C   UNL A   1      43.960  24.757  26.868  1.00  0.00     0.037 A 
ATOM     24  C   UNL A   1      46.123  31.380  27.802  1.00  0.00     0.037 A 
ATOM     25  C   UNL A   1      45.379  24.947  26.794  1.00  0.00     0.049 A 
ATOM     26  C   UNL A   1      47.077  30.271  27.424  1.00  0.00     0.074 A 
ATOM     27  C   UNL A   1      46.366  24.001  26.597  1.00  0.00     0.029 A 
ATOM     28  N   UNL A   1      46.010  26.179  26.888  1.00  0.00    -0.354 N 
ATOM     29  N   UNL A   1      46.824  28.998  27.222  1.00  0.00    -0.248 NA
ATOM     30  C   UNL A   1      48.499  30.624  27.286  1.00  0.00     0.031 C 
ATOM     31  C   UNL A   1      47.600  24.660  26.592  1.00  0.00     0.029 A 
ATOM     32  C   UNL A   1      47.375  26.021  26.742  1.00  0.00     0.049 A 
ATOM     33  H   UNL A   1      45.554  27.039  27.037  1.00  0.00     0.167 HD
ATOM     34  C   UNL A   1      48.050  28.402  26.951  1.00  0.00     0.074 A 
ATOM     35  C   UNL A   1      49.040  29.459  26.964  1.00  0.00     0.031 C 
ATOM     36  C   UNL A   1      48.338  27.094  26.741  1.00  0.00     0.037 A 
BRANCH  23  37
ATOM     37  C   UNL A   1      43.376  23.387  26.722  1.00  0.00     0.058 A 
ATOM     38  C   UNL A   1      43.007  22.610  27.829  1.00  0.00     0.135 A 
ATOM     39  C   UNL A   1      43.295  22.806  25.447  1.00  0.00     0.135 A 
ATOM     40  F   UNL A   1      43.117  23.106  29.072  1.00  0.00    -0.206 F 
ATOM     41  C   UNL A   1      42.624  21.282  27.681  1.00  0.00     0.059 A 
ATOM     42  C   UNL A   1      42.886  21.489  25.273  1.00  0.00     0.059 A 
ATOM     43  F   UNL A   1      43.659  23.503  24.360  1.00  0.00    -0.206 F 
ATOM     44  C   UNL A   1      42.577  20.729  26.400  1.00  0.00     0.060 A 
BRANCH  44  45
ATOM     45  S   UNL A   1      42.129  18.991  26.214  1.00  0.00     0.124 S 
ATOM     46  O   UNL A   1      43.099  18.551  25.209  1.00  0.00    -0.237 OA
ATOM     47  O   UNL A   1      42.347  18.469  27.566  1.00  0.00    -0.237 OA
ATOM     48  O   UNL A   1      40.750  19.038  25.779  1.00  0.00    -0.744 OA
ENDBRANCH  44  45
ENDBRANCH  23  37
BRANCH  24  49
ATOM     49  C   UNL A   1      46.615  32.796  27.866  1.00  0.00     0.058 A 
ATOM     50  C   UNL A   1      46.453  33.674  26.778  1.00  0.00     0.135 A 
ATOM     51  C   UNL A   1      47.326  33.286  28.973  1.00  0.00     0.135 A 
ATOM     52  F   UNL A   1      45.804  33.264  25.677  1.00  0.00    -0.206 F 
ATOM     53  C   UNL A   1      46.998  34.960  26.773  1.00  0.00     0.059 A 
ATOM     54  C   UNL A   1      47.851  34.578  29.008  1.00  0.00     0.059 A 
ATOM     55  F   UNL A   1      47.527  32.503  30.045  1.00  0.00    -0.206 F 
ATOM     56  C   UNL A   1      47.699  35.403  27.894  1.00  0.00     0.060 A 
BRANCH  56  57
ATOM     57  S   UNL A   1      48.388  37.075  27.896  1.00  0.00     0.124 S 
ATOM     58  O   UNL A   1      49.205  37.057  29.103  1.00  0.00    -0.237 OA
ATOM     59  O   UNL A   1      49.117  37.115  26.632  1.00  0.00    -0.237 OA
ATOM     60  O   UNL A   1      47.201  37.925  27.951  1.00  0.00    -0.744 OA
ENDBRANCH  56  57
ENDBRANCH  24  49
BRANCH  36  61
ATOM     61  C   UNL A   1      49.772  26.725  26.496  1.00  0.00     0.058 A 
ATOM     62  C   UNL A   1      50.580  26.211  27.522  1.00  0.00     0.135 A 
ATOM     63  C   UNL A   1      50.307  26.788  25.201  1.00  0.00     0.135 A 
ATOM     64  F   UNL A   1      50.113  26.133  28.778  1.00  0.00    -0.206 F 
ATOM     65  C   UNL A   1      51.877  25.778  27.271  1.00  0.00     0.059 A 
ATOM     66  C   UNL A   1      51.594  26.338  24.923  1.00  0.00     0.059 A 
ATOM     67  F   UNL A   1      49.567  27.261  24.186  1.00  0.00    -0.206 F 
ATOM     68  C   UNL A   1      52.372  25.839  25.967  1.00  0.00     0.060 A 
BRANCH  68  69
ATOM     69  S   UNL A   1      54.033  25.209  25.642  1.00  0.00     0.124 S 
ATOM     70  O   UNL A   1      53.825  23.768  25.737  1.00  0.00    -0.237 OA
ATOM     71  O   UNL A   1      54.307  25.724  24.304  1.00  0.00    -0.237 OA
ATOM     72  O   UNL A   1      54.835  25.800  26.710  1.00  0.00    -0.744 OA
ENDBRANCH  68  69
ENDBRANCH  36  61
ENDBRANCH  10  11
ENDBRANCH   3   5
ENDBRANCH   2   3
ENDBRANCH   1   2
BRANCH   1  73
ATOM     73  C   UNL A   1      33.354  29.492  26.139  1.00  0.00     0.274 C 
BRANCH  73  74
ATOM     74  O   UNL A   1      33.960  28.222  25.840  1.00  0.00    -0.460 OA
BRANCH  74  75
ATOM     75  C   UNL A   1      33.931  27.819  24.534  1.00  0.00     0.336 C 
ATOM     76  O   UNL A   1      34.387  28.494  23.616  1.00  0.00    -0.249 OA
BRANCH  75  77
ATOM     77  C   UNL A   1      33.468  26.333  24.407  1.00  0.00     0.164 C 
ATOM     78  C   UNL A   1      33.733  25.869  22.956  1.00  0.00     0.046 C 
ATOM     79  C   UNL A   1      31.923  26.239  24.555  1.00  0.00    -0.008 A 
ATOM     80  C   UNL A   1      33.032  26.705  21.888  1.00  0.00     0.008 C 
ATOM     81  C   UNL A   1      31.048  26.379  23.444  1.00  0.00    -0.042 A 
ATOM     82  C   UNL A   1      31.360  25.966  25.813  1.00  0.00     0.007 A 
ATOM     83  C   UNL A   1      31.526  26.596  22.028  1.00  0.00     0.036 C 
ATOM     84  C   UNL A   1      29.663  26.232  23.620  1.00  0.00     0.004 A 
ATOM     85  C   UNL A   1      29.983  25.794  25.963  1.00  0.00     0.000 A 
ATOM     86  C   UNL A   1      29.136  25.929  24.870  1.00  0.00     0.000 A 
BRANCH  77  87
ATOM     87  N   UNL A   1      34.098  25.321  25.355  1.00  0.00    -0.336 N 
ATOM     88  C   UNL A   1      34.107  23.980  25.588  1.00  0.00     0.224 C 
ATOM     89  H   UNL A   1      34.679  25.781  26.003  1.00  0.00     0.164 HD
ATOM     90  O   UNL A   1      33.982  23.644  26.767  1.00  0.00    -0.275 OA
BRANCH  88  91
ATOM     91  C   UNL A   1      34.535  22.910  24.576  1.00  0.00     0.082 C 
ATOM     92  C   UNL A   1      33.440  22.527  23.571  1.00  0.00     0.035 C 
ATOM     93  C   UNL A   1      34.971  21.617  25.337  1.00  0.00     0.035 C 
ATOM     94  C   UNL A   1      32.325  21.664  24.161  1.00  0.00     0.120 C 
ATOM     95  C   UNL A   1      33.803  20.709  25.790  1.00  0.00     0.120 C 
ATOM     96  N   UNL A   1      32.925  20.442  24.655  1.00  0.00    -0.342 N 
ATOM     97  C   UNL A   1      32.757  19.292  23.885  1.00  0.00     0.225 C 
ATOM     98  O   UNL A   1      32.117  19.332  22.830  1.00  0.00    -0.275 OA
BRANCH  97  99
ATOM     99  C   UNL A   1      33.330  17.957  24.214  1.00  0.00     0.079 C 
ATOM    100  C   UNL A   1      33.905  16.968  23.243  1.00  0.00     0.014 C 
ATOM    101  C   UNL A   1      34.800  17.650  24.250  1.00  0.00     0.014 C 
ENDBRANCH  97  99
ENDBRANCH  88  91
ENDBRANCH  77  87
ENDBRANCH  75  77
ENDBRANCH  74  75
ENDBRANCH  73  74
ENDBRANCH   1  73
TORSDOF 17
ENDMDL
MODEL 3
REMARK VINA RESULT:     -12.0      4.847      9.076
REMARK SMILES O=C(OCCOC(=O)[C@]1(NC(=O)C2CCN(C(=O)C3CC3)CC2)CCCc2ccccc21)c1ccc(-c2c3nc(c(-c4c(F)cc(S(=O)(=O)[O-])cc4F)c4ccc([nH]4)c(-c4c(F)cc(S(=O)(=O)[O-])cc4F)c4nc(c(-c5c(F)cc(S(=O)(=O)[O-])cc5F)c5ccc2[nH]5)C=C4)C=C3)cc1
REMARK SMILES IDX 4 1 3 2 2 3 1 4 33 5 34 6 98 7 35 8 97 9 36 10 37 11 38 12
REMARK SMILES IDX 91 13 39 14 96 15 90 16 92 17 40 18 95 19 89 20 88 21 41 23
REMARK SMILES IDX 75 24 54 25 74 26 55 27 58 28 73 29 93 30 56 31 57 32 72 34
REMARK SMILES IDX 94 35 59 36 42 37 43 38 52 39 44 40 45 41 51 42 53 43 46 44
REMARK SMILES IDX 47 45 48 46 49 47 50 48 76 49 77 50 86 51 78 52 79 53 85 54
REMARK SMILES IDX 87 55 80 56 81 57 82 58 83 59 84 60 60 61 61 62 70 63 62 64
REMARK SMILES IDX 63 65 69 66 71 67 64 68 65 69 66 70 67 71 68 72 5 73 6 74
REMARK SMILES IDX 7 75 8 76 9 77 24 78 32 79 25 80 27 81 31 82 26 83 28 84
REMARK SMILES IDX 30 85 29 86 10 87 11 88 12 90 13 91 14 92 23 93 15 94 22 95
REMARK SMILES IDX 16 96 17 97 18 98 19 99 20 100 21 101
REMARK H PARENT 92 22 58 33 10 89
REMARK Flexibility Score: inf
ROOT
ATOM      1  C   UNL A   1      36.994  21.277  24.546  1.00  0.00     0.275 C 
ENDROOT
BRANCH   1   2
ATOM      2  O   UNL A   1      37.628  21.630  25.798  1.00  0.00    -0.458 OA
BRANCH   2   3
ATOM      3  C   UNL A   1      38.946  21.751  26.115  1.00  0.00     0.338 C 
ATOM      4  O   UNL A   1      39.642  20.739  26.147  1.00  0.00    -0.246 OA
BRANCH   3   5
ATOM      5  C   UNL A   1      39.509  23.009  26.708  1.00  0.00     0.060 A 
ATOM      6  C   UNL A   1      40.500  23.045  27.675  1.00  0.00     0.016 A 
ATOM      7  C   UNL A   1      39.049  24.253  26.227  1.00  0.00     0.016 A 
ATOM      8  C   UNL A   1      41.136  24.243  28.033  1.00  0.00     0.010 A 
ATOM      9  C   UNL A   1      39.658  25.471  26.613  1.00  0.00     0.010 A 
ATOM     10  C   UNL A   1      40.746  25.471  27.494  1.00  0.00    -0.014 A 
BRANCH  10  11
ATOM     11  C   UNL A   1      41.304  26.693  28.144  1.00  0.00     0.031 A 
ATOM     12  C   UNL A   1      42.746  26.983  27.861  1.00  0.00     0.074 A 
ATOM     13  C   UNL A   1      40.558  27.617  28.787  1.00  0.00     0.049 A 
ATOM     14  N   UNL A   1      43.489  27.969  28.281  1.00  0.00    -0.248 NA
ATOM     15  C   UNL A   1      43.442  26.020  26.992  1.00  0.00     0.031 C 
ATOM     16  C   UNL A   1      39.133  27.507  29.050  1.00  0.00     0.029 A 
ATOM     17  N   UNL A   1      40.873  28.868  29.277  1.00  0.00    -0.354 N 
ATOM     18  C   UNL A   1      44.759  27.698  27.797  1.00  0.00     0.074 A 
ATOM     19  C   UNL A   1      44.678  26.481  27.021  1.00  0.00     0.031 C 
ATOM     20  C   UNL A   1      38.668  28.669  29.544  1.00  0.00     0.029 A 
ATOM     21  C   UNL A   1      39.779  29.597  29.709  1.00  0.00     0.049 A 
ATOM     22  H   UNL A   1      41.795  29.211  29.316  1.00  0.00     0.167 HD
ATOM     23  C   UNL A   1      45.901  28.385  28.015  1.00  0.00     0.037 A 
ATOM     24  C   UNL A   1      39.687  30.862  30.177  1.00  0.00     0.037 A 
ATOM     25  C   UNL A   1      45.963  29.607  28.762  1.00  0.00     0.049 A 
ATOM     26  C   UNL A   1      40.972  31.633  30.376  1.00  0.00     0.074 A 
ATOM     27  C   UNL A   1      47.076  30.334  29.135  1.00  0.00     0.029 A 
ATOM     28  N   UNL A   1      44.853  30.297  29.227  1.00  0.00    -0.354 N 
ATOM     29  N   UNL A   1      42.196  31.301  30.035  1.00  0.00    -0.248 NA
ATOM     30  C   UNL A   1      40.879  32.925  31.076  1.00  0.00     0.031 C 
ATOM     31  C   UNL A   1      46.640  31.457  29.845  1.00  0.00     0.029 A 
ATOM     32  C   UNL A   1      45.253  31.450  29.876  1.00  0.00     0.049 A 
ATOM     33  H   UNL A   1      43.919  30.008  29.114  1.00  0.00     0.167 HD
ATOM     34  C   UNL A   1      43.013  32.329  30.490  1.00  0.00     0.074 A 
ATOM     35  C   UNL A   1      42.144  33.321  31.088  1.00  0.00     0.031 C 
ATOM     36  C   UNL A   1      44.364  32.430  30.447  1.00  0.00     0.037 A 
BRANCH  23  37
ATOM     37  C   UNL A   1      47.159  27.735  27.530  1.00  0.00     0.058 A 
ATOM     38  C   UNL A   1      47.906  26.860  28.331  1.00  0.00     0.135 A 
ATOM     39  C   UNL A   1      47.679  28.095  26.276  1.00  0.00     0.135 A 
ATOM     40  F   UNL A   1      47.473  26.530  29.559  1.00  0.00    -0.206 F 
ATOM     41  C   UNL A   1      49.153  26.400  27.925  1.00  0.00     0.059 A 
ATOM     42  C   UNL A   1      48.910  27.622  25.838  1.00  0.00     0.059 A 
ATOM     43  F   UNL A   1      47.011  28.948  25.485  1.00  0.00    -0.206 F 
ATOM     44  C   UNL A   1      49.650  26.796  26.682  1.00  0.00     0.060 A 
BRANCH  44  45
ATOM     45  S   UNL A   1      51.291  26.238  26.179  1.00  0.00     0.124 S 
ATOM     46  O   UNL A   1      51.278  26.562  24.751  1.00  0.00    -0.237 OA
ATOM     47  O   UNL A   1      52.168  27.075  27.003  1.00  0.00    -0.237 OA
ATOM     48  O   UNL A   1      51.288  24.829  26.505  1.00  0.00    -0.744 OA
ENDBRANCH  44  45
ENDBRANCH  23  37
BRANCH  24  49
ATOM     49  C   UNL A   1      38.376  31.492  30.544  1.00  0.00     0.058 A 
ATOM     50  C   UNL A   1      37.711  32.360  29.658  1.00  0.00     0.135 A 
ATOM     51  C   UNL A   1      37.794  31.312  31.809  1.00  0.00     0.135 A 
ATOM     52  F   UNL A   1      38.223  32.596  28.440  1.00  0.00    -0.206 F 
ATOM     53  C   UNL A   1      36.546  33.040  30.019  1.00  0.00     0.059 A 
ATOM     54  C   UNL A   1      36.613  31.954  32.182  1.00  0.00     0.059 A 
ATOM     55  F   UNL A   1      38.376  30.505  32.709  1.00  0.00    -0.206 F 
ATOM     56  C   UNL A   1      36.005  32.833  31.287  1.00  0.00     0.060 A 
BRANCH  56  57
ATOM     57  S   UNL A   1      34.487  33.700  31.748  1.00  0.00     0.124 S 
ATOM     58  O   UNL A   1      33.905  33.991  30.444  1.00  0.00    -0.237 OA
ATOM     59  O   UNL A   1      33.788  32.703  32.552  1.00  0.00    -0.237 OA
ATOM     60  O   UNL A   1      34.977  34.858  32.492  1.00  0.00    -0.744 OA
ENDBRANCH  56  57
ENDBRANCH  24  49
BRANCH  36  61
ATOM     61  C   UNL A   1      44.992  33.654  31.047  1.00  0.00     0.058 A 
ATOM     62  C   UNL A   1      45.402  33.683  32.389  1.00  0.00     0.135 A 
ATOM     63  C   UNL A   1      45.280  34.768  30.244  1.00  0.00     0.135 A 
ATOM     64  F   UNL A   1      45.148  32.643  33.197  1.00  0.00    -0.206 F 
ATOM     65  C   UNL A   1      46.072  34.781  32.917  1.00  0.00     0.059 A 
ATOM     66  C   UNL A   1      45.970  35.867  30.745  1.00  0.00     0.059 A 
ATOM     67  F   UNL A   1      44.918  34.782  28.952  1.00  0.00    -0.206 F 
ATOM     68  C   UNL A   1      46.358  35.865  32.084  1.00  0.00     0.060 A 
BRANCH  68  69
ATOM     69  S   UNL A   1      47.289  37.255  32.764  1.00  0.00     0.124 S 
ATOM     70  O   UNL A   1      46.380  37.742  33.795  1.00  0.00    -0.237 OA
ATOM     71  O   UNL A   1      48.508  36.611  33.244  1.00  0.00    -0.237 OA
ATOM     72  O   UNL A   1      47.466  38.139  31.615  1.00  0.00    -0.744 OA
ENDBRANCH  68  69
ENDBRANCH  36  61
ENDBRANCH  10  11
ENDBRANCH   3   5
ENDBRANCH   2   3
ENDBRANCH   1   2
BRANCH   1  73
ATOM     73  C   UNL A   1      36.842  22.506  23.644  1.00  0.00     0.274 C 
BRANCH  73  74
ATOM     74  O   UNL A   1      35.475  22.950  23.573  1.00  0.00    -0.460 OA
BRANCH  74  75
ATOM     75  C   UNL A   1      34.985  23.607  24.667  1.00  0.00     0.336 C 
ATOM     76  O   UNL A   1      35.628  24.449  25.286  1.00  0.00    -0.249 OA
BRANCH  75  77
ATOM     77  C   UNL A   1      33.464  23.318  24.870  1.00  0.00     0.164 C 
ATOM     78  C   UNL A   1      33.243  22.917  26.346  1.00  0.00     0.046 C 
ATOM     79  C   UNL A   1      33.047  22.052  24.069  1.00  0.00    -0.008 A 
ATOM     80  C   UNL A   1      34.046  21.700  26.797  1.00  0.00     0.008 C 
ATOM     81  C   UNL A   1      33.145  20.746  24.619  1.00  0.00    -0.042 A 
ATOM     82  C   UNL A   1      32.516  22.190  22.776  1.00  0.00     0.007 A 
ATOM     83  C   UNL A   1      33.624  20.465  26.024  1.00  0.00     0.036 C 
ATOM     84  C   UNL A   1      32.705  19.638  23.877  1.00  0.00     0.004 A 
ATOM     85  C   UNL A   1      32.056  21.080  22.065  1.00  0.00     0.000 A 
ATOM     86  C   UNL A   1      32.153  19.807  22.612  1.00  0.00     0.000 A 
BRANCH  77  87
ATOM     87  N   UNL A   1      32.489  24.438  24.528  1.00  0.00    -0.336 N 
ATOM     88  C   UNL A   1      31.522  25.191  25.118  1.00  0.00     0.224 C 
ATOM     89  H   UNL A   1      32.589  24.697  23.583  1.00  0.00     0.164 HD
ATOM     90  O   UNL A   1      30.479  25.319  24.474  1.00  0.00    -0.275 OA
BRANCH  88  91
ATOM     91  C   UNL A   1      31.727  26.094  26.340  1.00  0.00     0.082 C 
ATOM     92  C   UNL A   1      30.894  27.383  26.313  1.00  0.00     0.035 C 
ATOM     93  C   UNL A   1      33.234  26.492  26.450  1.00  0.00     0.035 C 
ATOM     94  C   UNL A   1      31.403  28.434  25.327  1.00  0.00     0.120 C 
ATOM     95  C   UNL A   1      33.664  27.657  25.528  1.00  0.00     0.120 C 
ATOM     96  N   UNL A   1      32.755  28.785  25.713  1.00  0.00    -0.342 N 
ATOM     97  C   UNL A   1      32.935  30.001  26.369  1.00  0.00     0.225 C 
ATOM     98  O   UNL A   1      31.972  30.738  26.599  1.00  0.00    -0.275 OA
BRANCH  97  99
ATOM     99  C   UNL A   1      34.243  30.511  26.871  1.00  0.00     0.079 C 
ATOM    100  C   UNL A   1      34.471  31.297  28.128  1.00  0.00     0.014 C 
ATOM    101  C   UNL A   1      35.016  29.895  28.001  1.00  0.00     0.014 C 
ENDBRANCH  97  99
ENDBRANCH  88  91
ENDBRANCH  77  87
ENDBRANCH  75  77
ENDBRANCH  74  75
ENDBRANCH  73  74
ENDBRANCH   1  73
TORSDOF 17
ENDMDL
