MODEL 1
REMARK VINA RESULT:     -11.6      0.000      0.000
REMARK SMILES O=C(OCCOC(=O)[C@H]1C[C@](O)(c2ccccc2Cl)[C@@H](c2ccccc2Cl)O1)c1ccc(-c2c3nc(c(-c4c(F)cc(S(=O)(=O)[O-])cc4F)c4ccc([nH]4)c(-c4c(F)cc(S(=O)(=O)[O-])cc4F)c4nc(c(-c5c(F)cc(S(=O)(=O)[O-])cc5F)c5ccc2[nH]5)C=C4)C=C3)cc1
REMARK SMILES IDX 4 1 3 2 2 3 1 4 29 5 30 6 94 7 31 8 93 9 32 10 33 11 34 12
REMARK SMILES IDX 87 13 35 14 92 15 86 16 88 17 36 18 91 19 85 20 84 21 37 23
REMARK SMILES IDX 71 24 50 25 70 26 51 27 54 28 69 29 89 30 52 31 53 32 68 34
REMARK SMILES IDX 90 35 55 36 38 37 39 38 48 39 40 40 41 41 47 42 49 43 42 44
REMARK SMILES IDX 43 45 44 46 45 47 46 48 72 49 73 50 82 51 74 52 75 53 81 54
REMARK SMILES IDX 83 55 76 56 77 57 78 58 79 59 80 60 56 61 57 62 66 63 58 64
REMARK SMILES IDX 59 65 65 66 67 67 60 68 61 69 62 70 63 71 64 72 5 73 6 74
REMARK SMILES IDX 7 75 8 76 9 77 10 78 28 79 11 80 20 81 13 82 14 83 18 84
REMARK SMILES IDX 15 85 17 86 19 87 16 88 12 89 21 91 22 92 26 93 23 94 25 95
REMARK SMILES IDX 27 96 24 97
REMARK H PARENT 88 22 54 33 12 90
REMARK Flexibility Score: inf
ROOT
ATOM      1  C   UNL A   1      36.001  23.412  25.579  1.00  0.00     0.275 C 
ENDROOT
BRANCH   1   2
ATOM      2  O   UNL A   1      37.376  23.523  25.213  1.00  0.00    -0.458 OA
BRANCH   2   3
ATOM      3  C   UNL A   1      38.452  23.304  25.998  1.00  0.00     0.338 C 
ATOM      4  O   UNL A   1      38.808  22.134  26.149  1.00  0.00    -0.246 OA
BRANCH   3   5
ATOM      5  C   UNL A   1      39.286  24.395  26.630  1.00  0.00     0.060 A 
ATOM      6  C   UNL A   1      40.290  25.199  26.064  1.00  0.00     0.016 A 
ATOM      7  C   UNL A   1      38.956  24.667  27.960  1.00  0.00     0.016 A 
ATOM      8  C   UNL A   1      40.814  26.345  26.735  1.00  0.00     0.010 A 
ATOM      9  C   UNL A   1      39.475  25.787  28.618  1.00  0.00     0.010 A 
ATOM     10  C   UNL A   1      40.350  26.706  27.999  1.00  0.00    -0.014 A 
BRANCH  10  11
ATOM     11  C   UNL A   1      40.694  27.958  28.772  1.00  0.00     0.031 A 
ATOM     12  C   UNL A   1      41.843  27.835  29.727  1.00  0.00     0.074 A 
ATOM     13  C   UNL A   1      39.946  29.094  28.836  1.00  0.00     0.049 A 
ATOM     14  N   UNL A   1      42.210  28.645  30.681  1.00  0.00    -0.248 NA
ATOM     15  C   UNL A   1      42.669  26.619  29.604  1.00  0.00     0.031 C 
ATOM     16  C   UNL A   1      38.848  29.454  27.953  1.00  0.00     0.029 A 
ATOM     17  N   UNL A   1      39.944  30.149  29.739  1.00  0.00    -0.354 N 
ATOM     18  C   UNL A   1      43.343  28.061  31.214  1.00  0.00     0.074 A 
ATOM     19  C   UNL A   1      43.459  26.735  30.654  1.00  0.00     0.031 C 
ATOM     20  C   UNL A   1      38.173  30.510  28.445  1.00  0.00     0.029 A 
ATOM     21  C   UNL A   1      38.846  30.996  29.634  1.00  0.00     0.049 A 
ATOM     22  H   UNL A   1      40.661  30.286  30.400  1.00  0.00     0.167 HD
ATOM     23  C   UNL A   1      44.298  28.633  31.977  1.00  0.00     0.037 A 
ATOM     24  C   UNL A   1      38.439  32.063  30.367  1.00  0.00     0.037 A 
ATOM     25  C   UNL A   1      44.207  29.957  32.510  1.00  0.00     0.049 A 
ATOM     26  C   UNL A   1      39.401  32.596  31.391  1.00  0.00     0.074 A 
ATOM     27  C   UNL A   1      45.152  30.661  33.228  1.00  0.00     0.029 A 
ATOM     28  N   UNL A   1      43.093  30.773  32.393  1.00  0.00    -0.354 N 
ATOM     29  N   UNL A   1      40.544  32.087  31.780  1.00  0.00    -0.248 NA
ATOM     30  C   UNL A   1      39.080  33.897  31.998  1.00  0.00     0.031 C 
ATOM     31  C   UNL A   1      44.588  31.887  33.594  1.00  0.00     0.029 A 
ATOM     32  C   UNL A   1      43.311  31.965  33.060  1.00  0.00     0.049 A 
ATOM     33  H   UNL A   1      42.269  30.540  31.907  1.00  0.00     0.167 HD
ATOM     34  C   UNL A   1      41.128  33.050  32.592  1.00  0.00     0.074 A 
ATOM     35  C   UNL A   1      40.183  34.144  32.691  1.00  0.00     0.031 C 
ATOM     36  C   UNL A   1      42.361  33.046  33.151  1.00  0.00     0.037 A 
BRANCH  23  37
ATOM     37  C   UNL A   1      45.533  27.812  32.172  1.00  0.00     0.058 A 
ATOM     38  C   UNL A   1      45.677  26.997  33.311  1.00  0.00     0.135 A 
ATOM     39  C   UNL A   1      46.619  27.935  31.300  1.00  0.00     0.135 A 
ATOM     40  F   UNL A   1      44.673  26.888  34.200  1.00  0.00    -0.206 F 
ATOM     41  C   UNL A   1      46.882  26.382  33.612  1.00  0.00     0.059 A 
ATOM     42  C   UNL A   1      47.826  27.299  31.565  1.00  0.00     0.059 A 
ATOM     43  F   UNL A   1      46.531  28.719  30.216  1.00  0.00    -0.206 F 
ATOM     44  C   UNL A   1      47.954  26.549  32.735  1.00  0.00     0.060 A 
BRANCH  44  45
ATOM     45  S   UNL A   1      49.528  25.780  33.165  1.00  0.00     0.124 S 
ATOM     46  O   UNL A   1      50.407  26.946  33.237  1.00  0.00    -0.237 OA
ATOM     47  O   UNL A   1      49.226  25.133  34.428  1.00  0.00    -0.237 OA
ATOM     48  O   UNL A   1      49.778  24.879  32.038  1.00  0.00    -0.744 OA
ENDBRANCH  44  45
ENDBRANCH  23  37
BRANCH  24  49
ATOM     49  C   UNL A   1      37.145  32.793  30.128  1.00  0.00     0.058 A 
ATOM     50  C   UNL A   1      35.931  32.391  30.706  1.00  0.00     0.135 A 
ATOM     51  C   UNL A   1      37.067  33.846  29.203  1.00  0.00     0.135 A 
ATOM     52  F   UNL A   1      35.904  31.324  31.518  1.00  0.00    -0.206 F 
ATOM     53  C   UNL A   1      34.717  33.025  30.407  1.00  0.00     0.059 A 
ATOM     54  C   UNL A   1      35.883  34.534  28.925  1.00  0.00     0.059 A 
ATOM     55  F   UNL A   1      38.140  34.165  28.477  1.00  0.00    -0.206 F 
ATOM     56  C   UNL A   1      34.705  34.107  29.525  1.00  0.00     0.060 A 
BRANCH  56  57
ATOM     57  S   UNL A   1      33.141  34.942  29.154  1.00  0.00     0.124 S 
ATOM     58  O   UNL A   1      32.577  34.071  28.130  1.00  0.00    -0.237 OA
ATOM     59  O   UNL A   1      32.464  34.926  30.446  1.00  0.00    -0.237 OA
ATOM     60  O   UNL A   1      33.564  36.262  28.691  1.00  0.00    -0.744 OA
ENDBRANCH  56  57
ENDBRANCH  24  49
BRANCH  36  61
ATOM     61  C   UNL A   1      42.799  34.285  33.870  1.00  0.00     0.058 A 
ATOM     62  C   UNL A   1      42.584  34.462  35.242  1.00  0.00     0.135 A 
ATOM     63  C   UNL A   1      43.518  35.273  33.177  1.00  0.00     0.135 A 
ATOM     64  F   UNL A   1      41.890  33.551  35.942  1.00  0.00    -0.206 F 
ATOM     65  C   UNL A   1      43.066  35.584  35.907  1.00  0.00     0.059 A 
ATOM     66  C   UNL A   1      44.034  36.387  33.826  1.00  0.00     0.059 A 
ATOM     67  F   UNL A   1      43.751  35.143  31.860  1.00  0.00    -0.206 F 
ATOM     68  C   UNL A   1      43.797  36.535  35.192  1.00  0.00     0.060 A 
BRANCH  68  69
ATOM     69  S   UNL A   1      44.482  37.947  36.081  1.00  0.00     0.124 S 
ATOM     70  O   UNL A   1      45.914  37.675  36.006  1.00  0.00    -0.237 OA
ATOM     71  O   UNL A   1      44.007  39.075  35.286  1.00  0.00    -0.237 OA
ATOM     72  O   UNL A   1      43.888  37.832  37.410  1.00  0.00    -0.744 OA
ENDBRANCH  68  69
ENDBRANCH  36  61
ENDBRANCH  10  11
ENDBRANCH   3   5
ENDBRANCH   2   3
ENDBRANCH   1   2
BRANCH   1  73
ATOM     73  C   UNL A   1      34.991  23.555  24.437  1.00  0.00     0.274 C 
BRANCH  73  74
ATOM     74  O   UNL A   1      34.732  24.903  23.997  1.00  0.00    -0.460 OA
BRANCH  74  75
ATOM     75  C   UNL A   1      33.499  25.394  24.317  1.00  0.00     0.335 C 
ATOM     76  O   UNL A   1      32.779  24.891  25.180  1.00  0.00    -0.249 OA
BRANCH  75  77
ATOM     77  C   UNL A   1      32.987  26.535  23.409  1.00  0.00     0.232 C 
ATOM     78  C   UNL A   1      31.495  26.741  23.273  1.00  0.00     0.087 C 
ATOM     79  O   UNL A   1      33.597  27.786  23.724  1.00  0.00    -0.355 OA
ATOM     80  C   UNL A   1      31.201  27.987  24.094  1.00  0.00     0.124 C 
ATOM     81  C   UNL A   1      32.600  28.736  24.186  1.00  0.00     0.187 C 
BRANCH  80  82
ATOM     82  C   UNL A   1      29.872  28.623  23.629  1.00  0.00     0.005 A 
ATOM     83  C   UNL A   1      29.862  30.024  23.398  1.00  0.00     0.008 A 
ATOM     84  C   UNL A   1      28.631  28.009  23.456  1.00  0.00     0.047 A 
ATOM     85  C   UNL A   1      28.816  30.716  22.774  1.00  0.00     0.001 A 
ATOM     86  C   UNL A   1      27.538  28.725  22.912  1.00  0.00     0.021 A 
ATOM     87  Cl  UNL A   1      28.288  26.413  23.996  1.00  0.00    -0.084 Cl
ATOM     88  C   UNL A   1      27.651  30.045  22.490  1.00  0.00     0.002 A 
ENDBRANCH  80  82
BRANCH  80  89
ATOM     89  O   UNL A   1      30.948  27.437  25.385  1.00  0.00    -0.382 OA
ATOM     90  H   UNL A   1      31.725  26.941  25.684  1.00  0.00     0.212 HD
ENDBRANCH  80  89
BRANCH  81  91
ATOM     91  C   UNL A   1      33.189  29.241  25.522  1.00  0.00     0.003 A 
ATOM     92  C   UNL A   1      34.378  28.690  26.049  1.00  0.00     0.008 A 
ATOM     93  C   UNL A   1      32.658  30.323  26.249  1.00  0.00     0.046 A 
ATOM     94  C   UNL A   1      34.987  29.131  27.229  1.00  0.00     0.000 A 
ATOM     95  C   UNL A   1      33.248  30.754  27.458  1.00  0.00     0.021 A 
ATOM     96  Cl  UNL A   1      31.269  31.205  25.724  1.00  0.00    -0.084 Cl
ATOM     97  C   UNL A   1      34.410  30.161  27.947  1.00  0.00     0.002 A 
ENDBRANCH  81  91
ENDBRANCH  75  77
ENDBRANCH  74  75
ENDBRANCH  73  74
ENDBRANCH   1  73
TORSDOF 17
ENDMDL
MODEL 2
REMARK VINA RESULT:     -11.4      3.638      5.559
REMARK SMILES O=C(OCCOC(=O)[C@H]1C[C@](O)(c2ccccc2Cl)[C@@H](c2ccccc2Cl)O1)c1ccc(-c2c3nc(c(-c4c(F)cc(S(=O)(=O)[O-])cc4F)c4ccc([nH]4)c(-c4c(F)cc(S(=O)(=O)[O-])cc4F)c4nc(c(-c5c(F)cc(S(=O)(=O)[O-])cc5F)c5ccc2[nH]5)C=C4)C=C3)cc1
REMARK SMILES IDX 4 1 3 2 2 3 1 4 29 5 30 6 94 7 31 8 93 9 32 10 33 11 34 12
REMARK SMILES IDX 87 13 35 14 92 15 86 16 88 17 36 18 91 19 85 20 84 21 37 23
REMARK SMILES IDX 71 24 50 25 70 26 51 27 54 28 69 29 89 30 52 31 53 32 68 34
REMARK SMILES IDX 90 35 55 36 38 37 39 38 48 39 40 40 41 41 47 42 49 43 42 44
REMARK SMILES IDX 43 45 44 46 45 47 46 48 72 49 73 50 82 51 74 52 75 53 81 54
REMARK SMILES IDX 83 55 76 56 77 57 78 58 79 59 80 60 56 61 57 62 66 63 58 64
REMARK SMILES IDX 59 65 65 66 67 67 60 68 61 69 62 70 63 71 64 72 5 73 6 74
REMARK SMILES IDX 7 75 8 76 9 77 10 78 28 79 11 80 20 81 13 82 14 83 18 84
REMARK SMILES IDX 15 85 17 86 19 87 16 88 12 89 21 91 22 92 26 93 23 94 25 95
REMARK SMILES IDX 27 96 24 97
REMARK H PARENT 88 22 54 33 12 90
REMARK Flexibility Score: inf
ROOT
ATOM      1  C   UNL A   1      41.724  22.541  27.027  1.00  0.00     0.275 C 
ENDROOT
BRANCH   1   2
ATOM      2  O   UNL A   1      42.273  23.620  26.273  1.00  0.00    -0.458 OA
BRANCH   2   3
ATOM      3  C   UNL A   1      41.924  24.922  26.334  1.00  0.00     0.338 C 
ATOM      4  O   UNL A   1      41.408  25.413  25.328  1.00  0.00    -0.246 OA
BRANCH   3   5
ATOM      5  C   UNL A   1      42.050  25.785  27.569  1.00  0.00     0.060 A 
ATOM      6  C   UNL A   1      43.160  26.492  28.060  1.00  0.00     0.016 A 
ATOM      7  C   UNL A   1      40.859  25.933  28.285  1.00  0.00     0.016 A 
ATOM      8  C   UNL A   1      43.046  27.450  29.113  1.00  0.00     0.010 A 
ATOM      9  C   UNL A   1      40.751  26.868  29.320  1.00  0.00     0.010 A 
ATOM     10  C   UNL A   1      41.813  27.714  29.706  1.00  0.00    -0.014 A 
BRANCH  10  11
ATOM     11  C   UNL A   1      41.501  28.791  30.720  1.00  0.00     0.031 A 
ATOM     12  C   UNL A   1      42.071  28.575  32.090  1.00  0.00     0.074 A 
ATOM     13  C   UNL A   1      40.604  29.803  30.568  1.00  0.00     0.049 A 
ATOM     14  N   UNL A   1      41.782  29.184  33.206  1.00  0.00    -0.248 NA
ATOM     15  C   UNL A   1      43.078  27.505  32.219  1.00  0.00     0.031 C 
ATOM     16  C   UNL A   1      39.999  30.238  29.319  1.00  0.00     0.029 A 
ATOM     17  N   UNL A   1      39.972  30.625  31.492  1.00  0.00    -0.354 N 
ATOM     18  C   UNL A   1      42.624  28.614  34.141  1.00  0.00     0.074 A 
ATOM     19  C   UNL A   1      43.247  27.464  33.527  1.00  0.00     0.031 C 
ATOM     20  C   UNL A   1      38.980  31.085  29.557  1.00  0.00     0.029 A 
ATOM     21  C   UNL A   1      38.909  31.360  30.979  1.00  0.00     0.049 A 
ATOM     22  H   UNL A   1      40.256  30.683  32.434  1.00  0.00     0.167 HD
ATOM     23  C   UNL A   1      42.978  29.095  35.351  1.00  0.00     0.037 A 
ATOM     24  C   UNL A   1      38.006  32.190  31.559  1.00  0.00     0.037 A 
ATOM     25  C   UNL A   1      42.391  30.251  35.953  1.00  0.00     0.049 A 
ATOM     26  C   UNL A   1      38.252  32.576  32.990  1.00  0.00     0.074 A 
ATOM     27  C   UNL A   1      42.732  30.869  37.140  1.00  0.00     0.029 A 
ATOM     28  N   UNL A   1      41.324  30.957  35.418  1.00  0.00    -0.354 N 
ATOM     29  N   UNL A   1      39.156  32.111  33.817  1.00  0.00    -0.248 NA
ATOM     30  C   UNL A   1      37.436  33.671  33.538  1.00  0.00     0.031 C 
ATOM     31  C   UNL A   1      41.834  31.919  37.350  1.00  0.00     0.029 A 
ATOM     32  C   UNL A   1      40.967  31.986  36.269  1.00  0.00     0.049 A 
ATOM     33  H   UNL A   1      40.887  30.756  34.559  1.00  0.00     0.167 HD
ATOM     34  C   UNL A   1      39.090  32.923  34.941  1.00  0.00     0.074 A 
ATOM     35  C   UNL A   1      38.015  33.867  34.716  1.00  0.00     0.031 C 
ATOM     36  C   UNL A   1      39.893  32.918  36.032  1.00  0.00     0.037 A 
BRANCH  23  37
ATOM     37  C   UNL A   1      44.113  28.380  36.012  1.00  0.00     0.058 A 
ATOM     38  C   UNL A   1      43.866  27.329  36.917  1.00  0.00     0.135 A 
ATOM     39  C   UNL A   1      45.430  28.821  35.849  1.00  0.00     0.135 A 
ATOM     40  F   UNL A   1      42.609  26.906  37.139  1.00  0.00    -0.206 F 
ATOM     41  C   UNL A   1      44.882  26.784  37.686  1.00  0.00     0.059 A 
ATOM     42  C   UNL A   1      46.469  28.264  36.584  1.00  0.00     0.059 A 
ATOM     43  F   UNL A   1      45.705  29.833  35.013  1.00  0.00    -0.206 F 
ATOM     44  C   UNL A   1      46.180  27.266  37.518  1.00  0.00     0.060 A 
BRANCH  44  45
ATOM     45  S   UNL A   1      47.481  26.579  38.559  1.00  0.00     0.124 S 
ATOM     46  O   UNL A   1      48.334  27.748  38.764  1.00  0.00    -0.237 OA
ATOM     47  O   UNL A   1      46.744  26.118  39.720  1.00  0.00    -0.237 OA
ATOM     48  O   UNL A   1      48.058  25.525  37.720  1.00  0.00    -0.744 OA
ENDBRANCH  44  45
ENDBRANCH  23  37
BRANCH  24  49
ATOM     49  C   UNL A   1      36.858  32.821  30.817  1.00  0.00     0.058 A 
ATOM     50  C   UNL A   1      37.027  33.904  29.941  1.00  0.00     0.135 A 
ATOM     51  C   UNL A   1      35.533  32.435  31.070  1.00  0.00     0.135 A 
ATOM     52  F   UNL A   1      38.254  34.402  29.730  1.00  0.00    -0.206 F 
ATOM     53  C   UNL A   1      35.940  34.539  29.325  1.00  0.00     0.059 A 
ATOM     54  C   UNL A   1      34.433  33.011  30.430  1.00  0.00     0.059 A 
ATOM     55  F   UNL A   1      35.279  31.539  32.027  1.00  0.00    -0.206 F 
ATOM     56  C   UNL A   1      34.645  34.076  29.564  1.00  0.00     0.060 A 
BRANCH  56  57
ATOM     57  S   UNL A   1      33.241  34.882  28.751  1.00  0.00     0.124 S 
ATOM     58  O   UNL A   1      32.414  35.256  29.893  1.00  0.00    -0.237 OA
ATOM     59  O   UNL A   1      33.881  35.983  28.041  1.00  0.00    -0.237 OA
ATOM     60  O   UNL A   1      32.694  33.828  27.899  1.00  0.00    -0.744 OA
ENDBRANCH  56  57
ENDBRANCH  24  49
BRANCH  36  61
ATOM     61  C   UNL A   1      39.691  34.004  37.044  1.00  0.00     0.058 A 
ATOM     62  C   UNL A   1      39.000  33.783  38.242  1.00  0.00     0.135 A 
ATOM     63  C   UNL A   1      40.275  35.265  36.836  1.00  0.00     0.135 A 
ATOM     64  F   UNL A   1      38.415  32.598  38.478  1.00  0.00    -0.206 F 
ATOM     65  C   UNL A   1      38.890  34.781  39.203  1.00  0.00     0.059 A 
ATOM     66  C   UNL A   1      40.201  36.267  37.795  1.00  0.00     0.059 A 
ATOM     67  F   UNL A   1      40.949  35.521  35.703  1.00  0.00    -0.206 F 
ATOM     68  C   UNL A   1      39.502  36.015  38.974  1.00  0.00     0.060 A 
BRANCH  68  69
ATOM     69  S   UNL A   1      39.416  37.276  40.261  1.00  0.00     0.124 S 
ATOM     70  O   UNL A   1      38.687  36.573  41.312  1.00  0.00    -0.237 OA
ATOM     71  O   UNL A   1      40.826  37.540  40.533  1.00  0.00    -0.237 OA
ATOM     72  O   UNL A   1      38.694  38.369  39.618  1.00  0.00    -0.744 OA
ENDBRANCH  68  69
ENDBRANCH  36  61
ENDBRANCH  10  11
ENDBRANCH   3   5
ENDBRANCH   2   3
ENDBRANCH   1   2
BRANCH   1  73
ATOM     73  C   UNL A   1      40.197  22.509  27.137  1.00  0.00     0.274 C 
BRANCH  73  74
ATOM     74  O   UNL A   1      39.513  21.750  26.122  1.00  0.00    -0.460 OA
BRANCH  74  75
ATOM     75  C   UNL A   1      38.288  22.232  25.759  1.00  0.00     0.335 C 
ATOM     76  O   UNL A   1      37.727  23.152  26.351  1.00  0.00    -0.249 OA
BRANCH  75  77
ATOM     77  C   UNL A   1      37.569  21.435  24.647  1.00  0.00     0.232 C 
ATOM     78  C   UNL A   1      36.761  20.216  25.034  1.00  0.00     0.087 C 
ATOM     79  O   UNL A   1      36.766  22.275  23.819  1.00  0.00    -0.355 OA
ATOM     80  C   UNL A   1      35.311  20.660  24.910  1.00  0.00     0.124 C 
ATOM     81  C   UNL A   1      35.365  21.909  23.930  1.00  0.00     0.187 C 
BRANCH  80  82
ATOM     82  C   UNL A   1      34.395  19.427  24.742  1.00  0.00     0.005 A 
ATOM     83  C   UNL A   1      35.014  18.189  24.425  1.00  0.00     0.008 A 
ATOM     84  C   UNL A   1      33.002  19.367  24.800  1.00  0.00     0.047 A 
ATOM     85  C   UNL A   1      34.365  16.949  24.452  1.00  0.00     0.001 A 
ATOM     86  C   UNL A   1      32.327  18.126  24.733  1.00  0.00     0.021 A 
ATOM     87  Cl  UNL A   1      32.001  20.765  24.821  1.00  0.00    -0.084 Cl
ATOM     88  C   UNL A   1      33.005  16.914  24.649  1.00  0.00     0.002 A 
ENDBRANCH  80  82
BRANCH  80  89
ATOM     89  O   UNL A   1      35.048  21.174  26.214  1.00  0.00    -0.382 OA
ATOM     90  H   UNL A   1      34.406  20.604  26.663  1.00  0.00     0.212 HD
ENDBRANCH  80  89
BRANCH  81  91
ATOM     91  C   UNL A   1      34.677  23.254  24.255  1.00  0.00     0.003 A 
ATOM     92  C   UNL A   1      35.024  23.990  25.409  1.00  0.00     0.008 A 
ATOM     93  C   UNL A   1      33.747  23.880  23.404  1.00  0.00     0.046 A 
ATOM     94  C   UNL A   1      34.471  25.233  25.739  1.00  0.00     0.000 A 
ATOM     95  C   UNL A   1      33.161  25.119  23.744  1.00  0.00     0.021 A 
ATOM     96  Cl  UNL A   1      33.264  23.200  21.892  1.00  0.00    -0.084 Cl
ATOM     97  C   UNL A   1      33.522  25.796  24.907  1.00  0.00     0.002 A 
ENDBRANCH  81  91
ENDBRANCH  75  77
ENDBRANCH  74  75
ENDBRANCH  73  74
ENDBRANCH   1  73
TORSDOF 17
ENDMDL
MODEL 3
REMARK VINA RESULT:     -11.4      3.835     10.452
REMARK SMILES O=C(OCCOC(=O)[C@H]1C[C@](O)(c2ccccc2Cl)[C@@H](c2ccccc2Cl)O1)c1ccc(-c2c3nc(c(-c4c(F)cc(S(=O)(=O)[O-])cc4F)c4ccc([nH]4)c(-c4c(F)cc(S(=O)(=O)[O-])cc4F)c4nc(c(-c5c(F)cc(S(=O)(=O)[O-])cc5F)c5ccc2[nH]5)C=C4)C=C3)cc1
REMARK SMILES IDX 4 1 3 2 2 3 1 4 29 5 30 6 94 7 31 8 93 9 32 10 33 11 34 12
REMARK SMILES IDX 87 13 35 14 92 15 86 16 88 17 36 18 91 19 85 20 84 21 37 23
REMARK SMILES IDX 71 24 50 25 70 26 51 27 54 28 69 29 89 30 52 31 53 32 68 34
REMARK SMILES IDX 90 35 55 36 38 37 39 38 48 39 40 40 41 41 47 42 49 43 42 44
REMARK SMILES IDX 43 45 44 46 45 47 46 48 72 49 73 50 82 51 74 52 75 53 81 54
REMARK SMILES IDX 83 55 76 56 77 57 78 58 79 59 80 60 56 61 57 62 66 63 58 64
REMARK SMILES IDX 59 65 65 66 67 67 60 68 61 69 62 70 63 71 64 72 5 73 6 74
REMARK SMILES IDX 7 75 8 76 9 77 10 78 28 79 11 80 20 81 13 82 14 83 18 84
REMARK SMILES IDX 15 85 17 86 19 87 16 88 12 89 21 91 22 92 26 93 23 94 25 95
REMARK SMILES IDX 27 96 24 97
REMARK H PARENT 88 22 54 33 12 90
REMARK Flexibility Score: inf
ROOT
ATOM      1  C   UNL A   1      32.677  31.467  27.219  1.00  0.00     0.275 C 
ENDROOT
BRANCH   1   2
ATOM      2  O   UNL A   1      33.838  30.712  26.875  1.00  0.00    -0.458 OA
BRANCH   2   3
ATOM      3  C   UNL A   1      34.330  29.630  27.514  1.00  0.00     0.338 C 
ATOM      4  O   UNL A   1      33.646  28.605  27.491  1.00  0.00    -0.246 OA
BRANCH   3   5
ATOM      5  C   UNL A   1      35.686  29.572  28.179  1.00  0.00     0.060 A 
ATOM      6  C   UNL A   1      36.016  29.357  29.528  1.00  0.00     0.016 A 
ATOM      7  C   UNL A   1      36.761  29.698  27.295  1.00  0.00     0.016 A 
ATOM      8  C   UNL A   1      37.354  29.096  29.951  1.00  0.00     0.010 A 
ATOM      9  C   UNL A   1      38.072  29.448  27.714  1.00  0.00     0.010 A 
ATOM     10  C   UNL A   1      38.398  29.055  29.029  1.00  0.00    -0.014 A 
BRANCH  10  11
ATOM     11  C   UNL A   1      39.831  28.652  29.293  1.00  0.00     0.031 A 
ATOM     12  C   UNL A   1      40.779  29.778  29.579  1.00  0.00     0.074 A 
ATOM     13  C   UNL A   1      40.368  27.417  29.094  1.00  0.00     0.049 A 
ATOM     14  N   UNL A   1      42.082  29.770  29.603  1.00  0.00    -0.248 NA
ATOM     15  C   UNL A   1      40.170  31.096  29.841  1.00  0.00     0.031 C 
ATOM     16  C   UNL A   1      39.632  26.180  28.889  1.00  0.00     0.029 A 
ATOM     17  N   UNL A   1      41.684  26.993  28.956  1.00  0.00    -0.354 N 
ATOM     18  C   UNL A   1      42.431  31.061  29.951  1.00  0.00     0.074 A 
ATOM     19  C   UNL A   1      41.237  31.870  29.888  1.00  0.00     0.031 C 
ATOM     20  C   UNL A   1      40.460  25.200  28.477  1.00  0.00     0.029 A 
ATOM     21  C   UNL A   1      41.824  25.692  28.487  1.00  0.00     0.049 A 
ATOM     22  H   UNL A   1      42.454  27.568  29.173  1.00  0.00     0.167 HD
ATOM     23  C   UNL A   1      43.607  31.505  30.441  1.00  0.00     0.037 A 
ATOM     24  C   UNL A   1      42.910  24.954  28.145  1.00  0.00     0.037 A 
ATOM     25  C   UNL A   1      44.786  30.703  30.539  1.00  0.00     0.049 A 
ATOM     26  C   UNL A   1      44.259  25.526  28.480  1.00  0.00     0.074 A 
ATOM     27  C   UNL A   1      46.007  31.032  31.093  1.00  0.00     0.029 A 
ATOM     28  N   UNL A   1      44.895  29.409  30.053  1.00  0.00    -0.354 N 
ATOM     29  N   UNL A   1      44.548  26.717  28.943  1.00  0.00    -0.248 NA
ATOM     30  C   UNL A   1      45.417  24.627  28.355  1.00  0.00     0.031 C 
ATOM     31  C   UNL A   1      46.874  29.953  30.893  1.00  0.00     0.029 A 
ATOM     32  C   UNL A   1      46.177  28.935  30.261  1.00  0.00     0.049 A 
ATOM     33  H   UNL A   1      44.167  28.902  29.625  1.00  0.00     0.167 HD
ATOM     34  C   UNL A   1      45.898  26.679  29.263  1.00  0.00     0.074 A 
ATOM     35  C   UNL A   1      46.383  25.368  28.882  1.00  0.00     0.031 C 
ATOM     36  C   UNL A   1      46.646  27.627  29.875  1.00  0.00     0.037 A 
BRANCH  23  37
ATOM     37  C   UNL A   1      43.586  32.904  30.972  1.00  0.00     0.058 A 
ATOM     38  C   UNL A   1      43.847  33.995  30.122  1.00  0.00     0.135 A 
ATOM     39  C   UNL A   1      43.438  33.148  32.341  1.00  0.00     0.135 A 
ATOM     40  F   UNL A   1      44.043  33.799  28.806  1.00  0.00    -0.206 F 
ATOM     41  C   UNL A   1      44.026  35.275  30.623  1.00  0.00     0.059 A 
ATOM     42  C   UNL A   1      43.578  34.429  32.860  1.00  0.00     0.059 A 
ATOM     43  F   UNL A   1      43.210  32.133  33.188  1.00  0.00    -0.206 F 
ATOM     44  C   UNL A   1      43.899  35.479  31.997  1.00  0.00     0.060 A 
BRANCH  44  45
ATOM     45  S   UNL A   1      44.180  37.140  32.637  1.00  0.00     0.124 S 
ATOM     46  O   UNL A   1      45.592  37.070  33.011  1.00  0.00    -0.237 OA
ATOM     47  O   UNL A   1      43.867  37.975  31.493  1.00  0.00    -0.237 OA
ATOM     48  O   UNL A   1      43.241  37.229  33.758  1.00  0.00    -0.744 OA
ENDBRANCH  44  45
ENDBRANCH  23  37
BRANCH  24  49
ATOM     49  C   UNL A   1      42.827  23.568  27.562  1.00  0.00     0.058 A 
ATOM     50  C   UNL A   1      42.658  23.334  26.189  1.00  0.00     0.135 A 
ATOM     51  C   UNL A   1      42.783  22.436  28.390  1.00  0.00     0.135 A 
ATOM     52  F   UNL A   1      42.581  24.372  25.343  1.00  0.00    -0.206 F 
ATOM     53  C   UNL A   1      42.493  22.043  25.669  1.00  0.00     0.059 A 
ATOM     54  C   UNL A   1      42.676  21.133  27.898  1.00  0.00     0.059 A 
ATOM     55  F   UNL A   1      42.752  22.590  29.715  1.00  0.00    -0.206 F 
ATOM     56  C   UNL A   1      42.518  20.945  26.531  1.00  0.00     0.060 A 
BRANCH  56  57
ATOM     57  S   UNL A   1      42.327  19.274  25.858  1.00  0.00     0.124 S 
ATOM     58  O   UNL A   1      42.855  18.456  26.944  1.00  0.00    -0.237 OA
ATOM     59  O   UNL A   1      40.888  19.188  25.639  1.00  0.00    -0.237 OA
ATOM     60  O   UNL A   1      43.140  19.304  24.644  1.00  0.00    -0.744 OA
ENDBRANCH  56  57
ENDBRANCH  24  49
BRANCH  36  61
ATOM     61  C   UNL A   1      48.056  27.270  30.236  1.00  0.00     0.058 A 
ATOM     62  C   UNL A   1      49.129  27.521  29.371  1.00  0.00     0.135 A 
ATOM     63  C   UNL A   1      48.335  26.741  31.506  1.00  0.00     0.135 A 
ATOM     64  F   UNL A   1      48.908  28.014  28.142  1.00  0.00    -0.206 F 
ATOM     65  C   UNL A   1      50.438  27.255  29.754  1.00  0.00     0.059 A 
ATOM     66  C   UNL A   1      49.638  26.494  31.920  1.00  0.00     0.059 A 
ATOM     67  F   UNL A   1      47.338  26.487  32.369  1.00  0.00    -0.206 F 
ATOM     68  C   UNL A   1      50.682  26.751  31.034  1.00  0.00     0.060 A 
BRANCH  68  69
ATOM     69  S   UNL A   1      52.390  26.480  31.546  1.00  0.00     0.124 S 
ATOM     70  O   UNL A   1      53.126  26.980  30.389  1.00  0.00    -0.237 OA
ATOM     71  O   UNL A   1      52.485  27.290  32.756  1.00  0.00    -0.237 OA
ATOM     72  O   UNL A   1      52.456  25.038  31.759  1.00  0.00    -0.744 OA
ENDBRANCH  68  69
ENDBRANCH  36  61
ENDBRANCH  10  11
ENDBRANCH   3   5
ENDBRANCH   2   3
ENDBRANCH   1   2
BRANCH   1  73
ATOM     73  C   UNL A   1      32.915  32.937  27.575  1.00  0.00     0.274 C 
BRANCH  73  74
ATOM     74  O   UNL A   1      34.241  33.437  27.313  1.00  0.00    -0.460 OA
BRANCH  74  75
ATOM     75  C   UNL A   1      34.902  33.934  28.400  1.00  0.00     0.335 C 
ATOM     76  O   UNL A   1      35.380  35.067  28.434  1.00  0.00    -0.249 OA
BRANCH  75  77
ATOM     77  C   UNL A   1      35.157  32.919  29.537  1.00  0.00     0.232 C 
ATOM     78  C   UNL A   1      36.573  32.725  30.033  1.00  0.00     0.087 C 
ATOM     79  O   UNL A   1      34.304  33.145  30.659  1.00  0.00    -0.355 OA
ATOM     80  C   UNL A   1      36.609  33.430  31.380  1.00  0.00     0.124 C 
ATOM     81  C   UNL A   1      35.087  33.497  31.830  1.00  0.00     0.187 C 
BRANCH  80  82
ATOM     82  C   UNL A   1      37.773  32.876  32.233  1.00  0.00     0.005 A 
ATOM     83  C   UNL A   1      38.979  33.625  32.262  1.00  0.00     0.008 A 
ATOM     84  C   UNL A   1      37.829  31.681  32.951  1.00  0.00     0.047 A 
ATOM     85  C   UNL A   1      40.040  33.384  33.143  1.00  0.00     0.001 A 
ATOM     86  C   UNL A   1      38.940  31.381  33.774  1.00  0.00     0.021 A 
ATOM     87  Cl  UNL A   1      36.650  30.438  32.803  1.00  0.00    -0.084 Cl
ATOM     88  C   UNL A   1      40.001  32.265  33.941  1.00  0.00     0.002 A 
ENDBRANCH  80  82
BRANCH  80  89
ATOM     89  O   UNL A   1      36.984  34.754  31.009  1.00  0.00    -0.382 OA
ATOM     90  H   UNL A   1      37.623  35.102  31.651  1.00  0.00     0.212 HD
ENDBRANCH  80  89
BRANCH  81  91
ATOM     91  C   UNL A   1      34.419  34.802  32.319  1.00  0.00     0.003 A 
ATOM     92  C   UNL A   1      33.532  35.522  31.489  1.00  0.00     0.008 A 
ATOM     93  C   UNL A   1      34.562  35.310  33.624  1.00  0.00     0.046 A 
ATOM     94  C   UNL A   1      32.861  36.684  31.885  1.00  0.00     0.000 A 
ATOM     95  C   UNL A   1      33.914  36.500  34.022  1.00  0.00     0.021 A 
ATOM     96  Cl  UNL A   1      35.518  34.525  34.829  1.00  0.00    -0.084 Cl
ATOM     97  C   UNL A   1      33.064  37.186  33.157  1.00  0.00     0.002 A 
ENDBRANCH  81  91
ENDBRANCH  75  77
ENDBRANCH  74  75
ENDBRANCH  73  74
ENDBRANCH   1  73
TORSDOF 17
ENDMDL
