MODEL 1
REMARK VINA RESULT:     -13.4      0.000      0.000
REMARK SMILES Cc1ccccc1C[C@H](CCSc1ccccc1)C(=O)OCCOC(=O)c1ccc(-c2c3nc(c(-c4c(F)cc(S(=O)(=O)[O-])cc4F)c4ccc([nH]4)c(-c4c(F)cc(S(=O)(=O)[O-])cc4F)c4nc(c(-c5c(F)cc(S(=O)(=O)[O-])cc5F)c5ccc2[nH]5)C=C4)C=C3)cc1
REMARK SMILES IDX 22 1 21 2 19 3 20 4 9 5 8 6 7 7 1 8 2 9 3 10 4 11 6 12 5 13
REMARK SMILES IDX 10 14 11 15 12 16 13 17 14 18 18 19 15 20 17 21 16 22 23 23
REMARK SMILES IDX 24 24 25 25 26 26 27 27 28 28 92 29 29 30 91 31 30 32 31 33
REMARK SMILES IDX 32 34 85 35 33 36 90 37 84 38 86 39 34 40 89 41 83 42 82 43
REMARK SMILES IDX 35 45 69 46 48 47 68 48 49 49 52 50 67 51 87 52 50 53 51 54
REMARK SMILES IDX 66 56 88 57 53 58 36 59 37 60 46 61 38 62 39 63 45 64 47 65
REMARK SMILES IDX 40 66 41 67 42 68 43 69 44 70 70 71 71 72 80 73 72 74 73 75
REMARK SMILES IDX 79 76 81 77 74 78 75 79 76 80 77 81 78 82 54 83 55 84 64 85
REMARK SMILES IDX 56 86 57 87 63 88 65 89 58 90 59 91 60 92 61 93 62 94
REMARK H PARENT 86 44 52 55
REMARK Flexibility Score: inf
ROOT
ATOM      1  C   UNL A   1      32.305  30.158  26.126  1.00  0.00     0.274 C 
ENDROOT
BRANCH   1   2
ATOM      2  O   UNL A   1      32.485  29.088  27.038  1.00  0.00    -0.462 OA
BRANCH   2   3
ATOM      3  C   UNL A   1      32.836  27.786  26.459  1.00  0.00     0.309 C 
ATOM      4  O   UNL A   1      34.034  27.939  26.078  1.00  0.00    -0.252 OA
BRANCH   3   5
ATOM      5  C   UNL A   1      31.425  26.130  26.284  1.00  0.00     0.104 C 
BRANCH   5   6
ATOM      6  C   UNL A   1      31.820  24.343  26.329  1.00  0.00     0.051 C 
BRANCH   6   7
ATOM      7  C   UNL A   1      33.200  23.862  25.956  1.00  0.00    -0.044 A 
ATOM      8  C   UNL A   1      33.780  25.431  23.604  1.00  0.00     0.044 C 
ATOM      9  C   UNL A   1      33.653  24.027  24.206  1.00  0.00    -0.048 A 
ATOM     10  C   UNL A   1      34.858  22.927  23.503  1.00  0.00     0.004 A 
ATOM     11  C   UNL A   1      35.746  21.772  24.559  1.00  0.00     0.000 A 
ATOM     12  C   UNL A   1      34.097  22.616  27.029  1.00  0.00     0.004 A 
ATOM     13  C   UNL A   1      35.400  21.618  26.322  1.00  0.00     0.000 A 
ENDBRANCH   6   7
ENDBRANCH   5   6
BRANCH   5  14
ATOM     14  C   UNL A   1      29.980  25.804  25.346  1.00  0.00     0.027 C 
BRANCH  14  15
ATOM     15  C   UNL A   1      30.093  25.846  23.747  1.00  0.00     0.076 C 
BRANCH  15  16
ATOM     16  S   UNL A   1      30.826  27.290  22.805  1.00  0.00    -0.126 SA
BRANCH  16  17
ATOM     17  C   UNL A   1      29.713  28.706  22.719  1.00  0.00     0.007 A 
ATOM     18  C   UNL A   1      29.982  29.834  21.970  1.00  0.00     0.015 A 
ATOM     19  C   UNL A   1      28.400  28.617  23.209  1.00  0.00     0.015 A 
ATOM     20  C   UNL A   1      29.029  30.811  21.662  1.00  0.00     0.001 A 
ATOM     21  C   UNL A   1      27.426  29.604  22.923  1.00  0.00     0.001 A 
ATOM     22  C   UNL A   1      27.739  30.699  22.130  1.00  0.00     0.000 A 
ENDBRANCH  16  17
ENDBRANCH  15  16
ENDBRANCH  14  15
ENDBRANCH   5  14
ENDBRANCH   3   5
ENDBRANCH   2   3
ENDBRANCH   1   2
BRANCH   1  23
ATOM     23  C   UNL A   1      31.862  31.356  26.965  1.00  0.00     0.275 C 
BRANCH  23  24
ATOM     24  O   UNL A   1      32.892  32.367  27.234  1.00  0.00    -0.458 OA
BRANCH  24  25
ATOM     25  C   UNL A   1      33.846  32.276  28.218  1.00  0.00     0.338 C 
ATOM     26  O   UNL A   1      33.630  32.527  29.394  1.00  0.00    -0.246 OA
BRANCH  25  27
ATOM     27  C   UNL A   1      35.238  31.973  27.724  1.00  0.00     0.060 A 
ATOM     28  C   UNL A   1      35.686  30.250  27.645  1.00  0.00     0.016 A 
ATOM     29  C   UNL A   1      36.404  33.177  28.267  1.00  0.00     0.016 A 
ATOM     30  C   UNL A   1      37.242  29.651  28.381  1.00  0.00     0.010 A 
ATOM     31  C   UNL A   1      37.950  32.636  29.004  1.00  0.00     0.010 A 
ATOM     32  C   UNL A   1      38.352  30.833  29.161  1.00  0.00    -0.014 A 
BRANCH  32  33
ATOM     33  C   UNL A   1      39.791  30.307  29.906  1.00  0.00     0.031 A 
ATOM     34  C   UNL A   1      40.813  28.467  29.450  1.00  0.00     0.074 A 
ATOM     35  C   UNL A   1      40.037  31.613  30.509  1.00  0.00     0.049 A 
ATOM     36  N   UNL A   1      41.648  27.629  30.141  1.00  0.00    -0.248 NA
ATOM     37  C   UNL A   1      40.725  27.447  28.037  1.00  0.00     0.031 C 
ATOM     38  C   UNL A   1      41.322  32.355  30.765  1.00  0.00     0.029 A 
ATOM     39  N   UNL A   1      39.284  32.069  31.637  1.00  0.00    -0.354 N 
ATOM     40  C   UNL A   1      42.441  26.905  29.277  1.00  0.00     0.074 A 
ATOM     41  C   UNL A   1      41.590  26.477  28.242  1.00  0.00     0.031 C 
ATOM     42  C   UNL A   1      41.427  32.706  32.053  1.00  0.00     0.029 A 
ATOM     43  C   UNL A   1      40.184  32.385  32.686  1.00  0.00     0.049 A 
ATOM     44  H   UNL A   1      38.304  32.151  31.677  1.00  0.00     0.167 HD
ATOM     45  C   UNL A   1      43.799  27.086  29.300  1.00  0.00     0.037 A 
ATOM     46  C   UNL A   1      40.035  32.034  33.985  1.00  0.00     0.037 A 
ATOM     47  C   UNL A   1      44.206  27.953  30.438  1.00  0.00     0.049 A 
ATOM     48  C   UNL A   1      41.108  31.061  34.486  1.00  0.00     0.074 A 
ATOM     49  C   UNL A   1      44.879  29.160  30.569  1.00  0.00     0.029 A 
ATOM     50  N   UNL A   1      43.641  27.731  31.695  1.00  0.00    -0.354 N 
ATOM     51  N   UNL A   1      42.021  30.453  33.753  1.00  0.00    -0.248 NA
ATOM     52  C   UNL A   1      41.239  30.714  35.898  1.00  0.00     0.031 C 
ATOM     53  C   UNL A   1      44.788  29.596  31.932  1.00  0.00     0.029 A 
ATOM     54  C   UNL A   1      43.996  28.696  32.627  1.00  0.00     0.049 A 
ATOM     55  H   UNL A   1      43.052  26.968  31.900  1.00  0.00     0.167 HD
ATOM     56  C   UNL A   1      42.721  29.524  34.525  1.00  0.00     0.074 A 
ATOM     57  C   UNL A   1      42.260  29.839  35.868  1.00  0.00     0.031 C 
ATOM     58  C   UNL A   1      43.567  28.544  34.023  1.00  0.00     0.037 A 
BRANCH  45  59
ATOM     59  C   UNL A   1      44.740  26.681  28.147  1.00  0.00     0.058 A 
ATOM     60  C   UNL A   1      44.947  27.564  27.064  1.00  0.00     0.135 A 
ATOM     61  C   UNL A   1      45.482  25.475  28.019  1.00  0.00     0.135 A 
ATOM     62  F   UNL A   1      44.377  28.774  27.024  1.00  0.00    -0.206 F 
ATOM     63  C   UNL A   1      45.779  27.279  25.974  1.00  0.00     0.059 A 
ATOM     64  C   UNL A   1      46.296  25.155  26.927  1.00  0.00     0.059 A 
ATOM     65  F   UNL A   1      45.538  24.534  28.957  1.00  0.00    -0.206 F 
ATOM     66  C   UNL A   1      46.459  26.073  25.917  1.00  0.00     0.060 A 
BRANCH  66  67
ATOM     67  S   UNL A   1      47.622  25.768  24.583  1.00  0.00     0.124 S 
ATOM     68  O   UNL A   1      48.902  25.771  25.286  1.00  0.00    -0.237 OA
ATOM     69  O   UNL A   1      47.171  24.474  24.084  1.00  0.00    -0.237 OA
ATOM     70  O   UNL A   1      47.410  26.894  23.678  1.00  0.00    -0.744 OA
ENDBRANCH  66  67
ENDBRANCH  45  59
BRANCH  46  71
ATOM     71  C   UNL A   1      38.610  32.225  34.397  1.00  0.00     0.058 A 
ATOM     72  C   UNL A   1      38.252  33.547  34.771  1.00  0.00     0.135 A 
ATOM     73  C   UNL A   1      37.605  31.433  33.841  1.00  0.00     0.135 A 
ATOM     74  F   UNL A   1      39.157  34.338  35.372  1.00  0.00    -0.206 F 
ATOM     75  C   UNL A   1      37.049  34.129  34.372  1.00  0.00     0.059 A 
ATOM     76  C   UNL A   1      36.372  31.988  33.469  1.00  0.00     0.059 A 
ATOM     77  F   UNL A   1      37.878  30.165  33.507  1.00  0.00    -0.206 F 
ATOM     78  C   UNL A   1      36.135  33.351  33.671  1.00  0.00     0.060 A 
BRANCH  78  79
ATOM     79  S   UNL A   1      34.698  34.174  32.932  1.00  0.00     0.124 S 
ATOM     80  O   UNL A   1      33.640  33.198  33.160  1.00  0.00    -0.237 OA
ATOM     81  O   UNL A   1      34.592  35.398  33.718  1.00  0.00    -0.237 OA
ATOM     82  O   UNL A   1      35.095  34.354  31.540  1.00  0.00    -0.744 OA
ENDBRANCH  78  79
ENDBRANCH  46  71
BRANCH  58  83
ATOM     83  C   UNL A   1      44.148  27.293  34.754  1.00  0.00     0.058 A 
ATOM     84  C   UNL A   1      45.459  27.140  35.228  1.00  0.00     0.135 A 
ATOM     85  C   UNL A   1      43.320  26.159  35.049  1.00  0.00     0.135 A 
ATOM     86  F   UNL A   1      46.364  28.117  35.174  1.00  0.00    -0.206 F 
ATOM     87  C   UNL A   1      45.929  25.963  35.829  1.00  0.00     0.059 A 
ATOM     88  C   UNL A   1      43.741  25.016  35.725  1.00  0.00     0.059 A 
ATOM     89  F   UNL A   1      42.034  26.073  34.692  1.00  0.00    -0.206 F 
ATOM     90  C   UNL A   1      45.065  24.906  36.070  1.00  0.00     0.060 A 
BRANCH  90  91
ATOM     91  S   UNL A   1      45.692  23.398  36.814  1.00  0.00     0.124 S 
ATOM     92  O   UNL A   1      45.312  23.586  38.211  1.00  0.00    -0.237 OA
ATOM     93  O   UNL A   1      44.951  22.370  36.090  1.00  0.00    -0.237 OA
ATOM     94  O   UNL A   1      47.125  23.444  36.540  1.00  0.00    -0.744 OA
ENDBRANCH  90  91
ENDBRANCH  58  83
ENDBRANCH  32  33
ENDBRANCH  25  27
ENDBRANCH  24  25
ENDBRANCH  23  24
ENDBRANCH   1  23
TORSDOF 20
ENDMDL
MODEL 2
REMARK VINA RESULT:     -13.4      4.099     10.860
REMARK SMILES Cc1ccccc1C[C@H](CCSc1ccccc1)C(=O)OCCOC(=O)c1ccc(-c2c3nc(c(-c4c(F)cc(S(=O)(=O)[O-])cc4F)c4ccc([nH]4)c(-c4c(F)cc(S(=O)(=O)[O-])cc4F)c4nc(c(-c5c(F)cc(S(=O)(=O)[O-])cc5F)c5ccc2[nH]5)C=C4)C=C3)cc1
REMARK SMILES IDX 22 1 21 2 19 3 20 4 9 5 8 6 7 7 1 8 2 9 3 10 4 11 6 12 5 13
REMARK SMILES IDX 10 14 11 15 12 16 13 17 14 18 18 19 15 20 17 21 16 22 23 23
REMARK SMILES IDX 24 24 25 25 26 26 27 27 28 28 92 29 29 30 91 31 30 32 31 33
REMARK SMILES IDX 32 34 85 35 33 36 90 37 84 38 86 39 34 40 89 41 83 42 82 43
REMARK SMILES IDX 35 45 69 46 48 47 68 48 49 49 52 50 67 51 87 52 50 53 51 54
REMARK SMILES IDX 66 56 88 57 53 58 36 59 37 60 46 61 38 62 39 63 45 64 47 65
REMARK SMILES IDX 40 66 41 67 42 68 43 69 44 70 70 71 71 72 80 73 72 74 73 75
REMARK SMILES IDX 79 76 81 77 74 78 75 79 76 80 77 81 78 82 54 83 55 84 64 85
REMARK SMILES IDX 56 86 57 87 63 88 65 89 58 90 59 91 60 92 61 93 62 94
REMARK H PARENT 86 44 52 55
REMARK Flexibility Score: inf
ROOT
ATOM      1  C   UNL A   1      37.130  21.466  25.461  1.00  0.00     0.274 C 
ENDROOT
BRANCH   1   2
ATOM      2  O   UNL A   1      36.389  21.768  24.291  1.00  0.00    -0.462 OA
BRANCH   2   3
ATOM      3  C   UNL A   1      35.690  23.059  24.275  1.00  0.00     0.309 C 
ATOM      4  O   UNL A   1      36.104  23.640  25.320  1.00  0.00    -0.252 OA
BRANCH   3   5
ATOM      5  C   UNL A   1      34.217  23.606  22.759  1.00  0.00     0.104 C 
BRANCH   5   6
ATOM      6  C   UNL A   1      33.186  25.119  22.728  1.00  0.00     0.051 C 
BRANCH   6   7
ATOM      7  C   UNL A   1      32.751  25.766  24.019  1.00  0.00    -0.044 A 
ATOM      8  C   UNL A   1      29.874  25.631  23.833  1.00  0.00     0.044 C 
ATOM      9  C   UNL A   1      31.104  26.530  24.010  1.00  0.00    -0.048 A 
ATOM     10  C   UNL A   1      30.752  27.872  25.119  1.00  0.00     0.004 A 
ATOM     11  C   UNL A   1      31.963  28.357  26.357  1.00  0.00     0.000 A 
ATOM     12  C   UNL A   1      34.020  26.322  25.280  1.00  0.00     0.004 A 
ATOM     13  C   UNL A   1      33.587  27.582  26.471  1.00  0.00     0.000 A 
ENDBRANCH   6   7
ENDBRANCH   5   6
BRANCH   5  14
ATOM     14  C   UNL A   1      33.023  22.752  21.801  1.00  0.00     0.027 C 
BRANCH  14  15
ATOM     15  C   UNL A   1      32.042  21.731  22.552  1.00  0.00     0.076 C 
BRANCH  15  16
ATOM     16  S   UNL A   1      32.607  20.577  23.915  1.00  0.00    -0.126 SA
BRANCH  16  17
ATOM     17  C   UNL A   1      32.717  21.392  25.520  1.00  0.00     0.007 A 
ATOM     18  C   UNL A   1      33.641  21.040  26.485  1.00  0.00     0.015 A 
ATOM     19  C   UNL A   1      32.034  22.595  25.762  1.00  0.00     0.015 A 
ATOM     20  C   UNL A   1      33.934  21.823  27.606  1.00  0.00     0.001 A 
ATOM     21  C   UNL A   1      32.304  23.392  26.900  1.00  0.00     0.001 A 
ATOM     22  C   UNL A   1      33.273  23.012  27.819  1.00  0.00     0.000 A 
ENDBRANCH  16  17
ENDBRANCH  15  16
ENDBRANCH  14  15
ENDBRANCH   5  14
ENDBRANCH   3   5
ENDBRANCH   2   3
ENDBRANCH   1   2
BRANCH   1  23
ATOM     23  C   UNL A   1      38.312  20.614  25.002  1.00  0.00     0.275 C 
BRANCH  23  24
ATOM     24  O   UNL A   1      39.416  20.478  25.960  1.00  0.00    -0.458 OA
BRANCH  24  25
ATOM     25  C   UNL A   1      40.416  21.401  26.144  1.00  0.00     0.338 C 
ATOM     26  O   UNL A   1      41.426  21.450  25.458  1.00  0.00    -0.246 OA
BRANCH  25  27
ATOM     27  C   UNL A   1      40.249  22.282  27.356  1.00  0.00     0.060 A 
ATOM     28  C   UNL A   1      39.218  23.720  27.147  1.00  0.00     0.016 A 
ATOM     29  C   UNL A   1      41.727  22.372  28.311  1.00  0.00     0.016 A 
ATOM     30  C   UNL A   1      39.793  25.370  27.664  1.00  0.00     0.010 A 
ATOM     31  C   UNL A   1      42.338  23.976  28.840  1.00  0.00     0.010 A 
ATOM     32  C   UNL A   1      41.413  25.531  28.432  1.00  0.00    -0.014 A 
BRANCH  32  33
ATOM     33  C   UNL A   1      42.009  27.061  28.882  1.00  0.00     0.031 A 
ATOM     34  C   UNL A   1      40.791  28.797  29.257  1.00  0.00     0.074 A 
ATOM     35  C   UNL A   1      43.339  26.534  29.172  1.00  0.00     0.049 A 
ATOM     36  N   UNL A   1      40.988  30.150  29.183  1.00  0.00    -0.248 NA
ATOM     37  C   UNL A   1      39.095  28.922  29.650  1.00  0.00     0.031 C 
ATOM     38  C   UNL A   1      44.339  26.910  30.233  1.00  0.00     0.029 A 
ATOM     39  N   UNL A   1      44.245  26.173  28.125  1.00  0.00    -0.354 N 
ATOM     40  C   UNL A   1      40.116  30.820  30.014  1.00  0.00     0.074 A 
ATOM     41  C   UNL A   1      38.864  30.204  29.833  1.00  0.00     0.031 C 
ATOM     42  C   UNL A   1      45.526  27.212  29.690  1.00  0.00     0.029 A 
ATOM     43  C   UNL A   1      45.449  26.901  28.295  1.00  0.00     0.049 A 
ATOM     44  H   UNL A   1      44.062  25.526  27.406  1.00  0.00     0.167 HD
ATOM     45  C   UNL A   1      40.612  31.542  31.068  1.00  0.00     0.037 A 
ATOM     46  C   UNL A   1      46.132  27.537  27.314  1.00  0.00     0.037 A 
ATOM     47  C   UNL A   1      42.097  31.618  31.015  1.00  0.00     0.049 A 
ATOM     48  C   UNL A   1      46.170  29.060  27.479  1.00  0.00     0.074 A 
ATOM     49  C   UNL A   1      43.136  31.247  31.858  1.00  0.00     0.029 A 
ATOM     50  N   UNL A   1      42.719  31.891  29.795  1.00  0.00    -0.354 N 
ATOM     51  N   UNL A   1      45.500  29.772  28.363  1.00  0.00    -0.248 NA
ATOM     52  C   UNL A   1      47.013  29.908  26.640  1.00  0.00     0.031 C 
ATOM     53  C   UNL A   1      44.378  31.397  31.158  1.00  0.00     0.029 A 
ATOM     54  C   UNL A   1      44.101  31.789  29.857  1.00  0.00     0.049 A 
ATOM     55  H   UNL A   1      42.228  32.131  28.976  1.00  0.00     0.167 HD
ATOM     56  C   UNL A   1      45.662  31.135  28.111  1.00  0.00     0.074 A 
ATOM     57  C   UNL A   1      46.714  31.132  27.106  1.00  0.00     0.031 C 
ATOM     58  C   UNL A   1      44.906  32.150  28.682  1.00  0.00     0.037 A 
BRANCH  45  59
ATOM     59  C   UNL A   1      39.771  31.974  32.287  1.00  0.00     0.058 A 
ATOM     60  C   UNL A   1      39.568  31.075  33.356  1.00  0.00     0.135 A 
ATOM     61  C   UNL A   1      39.143  33.231  32.502  1.00  0.00     0.135 A 
ATOM     62  F   UNL A   1      40.122  29.856  33.366  1.00  0.00    -0.206 F 
ATOM     63  C   UNL A   1      38.816  31.379  34.498  1.00  0.00     0.059 A 
ATOM     64  C   UNL A   1      38.364  33.549  33.619  1.00  0.00     0.059 A 
ATOM     65  F   UNL A   1      39.277  34.277  31.691  1.00  0.00    -0.206 F 
ATOM     66  C   UNL A   1      38.224  32.624  34.627  1.00  0.00     0.060 A 
BRANCH  66  67
ATOM     67  S   UNL A   1      37.371  33.053  36.148  1.00  0.00     0.124 S 
ATOM     68  O   UNL A   1      38.207  34.129  36.675  1.00  0.00    -0.237 OA
ATOM     69  O   UNL A   1      36.057  33.448  35.653  1.00  0.00    -0.237 OA
ATOM     70  O   UNL A   1      37.400  31.813  36.919  1.00  0.00    -0.744 OA
ENDBRANCH  66  67
ENDBRANCH  45  59
BRANCH  46  71
ATOM     71  C   UNL A   1      46.170  26.677  26.090  1.00  0.00     0.058 A 
ATOM     72  C   UNL A   1      47.120  25.623  26.110  1.00  0.00     0.135 A 
ATOM     73  C   UNL A   1      45.010  26.467  25.343  1.00  0.00     0.135 A 
ATOM     74  F   UNL A   1      48.286  25.788  26.757  1.00  0.00    -0.206 F 
ATOM     75  C   UNL A   1      46.817  24.346  25.641  1.00  0.00     0.059 A 
ATOM     76  C   UNL A   1      44.704  25.200  24.827  1.00  0.00     0.059 A 
ATOM     77  F   UNL A   1      44.098  27.445  25.258  1.00  0.00    -0.206 F 
ATOM     78  C   UNL A   1      45.579  24.131  25.047  1.00  0.00     0.060 A 
BRANCH  78  79
ATOM     79  S   UNL A   1      45.089  22.426  24.677  1.00  0.00     0.124 S 
ATOM     80  O   UNL A   1      46.356  21.825  24.280  1.00  0.00    -0.237 OA
ATOM     81  O   UNL A   1      44.555  21.963  25.952  1.00  0.00    -0.237 OA
ATOM     82  O   UNL A   1      44.109  22.584  23.607  1.00  0.00    -0.744 OA
ENDBRANCH  78  79
ENDBRANCH  46  71
BRANCH  58  83
ATOM     83  C   UNL A   1      44.804  33.647  28.254  1.00  0.00     0.058 A 
ATOM     84  C   UNL A   1      44.321  34.133  27.030  1.00  0.00     0.135 A 
ATOM     85  C   UNL A   1      45.180  34.700  29.153  1.00  0.00     0.135 A 
ATOM     86  F   UNL A   1      43.802  33.339  26.094  1.00  0.00    -0.206 F 
ATOM     87  C   UNL A   1      44.310  35.493  26.691  1.00  0.00     0.059 A 
ATOM     88  C   UNL A   1      45.093  36.061  28.872  1.00  0.00     0.059 A 
ATOM     89  F   UNL A   1      45.673  34.482  30.378  1.00  0.00    -0.206 F 
ATOM     90  C   UNL A   1      44.701  36.450  27.615  1.00  0.00     0.060 A 
BRANCH  90  91
ATOM     91  S   UNL A   1      44.706  38.183  27.153  1.00  0.00     0.124 S 
ATOM     92  O   UNL A   1      45.857  38.239  26.256  1.00  0.00    -0.237 OA
ATOM     93  O   UNL A   1      43.401  38.333  26.517  1.00  0.00    -0.237 OA
ATOM     94  O   UNL A   1      44.865  38.882  28.424  1.00  0.00    -0.744 OA
ENDBRANCH  90  91
ENDBRANCH  58  83
ENDBRANCH  32  33
ENDBRANCH  25  27
ENDBRANCH  24  25
ENDBRANCH  23  24
ENDBRANCH   1  23
TORSDOF 20
ENDMDL
MODEL 3
REMARK VINA RESULT:     -13.3      4.154     11.046
REMARK SMILES Cc1ccccc1C[C@H](CCSc1ccccc1)C(=O)OCCOC(=O)c1ccc(-c2c3nc(c(-c4c(F)cc(S(=O)(=O)[O-])cc4F)c4ccc([nH]4)c(-c4c(F)cc(S(=O)(=O)[O-])cc4F)c4nc(c(-c5c(F)cc(S(=O)(=O)[O-])cc5F)c5ccc2[nH]5)C=C4)C=C3)cc1
REMARK SMILES IDX 22 1 21 2 19 3 20 4 9 5 8 6 7 7 1 8 2 9 3 10 4 11 6 12 5 13
REMARK SMILES IDX 10 14 11 15 12 16 13 17 14 18 18 19 15 20 17 21 16 22 23 23
REMARK SMILES IDX 24 24 25 25 26 26 27 27 28 28 92 29 29 30 91 31 30 32 31 33
REMARK SMILES IDX 32 34 85 35 33 36 90 37 84 38 86 39 34 40 89 41 83 42 82 43
REMARK SMILES IDX 35 45 69 46 48 47 68 48 49 49 52 50 67 51 87 52 50 53 51 54
REMARK SMILES IDX 66 56 88 57 53 58 36 59 37 60 46 61 38 62 39 63 45 64 47 65
REMARK SMILES IDX 40 66 41 67 42 68 43 69 44 70 70 71 71 72 80 73 72 74 73 75
REMARK SMILES IDX 79 76 81 77 74 78 75 79 76 80 77 81 78 82 54 83 55 84 64 85
REMARK SMILES IDX 56 86 57 87 63 88 65 89 58 90 59 91 60 92 61 93 62 94
REMARK H PARENT 86 44 52 55
REMARK Flexibility Score: inf
ROOT
ATOM      1  C   UNL A   1      37.068  21.590  25.513  1.00  0.00     0.274 C 
ENDROOT
BRANCH   1   2
ATOM      2  O   UNL A   1      36.557  22.245  24.365  1.00  0.00    -0.462 OA
BRANCH   2   3
ATOM      3  C   UNL A   1      35.758  23.453  24.602  1.00  0.00     0.309 C 
ATOM      4  O   UNL A   1      36.184  23.882  25.714  1.00  0.00    -0.252 OA
BRANCH   3   5
ATOM      5  C   UNL A   1      34.164  24.118  23.267  1.00  0.00     0.104 C 
BRANCH   5   6
ATOM      6  C   UNL A   1      33.579  25.837  23.029  1.00  0.00     0.051 C 
BRANCH   6   7
ATOM      7  C   UNL A   1      33.362  26.735  24.221  1.00  0.00    -0.044 A 
ATOM      8  C   UNL A   1      32.637  24.851  26.284  1.00  0.00     0.044 C 
ATOM      9  C   UNL A   1      32.235  26.103  25.497  1.00  0.00    -0.048 A 
ATOM     10  C   UNL A   1      31.355  27.245  26.535  1.00  0.00     0.004 A 
ATOM     11  C   UNL A   1      31.706  29.007  26.434  1.00  0.00     0.000 A 
ATOM     12  C   UNL A   1      33.674  28.578  24.095  1.00  0.00     0.004 A 
ATOM     13  C   UNL A   1      32.875  29.689  25.244  1.00  0.00     0.000 A 
ENDBRANCH   6   7
ENDBRANCH   5   6
BRANCH   5  14
ATOM     14  C   UNL A   1      32.600  23.499  22.770  1.00  0.00     0.027 C 
BRANCH  14  15
ATOM     15  C   UNL A   1      32.401  21.910  22.713  1.00  0.00     0.076 C 
BRANCH  15  16
ATOM     16  S   UNL A   1      32.440  20.813  24.232  1.00  0.00    -0.126 SA
BRANCH  16  17
ATOM     17  C   UNL A   1      33.277  19.244  23.939  1.00  0.00     0.007 A 
ATOM     18  C   UNL A   1      34.463  18.893  24.555  1.00  0.00     0.015 A 
ATOM     19  C   UNL A   1      32.626  18.198  23.265  1.00  0.00     0.015 A 
ATOM     20  C   UNL A   1      34.981  17.593  24.567  1.00  0.00     0.001 A 
ATOM     21  C   UNL A   1      33.144  16.880  23.250  1.00  0.00     0.001 A 
ATOM     22  C   UNL A   1      34.320  16.573  23.920  1.00  0.00     0.000 A 
ENDBRANCH  16  17
ENDBRANCH  15  16
ENDBRANCH  14  15
ENDBRANCH   5  14
ENDBRANCH   3   5
ENDBRANCH   2   3
ENDBRANCH   1   2
BRANCH   1  23
ATOM     23  C   UNL A   1      38.223  20.718  25.021  1.00  0.00     0.275 C 
BRANCH  23  24
ATOM     24  O   UNL A   1      39.357  20.576  25.943  1.00  0.00    -0.458 OA
BRANCH  24  25
ATOM     25  C   UNL A   1      40.343  21.514  26.127  1.00  0.00     0.338 C 
ATOM     26  O   UNL A   1      41.338  21.596  25.424  1.00  0.00    -0.246 OA
BRANCH  25  27
ATOM     27  C   UNL A   1      40.182  22.367  27.360  1.00  0.00     0.060 A 
ATOM     28  C   UNL A   1      39.179  23.828  27.180  1.00  0.00     0.016 A 
ATOM     29  C   UNL A   1      41.653  22.404  28.329  1.00  0.00     0.016 A 
ATOM     30  C   UNL A   1      39.781  25.454  27.744  1.00  0.00     0.010 A 
ATOM     31  C   UNL A   1      42.289  23.983  28.904  1.00  0.00     0.010 A 
ATOM     32  C   UNL A   1      41.397  25.564  28.529  1.00  0.00    -0.014 A 
BRANCH  32  33
ATOM     33  C   UNL A   1      42.018  27.071  29.023  1.00  0.00     0.031 A 
ATOM     34  C   UNL A   1      40.826  28.808  29.468  1.00  0.00     0.074 A 
ATOM     35  C   UNL A   1      43.343  26.518  29.281  1.00  0.00     0.049 A 
ATOM     36  N   UNL A   1      41.040  30.161  29.437  1.00  0.00    -0.248 NA
ATOM     37  C   UNL A   1      39.136  28.942  29.884  1.00  0.00     0.031 C 
ATOM     38  C   UNL A   1      44.360  26.845  30.342  1.00  0.00     0.029 A 
ATOM     39  N   UNL A   1      44.233  26.181  28.212  1.00  0.00    -0.354 N 
ATOM     40  C   UNL A   1      40.186  30.814  30.300  1.00  0.00     0.074 A 
ATOM     41  C   UNL A   1      38.924  30.220  30.112  1.00  0.00     0.031 C 
ATOM     42  C   UNL A   1      45.544  27.150  29.797  1.00  0.00     0.029 A 
ATOM     43  C   UNL A   1      45.449  26.887  28.393  1.00  0.00     0.049 A 
ATOM     44  H   UNL A   1      44.035  25.560  27.474  1.00  0.00     0.167 HD
ATOM     45  C   UNL A   1      40.702  31.494  31.371  1.00  0.00     0.037 A 
ATOM     46  C   UNL A   1      46.129  27.547  27.426  1.00  0.00     0.037 A 
ATOM     47  C   UNL A   1      42.187  31.553  31.305  1.00  0.00     0.049 A 
ATOM     48  C   UNL A   1      46.189  29.063  27.641  1.00  0.00     0.074 A 
ATOM     49  C   UNL A   1      43.230  31.141  32.123  1.00  0.00     0.029 A 
ATOM     50  N   UNL A   1      42.800  31.858  30.087  1.00  0.00    -0.354 N 
ATOM     51  N   UNL A   1      45.537  29.754  28.556  1.00  0.00    -0.248 NA
ATOM     52  C   UNL A   1      47.034  29.927  26.822  1.00  0.00     0.031 C 
ATOM     53  C   UNL A   1      44.466  31.298  31.415  1.00  0.00     0.029 A 
ATOM     54  C   UNL A   1      44.181  31.737  30.131  1.00  0.00     0.049 A 
ATOM     55  H   UNL A   1      42.303  32.132  29.282  1.00  0.00     0.167 HD
ATOM     56  C   UNL A   1      45.715  31.122  28.347  1.00  0.00     0.074 A 
ATOM     57  C   UNL A   1      46.756  31.139  27.331  1.00  0.00     0.031 C 
ATOM     58  C   UNL A   1      44.978  32.127  28.960  1.00  0.00     0.037 A 
BRANCH  45  59
ATOM     59  C   UNL A   1      39.880  31.896  32.613  1.00  0.00     0.058 A 
ATOM     60  C   UNL A   1      39.901  31.080  33.765  1.00  0.00     0.135 A 
ATOM     61  C   UNL A   1      39.063  33.048  32.773  1.00  0.00     0.135 A 
ATOM     62  F   UNL A   1      40.653  29.975  33.831  1.00  0.00    -0.206 F 
ATOM     63  C   UNL A   1      39.183  31.363  34.934  1.00  0.00     0.059 A 
ATOM     64  C   UNL A   1      38.314  33.339  33.918  1.00  0.00     0.059 A 
ATOM     65  F   UNL A   1      38.965  34.021  31.870  1.00  0.00    -0.206 F 
ATOM     66  C   UNL A   1      38.397  32.502  35.006  1.00  0.00     0.060 A 
BRANCH  66  67
ATOM     67  S   UNL A   1      37.584  32.927  36.550  1.00  0.00     0.124 S 
ATOM     68  O   UNL A   1      36.370  33.593  36.084  1.00  0.00    -0.237 OA
ATOM     69  O   UNL A   1      37.399  31.616  37.161  1.00  0.00    -0.237 OA
ATOM     70  O   UNL A   1      38.548  33.796  37.219  1.00  0.00    -0.744 OA
ENDBRANCH  66  67
ENDBRANCH  45  59
BRANCH  46  71
ATOM     71  C   UNL A   1      46.143  26.728  26.175  1.00  0.00     0.058 A 
ATOM     72  C   UNL A   1      47.152  25.732  26.104  1.00  0.00     0.135 A 
ATOM     73  C   UNL A   1      44.955  26.471  25.490  1.00  0.00     0.135 A 
ATOM     74  F   UNL A   1      48.344  25.948  26.686  1.00  0.00    -0.206 F 
ATOM     75  C   UNL A   1      46.897  24.454  25.610  1.00  0.00     0.059 A 
ATOM     76  C   UNL A   1      44.692  25.203  24.950  1.00  0.00     0.059 A 
ATOM     77  F   UNL A   1      43.984  27.394  25.491  1.00  0.00    -0.206 F 
ATOM     78  C   UNL A   1      45.640  24.183  25.083  1.00  0.00     0.060 A 
BRANCH  78  79
ATOM     79  S   UNL A   1      45.228  22.463  24.685  1.00  0.00     0.124 S 
ATOM     80  O   UNL A   1      46.547  21.858  24.554  1.00  0.00    -0.237 OA
ATOM     81  O   UNL A   1      44.465  22.039  25.853  1.00  0.00    -0.237 OA
ATOM     82  O   UNL A   1      44.466  22.579  23.446  1.00  0.00    -0.744 OA
ENDBRANCH  78  79
ENDBRANCH  46  71
BRANCH  58  83
ATOM     83  C   UNL A   1      44.891  33.638  28.583  1.00  0.00     0.058 A 
ATOM     84  C   UNL A   1      45.331  34.718  29.362  1.00  0.00     0.135 A 
ATOM     85  C   UNL A   1      44.361  34.054  27.316  1.00  0.00     0.135 A 
ATOM     86  F   UNL A   1      45.969  34.558  30.521  1.00  0.00    -0.206 F 
ATOM     87  C   UNL A   1      45.171  36.059  28.983  1.00  0.00     0.059 A 
ATOM     88  C   UNL A   1      44.276  35.374  26.880  1.00  0.00     0.059 A 
ATOM     89  F   UNL A   1      43.876  33.203  26.405  1.00  0.00    -0.206 F 
ATOM     90  C   UNL A   1      44.639  36.378  27.743  1.00  0.00     0.060 A 
BRANCH  90  91
ATOM     91  S   UNL A   1      44.416  38.098  27.287  1.00  0.00     0.124 S 
ATOM     92  O   UNL A   1      45.571  38.320  26.422  1.00  0.00    -0.237 OA
ATOM     93  O   UNL A   1      43.120  38.071  26.617  1.00  0.00    -0.237 OA
ATOM     94  O   UNL A   1      44.444  38.804  28.564  1.00  0.00    -0.744 OA
ENDBRANCH  90  91
ENDBRANCH  58  83
ENDBRANCH  32  33
ENDBRANCH  25  27
ENDBRANCH  24  25
ENDBRANCH  23  24
ENDBRANCH   1  23
TORSDOF 20
ENDMDL
