MODEL 1
REMARK VINA RESULT:     -10.4      0.000      0.000
REMARK SMILES CCC[N@H+]1CCC[C@H]([C@@H](C)Nc2cccc(C(=O)OCCOC(=O)c3ccc(-c4c5nc(c(-c6c(F)cc(S(=O)(=O)[O-])cc6F)c6ccc([nH]6)c(-c6c(F)cc(S(=O)(=O)[O-])cc6F)c6nc(c(-c7c(F)cc(S(=O)(=O)[O-])cc7F)c7ccc4[nH]7)C=C6)C=C5)cc3)c2)C1
REMARK SMILES IDX 20 1 19 2 17 3 18 4 16 5 12 6 13 7 91 8 14 9 15 10 11 11
REMARK SMILES IDX 9 13 10 14 8 15 4 16 5 17 92 18 6 20 7 21 3 22 2 23 1 24
REMARK SMILES IDX 21 25 22 26 23 27 24 28 25 29 26 30 90 31 27 32 89 33 28 34
REMARK SMILES IDX 29 35 30 36 83 37 31 38 88 39 82 40 84 41 32 42 87 43 81 44
REMARK SMILES IDX 80 45 33 47 67 48 46 49 66 50 47 51 50 52 65 53 85 54 48 55
REMARK SMILES IDX 49 56 64 58 86 59 51 60 34 61 35 62 44 63 36 64 37 65 43 66
REMARK SMILES IDX 45 67 38 68 39 69 40 70 41 71 42 72 68 73 69 74 78 75 70 76
REMARK SMILES IDX 71 77 77 78 79 79 72 80 73 81 74 82 75 83 76 84 52 85 53 86
REMARK SMILES IDX 62 87 54 88 55 89 61 90 63 91 56 92 57 93 58 94 59 95 60 96
REMARK H PARENT 11 12 4 19 84 46 50 57
REMARK Flexibility Score: inf
ROOT
ATOM      1  C   UNL A   1      35.186  31.990  27.965  1.00  0.00     0.275 C 
ENDROOT
BRANCH   1   2
ATOM      2  O   UNL A   1      34.667  30.689  27.622  1.00  0.00    -0.458 OA
BRANCH   2   3
ATOM      3  C   UNL A   1      33.358  30.639  27.261  1.00  0.00     0.338 C 
ATOM      4  O   UNL A   1      32.619  31.585  27.077  1.00  0.00    -0.246 OA
BRANCH   3   5
ATOM      5  C   UNL A   1      32.955  29.230  27.009  1.00  0.00     0.062 A 
ATOM      6  C   UNL A   1      33.468  27.011  26.167  1.00  0.00     0.035 A 
ATOM      7  C   UNL A   1      32.189  26.590  26.549  1.00  0.00     0.026 A 
ATOM      8  C   UNL A   1      33.810  28.355  26.342  1.00  0.00     0.041 A 
ATOM      9  C   UNL A   1      31.320  27.461  27.207  1.00  0.00     0.003 A 
ATOM     10  C   UNL A   1      31.726  28.764  27.484  1.00  0.00     0.016 A 
BRANCH   6  11
ATOM     11  N   UNL A   1      34.408  26.070  25.762  1.00  0.00    -0.382 N 
ATOM     12  H   UNL A   1      35.371  26.241  25.882  1.00  0.00     0.160 HD
BRANCH  11  13
ATOM     13  C   UNL A   1      33.942  24.820  25.155  1.00  0.00     0.084 C 
ATOM     14  C   UNL A   1      34.737  23.685  25.807  1.00  0.00     0.031 C 
BRANCH  13  15
ATOM     15  C   UNL A   1      34.083  24.874  23.606  1.00  0.00     0.066 C 
ATOM     16  N   UNL A   1      32.055  26.273  23.122  1.00  0.00    -0.335 N 
ATOM     17  C   UNL A   1      31.375  25.157  22.472  1.00  0.00     0.262 C 
ATOM     18  C   UNL A   1      33.517  26.184  22.996  1.00  0.00     0.267 C 
ATOM     19  H   UNL A   1      31.837  26.177  24.113  1.00  0.00     0.348 HD
ATOM     20  C   UNL A   1      31.858  23.811  23.015  1.00  0.00     0.062 C 
ATOM     21  C   UNL A   1      33.379  23.694  22.908  1.00  0.00     0.017 C 
BRANCH  16  22
ATOM     22  C   UNL A   1      31.530  27.598  22.754  1.00  0.00     0.261 C 
BRANCH  22  23
ATOM     23  C   UNL A   1      30.316  28.156  23.520  1.00  0.00     0.058 C 
ATOM     24  C   UNL A   1      30.415  29.639  23.860  1.00  0.00     0.010 C 
ENDBRANCH  22  23
ENDBRANCH  16  22
ENDBRANCH  13  15
ENDBRANCH  11  13
ENDBRANCH   6  11
ENDBRANCH   3   5
ENDBRANCH   2   3
ENDBRANCH   1   2
BRANCH   1  25
ATOM     25  C   UNL A   1      35.094  32.210  29.474  1.00  0.00     0.275 C 
BRANCH  25  26
ATOM     26  O   UNL A   1      36.397  32.036  30.055  1.00  0.00    -0.458 OA
BRANCH  26  27
ATOM     27  C   UNL A   1      36.629  30.848  30.660  1.00  0.00     0.338 C 
ATOM     28  O   UNL A   1      35.895  30.240  31.419  1.00  0.00    -0.246 OA
BRANCH  27  29
ATOM     29  C   UNL A   1      37.949  30.356  30.232  1.00  0.00     0.060 A 
ATOM     30  C   UNL A   1      38.867  29.962  31.200  1.00  0.00     0.016 A 
ATOM     31  C   UNL A   1      38.308  30.357  28.887  1.00  0.00     0.016 A 
ATOM     32  C   UNL A   1      40.169  29.626  30.847  1.00  0.00     0.010 A 
ATOM     33  C   UNL A   1      39.589  29.924  28.523  1.00  0.00     0.010 A 
ATOM     34  C   UNL A   1      40.542  29.573  29.501  1.00  0.00    -0.014 A 
BRANCH  34  35
ATOM     35  C   UNL A   1      41.920  29.163  29.114  1.00  0.00     0.031 A 
ATOM     36  C   UNL A   1      43.028  30.181  29.082  1.00  0.00     0.074 A 
ATOM     37  C   UNL A   1      42.181  27.884  28.775  1.00  0.00     0.049 A 
ATOM     38  N   UNL A   1      44.231  30.080  28.577  1.00  0.00    -0.248 NA
ATOM     39  C   UNL A   1      42.739  31.491  29.686  1.00  0.00     0.031 C 
ATOM     40  C   UNL A   1      41.214  26.784  28.802  1.00  0.00     0.029 A 
ATOM     41  N   UNL A   1      43.339  27.293  28.329  1.00  0.00    -0.354 N 
ATOM     42  C   UNL A   1      44.817  31.330  28.741  1.00  0.00     0.074 A 
ATOM     43  C   UNL A   1      43.839  32.171  29.399  1.00  0.00     0.031 C 
ATOM     44  C   UNL A   1      41.820  25.654  28.410  1.00  0.00     0.029 A 
ATOM     45  C   UNL A   1      43.188  25.963  28.012  1.00  0.00     0.049 A 
ATOM     46  H   UNL A   1      44.194  27.774  28.245  1.00  0.00     0.167 HD
ATOM     47  C   UNL A   1      46.053  31.737  28.366  1.00  0.00     0.037 A 
ATOM     48  C   UNL A   1      44.028  25.097  27.411  1.00  0.00     0.037 A 
ATOM     49  C   UNL A   1      47.037  30.875  27.763  1.00  0.00     0.049 A 
ATOM     50  C   UNL A   1      45.382  25.575  26.971  1.00  0.00     0.074 A 
ATOM     51  C   UNL A   1      48.340  31.175  27.405  1.00  0.00     0.029 A 
ATOM     52  N   UNL A   1      46.829  29.544  27.431  1.00  0.00    -0.354 N 
ATOM     53  N   UNL A   1      45.917  26.765  27.110  1.00  0.00    -0.248 NA
ATOM     54  C   UNL A   1      46.235  24.607  26.270  1.00  0.00     0.031 C 
ATOM     55  C   UNL A   1      48.903  30.038  26.814  1.00  0.00     0.029 A 
ATOM     56  C   UNL A   1      47.966  29.017  26.841  1.00  0.00     0.049 A 
ATOM     57  H   UNL A   1      45.994  29.046  27.592  1.00  0.00     0.167 HD
ATOM     58  C   UNL A   1      47.164  26.692  26.503  1.00  0.00     0.074 A 
ATOM     59  C   UNL A   1      47.317  25.334  26.023  1.00  0.00     0.031 C 
ATOM     60  C   UNL A   1      48.094  27.668  26.349  1.00  0.00     0.037 A 
BRANCH  47  61
ATOM     61  C   UNL A   1      46.393  33.190  28.551  1.00  0.00     0.058 A 
ATOM     62  C   UNL A   1      46.992  33.679  29.722  1.00  0.00     0.135 A 
ATOM     63  C   UNL A   1      46.118  34.109  27.524  1.00  0.00     0.135 A 
ATOM     64  F   UNL A   1      47.264  32.848  30.740  1.00  0.00    -0.206 F 
ATOM     65  C   UNL A   1      47.273  35.033  29.884  1.00  0.00     0.059 A 
ATOM     66  C   UNL A   1      46.413  35.464  27.654  1.00  0.00     0.059 A 
ATOM     67  F   UNL A   1      45.546  33.696  26.382  1.00  0.00    -0.206 F 
ATOM     68  C   UNL A   1      46.973  35.918  28.846  1.00  0.00     0.060 A 
BRANCH  68  69
ATOM     69  S   UNL A   1      47.322  37.675  29.076  1.00  0.00     0.124 S 
ATOM     70  O   UNL A   1      48.782  37.689  29.036  1.00  0.00    -0.237 OA
ATOM     71  O   UNL A   1      46.653  38.282  27.930  1.00  0.00    -0.237 OA
ATOM     72  O   UNL A   1      46.728  37.972  30.376  1.00  0.00    -0.744 OA
ENDBRANCH  68  69
ENDBRANCH  47  61
BRANCH  48  73
ATOM     73  C   UNL A   1      43.567  23.711  27.132  1.00  0.00     0.058 A 
ATOM     74  C   UNL A   1      43.492  22.752  28.151  1.00  0.00     0.135 A 
ATOM     75  C   UNL A   1      43.126  23.342  25.851  1.00  0.00     0.135 A 
ATOM     76  F   UNL A   1      43.917  23.053  29.388  1.00  0.00    -0.206 F 
ATOM     77  C   UNL A   1      42.979  21.480  27.915  1.00  0.00     0.059 A 
ATOM     78  C   UNL A   1      42.585  22.086  25.596  1.00  0.00     0.059 A 
ATOM     79  F   UNL A   1      43.169  24.227  24.843  1.00  0.00    -0.206 F 
ATOM     80  C   UNL A   1      42.516  21.161  26.637  1.00  0.00     0.060 A 
BRANCH  80  81
ATOM     81  S   UNL A   1      41.754  19.545  26.365  1.00  0.00     0.124 S 
ATOM     82  O   UNL A   1      42.153  18.826  27.570  1.00  0.00    -0.237 OA
ATOM     83  O   UNL A   1      40.338  19.885  26.265  1.00  0.00    -0.237 OA
ATOM     84  O   UNL A   1      42.369  19.089  25.123  1.00  0.00    -0.744 OA
ENDBRANCH  80  81
ENDBRANCH  48  73
BRANCH  60  85
ATOM     85  C   UNL A   1      49.355  27.305  25.619  1.00  0.00     0.058 A 
ATOM     86  C   UNL A   1      49.428  27.364  24.219  1.00  0.00     0.135 A 
ATOM     87  C   UNL A   1      50.517  26.954  26.324  1.00  0.00     0.135 A 
ATOM     88  F   UNL A   1      48.341  27.684  23.499  1.00  0.00    -0.206 F 
ATOM     89  C   UNL A   1      50.608  27.076  23.541  1.00  0.00     0.059 A 
ATOM     90  C   UNL A   1      51.713  26.682  25.668  1.00  0.00     0.059 A 
ATOM     91  F   UNL A   1      50.500  26.888  27.665  1.00  0.00    -0.206 F 
ATOM     92  C   UNL A   1      51.746  26.740  24.275  1.00  0.00     0.060 A 
BRANCH  92  93
ATOM     93  S   UNL A   1      53.283  26.414  23.386  1.00  0.00     0.124 S 
ATOM     94  O   UNL A   1      52.795  26.170  22.033  1.00  0.00    -0.237 OA
ATOM     95  O   UNL A   1      54.026  27.655  23.578  1.00  0.00    -0.237 OA
ATOM     96  O   UNL A   1      53.833  25.248  24.073  1.00  0.00    -0.744 OA
ENDBRANCH  92  93
ENDBRANCH  60  85
ENDBRANCH  34  35
ENDBRANCH  27  29
ENDBRANCH  26  27
ENDBRANCH  25  26
ENDBRANCH   1  25
TORSDOF 19
ENDMDL
MODEL 2
REMARK VINA RESULT:     -10.3      6.470     11.766
REMARK SMILES CCC[N@H+]1CCC[C@H]([C@@H](C)Nc2cccc(C(=O)OCCOC(=O)c3ccc(-c4c5nc(c(-c6c(F)cc(S(=O)(=O)[O-])cc6F)c6ccc([nH]6)c(-c6c(F)cc(S(=O)(=O)[O-])cc6F)c6nc(c(-c7c(F)cc(S(=O)(=O)[O-])cc7F)c7ccc4[nH]7)C=C6)C=C5)cc3)c2)C1
REMARK SMILES IDX 20 1 19 2 17 3 18 4 16 5 12 6 13 7 91 8 14 9 15 10 11 11
REMARK SMILES IDX 9 13 10 14 8 15 4 16 5 17 92 18 6 20 7 21 3 22 2 23 1 24
REMARK SMILES IDX 21 25 22 26 23 27 24 28 25 29 26 30 90 31 27 32 89 33 28 34
REMARK SMILES IDX 29 35 30 36 83 37 31 38 88 39 82 40 84 41 32 42 87 43 81 44
REMARK SMILES IDX 80 45 33 47 67 48 46 49 66 50 47 51 50 52 65 53 85 54 48 55
REMARK SMILES IDX 49 56 64 58 86 59 51 60 34 61 35 62 44 63 36 64 37 65 43 66
REMARK SMILES IDX 45 67 38 68 39 69 40 70 41 71 42 72 68 73 69 74 78 75 70 76
REMARK SMILES IDX 71 77 77 78 79 79 72 80 73 81 74 82 75 83 76 84 52 85 53 86
REMARK SMILES IDX 62 87 54 88 55 89 61 90 63 91 56 92 57 93 58 94 59 95 60 96
REMARK H PARENT 11 12 4 19 84 46 50 57
REMARK Flexibility Score: inf
ROOT
ATOM      1  C   UNL A   1      42.597  22.202  26.284  1.00  0.00     0.275 C 
ENDROOT
BRANCH   1   2
ATOM      2  O   UNL A   1      41.527  21.401  25.742  1.00  0.00    -0.458 OA
BRANCH   2   3
ATOM      3  C   UNL A   1      40.484  21.146  26.575  1.00  0.00     0.338 C 
ATOM      4  O   UNL A   1      40.506  20.455  27.573  1.00  0.00    -0.246 OA
BRANCH   3   5
ATOM      5  C   UNL A   1      39.295  21.932  26.154  1.00  0.00     0.062 A 
ATOM      6  C   UNL A   1      37.147  22.064  25.028  1.00  0.00     0.035 A 
ATOM      7  C   UNL A   1      37.066  23.416  25.379  1.00  0.00     0.026 A 
ATOM      8  C   UNL A   1      38.303  21.352  25.365  1.00  0.00     0.041 A 
ATOM      9  C   UNL A   1      38.059  24.009  26.159  1.00  0.00     0.003 A 
ATOM     10  C   UNL A   1      39.145  23.251  26.590  1.00  0.00     0.016 A 
BRANCH   6  11
ATOM     11  N   UNL A   1      36.035  21.426  24.490  1.00  0.00    -0.382 N 
ATOM     12  H   UNL A   1      36.144  20.696  23.837  1.00  0.00     0.160 HD
BRANCH  11  13
ATOM     13  C   UNL A   1      34.699  21.858  24.911  1.00  0.00     0.084 C 
ATOM     14  C   UNL A   1      34.065  20.682  25.658  1.00  0.00     0.031 C 
BRANCH  13  15
ATOM     15  C   UNL A   1      33.867  22.345  23.689  1.00  0.00     0.066 C 
ATOM     16  N   UNL A   1      33.247  24.612  24.572  1.00  0.00    -0.335 N 
ATOM     17  C   UNL A   1      31.840  24.241  24.686  1.00  0.00     0.262 C 
ATOM     18  C   UNL A   1      33.929  23.884  23.493  1.00  0.00     0.267 C 
ATOM     19  H   UNL A   1      33.673  24.311  25.448  1.00  0.00     0.348 HD
ATOM     20  C   UNL A   1      31.670  22.735  24.894  1.00  0.00     0.062 C 
ATOM     21  C   UNL A   1      32.381  21.949  23.792  1.00  0.00     0.017 C 
BRANCH  16  22
ATOM     22  C   UNL A   1      33.487  26.064  24.521  1.00  0.00     0.261 C 
BRANCH  22  23
ATOM     23  C   UNL A   1      34.002  26.776  25.786  1.00  0.00     0.058 C 
ATOM     24  C   UNL A   1      33.620  28.249  25.877  1.00  0.00     0.010 C 
ENDBRANCH  22  23
ENDBRANCH  16  22
ENDBRANCH  13  15
ENDBRANCH  11  13
ENDBRANCH   6  11
ENDBRANCH   3   5
ENDBRANCH   2   3
ENDBRANCH   1   2
BRANCH   1  25
ATOM     25  C   UNL A   1      42.698  23.525  25.527  1.00  0.00     0.275 C 
BRANCH  25  26
ATOM     26  O   UNL A   1      42.679  24.609  26.470  1.00  0.00    -0.458 OA
BRANCH  26  27
ATOM     27  C   UNL A   1      42.021  25.726  26.086  1.00  0.00     0.338 C 
ATOM     28  O   UNL A   1      41.743  26.077  24.953  1.00  0.00    -0.246 OA
BRANCH  27  29
ATOM     29  C   UNL A   1      41.647  26.485  27.290  1.00  0.00     0.060 A 
ATOM     30  C   UNL A   1      42.176  27.759  27.475  1.00  0.00     0.016 A 
ATOM     31  C   UNL A   1      40.840  25.915  28.271  1.00  0.00     0.016 A 
ATOM     32  C   UNL A   1      41.962  28.452  28.661  1.00  0.00     0.010 A 
ATOM     33  C   UNL A   1      40.544  26.652  29.424  1.00  0.00     0.010 A 
ATOM     34  C   UNL A   1      41.118  27.921  29.642  1.00  0.00    -0.014 A 
BRANCH  34  35
ATOM     35  C   UNL A   1      40.842  28.681  30.893  1.00  0.00     0.031 A 
ATOM     36  C   UNL A   1      39.724  29.687  30.933  1.00  0.00     0.074 A 
ATOM     37  C   UNL A   1      41.600  28.484  31.991  1.00  0.00     0.049 A 
ATOM     38  N   UNL A   1      39.457  30.592  31.839  1.00  0.00    -0.248 NA
ATOM     39  C   UNL A   1      38.792  29.684  29.795  1.00  0.00     0.031 C 
ATOM     40  C   UNL A   1      42.689  27.510  32.108  1.00  0.00     0.029 A 
ATOM     41  N   UNL A   1      41.579  29.102  33.218  1.00  0.00    -0.354 N 
ATOM     42  C   UNL A   1      38.371  31.309  31.350  1.00  0.00     0.074 A 
ATOM     43  C   UNL A   1      38.024  30.728  30.070  1.00  0.00     0.031 C 
ATOM     44  C   UNL A   1      43.216  27.584  33.339  1.00  0.00     0.029 A 
ATOM     45  C   UNL A   1      42.573  28.671  34.066  1.00  0.00     0.049 A 
ATOM     46  H   UNL A   1      40.916  29.786  33.467  1.00  0.00     0.167 HD
ATOM     47  C   UNL A   1      37.731  32.361  31.916  1.00  0.00     0.037 A 
ATOM     48  C   UNL A   1      42.970  29.133  35.269  1.00  0.00     0.037 A 
ATOM     49  C   UNL A   1      38.050  32.893  33.215  1.00  0.00     0.049 A 
ATOM     50  C   UNL A   1      42.272  30.321  35.864  1.00  0.00     0.074 A 
ATOM     51  C   UNL A   1      37.421  33.916  33.904  1.00  0.00     0.029 A 
ATOM     52  N   UNL A   1      39.085  32.446  34.024  1.00  0.00    -0.354 N 
ATOM     53  N   UNL A   1      41.261  31.006  35.383  1.00  0.00    -0.248 NA
ATOM     54  C   UNL A   1      42.782  30.818  37.149  1.00  0.00     0.031 C 
ATOM     55  C   UNL A   1      38.105  34.117  35.109  1.00  0.00     0.029 A 
ATOM     56  C   UNL A   1      39.135  33.194  35.190  1.00  0.00     0.049 A 
ATOM     57  H   UNL A   1      39.695  31.706  33.802  1.00  0.00     0.167 HD
ATOM     58  C   UNL A   1      41.022  32.022  36.299  1.00  0.00     0.074 A 
ATOM     59  C   UNL A   1      41.973  31.845  37.378  1.00  0.00     0.031 C 
ATOM     60  C   UNL A   1      40.102  33.018  36.244  1.00  0.00     0.037 A 
BRANCH  47  61
ATOM     61  C   UNL A   1      36.657  33.036  31.109  1.00  0.00     0.058 A 
ATOM     62  C   UNL A   1      36.949  33.915  30.055  1.00  0.00     0.135 A 
ATOM     63  C   UNL A   1      35.304  32.787  31.397  1.00  0.00     0.135 A 
ATOM     64  F   UNL A   1      38.224  34.200  29.746  1.00  0.00    -0.206 F 
ATOM     65  C   UNL A   1      35.939  34.552  29.338  1.00  0.00     0.059 A 
ATOM     66  C   UNL A   1      34.278  33.392  30.677  1.00  0.00     0.059 A 
ATOM     67  F   UNL A   1      34.968  31.953  32.394  1.00  0.00    -0.206 F 
ATOM     68  C   UNL A   1      34.606  34.288  29.662  1.00  0.00     0.060 A 
BRANCH  68  69
ATOM     69  S   UNL A   1      33.306  35.136  28.740  1.00  0.00     0.124 S 
ATOM     70  O   UNL A   1      34.086  36.041  27.901  1.00  0.00    -0.237 OA
ATOM     71  O   UNL A   1      32.647  34.037  28.042  1.00  0.00    -0.237 OA
ATOM     72  O   UNL A   1      32.512  35.778  29.783  1.00  0.00    -0.744 OA
ENDBRANCH  68  69
ENDBRANCH  47  61
BRANCH  48  73
ATOM     73  C   UNL A   1      44.136  28.501  35.941  1.00  0.00     0.058 A 
ATOM     74  C   UNL A   1      43.972  27.414  36.810  1.00  0.00     0.135 A 
ATOM     75  C   UNL A   1      45.445  28.932  35.671  1.00  0.00     0.135 A 
ATOM     76  F   UNL A   1      42.740  26.976  37.111  1.00  0.00    -0.206 F 
ATOM     77  C   UNL A   1      45.065  26.763  37.374  1.00  0.00     0.059 A 
ATOM     78  C   UNL A   1      46.554  28.282  36.201  1.00  0.00     0.059 A 
ATOM     79  F   UNL A   1      45.656  29.965  34.840  1.00  0.00    -0.206 F 
ATOM     80  C   UNL A   1      46.353  27.196  37.053  1.00  0.00     0.060 A 
BRANCH  80  81
ATOM     81  S   UNL A   1      47.768  26.280  37.703  1.00  0.00     0.124 S 
ATOM     82  O   UNL A   1      48.882  26.958  37.049  1.00  0.00    -0.237 OA
ATOM     83  O   UNL A   1      47.643  26.501  39.141  1.00  0.00    -0.237 OA
ATOM     84  O   UNL A   1      47.513  24.912  37.264  1.00  0.00    -0.744 OA
ENDBRANCH  80  81
ENDBRANCH  48  73
BRANCH  60  85
ATOM     85  C   UNL A   1      40.089  34.004  37.377  1.00  0.00     0.058 A 
ATOM     86  C   UNL A   1      39.286  33.799  38.510  1.00  0.00     0.135 A 
ATOM     87  C   UNL A   1      40.927  35.130  37.358  1.00  0.00     0.135 A 
ATOM     88  F   UNL A   1      38.460  32.743  38.571  1.00  0.00    -0.206 F 
ATOM     89  C   UNL A   1      39.307  34.684  39.583  1.00  0.00     0.059 A 
ATOM     90  C   UNL A   1      40.978  36.017  38.429  1.00  0.00     0.059 A 
ATOM     91  F   UNL A   1      41.717  35.368  36.299  1.00  0.00    -0.206 F 
ATOM     92  C   UNL A   1      40.159  35.789  39.534  1.00  0.00     0.060 A 
BRANCH  92  93
ATOM     93  S   UNL A   1      40.211  36.905  40.953  1.00  0.00     0.124 S 
ATOM     94  O   UNL A   1      41.365  37.737  40.630  1.00  0.00    -0.237 OA
ATOM     95  O   UNL A   1      38.911  37.565  40.879  1.00  0.00    -0.237 OA
ATOM     96  O   UNL A   1      40.386  36.004  42.088  1.00  0.00    -0.744 OA
ENDBRANCH  92  93
ENDBRANCH  60  85
ENDBRANCH  34  35
ENDBRANCH  27  29
ENDBRANCH  26  27
ENDBRANCH  25  26
ENDBRANCH   1  25
TORSDOF 19
ENDMDL
MODEL 3
REMARK VINA RESULT:     -10.3      1.073      8.436
REMARK SMILES CCC[N@H+]1CCC[C@H]([C@@H](C)Nc2cccc(C(=O)OCCOC(=O)c3ccc(-c4c5nc(c(-c6c(F)cc(S(=O)(=O)[O-])cc6F)c6ccc([nH]6)c(-c6c(F)cc(S(=O)(=O)[O-])cc6F)c6nc(c(-c7c(F)cc(S(=O)(=O)[O-])cc7F)c7ccc4[nH]7)C=C6)C=C5)cc3)c2)C1
REMARK SMILES IDX 20 1 19 2 17 3 18 4 16 5 12 6 13 7 91 8 14 9 15 10 11 11
REMARK SMILES IDX 9 13 10 14 8 15 4 16 5 17 92 18 6 20 7 21 3 22 2 23 1 24
REMARK SMILES IDX 21 25 22 26 23 27 24 28 25 29 26 30 90 31 27 32 89 33 28 34
REMARK SMILES IDX 29 35 30 36 83 37 31 38 88 39 82 40 84 41 32 42 87 43 81 44
REMARK SMILES IDX 80 45 33 47 67 48 46 49 66 50 47 51 50 52 65 53 85 54 48 55
REMARK SMILES IDX 49 56 64 58 86 59 51 60 34 61 35 62 44 63 36 64 37 65 43 66
REMARK SMILES IDX 45 67 38 68 39 69 40 70 41 71 42 72 68 73 69 74 78 75 70 76
REMARK SMILES IDX 71 77 77 78 79 79 72 80 73 81 74 82 75 83 76 84 52 85 53 86
REMARK SMILES IDX 62 87 54 88 55 89 61 90 63 91 56 92 57 93 58 94 59 95 60 96
REMARK H PARENT 11 12 4 19 84 46 50 57
REMARK Flexibility Score: inf
ROOT
ATOM      1  C   UNL A   1      34.855  33.326  30.460  1.00  0.00     0.275 C 
ENDROOT
BRANCH   1   2
ATOM      2  O   UNL A   1      34.013  32.680  29.484  1.00  0.00    -0.458 OA
BRANCH   2   3
ATOM      3  C   UNL A   1      34.538  32.532  28.240  1.00  0.00     0.338 C 
ATOM      4  O   UNL A   1      35.189  33.352  27.625  1.00  0.00    -0.246 OA
BRANCH   3   5
ATOM      5  C   UNL A   1      34.298  31.149  27.749  1.00  0.00     0.062 A 
ATOM      6  C   UNL A   1      32.780  29.435  26.940  1.00  0.00     0.035 A 
ATOM      7  C   UNL A   1      33.863  28.556  26.823  1.00  0.00     0.026 A 
ATOM      8  C   UNL A   1      33.005  30.709  27.471  1.00  0.00     0.041 A 
ATOM      9  C   UNL A   1      35.159  28.984  27.109  1.00  0.00     0.003 A 
ATOM     10  C   UNL A   1      35.380  30.296  27.520  1.00  0.00     0.016 A 
BRANCH   6  11
ATOM     11  N   UNL A   1      31.548  29.083  26.399  1.00  0.00    -0.382 N 
ATOM     12  H   UNL A   1      30.732  29.116  26.950  1.00  0.00     0.160 HD
BRANCH  11  13
ATOM     13  C   UNL A   1      31.485  28.664  24.995  1.00  0.00     0.084 C 
ATOM     14  C   UNL A   1      30.661  29.718  24.252  1.00  0.00     0.031 C 
BRANCH  13  15
ATOM     15  C   UNL A   1      30.912  27.222  24.877  1.00  0.00     0.066 C 
ATOM     16  N   UNL A   1      32.942  26.120  23.892  1.00  0.00    -0.335 N 
ATOM     17  C   UNL A   1      32.269  25.903  22.615  1.00  0.00     0.262 C 
ATOM     18  C   UNL A   1      32.002  26.127  25.022  1.00  0.00     0.267 C 
ATOM     19  H   UNL A   1      33.336  27.059  23.830  1.00  0.00     0.348 HD
ATOM     20  C   UNL A   1      31.177  26.945  22.370  1.00  0.00     0.062 C 
ATOM     21  C   UNL A   1      30.189  26.983  23.536  1.00  0.00     0.017 C 
BRANCH  16  22
ATOM     22  C   UNL A   1      34.103  25.245  24.120  1.00  0.00     0.261 C 
BRANCH  22  23
ATOM     23  C   UNL A   1      34.089  24.293  25.330  1.00  0.00     0.058 C 
ATOM     24  C   UNL A   1      35.465  23.786  25.747  1.00  0.00     0.010 C 
ENDBRANCH  22  23
ENDBRANCH  16  22
ENDBRANCH  13  15
ENDBRANCH  11  13
ENDBRANCH   6  11
ENDBRANCH   3   5
ENDBRANCH   2   3
ENDBRANCH   1   2
BRANCH   1  25
ATOM     25  C   UNL A   1      35.429  32.291  31.426  1.00  0.00     0.275 C 
BRANCH  25  26
ATOM     26  O   UNL A   1      36.652  31.767  30.882  1.00  0.00    -0.458 OA
BRANCH  26  27
ATOM     27  C   UNL A   1      36.928  30.474  31.165  1.00  0.00     0.338 C 
ATOM     28  O   UNL A   1      36.278  29.703  31.848  1.00  0.00    -0.246 OA
BRANCH  27  29
ATOM     29  C   UNL A   1      38.175  30.101  30.475  1.00  0.00     0.060 A 
ATOM     30  C   UNL A   1      39.233  29.596  31.224  1.00  0.00     0.016 A 
ATOM     31  C   UNL A   1      38.328  30.321  29.109  1.00  0.00     0.016 A 
ATOM     32  C   UNL A   1      40.472  29.365  30.636  1.00  0.00     0.010 A 
ATOM     33  C   UNL A   1      39.545  29.996  28.498  1.00  0.00     0.010 A 
ATOM     34  C   UNL A   1      40.638  29.533  29.258  1.00  0.00    -0.014 A 
BRANCH  34  35
ATOM     35  C   UNL A   1      41.948  29.237  28.614  1.00  0.00     0.031 A 
ATOM     36  C   UNL A   1      42.235  27.857  28.090  1.00  0.00     0.074 A 
ATOM     37  C   UNL A   1      42.888  30.198  28.509  1.00  0.00     0.049 A 
ATOM     38  N   UNL A   1      43.371  27.341  27.694  1.00  0.00    -0.248 NA
ATOM     39  C   UNL A   1      41.097  26.928  28.017  1.00  0.00     0.031 C 
ATOM     40  C   UNL A   1      42.730  31.592  28.933  1.00  0.00     0.029 A 
ATOM     41  N   UNL A   1      44.172  30.148  28.021  1.00  0.00    -0.354 N 
ATOM     42  C   UNL A   1      43.098  26.012  27.389  1.00  0.00     0.074 A 
ATOM     43  C   UNL A   1      41.688  25.803  27.640  1.00  0.00     0.031 C 
ATOM     44  C   UNL A   1      43.860  32.264  28.673  1.00  0.00     0.029 A 
ATOM     45  C   UNL A   1      44.855  31.334  28.153  1.00  0.00     0.049 A 
ATOM     46  H   UNL A   1      44.564  29.341  27.616  1.00  0.00     0.167 HD
ATOM     47  C   UNL A   1      43.951  25.056  26.951  1.00  0.00     0.037 A 
ATOM     48  C   UNL A   1      46.153  31.634  27.943  1.00  0.00     0.037 A 
ATOM     49  C   UNL A   1      45.340  25.291  26.651  1.00  0.00     0.049 A 
ATOM     50  C   UNL A   1      47.091  30.553  27.490  1.00  0.00     0.074 A 
ATOM     51  C   UNL A   1      46.273  24.404  26.141  1.00  0.00     0.029 A 
ATOM     52  N   UNL A   1      45.997  26.500  26.831  1.00  0.00    -0.354 N 
ATOM     53  N   UNL A   1      46.828  29.295  27.228  1.00  0.00    -0.248 NA
ATOM     54  C   UNL A   1      48.504  30.921  27.331  1.00  0.00     0.031 C 
ATOM     55  C   UNL A   1      47.504  25.065  26.057  1.00  0.00     0.029 A 
ATOM     56  C   UNL A   1      47.330  26.374  26.475  1.00  0.00     0.049 A 
ATOM     57  H   UNL A   1      45.577  27.327  27.162  1.00  0.00     0.167 HD
ATOM     58  C   UNL A   1      48.043  28.717  26.885  1.00  0.00     0.074 A 
ATOM     59  C   UNL A   1      49.038  29.769  26.943  1.00  0.00     0.031 C 
ATOM     60  C   UNL A   1      48.312  27.428  26.560  1.00  0.00     0.037 A 
BRANCH  47  61
ATOM     61  C   UNL A   1      43.418  23.656  26.818  1.00  0.00     0.058 A 
ATOM     62  C   UNL A   1      43.161  22.841  27.931  1.00  0.00     0.135 A 
ATOM     63  C   UNL A   1      43.149  23.128  25.544  1.00  0.00     0.135 A 
ATOM     64  F   UNL A   1      43.413  23.290  29.170  1.00  0.00    -0.206 F 
ATOM     65  C   UNL A   1      42.693  21.538  27.785  1.00  0.00     0.059 A 
ATOM     66  C   UNL A   1      42.656  21.836  25.376  1.00  0.00     0.059 A 
ATOM     67  F   UNL A   1      43.374  23.865  24.445  1.00  0.00    -0.206 F 
ATOM     68  C   UNL A   1      42.450  21.043  26.501  1.00  0.00     0.060 A 
BRANCH  68  69
ATOM     69  S   UNL A   1      41.864  19.344  26.324  1.00  0.00     0.124 S 
ATOM     70  O   UNL A   1      40.431  19.550  26.130  1.00  0.00    -0.237 OA
ATOM     71  O   UNL A   1      42.599  18.878  25.153  1.00  0.00    -0.237 OA
ATOM     72  O   UNL A   1      42.241  18.720  27.588  1.00  0.00    -0.744 OA
ENDBRANCH  68  69
ENDBRANCH  47  61
BRANCH  48  73
ATOM     73  C   UNL A   1      46.638  33.009  28.234  1.00  0.00     0.058 A 
ATOM     74  C   UNL A   1      47.183  33.337  29.483  1.00  0.00     0.135 A 
ATOM     75  C   UNL A   1      46.627  34.003  27.242  1.00  0.00     0.135 A 
ATOM     76  F   UNL A   1      47.202  32.426  30.467  1.00  0.00    -0.206 F 
ATOM     77  C   UNL A   1      47.718  34.598  29.733  1.00  0.00     0.059 A 
ATOM     78  C   UNL A   1      47.179  35.261  27.459  1.00  0.00     0.059 A 
ATOM     79  F   UNL A   1      46.122  33.736  26.027  1.00  0.00    -0.206 F 
ATOM     80  C   UNL A   1      47.724  35.549  28.710  1.00  0.00     0.060 A 
BRANCH  80  81
ATOM     81  S   UNL A   1      48.515  37.145  29.009  1.00  0.00     0.124 S 
ATOM     82  O   UNL A   1      48.996  37.488  27.675  1.00  0.00    -0.237 OA
ATOM     83  O   UNL A   1      47.406  37.950  29.513  1.00  0.00    -0.237 OA
ATOM     84  O   UNL A   1      49.546  36.830  29.992  1.00  0.00    -0.744 OA
ENDBRANCH  80  81
ENDBRANCH  48  73
BRANCH  60  85
ATOM     85  C   UNL A   1      49.741  27.078  26.257  1.00  0.00     0.058 A 
ATOM     86  C   UNL A   1      50.237  27.120  24.945  1.00  0.00     0.135 A 
ATOM     87  C   UNL A   1      50.635  26.756  27.290  1.00  0.00     0.135 A 
ATOM     88  F   UNL A   1      49.419  27.411  23.923  1.00  0.00    -0.206 F 
ATOM     89  C   UNL A   1      51.571  26.844  24.666  1.00  0.00     0.059 A 
ATOM     90  C   UNL A   1      51.978  26.497  27.036  1.00  0.00     0.059 A 
ATOM     91  F   UNL A   1      50.210  26.708  28.563  1.00  0.00    -0.206 F 
ATOM     92  C   UNL A   1      52.435  26.537  25.719  1.00  0.00     0.060 A 
BRANCH  92  93
ATOM     93  S   UNL A   1      54.175  26.227  25.348  1.00  0.00     0.124 S 
ATOM     94  O   UNL A   1      54.755  26.171  26.685  1.00  0.00    -0.237 OA
ATOM     95  O   UNL A   1      54.120  24.959  24.627  1.00  0.00    -0.237 OA
ATOM     96  O   UNL A   1      54.563  27.382  24.544  1.00  0.00    -0.744 OA
ENDBRANCH  92  93
ENDBRANCH  60  85
ENDBRANCH  34  35
ENDBRANCH  27  29
ENDBRANCH  26  27
ENDBRANCH  25  26
ENDBRANCH   1  25
TORSDOF 19
ENDMDL
