MODEL 1
REMARK VINA RESULT:     -13.1      0.000      0.000
REMARK SMILES Cc1ccc(-c2nn(-c3ccccc3)cc2[C@@H]2[NH2+][C@H](C(=O)OCCOC(=O)c3ccc(-c4c5nc(c(-c6c(F)cc(S(=O)(=O)[O-])cc6F)c6ccc([nH]6)c(-c6c(F)cc(S(=O)(=O)[O-])cc6F)c6nc(c(-c7c(F)cc(S(=O)(=O)[O-])cc7F)c7ccc4[nH]7)C=C6)C=C5)cc3)CS2)cc1
REMARK SMILES IDX 24 1 23 2 22 3 20 4 21 5 19 6 17 7 18 8 95 9 94 12 16 13
REMARK SMILES IDX 6 14 7 15 8 16 15 17 5 18 1 19 2 20 3 21 97 22 4 23 96 24
REMARK SMILES IDX 9 25 10 26 14 27 11 28 13 29 12 30 25 31 26 32 27 33 28 34
REMARK SMILES IDX 29 35 93 36 30 37 92 38 31 39 32 40 33 41 86 42 34 43 91 44
REMARK SMILES IDX 85 45 87 46 35 47 90 48 84 49 83 50 36 52 70 53 49 54 69 55
REMARK SMILES IDX 50 56 53 57 68 58 88 59 51 60 52 61 67 63 89 64 54 65 37 66
REMARK SMILES IDX 38 67 47 68 39 69 40 70 46 71 48 72 41 73 42 74 43 75 44 76
REMARK SMILES IDX 45 77 71 78 72 79 81 80 73 81 74 82 80 83 82 84 75 85 76 86
REMARK SMILES IDX 77 87 78 88 79 89 55 90 56 91 65 92 57 93 58 94 64 95 66 96
REMARK SMILES IDX 59 97 60 98 61 99 62 100 63 101
REMARK H PARENT 18 10 18 11 87 51 53 62
REMARK Flexibility Score: inf
ROOT
ATOM      1  C   UNL A   1      34.224  34.299  28.461  1.00  0.00     0.275 C 
ENDROOT
BRANCH   1   2
ATOM      2  C   UNL A   1      33.075  34.432  27.454  1.00  0.00     0.274 C 
BRANCH   2   3
ATOM      3  O   UNL A   1      32.052  33.486  27.806  1.00  0.00    -0.458 OA
BRANCH   3   4
ATOM      4  C   UNL A   1      31.830  32.361  26.894  1.00  0.00     0.365 C 
ATOM      5  O   UNL A   1      31.080  32.867  25.997  1.00  0.00    -0.245 OA
BRANCH   4   6
ATOM      6  C   UNL A   1      32.563  30.330  27.208  1.00  0.00     0.304 C 
ATOM      7  C   UNL A   1      32.103  27.860  26.289  1.00  0.00     0.278 C 
ATOM      8  N   UNL A   1      31.629  28.878  27.239  1.00  0.00    -0.319 N 
ATOM      9  S   UNL A   1      33.878  27.872  26.236  1.00  0.00    -0.087 SA
ATOM     10  H   UNL A   1      31.670  28.487  28.180  1.00  0.00     0.348 HD
ATOM     11  H   UNL A   1      30.677  29.125  26.967  1.00  0.00     0.348 HD
ATOM     12  C   UNL A   1      34.067  29.532  26.940  1.00  0.00     0.153 C 
BRANCH   7  13
ATOM     13  C   UNL A   1      31.405  28.046  24.980  1.00  0.00     0.067 A 
ATOM     14  C   UNL A   1      30.616  27.078  24.298  1.00  0.00     0.103 A 
ATOM     15  N   UNL A   1      29.805  27.650  23.391  1.00  0.00    -0.167 NA
ATOM     16  N   UNL A   1      30.184  28.952  23.402  1.00  0.00    -0.240 N 
ATOM     17  C   UNL A   1      31.388  29.086  24.064  1.00  0.00     0.126 A 
BRANCH  14  18
ATOM     18  C   UNL A   1      30.839  25.645  24.343  1.00  0.00     0.003 A 
ATOM     19  C   UNL A   1      32.028  21.515  24.311  1.00  0.00     0.044 C 
ATOM     20  C   UNL A   1      31.619  22.957  24.330  1.00  0.00    -0.051 A 
ATOM     21  C   UNL A   1      30.923  23.495  25.426  1.00  0.00     0.004 A 
ATOM     22  C   UNL A   1      31.925  23.776  23.242  1.00  0.00     0.004 A 
ATOM     23  C   UNL A   1      30.538  24.843  25.440  1.00  0.00     0.011 A 
ATOM     24  C   UNL A   1      31.534  25.108  23.250  1.00  0.00     0.011 A 
ENDBRANCH  14  18
BRANCH  16  25
ATOM     25  C   UNL A   1      29.343  30.013  22.950  1.00  0.00     0.065 A 
ATOM     26  C   UNL A   1      29.151  31.137  23.764  1.00  0.00     0.028 A 
ATOM     27  C   UNL A   1      28.846  30.024  21.636  1.00  0.00     0.028 A 
ATOM     28  C   UNL A   1      28.500  32.266  23.255  1.00  0.00     0.002 A 
ATOM     29  C   UNL A   1      28.198  31.154  21.134  1.00  0.00     0.002 A 
ATOM     30  C   UNL A   1      28.030  32.277  21.941  1.00  0.00     0.000 A 
ENDBRANCH  16  25
ENDBRANCH   7  13
ENDBRANCH   4   6
ENDBRANCH   3   4
ENDBRANCH   2   3
ENDBRANCH   1   2
BRANCH   1  31
ATOM     31  O   UNL A   1      34.305  33.003  29.109  1.00  0.00    -0.458 OA
BRANCH  31  32
ATOM     32  C   UNL A   1      35.293  32.745  30.008  1.00  0.00     0.338 C 
ATOM     33  O   UNL A   1      35.664  33.487  30.901  1.00  0.00    -0.246 OA
BRANCH  32  34
ATOM     34  C   UNL A   1      35.855  31.398  29.804  1.00  0.00     0.060 A 
ATOM     35  C   UNL A   1      36.059  30.275  31.193  1.00  0.00     0.016 A 
ATOM     36  C   UNL A   1      36.991  31.349  28.419  1.00  0.00     0.016 A 
ATOM     37  C   UNL A   1      37.490  29.142  31.228  1.00  0.00     0.010 A 
ATOM     38  C   UNL A   1      38.411  30.246  28.469  1.00  0.00     0.010 A 
ATOM     39  C   UNL A   1      38.719  29.233  29.913  1.00  0.00    -0.014 A 
BRANCH  39  40
ATOM     40  C   UNL A   1      40.135  28.894  30.000  1.00  0.00     0.031 A 
ATOM     41  C   UNL A   1      40.564  27.578  29.487  1.00  0.00     0.074 A 
ATOM     42  C   UNL A   1      40.994  29.897  30.274  1.00  0.00     0.049 A 
ATOM     43  N   UNL A   1      41.489  26.824  29.965  1.00  0.00    -0.248 NA
ATOM     44  C   UNL A   1      39.836  26.914  28.416  1.00  0.00     0.031 C 
ATOM     45  C   UNL A   1      42.438  29.918  30.100  1.00  0.00     0.029 A 
ATOM     46  N   UNL A   1      40.739  31.103  30.921  1.00  0.00    -0.354 N 
ATOM     47  C   UNL A   1      41.679  25.807  29.034  1.00  0.00     0.074 A 
ATOM     48  C   UNL A   1      40.471  25.759  28.279  1.00  0.00     0.031 C 
ATOM     49  C   UNL A   1      42.948  30.860  30.919  1.00  0.00     0.029 A 
ATOM     50  C   UNL A   1      41.847  31.393  31.713  1.00  0.00     0.049 A 
ATOM     51  H   UNL A   1      39.925  31.651  30.836  1.00  0.00     0.167 HD
ATOM     52  C   UNL A   1      42.932  25.319  28.806  1.00  0.00     0.037 A 
ATOM     53  C   UNL A   1      41.761  31.372  33.077  1.00  0.00     0.037 A 
ATOM     54  C   UNL A   1      43.858  26.015  29.696  1.00  0.00     0.049 A 
ATOM     55  C   UNL A   1      42.533  30.183  33.628  1.00  0.00     0.074 A 
ATOM     56  C   UNL A   1      44.681  27.111  29.493  1.00  0.00     0.029 A 
ATOM     57  N   UNL A   1      43.690  25.897  31.071  1.00  0.00    -0.354 N 
ATOM     58  N   UNL A   1      42.863  29.137  32.913  1.00  0.00    -0.248 NA
ATOM     59  C   UNL A   1      43.049  30.099  34.992  1.00  0.00     0.031 C 
ATOM     60  C   UNL A   1      44.907  27.720  30.758  1.00  0.00     0.029 A 
ATOM     61  C   UNL A   1      44.236  26.987  31.724  1.00  0.00     0.049 A 
ATOM     62  H   UNL A   1      43.245  25.141  31.518  1.00  0.00     0.167 HD
ATOM     63  C   UNL A   1      43.618  28.275  33.661  1.00  0.00     0.074 A 
ATOM     64  C   UNL A   1      43.707  28.924  34.958  1.00  0.00     0.031 C 
ATOM     65  C   UNL A   1      44.119  27.099  33.172  1.00  0.00     0.037 A 
BRANCH  52  66
ATOM     66  C   UNL A   1      43.369  24.511  27.587  1.00  0.00     0.058 A 
ATOM     67  C   UNL A   1      43.899  23.212  27.763  1.00  0.00     0.135 A 
ATOM     68  C   UNL A   1      43.321  24.925  26.235  1.00  0.00     0.135 A 
ATOM     69  F   UNL A   1      43.958  22.642  28.975  1.00  0.00    -0.206 F 
ATOM     70  C   UNL A   1      44.379  22.425  26.711  1.00  0.00     0.059 A 
ATOM     71  C   UNL A   1      43.832  24.174  25.170  1.00  0.00     0.059 A 
ATOM     72  F   UNL A   1      42.723  26.055  25.851  1.00  0.00    -0.206 F 
ATOM     73  C   UNL A   1      44.353  22.918  25.416  1.00  0.00     0.060 A 
BRANCH  73  74
ATOM     74  S   UNL A   1      44.932  21.876  24.066  1.00  0.00     0.124 S 
ATOM     75  O   UNL A   1      44.188  20.641  24.293  1.00  0.00    -0.237 OA
ATOM     76  O   UNL A   1      44.538  22.652  22.895  1.00  0.00    -0.237 OA
ATOM     77  O   UNL A   1      46.371  21.786  24.298  1.00  0.00    -0.744 OA
ENDBRANCH  73  74
ENDBRANCH  52  66
BRANCH  53  78
ATOM     78  C   UNL A   1      40.511  31.997  33.620  1.00  0.00     0.058 A 
ATOM     79  C   UNL A   1      39.499  31.117  34.064  1.00  0.00     0.135 A 
ATOM     80  C   UNL A   1      40.415  33.326  34.057  1.00  0.00     0.135 A 
ATOM     81  F   UNL A   1      39.499  29.840  33.647  1.00  0.00    -0.206 F 
ATOM     82  C   UNL A   1      38.543  31.487  35.009  1.00  0.00     0.059 A 
ATOM     83  C   UNL A   1      39.444  33.727  34.995  1.00  0.00     0.059 A 
ATOM     84  F   UNL A   1      41.338  34.227  33.688  1.00  0.00    -0.206 F 
ATOM     85  C   UNL A   1      38.547  32.786  35.504  1.00  0.00     0.060 A 
BRANCH  85  86
ATOM     86  S   UNL A   1      37.462  33.166  36.909  1.00  0.00     0.124 S 
ATOM     87  O   UNL A   1      36.272  33.681  36.240  1.00  0.00    -0.237 OA
ATOM     88  O   UNL A   1      37.309  31.865  37.550  1.00  0.00    -0.237 OA
ATOM     89  O   UNL A   1      38.223  34.152  37.672  1.00  0.00    -0.744 OA
ENDBRANCH  85  86
ENDBRANCH  53  78
BRANCH  65  90
ATOM     90  C   UNL A   1      44.619  25.960  34.027  1.00  0.00     0.058 A 
ATOM     91  C   UNL A   1      43.768  25.116  34.760  1.00  0.00     0.135 A 
ATOM     92  C   UNL A   1      45.985  25.579  34.007  1.00  0.00     0.135 A 
ATOM     93  F   UNL A   1      42.437  25.272  34.739  1.00  0.00    -0.206 F 
ATOM     94  C   UNL A   1      44.250  24.052  35.520  1.00  0.00     0.059 A 
ATOM     95  C   UNL A   1      46.473  24.472  34.687  1.00  0.00     0.059 A 
ATOM     96  F   UNL A   1      46.901  26.269  33.309  1.00  0.00    -0.206 F 
ATOM     97  C   UNL A   1      45.606  23.747  35.487  1.00  0.00     0.060 A 
BRANCH  97  98
ATOM     98  S   UNL A   1      46.230  22.402  36.501  1.00  0.00     0.124 S 
ATOM     99  O   UNL A   1      47.647  22.417  36.148  1.00  0.00    -0.237 OA
ATOM    100  O   UNL A   1      45.911  22.847  37.854  1.00  0.00    -0.237 OA
ATOM    101  O   UNL A   1      45.474  21.246  36.033  1.00  0.00    -0.744 OA
ENDBRANCH  97  98
ENDBRANCH  65  90
ENDBRANCH  39  40
ENDBRANCH  32  34
ENDBRANCH  31  32
ENDBRANCH   1  31
TORSDOF 17
ENDMDL
MODEL 2
REMARK VINA RESULT:     -12.7      1.522      2.158
REMARK SMILES Cc1ccc(-c2nn(-c3ccccc3)cc2[C@@H]2[NH2+][C@H](C(=O)OCCOC(=O)c3ccc(-c4c5nc(c(-c6c(F)cc(S(=O)(=O)[O-])cc6F)c6ccc([nH]6)c(-c6c(F)cc(S(=O)(=O)[O-])cc6F)c6nc(c(-c7c(F)cc(S(=O)(=O)[O-])cc7F)c7ccc4[nH]7)C=C6)C=C5)cc3)CS2)cc1
REMARK SMILES IDX 24 1 23 2 22 3 20 4 21 5 19 6 17 7 18 8 95 9 94 12 16 13
REMARK SMILES IDX 6 14 7 15 8 16 15 17 5 18 1 19 2 20 3 21 97 22 4 23 96 24
REMARK SMILES IDX 9 25 10 26 14 27 11 28 13 29 12 30 25 31 26 32 27 33 28 34
REMARK SMILES IDX 29 35 93 36 30 37 92 38 31 39 32 40 33 41 86 42 34 43 91 44
REMARK SMILES IDX 85 45 87 46 35 47 90 48 84 49 83 50 36 52 70 53 49 54 69 55
REMARK SMILES IDX 50 56 53 57 68 58 88 59 51 60 52 61 67 63 89 64 54 65 37 66
REMARK SMILES IDX 38 67 47 68 39 69 40 70 46 71 48 72 41 73 42 74 43 75 44 76
REMARK SMILES IDX 45 77 71 78 72 79 81 80 73 81 74 82 80 83 82 84 75 85 76 86
REMARK SMILES IDX 77 87 78 88 79 89 55 90 56 91 65 92 57 93 58 94 64 95 66 96
REMARK SMILES IDX 59 97 60 98 61 99 62 100 63 101
REMARK H PARENT 18 10 18 11 87 51 53 62
REMARK Flexibility Score: inf
ROOT
ATOM      1  C   UNL A   1      35.572  33.479  27.829  1.00  0.00     0.275 C 
ENDROOT
BRANCH   1   2
ATOM      2  C   UNL A   1      34.058  33.580  27.605  1.00  0.00     0.274 C 
BRANCH   2   3
ATOM      3  O   UNL A   1      33.437  32.414  28.172  1.00  0.00    -0.458 OA
BRANCH   3   4
ATOM      4  C   UNL A   1      32.683  31.543  27.266  1.00  0.00     0.365 C 
ATOM      5  O   UNL A   1      32.015  32.373  26.567  1.00  0.00    -0.245 OA
BRANCH   4   6
ATOM      6  C   UNL A   1      32.702  29.362  27.319  1.00  0.00     0.304 C 
ATOM      7  C   UNL A   1      31.637  27.306  25.979  1.00  0.00     0.278 C 
ATOM      8  N   UNL A   1      31.372  28.301  27.031  1.00  0.00    -0.319 N 
ATOM      9  S   UNL A   1      33.317  26.747  26.095  1.00  0.00    -0.087 SA
ATOM     10  H   UNL A   1      31.159  27.806  27.897  1.00  0.00     0.348 HD
ATOM     11  H   UNL A   1      30.590  28.875  26.714  1.00  0.00     0.348 HD
ATOM     12  C   UNL A   1      33.909  28.157  27.070  1.00  0.00     0.153 C 
BRANCH   7  13
ATOM     13  C   UNL A   1      31.219  27.867  24.657  1.00  0.00     0.067 A 
ATOM     14  C   UNL A   1      30.692  27.135  23.557  1.00  0.00     0.103 A 
ATOM     15  N   UNL A   1      30.043  27.935  22.695  1.00  0.00    -0.167 NA
ATOM     16  N   UNL A   1      30.283  29.181  23.175  1.00  0.00    -0.240 N 
ATOM     17  C   UNL A   1      31.299  29.137  24.108  1.00  0.00     0.126 A 
BRANCH  14  18
ATOM     18  C   UNL A   1      31.037  25.764  23.232  1.00  0.00     0.003 A 
ATOM     19  C   UNL A   1      32.575  21.826  22.461  1.00  0.00     0.044 C 
ATOM     20  C   UNL A   1      32.040  23.197  22.739  1.00  0.00    -0.051 A 
ATOM     21  C   UNL A   1      30.808  23.371  23.393  1.00  0.00     0.004 A 
ATOM     22  C   UNL A   1      32.768  24.319  22.338  1.00  0.00     0.004 A 
ATOM     23  C   UNL A   1      30.306  24.655  23.648  1.00  0.00     0.011 A 
ATOM     24  C   UNL A   1      32.267  25.590  22.581  1.00  0.00     0.011 A 
ENDBRANCH  14  18
BRANCH  16  25
ATOM     25  C   UNL A   1      29.460  30.307  22.871  1.00  0.00     0.065 A 
ATOM     26  C   UNL A   1      29.341  31.348  23.801  1.00  0.00     0.028 A 
ATOM     27  C   UNL A   1      28.908  30.466  21.589  1.00  0.00     0.028 A 
ATOM     28  C   UNL A   1      28.708  32.541  23.438  1.00  0.00     0.002 A 
ATOM     29  C   UNL A   1      28.278  31.660  21.232  1.00  0.00     0.002 A 
ATOM     30  C   UNL A   1      28.182  32.699  22.154  1.00  0.00     0.000 A 
ENDBRANCH  16  25
ENDBRANCH   7  13
ENDBRANCH   4   6
ENDBRANCH   3   4
ENDBRANCH   2   3
ENDBRANCH   1   2
BRANCH   1  31
ATOM     31  O   UNL A   1      36.077  32.119  27.900  1.00  0.00    -0.458 OA
BRANCH  31  32
ATOM     32  C   UNL A   1      36.601  31.640  29.060  1.00  0.00     0.338 C 
ATOM     33  O   UNL A   1      36.684  32.246  30.115  1.00  0.00    -0.246 OA
BRANCH  32  34
ATOM     34  C   UNL A   1      37.030  30.239  28.909  1.00  0.00     0.060 A 
ATOM     35  C   UNL A   1      37.078  29.141  30.332  1.00  0.00     0.016 A 
ATOM     36  C   UNL A   1      38.195  30.037  27.563  1.00  0.00     0.016 A 
ATOM     37  C   UNL A   1      38.385  27.872  30.442  1.00  0.00     0.010 A 
ATOM     38  C   UNL A   1      39.495  28.799  27.687  1.00  0.00     0.010 A 
ATOM     39  C   UNL A   1      39.656  27.802  29.166  1.00  0.00    -0.014 A 
BRANCH  39  40
ATOM     40  C   UNL A   1      41.027  27.325  29.308  1.00  0.00     0.031 A 
ATOM     41  C   UNL A   1      41.315  25.927  28.936  1.00  0.00     0.074 A 
ATOM     42  C   UNL A   1      41.987  28.255  29.492  1.00  0.00     0.049 A 
ATOM     43  N   UNL A   1      42.152  25.131  29.501  1.00  0.00    -0.248 NA
ATOM     44  C   UNL A   1      40.525  25.238  27.927  1.00  0.00     0.031 C 
ATOM     45  C   UNL A   1      43.426  28.105  29.338  1.00  0.00     0.029 A 
ATOM     46  N   UNL A   1      41.860  29.541  30.011  1.00  0.00    -0.354 N 
ATOM     47  C   UNL A   1      42.236  24.010  28.680  1.00  0.00     0.074 A 
ATOM     48  C   UNL A   1      41.034  24.014  27.915  1.00  0.00     0.031 C 
ATOM     49  C   UNL A   1      44.030  29.066  30.066  1.00  0.00     0.029 A 
ATOM     50  C   UNL A   1      42.989  29.790  30.786  1.00  0.00     0.049 A 
ATOM     51  H   UNL A   1      41.109  30.160  29.859  1.00  0.00     0.167 HD
ATOM     52  C   UNL A   1      43.430  23.371  28.521  1.00  0.00     0.037 A 
ATOM     53  C   UNL A   1      42.896  29.917  32.143  1.00  0.00     0.037 A 
ATOM     54  C   UNL A   1      44.422  24.053  29.350  1.00  0.00     0.049 A 
ATOM     55  C   UNL A   1      43.535  28.715  32.823  1.00  0.00     0.074 A 
ATOM     56  C   UNL A   1      45.358  25.029  29.050  1.00  0.00     0.029 A 
ATOM     57  N   UNL A   1      44.237  24.093  30.727  1.00  0.00    -0.354 N 
ATOM     58  N   UNL A   1      43.754  27.573  32.222  1.00  0.00    -0.248 NA
ATOM     59  C   UNL A   1      44.033  28.716  34.196  1.00  0.00     0.031 C 
ATOM     60  C   UNL A   1      45.643  25.736  30.250  1.00  0.00     0.029 A 
ATOM     61  C   UNL A   1      44.894  25.180  31.275  1.00  0.00     0.049 A 
ATOM     62  H   UNL A   1      43.712  23.438  31.241  1.00  0.00     0.167 HD
ATOM     63  C   UNL A   1      44.409  26.716  33.064  1.00  0.00     0.074 A 
ATOM     64  C   UNL A   1      44.562  27.481  34.290  1.00  0.00     0.031 C 
ATOM     65  C   UNL A   1      44.784  25.450  32.703  1.00  0.00     0.037 A 
BRANCH  52  66
ATOM     66  C   UNL A   1      43.784  22.402  27.396  1.00  0.00     0.058 A 
ATOM     67  C   UNL A   1      45.039  22.505  26.754  1.00  0.00     0.135 A 
ATOM     68  C   UNL A   1      42.965  21.370  26.879  1.00  0.00     0.135 A 
ATOM     69  F   UNL A   1      45.960  23.390  27.160  1.00  0.00    -0.206 F 
ATOM     70  C   UNL A   1      45.423  21.699  25.676  1.00  0.00     0.059 A 
ATOM     71  C   UNL A   1      43.310  20.578  25.778  1.00  0.00     0.059 A 
ATOM     72  F   UNL A   1      41.808  21.020  27.446  1.00  0.00    -0.206 F 
ATOM     73  C   UNL A   1      44.547  20.743  25.186  1.00  0.00     0.060 A 
BRANCH  73  74
ATOM     74  S   UNL A   1      45.072  19.683  23.828  1.00  0.00     0.124 S 
ATOM     75  O   UNL A   1      46.523  19.680  23.988  1.00  0.00    -0.237 OA
ATOM     76  O   UNL A   1      44.394  18.431  24.143  1.00  0.00    -0.237 OA
ATOM     77  O   UNL A   1      44.579  20.378  22.641  1.00  0.00    -0.744 OA
ENDBRANCH  73  74
ENDBRANCH  52  66
BRANCH  53  78
ATOM     78  C   UNL A   1      41.718  30.723  32.602  1.00  0.00     0.058 A 
ATOM     79  C   UNL A   1      40.609  30.004  33.100  1.00  0.00     0.135 A 
ATOM     80  C   UNL A   1      41.767  32.088  32.919  1.00  0.00     0.135 A 
ATOM     81  F   UNL A   1      40.471  28.703  32.798  1.00  0.00    -0.206 F 
ATOM     82  C   UNL A   1      39.689  30.561  33.989  1.00  0.00     0.059 A 
ATOM     83  C   UNL A   1      40.836  32.677  33.796  1.00  0.00     0.059 A 
ATOM     84  F   UNL A   1      42.789  32.844  32.491  1.00  0.00    -0.206 F 
ATOM     85  C   UNL A   1      39.833  31.891  34.367  1.00  0.00     0.060 A 
BRANCH  85  86
ATOM     86  S   UNL A   1      38.782  32.513  35.709  1.00  0.00     0.124 S 
ATOM     87  O   UNL A   1      39.043  33.948  35.656  1.00  0.00    -0.237 OA
ATOM     88  O   UNL A   1      37.449  32.101  35.283  1.00  0.00    -0.237 OA
ATOM     89  O   UNL A   1      39.298  31.831  36.893  1.00  0.00    -0.744 OA
ENDBRANCH  85  86
ENDBRANCH  53  78
BRANCH  65  90
ATOM     90  C   UNL A   1      45.155  24.357  33.675  1.00  0.00     0.058 A 
ATOM     91  C   UNL A   1      46.466  24.147  34.134  1.00  0.00     0.135 A 
ATOM     92  C   UNL A   1      44.156  23.574  34.307  1.00  0.00     0.135 A 
ATOM     93  F   UNL A   1      47.483  24.923  33.733  1.00  0.00    -0.206 F 
ATOM     94  C   UNL A   1      46.781  23.150  35.055  1.00  0.00     0.059 A 
ATOM     95  C   UNL A   1      44.438  22.635  35.289  1.00  0.00     0.059 A 
ATOM     96  F   UNL A   1      42.856  23.704  33.998  1.00  0.00    -0.206 F 
ATOM     97  C   UNL A   1      45.761  22.390  35.616  1.00  0.00     0.060 A 
BRANCH  97  98
ATOM     98  S   UNL A   1      46.175  21.076  36.770  1.00  0.00     0.124 S 
ATOM     99  O   UNL A   1      45.339  19.988  36.269  1.00  0.00    -0.237 OA
ATOM    100  O   UNL A   1      47.611  20.914  36.568  1.00  0.00    -0.237 OA
ATOM    101  O   UNL A   1      45.787  21.628  38.063  1.00  0.00    -0.744 OA
ENDBRANCH  97  98
ENDBRANCH  65  90
ENDBRANCH  39  40
ENDBRANCH  32  34
ENDBRANCH  31  32
ENDBRANCH   1  31
TORSDOF 17
ENDMDL
MODEL 3
REMARK VINA RESULT:     -12.6      5.771     12.000
REMARK SMILES Cc1ccc(-c2nn(-c3ccccc3)cc2[C@@H]2[NH2+][C@H](C(=O)OCCOC(=O)c3ccc(-c4c5nc(c(-c6c(F)cc(S(=O)(=O)[O-])cc6F)c6ccc([nH]6)c(-c6c(F)cc(S(=O)(=O)[O-])cc6F)c6nc(c(-c7c(F)cc(S(=O)(=O)[O-])cc7F)c7ccc4[nH]7)C=C6)C=C5)cc3)CS2)cc1
REMARK SMILES IDX 24 1 23 2 22 3 20 4 21 5 19 6 17 7 18 8 95 9 94 12 16 13
REMARK SMILES IDX 6 14 7 15 8 16 15 17 5 18 1 19 2 20 3 21 97 22 4 23 96 24
REMARK SMILES IDX 9 25 10 26 14 27 11 28 13 29 12 30 25 31 26 32 27 33 28 34
REMARK SMILES IDX 29 35 93 36 30 37 92 38 31 39 32 40 33 41 86 42 34 43 91 44
REMARK SMILES IDX 85 45 87 46 35 47 90 48 84 49 83 50 36 52 70 53 49 54 69 55
REMARK SMILES IDX 50 56 53 57 68 58 88 59 51 60 52 61 67 63 89 64 54 65 37 66
REMARK SMILES IDX 38 67 47 68 39 69 40 70 46 71 48 72 41 73 42 74 43 75 44 76
REMARK SMILES IDX 45 77 71 78 72 79 81 80 73 81 74 82 80 83 82 84 75 85 76 86
REMARK SMILES IDX 77 87 78 88 79 89 55 90 56 91 65 92 57 93 58 94 64 95 66 96
REMARK SMILES IDX 59 97 60 98 61 99 62 100 63 101
REMARK H PARENT 18 10 18 11 87 51 53 62
REMARK Flexibility Score: inf
ROOT
ATOM      1  C   UNL A   1      49.368  25.876  26.840  1.00  0.00     0.275 C 
ENDROOT
BRANCH   1   2
ATOM      2  C   UNL A   1      48.558  25.830  25.538  1.00  0.00     0.274 C 
BRANCH   2   3
ATOM      3  O   UNL A   1      47.572  24.791  25.655  1.00  0.00    -0.458 OA
BRANCH   3   4
ATOM      4  C   UNL A   1      46.279  25.011  25.000  1.00  0.00     0.365 C 
ATOM      5  O   UNL A   1      46.166  23.990  24.247  1.00  0.00    -0.245 OA
BRANCH   4   6
ATOM      6  C   UNL A   1      45.029  26.780  25.257  1.00  0.00     0.304 C 
ATOM      7  C   UNL A   1      42.553  27.396  26.064  1.00  0.00     0.278 C 
ATOM      8  N   UNL A   1      43.343  26.923  24.916  1.00  0.00    -0.319 N 
ATOM      9  S   UNL A   1      43.472  28.627  26.954  1.00  0.00    -0.087 SA
ATOM     10  H   UNL A   1      43.223  27.583  24.148  1.00  0.00     0.348 HD
ATOM     11  H   UNL A   1      43.002  25.991  24.678  1.00  0.00     0.348 HD
ATOM     12  C   UNL A   1      45.091  28.167  26.279  1.00  0.00     0.153 C 
BRANCH   7  13
ATOM     13  C   UNL A   1      42.090  26.218  26.860  1.00  0.00     0.067 A 
ATOM     14  C   UNL A   1      40.800  26.040  27.433  1.00  0.00     0.103 A 
ATOM     15  N   UNL A   1      40.558  24.749  27.718  1.00  0.00    -0.167 NA
ATOM     16  N   UNL A   1      41.741  24.139  27.459  1.00  0.00    -0.240 N 
ATOM     17  C   UNL A   1      42.738  25.085  27.325  1.00  0.00     0.126 A 
BRANCH  14  18
ATOM     18  C   UNL A   1      39.955  27.113  27.924  1.00  0.00     0.003 A 
ATOM     19  C   UNL A   1      37.755  30.260  29.853  1.00  0.00     0.044 C 
ATOM     20  C   UNL A   1      38.530  29.169  29.180  1.00  0.00    -0.051 A 
ATOM     21  C   UNL A   1      39.005  29.326  27.866  1.00  0.00     0.004 A 
ATOM     22  C   UNL A   1      38.778  27.976  29.861  1.00  0.00     0.004 A 
ATOM     23  C   UNL A   1      39.726  28.302  27.237  1.00  0.00     0.011 A 
ATOM     24  C   UNL A   1      39.482  26.957  29.234  1.00  0.00     0.011 A 
ENDBRANCH  14  18
BRANCH  16  25
ATOM     25  C   UNL A   1      41.857  22.743  27.188  1.00  0.00     0.065 A 
ATOM     26  C   UNL A   1      40.778  21.893  27.466  1.00  0.00     0.028 A 
ATOM     27  C   UNL A   1      42.967  22.237  26.491  1.00  0.00     0.028 A 
ATOM     28  C   UNL A   1      40.801  20.567  27.021  1.00  0.00     0.002 A 
ATOM     29  C   UNL A   1      42.983  20.912  26.049  1.00  0.00     0.002 A 
ATOM     30  C   UNL A   1      41.898  20.079  26.310  1.00  0.00     0.000 A 
ENDBRANCH  16  25
ENDBRANCH   7  13
ENDBRANCH   4   6
ENDBRANCH   3   4
ENDBRANCH   2   3
ENDBRANCH   1   2
BRANCH   1  31
ATOM     31  O   UNL A   1      49.384  27.175  27.490  1.00  0.00    -0.458 OA
BRANCH  31  32
ATOM     32  C   UNL A   1      48.344  27.563  28.275  1.00  0.00     0.338 C 
ATOM     33  O   UNL A   1      47.878  28.687  28.346  1.00  0.00    -0.246 OA
BRANCH  32  34
ATOM     34  C   UNL A   1      47.791  26.421  29.024  1.00  0.00     0.060 A 
ATOM     35  C   UNL A   1      46.172  25.757  28.611  1.00  0.00     0.016 A 
ATOM     36  C   UNL A   1      48.392  26.374  30.712  1.00  0.00     0.016 A 
ATOM     37  C   UNL A   1      45.101  25.115  29.941  1.00  0.00     0.010 A 
ATOM     38  C   UNL A   1      47.323  25.759  32.021  1.00  0.00     0.010 A 
ATOM     39  C   UNL A   1      45.649  25.239  31.653  1.00  0.00    -0.014 A 
BRANCH  39  40
ATOM     40  C   UNL A   1      44.813  25.344  32.844  1.00  0.00     0.031 A 
ATOM     41  C   UNL A   1      44.154  26.636  33.116  1.00  0.00     0.074 A 
ATOM     42  C   UNL A   1      44.467  24.193  33.458  1.00  0.00     0.049 A 
ATOM     43  N   UNL A   1      43.936  27.168  34.265  1.00  0.00    -0.248 NA
ATOM     44  C   UNL A   1      43.801  27.543  32.034  1.00  0.00     0.031 C 
ATOM     45  C   UNL A   1      43.410  23.976  34.434  1.00  0.00     0.029 A 
ATOM     46  N   UNL A   1      45.119  22.963  33.424  1.00  0.00    -0.354 N 
ATOM     47  C   UNL A   1      43.106  28.262  34.036  1.00  0.00     0.074 A 
ATOM     48  C   UNL A   1      43.298  28.595  32.663  1.00  0.00     0.031 C 
ATOM     49  C   UNL A   1      43.707  22.865  35.137  1.00  0.00     0.029 A 
ATOM     50  C   UNL A   1      45.017  22.403  34.694  1.00  0.00     0.049 A 
ATOM     51  H   UNL A   1      45.570  22.563  32.645  1.00  0.00     0.167 HD
ATOM     52  C   UNL A   1      42.134  28.579  34.937  1.00  0.00     0.037 A 
ATOM     53  C   UNL A   1      46.121  22.251  35.485  1.00  0.00     0.037 A 
ATOM     54  C   UNL A   1      42.221  27.635  36.049  1.00  0.00     0.049 A 
ATOM     55  C   UNL A   1      46.061  23.222  36.655  1.00  0.00     0.074 A 
ATOM     56  C   UNL A   1      41.530  26.465  36.318  1.00  0.00     0.029 A 
ATOM     57  N   UNL A   1      43.386  27.590  36.805  1.00  0.00    -0.354 N 
ATOM     58  N   UNL A   1      45.308  24.293  36.671  1.00  0.00    -0.248 NA
ATOM     59  C   UNL A   1      46.780  23.040  37.912  1.00  0.00     0.031 C 
ATOM     60  C   UNL A   1      42.354  25.662  37.155  1.00  0.00     0.029 A 
ATOM     61  C   UNL A   1      43.532  26.350  37.402  1.00  0.00     0.049 A 
ATOM     62  H   UNL A   1      44.020  28.336  36.903  1.00  0.00     0.167 HD
ATOM     63  C   UNL A   1      45.407  24.920  37.883  1.00  0.00     0.074 A 
ATOM     64  C   UNL A   1      46.342  24.094  38.627  1.00  0.00     0.031 C 
ATOM     65  C   UNL A   1      44.719  26.061  38.195  1.00  0.00     0.037 A 
BRANCH  52  66
ATOM     66  C   UNL A   1      40.923  29.470  34.671  1.00  0.00     0.058 A 
ATOM     67  C   UNL A   1      40.013  29.123  33.646  1.00  0.00     0.135 A 
ATOM     68  C   UNL A   1      40.587  30.667  35.346  1.00  0.00     0.135 A 
ATOM     69  F   UNL A   1      40.148  27.987  32.948  1.00  0.00    -0.206 F 
ATOM     70  C   UNL A   1      38.911  29.910  33.293  1.00  0.00     0.059 A 
ATOM     71  C   UNL A   1      39.516  31.492  34.986  1.00  0.00     0.059 A 
ATOM     72  F   UNL A   1      41.238  31.084  36.435  1.00  0.00    -0.206 F 
ATOM     73  C   UNL A   1      38.674  31.101  33.962  1.00  0.00     0.060 A 
BRANCH  73  74
ATOM     74  S   UNL A   1      37.227  32.081  33.529  1.00  0.00     0.124 S 
ATOM     75  O   UNL A   1      36.774  32.549  34.835  1.00  0.00    -0.237 OA
ATOM     76  O   UNL A   1      37.800  33.096  32.651  1.00  0.00    -0.237 OA
ATOM     77  O   UNL A   1      36.345  31.117  32.875  1.00  0.00    -0.744 OA
ENDBRANCH  73  74
ENDBRANCH  52  66
BRANCH  53  78
ATOM     78  C   UNL A   1      47.333  21.755  34.755  1.00  0.00     0.058 A 
ATOM     79  C   UNL A   1      48.394  22.672  34.584  1.00  0.00     0.135 A 
ATOM     80  C   UNL A   1      47.645  20.402  34.564  1.00  0.00     0.135 A 
ATOM     81  F   UNL A   1      48.159  23.989  34.704  1.00  0.00    -0.206 F 
ATOM     82  C   UNL A   1      49.715  22.268  34.395  1.00  0.00     0.059 A 
ATOM     83  C   UNL A   1      48.969  19.971  34.350  1.00  0.00     0.059 A 
ATOM     84  F   UNL A   1      46.698  19.463  34.713  1.00  0.00    -0.206 F 
ATOM     85  C   UNL A   1      50.003  20.909  34.321  1.00  0.00     0.060 A 
BRANCH  85  86
ATOM     86  S   UNL A   1      51.747  20.407  34.329  1.00  0.00     0.124 S 
ATOM     87  O   UNL A   1      52.149  20.689  32.956  1.00  0.00    -0.237 OA
ATOM     88  O   UNL A   1      52.322  21.281  35.345  1.00  0.00    -0.237 OA
ATOM     89  O   UNL A   1      51.693  18.991  34.682  1.00  0.00    -0.744 OA
ENDBRANCH  85  86
ENDBRANCH  53  78
BRANCH  65  90
ATOM     90  C   UNL A   1      45.066  26.984  39.339  1.00  0.00     0.058 A 
ATOM     91  C   UNL A   1      44.768  26.694  40.680  1.00  0.00     0.135 A 
ATOM     92  C   UNL A   1      45.864  28.137  39.127  1.00  0.00     0.135 A 
ATOM     93  F   UNL A   1      44.153  25.555  41.032  1.00  0.00    -0.206 F 
ATOM     94  C   UNL A   1      45.124  27.547  41.722  1.00  0.00     0.059 A 
ATOM     95  C   UNL A   1      46.302  28.954  40.160  1.00  0.00     0.059 A 
ATOM     96  F   UNL A   1      46.261  28.506  37.899  1.00  0.00    -0.206 F 
ATOM     97  C   UNL A   1      45.879  28.682  41.449  1.00  0.00     0.060 A 
BRANCH  97  98
ATOM     98  S   UNL A   1      46.299  29.803  42.790  1.00  0.00     0.124 S 
ATOM     99  O   UNL A   1      47.406  29.088  43.418  1.00  0.00    -0.237 OA
ATOM    100  O   UNL A   1      46.658  31.027  42.082  1.00  0.00    -0.237 OA
ATOM    101  O   UNL A   1      45.068  29.874  43.570  1.00  0.00    -0.744 OA
ENDBRANCH  97  98
ENDBRANCH  65  90
ENDBRANCH  39  40
ENDBRANCH  32  34
ENDBRANCH  31  32
ENDBRANCH   1  31
TORSDOF 17
ENDMDL
