MODEL 1
REMARK VINA RESULT:     -11.9      0.000      0.000
REMARK SMILES C[C@H]1CCCC[C@H]1[N@H+]1[C@@H](C(=O)OCCOC(=O)c2ccc(-c3c4nc(c(-c5c(F)cc(S(=O)(=O)[O-])cc5F)c5ccc([nH]5)c(-c5c(F)cc(S(=O)(=O)[O-])cc5F)c5nc(c(-c6c(F)cc(S(=O)(=O)[O-])cc6F)c6ccc3[nH]6)C=C5)C=C4)cc2)CC[C@H]2CCCC[C@H]21
REMARK SMILES IDX 14 1 13 2 12 3 10 4 11 5 9 6 8 7 91 8 84 10 86 11 90 12
REMARK SMILES IDX 85 13 87 14 89 15 88 16 7 17 1 18 2 19 3 20 4 21 6 22 5 23
REMARK SMILES IDX 15 24 16 25 17 26 18 27 19 28 83 29 20 30 82 31 21 32 22 33
REMARK SMILES IDX 23 34 76 35 24 36 81 37 75 38 77 39 25 40 80 41 74 42 73 43
REMARK SMILES IDX 26 45 60 46 39 47 59 48 40 49 43 50 58 51 78 52 41 53 42 54
REMARK SMILES IDX 57 56 79 57 44 58 27 59 28 60 37 61 29 62 30 63 36 64 38 65
REMARK SMILES IDX 31 66 32 67 33 68 34 69 35 70 61 71 62 72 71 73 63 74 64 75
REMARK SMILES IDX 70 76 72 77 65 78 66 79 67 80 68 81 69 82 45 83 46 84 55 85
REMARK SMILES IDX 47 86 48 87 54 88 56 89 49 90 50 91 51 92 52 93 53 94
REMARK H PARENT 8 9 77 44 43 55
REMARK Flexibility Score: inf
ROOT
ATOM      1  C   UNL A   1      32.412  30.372  26.919  1.00  0.00     0.275 C 
ENDROOT
BRANCH   1   2
ATOM      2  C   UNL A   1      31.817  29.380  25.885  1.00  0.00     0.274 C 
BRANCH   2   3
ATOM      3  O   UNL A   1      32.590  28.170  25.594  1.00  0.00    -0.458 OA
BRANCH   3   4
ATOM      4  C   UNL A   1      32.176  27.004  26.169  1.00  0.00     0.365 C 
ATOM      5  O   UNL A   1      31.181  26.962  26.893  1.00  0.00    -0.245 OA
BRANCH   4   6
ATOM      6  C   UNL A   1      33.126  25.774  26.057  1.00  0.00     0.295 C 
ATOM      7  N   UNL A   1      34.025  25.492  24.885  1.00  0.00    -0.318 N 
ATOM      8  C   UNL A   1      34.954  24.305  25.499  1.00  0.00     0.188 C 
ATOM      9  H   UNL A   1      34.630  26.233  24.534  1.00  0.00     0.349 HD
ATOM     10  C   UNL A   1      32.469  24.436  26.465  1.00  0.00     0.078 C 
ATOM     11  C   UNL A   1      34.368  23.046  24.958  1.00  0.00     0.048 C 
ATOM     12  C   UNL A   1      36.508  24.019  25.584  1.00  0.00     0.065 C 
ATOM     13  C   UNL A   1      32.970  23.110  25.729  1.00  0.00     0.016 C 
ATOM     14  C   UNL A   1      34.991  23.184  23.490  1.00  0.00     0.010 C 
ATOM     15  C   UNL A   1      37.186  23.016  24.610  1.00  0.00     0.006 C 
ATOM     16  C   UNL A   1      36.429  22.725  23.338  1.00  0.00     0.001 C 
BRANCH   7  17
ATOM     17  C   UNL A   1      33.161  25.256  23.544  1.00  0.00     0.187 C 
ATOM     18  C   UNL A   1      30.670  23.778  23.464  1.00  0.00     0.014 C 
ATOM     19  C   UNL A   1      31.576  25.002  23.172  1.00  0.00     0.044 C 
ATOM     20  C   UNL A   1      30.714  26.239  23.299  1.00  0.00     0.009 C 
ATOM     21  C   UNL A   1      31.367  27.438  22.679  1.00  0.00     0.001 C 
ATOM     22  C   UNL A   1      33.649  26.208  22.416  1.00  0.00     0.065 C 
ATOM     23  C   UNL A   1      32.681  27.279  21.951  1.00  0.00     0.006 C 
ENDBRANCH   7  17
ENDBRANCH   4   6
ENDBRANCH   3   4
ENDBRANCH   2   3
ENDBRANCH   1   2
BRANCH   1  24
ATOM     24  O   UNL A   1      33.561  29.803  27.580  1.00  0.00    -0.458 OA
BRANCH  24  25
ATOM     25  C   UNL A   1      34.438  30.634  28.194  1.00  0.00     0.338 C 
ATOM     26  O   UNL A   1      34.141  31.702  28.751  1.00  0.00    -0.246 OA
BRANCH  25  27
ATOM     27  C   UNL A   1      35.791  29.994  28.280  1.00  0.00     0.060 A 
ATOM     28  C   UNL A   1      36.295  29.611  29.525  1.00  0.00     0.016 A 
ATOM     29  C   UNL A   1      36.672  30.009  27.185  1.00  0.00     0.016 A 
ATOM     30  C   UNL A   1      37.672  29.438  29.703  1.00  0.00     0.010 A 
ATOM     31  C   UNL A   1      38.039  29.687  27.353  1.00  0.00     0.010 A 
ATOM     32  C   UNL A   1      38.575  29.417  28.624  1.00  0.00    -0.014 A 
BRANCH  32  33
ATOM     33  C   UNL A   1      40.027  29.060  28.839  1.00  0.00     0.031 A 
ATOM     34  C   UNL A   1      41.059  30.063  29.328  1.00  0.00     0.074 A 
ATOM     35  C   UNL A   1      40.458  27.803  28.587  1.00  0.00     0.049 A 
ATOM     36  N   UNL A   1      42.370  29.982  29.310  1.00  0.00    -0.248 NA
ATOM     37  C   UNL A   1      40.556  31.307  29.925  1.00  0.00     0.031 C 
ATOM     38  C   UNL A   1      39.614  26.674  28.188  1.00  0.00     0.029 A 
ATOM     39  N   UNL A   1      41.721  27.255  28.629  1.00  0.00    -0.354 N 
ATOM     40  C   UNL A   1      42.849  31.183  29.834  1.00  0.00     0.074 A 
ATOM     41  C   UNL A   1      41.681  31.964  30.189  1.00  0.00     0.031 C 
ATOM     42  C   UNL A   1      40.359  25.568  28.087  1.00  0.00     0.029 A 
ATOM     43  C   UNL A   1      41.758  25.935  28.240  1.00  0.00     0.049 A 
ATOM     44  H   UNL A   1      42.519  27.758  28.909  1.00  0.00     0.167 HD
ATOM     45  C   UNL A   1      44.136  31.604  29.980  1.00  0.00     0.037 A 
ATOM     46  C   UNL A   1      42.779  25.111  27.936  1.00  0.00     0.037 A 
ATOM     47  C   UNL A   1      45.302  30.812  29.650  1.00  0.00     0.049 A 
ATOM     48  C   UNL A   1      44.183  25.623  27.986  1.00  0.00     0.074 A 
ATOM     49  C   UNL A   1      46.640  31.163  29.742  1.00  0.00     0.029 A 
ATOM     50  N   UNL A   1      45.273  29.510  29.173  1.00  0.00    -0.354 N 
ATOM     51  N   UNL A   1      44.614  26.804  28.350  1.00  0.00    -0.248 NA
ATOM     52  C   UNL A   1      45.237  24.698  27.551  1.00  0.00     0.031 C 
ATOM     53  C   UNL A   1      47.415  30.094  29.276  1.00  0.00     0.029 A 
ATOM     54  C   UNL A   1      46.565  29.052  28.949  1.00  0.00     0.049 A 
ATOM     55  H   UNL A   1      44.455  28.984  29.016  1.00  0.00     0.167 HD
ATOM     56  C   UNL A   1      45.994  26.760  28.211  1.00  0.00     0.074 A 
ATOM     57  C   UNL A   1      46.325  25.433  27.731  1.00  0.00     0.031 C 
ATOM     58  C   UNL A   1      46.902  27.734  28.468  1.00  0.00     0.037 A 
BRANCH  45  59
ATOM     59  C   UNL A   1      44.366  33.024  30.444  1.00  0.00     0.058 A 
ATOM     60  C   UNL A   1      44.392  34.118  29.565  1.00  0.00     0.135 A 
ATOM     61  C   UNL A   1      44.532  33.294  31.816  1.00  0.00     0.135 A 
ATOM     62  F   UNL A   1      44.237  33.928  28.245  1.00  0.00    -0.206 F 
ATOM     63  C   UNL A   1      44.624  35.416  30.020  1.00  0.00     0.059 A 
ATOM     64  C   UNL A   1      44.737  34.585  32.295  1.00  0.00     0.059 A 
ATOM     65  F   UNL A   1      44.498  32.294  32.710  1.00  0.00    -0.206 F 
ATOM     66  C   UNL A   1      44.809  35.638  31.386  1.00  0.00     0.060 A 
BRANCH  66  67
ATOM     67  S   UNL A   1      45.167  37.314  31.960  1.00  0.00     0.124 S 
ATOM     68  O   UNL A   1      44.116  38.077  31.294  1.00  0.00    -0.237 OA
ATOM     69  O   UNL A   1      45.035  37.188  33.408  1.00  0.00    -0.237 OA
ATOM     70  O   UNL A   1      46.521  37.559  31.476  1.00  0.00    -0.744 OA
ENDBRANCH  66  67
ENDBRANCH  45  59
BRANCH  46  71
ATOM     71  C   UNL A   1      42.478  23.727  27.483  1.00  0.00     0.058 A 
ATOM     72  C   UNL A   1      42.353  23.431  26.120  1.00  0.00     0.135 A 
ATOM     73  C   UNL A   1      42.407  22.662  28.397  1.00  0.00     0.135 A 
ATOM     74  F   UNL A   1      42.396  24.418  25.212  1.00  0.00    -0.206 F 
ATOM     75  C   UNL A   1      42.197  22.124  25.674  1.00  0.00     0.059 A 
ATOM     76  C   UNL A   1      42.285  21.344  27.974  1.00  0.00     0.059 A 
ATOM     77  F   UNL A   1      42.532  22.895  29.714  1.00  0.00    -0.206 F 
ATOM     78  C   UNL A   1      42.184  21.085  26.609  1.00  0.00     0.060 A 
BRANCH  78  79
ATOM     79  S   UNL A   1      42.112  19.383  26.010  1.00  0.00     0.124 S 
ATOM     80  O   UNL A   1      40.690  19.230  25.730  1.00  0.00    -0.237 OA
ATOM     81  O   UNL A   1      42.992  19.431  24.846  1.00  0.00    -0.237 OA
ATOM     82  O   UNL A   1      42.622  18.609  27.138  1.00  0.00    -0.744 OA
ENDBRANCH  78  79
ENDBRANCH  46  71
BRANCH  58  83
ATOM     83  C   UNL A   1      48.352  27.377  28.292  1.00  0.00     0.058 A 
ATOM     84  C   UNL A   1      49.108  26.801  29.325  1.00  0.00     0.135 A 
ATOM     85  C   UNL A   1      48.997  27.629  27.071  1.00  0.00     0.135 A 
ATOM     86  F   UNL A   1      48.545  26.553  30.518  1.00  0.00    -0.206 F 
ATOM     87  C   UNL A   1      50.462  26.520  29.165  1.00  0.00     0.059 A 
ATOM     88  C   UNL A   1      50.343  27.332  26.880  1.00  0.00     0.059 A 
ATOM     89  F   UNL A   1      48.321  28.175  26.048  1.00  0.00    -0.206 F 
ATOM     90  C   UNL A   1      51.072  26.794  27.939  1.00  0.00     0.060 A 
BRANCH  90  91
ATOM     91  S   UNL A   1      52.829  26.427  27.741  1.00  0.00     0.124 S 
ATOM     92  O   UNL A   1      53.312  27.640  27.091  1.00  0.00    -0.237 OA
ATOM     93  O   UNL A   1      53.266  26.229  29.120  1.00  0.00    -0.237 OA
ATOM     94  O   UNL A   1      52.833  25.225  26.912  1.00  0.00    -0.744 OA
ENDBRANCH  90  91
ENDBRANCH  58  83
ENDBRANCH  32  33
ENDBRANCH  25  27
ENDBRANCH  24  25
ENDBRANCH   1  24
TORSDOF 15
ENDMDL
MODEL 2
REMARK VINA RESULT:     -11.9      1.534      2.122
REMARK SMILES C[C@H]1CCCC[C@H]1[N@H+]1[C@@H](C(=O)OCCOC(=O)c2ccc(-c3c4nc(c(-c5c(F)cc(S(=O)(=O)[O-])cc5F)c5ccc([nH]5)c(-c5c(F)cc(S(=O)(=O)[O-])cc5F)c5nc(c(-c6c(F)cc(S(=O)(=O)[O-])cc6F)c6ccc3[nH]6)C=C5)C=C4)cc2)CC[C@H]2CCCC[C@H]21
REMARK SMILES IDX 14 1 13 2 12 3 10 4 11 5 9 6 8 7 91 8 84 10 86 11 90 12
REMARK SMILES IDX 85 13 87 14 89 15 88 16 7 17 1 18 2 19 3 20 4 21 6 22 5 23
REMARK SMILES IDX 15 24 16 25 17 26 18 27 19 28 83 29 20 30 82 31 21 32 22 33
REMARK SMILES IDX 23 34 76 35 24 36 81 37 75 38 77 39 25 40 80 41 74 42 73 43
REMARK SMILES IDX 26 45 60 46 39 47 59 48 40 49 43 50 58 51 78 52 41 53 42 54
REMARK SMILES IDX 57 56 79 57 44 58 27 59 28 60 37 61 29 62 30 63 36 64 38 65
REMARK SMILES IDX 31 66 32 67 33 68 34 69 35 70 61 71 62 72 71 73 63 74 64 75
REMARK SMILES IDX 70 76 72 77 65 78 66 79 67 80 68 81 69 82 45 83 46 84 55 85
REMARK SMILES IDX 47 86 48 87 54 88 56 89 49 90 50 91 51 92 52 93 53 94
REMARK H PARENT 8 9 77 44 43 55
REMARK Flexibility Score: inf
ROOT
ATOM      1  C   UNL A   1      34.147  29.407  26.880  1.00  0.00     0.275 C 
ENDROOT
BRANCH   1   2
ATOM      2  C   UNL A   1      32.893  28.556  27.213  1.00  0.00     0.274 C 
BRANCH   2   3
ATOM      3  O   UNL A   1      32.250  27.846  26.105  1.00  0.00    -0.458 OA
BRANCH   3   4
ATOM      4  C   UNL A   1      31.821  26.572  26.337  1.00  0.00     0.365 C 
ATOM      5  O   UNL A   1      30.716  26.346  26.832  1.00  0.00    -0.245 OA
BRANCH   4   6
ATOM      6  C   UNL A   1      32.859  25.423  26.160  1.00  0.00     0.295 C 
ATOM      7  N   UNL A   1      33.852  25.335  25.034  1.00  0.00    -0.318 N 
ATOM      8  C   UNL A   1      34.818  24.144  25.580  1.00  0.00     0.188 C 
ATOM      9  H   UNL A   1      34.427  26.147  24.814  1.00  0.00     0.349 HD
ATOM     10  C   UNL A   1      32.270  24.009  26.366  1.00  0.00     0.078 C 
ATOM     11  C   UNL A   1      34.358  22.923  24.860  1.00  0.00     0.048 C 
ATOM     12  C   UNL A   1      36.378  23.945  25.748  1.00  0.00     0.065 C 
ATOM     13  C   UNL A   1      32.910  22.811  25.527  1.00  0.00     0.016 C 
ATOM     14  C   UNL A   1      35.068  23.268  23.467  1.00  0.00     0.010 C 
ATOM     15  C   UNL A   1      37.188  23.106  24.722  1.00  0.00     0.006 C 
ATOM     16  C   UNL A   1      36.540  22.919  23.373  1.00  0.00     0.001 C 
BRANCH   7  17
ATOM     17  C   UNL A   1      33.099  25.204  23.615  1.00  0.00     0.187 C 
ATOM     18  C   UNL A   1      30.654  23.703  23.213  1.00  0.00     0.014 C 
ATOM     19  C   UNL A   1      31.553  24.961  23.099  1.00  0.00     0.044 C 
ATOM     20  C   UNL A   1      30.658  26.169  23.264  1.00  0.00     0.009 C 
ATOM     21  C   UNL A   1      31.332  27.427  22.802  1.00  0.00     0.001 C 
ATOM     22  C   UNL A   1      33.652  26.258  22.614  1.00  0.00     0.065 C 
ATOM     23  C   UNL A   1      32.700  27.351  22.168  1.00  0.00     0.006 C 
ENDBRANCH   7  17
ENDBRANCH   4   6
ENDBRANCH   3   4
ENDBRANCH   2   3
ENDBRANCH   1   2
BRANCH   1  24
ATOM     24  O   UNL A   1      35.162  29.250  27.892  1.00  0.00    -0.458 OA
BRANCH  24  25
ATOM     25  C   UNL A   1      35.730  30.359  28.425  1.00  0.00     0.338 C 
ATOM     26  O   UNL A   1      35.111  31.292  28.961  1.00  0.00    -0.246 OA
BRANCH  25  27
ATOM     27  C   UNL A   1      37.222  30.221  28.452  1.00  0.00     0.060 A 
ATOM     28  C   UNL A   1      37.920  30.049  27.255  1.00  0.00     0.016 A 
ATOM     29  C   UNL A   1      37.908  29.996  29.658  1.00  0.00     0.016 A 
ATOM     30  C   UNL A   1      39.201  29.484  27.264  1.00  0.00     0.010 A 
ATOM     31  C   UNL A   1      39.255  29.564  29.653  1.00  0.00     0.010 A 
ATOM     32  C   UNL A   1      39.926  29.275  28.451  1.00  0.00    -0.014 A 
BRANCH  32  33
ATOM     33  C   UNL A   1      41.366  28.822  28.409  1.00  0.00     0.031 A 
ATOM     34  C   UNL A   1      42.535  29.770  28.612  1.00  0.00     0.074 A 
ATOM     35  C   UNL A   1      41.657  27.521  28.177  1.00  0.00     0.049 A 
ATOM     36  N   UNL A   1      43.809  29.586  28.349  1.00  0.00    -0.248 NA
ATOM     37  C   UNL A   1      42.241  31.084  29.197  1.00  0.00     0.031 C 
ATOM     38  C   UNL A   1      40.680  26.438  28.036  1.00  0.00     0.029 A 
ATOM     39  N   UNL A   1      42.866  26.880  28.017  1.00  0.00    -0.354 N 
ATOM     40  C   UNL A   1      44.458  30.777  28.676  1.00  0.00     0.074 A 
ATOM     41  C   UNL A   1      43.435  31.667  29.189  1.00  0.00     0.031 C 
ATOM     42  C   UNL A   1      41.318  25.273  27.879  1.00  0.00     0.029 A 
ATOM     43  C   UNL A   1      42.741  25.539  27.731  1.00  0.00     0.049 A 
ATOM     44  H   UNL A   1      43.734  27.337  28.099  1.00  0.00     0.167 HD
ATOM     45  C   UNL A   1      45.773  31.105  28.539  1.00  0.00     0.037 A 
ATOM     46  C   UNL A   1      43.627  24.622  27.301  1.00  0.00     0.037 A 
ATOM     47  C   UNL A   1      46.797  30.206  28.054  1.00  0.00     0.049 A 
ATOM     48  C   UNL A   1      45.043  25.025  27.040  1.00  0.00     0.074 A 
ATOM     49  C   UNL A   1      48.147  30.457  27.860  1.00  0.00     0.029 A 
ATOM     50  N   UNL A   1      46.592  28.882  27.693  1.00  0.00    -0.354 N 
ATOM     51  N   UNL A   1      45.613  26.190  27.223  1.00  0.00    -0.248 NA
ATOM     52  C   UNL A   1      45.930  23.996  26.483  1.00  0.00     0.031 C 
ATOM     53  C   UNL A   1      48.745  29.303  27.337  1.00  0.00     0.029 A 
ATOM     54  C   UNL A   1      47.783  28.312  27.261  1.00  0.00     0.049 A 
ATOM     55  H   UNL A   1      45.727  28.413  27.737  1.00  0.00     0.167 HD
ATOM     56  C   UNL A   1      46.932  26.030  26.825  1.00  0.00     0.074 A 
ATOM     57  C   UNL A   1      47.077  24.653  26.394  1.00  0.00     0.031 C 
ATOM     58  C   UNL A   1      47.933  26.945  26.826  1.00  0.00     0.037 A 
BRANCH  45  59
ATOM     59  C   UNL A   1      46.180  32.529  28.840  1.00  0.00     0.058 A 
ATOM     60  C   UNL A   1      46.613  32.947  30.108  1.00  0.00     0.135 A 
ATOM     61  C   UNL A   1      46.163  33.494  27.814  1.00  0.00     0.135 A 
ATOM     62  F   UNL A   1      46.655  32.075  31.128  1.00  0.00    -0.206 F 
ATOM     63  C   UNL A   1      46.966  34.273  30.360  1.00  0.00     0.059 A 
ATOM     64  C   UNL A   1      46.538  34.817  28.036  1.00  0.00     0.059 A 
ATOM     65  F   UNL A   1      45.777  33.154  26.574  1.00  0.00    -0.206 F 
ATOM     66  C   UNL A   1      46.912  35.204  29.321  1.00  0.00     0.060 A 
BRANCH  66  67
ATOM     67  S   UNL A   1      47.314  36.931  29.671  1.00  0.00     0.124 S 
ATOM     68  O   UNL A   1      47.065  36.999  31.107  1.00  0.00    -0.237 OA
ATOM     69  O   UNL A   1      48.713  37.017  29.267  1.00  0.00    -0.237 OA
ATOM     70  O   UNL A   1      46.377  37.675  28.837  1.00  0.00    -0.744 OA
ENDBRANCH  66  67
ENDBRANCH  45  59
BRANCH  46  71
ATOM     71  C   UNL A   1      43.155  23.240  27.022  1.00  0.00     0.058 A 
ATOM     72  C   UNL A   1      42.986  22.792  25.706  1.00  0.00     0.135 A 
ATOM     73  C   UNL A   1      42.960  22.314  28.062  1.00  0.00     0.135 A 
ATOM     74  F   UNL A   1      43.144  23.645  24.682  1.00  0.00    -0.206 F 
ATOM     75  C   UNL A   1      42.667  21.469  25.425  1.00  0.00     0.059 A 
ATOM     76  C   UNL A   1      42.674  20.979  27.806  1.00  0.00     0.059 A 
ATOM     77  F   UNL A   1      43.121  22.693  29.340  1.00  0.00    -0.206 F 
ATOM     78  C   UNL A   1      42.532  20.564  26.483  1.00  0.00     0.060 A 
BRANCH  78  79
ATOM     79  S   UNL A   1      42.247  18.823  26.101  1.00  0.00     0.124 S 
ATOM     80  O   UNL A   1      40.832  18.827  25.751  1.00  0.00    -0.237 OA
ATOM     81  O   UNL A   1      43.178  18.595  25.001  1.00  0.00    -0.237 OA
ATOM     82  O   UNL A   1      42.588  18.147  27.349  1.00  0.00    -0.744 OA
ENDBRANCH  78  79
ENDBRANCH  46  71
BRANCH  58  83
ATOM     83  C   UNL A   1      49.294  26.466  26.403  1.00  0.00     0.058 A 
ATOM     84  C   UNL A   1      50.122  25.722  27.259  1.00  0.00     0.135 A 
ATOM     85  C   UNL A   1      49.781  26.769  25.122  1.00  0.00     0.135 A 
ATOM     86  F   UNL A   1      49.711  25.417  28.501  1.00  0.00    -0.206 F 
ATOM     87  C   UNL A   1      51.399  25.326  26.872  1.00  0.00     0.059 A 
ATOM     88  C   UNL A   1      51.045  26.361  24.704  1.00  0.00     0.059 A 
ATOM     89  F   UNL A   1      49.030  27.473  24.261  1.00  0.00    -0.206 F 
ATOM     90  C   UNL A   1      51.854  25.655  25.593  1.00  0.00     0.060 A 
BRANCH  90  91
ATOM     91  S   UNL A   1      53.512  25.138  25.100  1.00  0.00     0.124 S 
ATOM     92  O   UNL A   1      53.529  25.506  23.689  1.00  0.00    -0.237 OA
ATOM     93  O   UNL A   1      54.363  25.939  25.975  1.00  0.00    -0.237 OA
ATOM     94  O   UNL A   1      53.516  23.703  25.376  1.00  0.00    -0.744 OA
ENDBRANCH  90  91
ENDBRANCH  58  83
ENDBRANCH  32  33
ENDBRANCH  25  27
ENDBRANCH  24  25
ENDBRANCH   1  24
TORSDOF 15
ENDMDL
MODEL 3
REMARK VINA RESULT:     -11.7      4.285     10.053
REMARK SMILES C[C@H]1CCCC[C@H]1[N@H+]1[C@@H](C(=O)OCCOC(=O)c2ccc(-c3c4nc(c(-c5c(F)cc(S(=O)(=O)[O-])cc5F)c5ccc([nH]5)c(-c5c(F)cc(S(=O)(=O)[O-])cc5F)c5nc(c(-c6c(F)cc(S(=O)(=O)[O-])cc6F)c6ccc3[nH]6)C=C5)C=C4)cc2)CC[C@H]2CCCC[C@H]21
REMARK SMILES IDX 14 1 13 2 12 3 10 4 11 5 9 6 8 7 91 8 84 10 86 11 90 12
REMARK SMILES IDX 85 13 87 14 89 15 88 16 7 17 1 18 2 19 3 20 4 21 6 22 5 23
REMARK SMILES IDX 15 24 16 25 17 26 18 27 19 28 83 29 20 30 82 31 21 32 22 33
REMARK SMILES IDX 23 34 76 35 24 36 81 37 75 38 77 39 25 40 80 41 74 42 73 43
REMARK SMILES IDX 26 45 60 46 39 47 59 48 40 49 43 50 58 51 78 52 41 53 42 54
REMARK SMILES IDX 57 56 79 57 44 58 27 59 28 60 37 61 29 62 30 63 36 64 38 65
REMARK SMILES IDX 31 66 32 67 33 68 34 69 35 70 61 71 62 72 71 73 63 74 64 75
REMARK SMILES IDX 70 76 72 77 65 78 66 79 67 80 68 81 69 82 45 83 46 84 55 85
REMARK SMILES IDX 47 86 48 87 54 88 56 89 49 90 50 91 51 92 52 93 53 94
REMARK H PARENT 8 9 77 44 43 55
REMARK Flexibility Score: inf
ROOT
ATOM      1  C   UNL A   1      37.676  21.668  24.962  1.00  0.00     0.275 C 
ENDROOT
BRANCH   1   2
ATOM      2  C   UNL A   1      36.166  21.688  24.605  1.00  0.00     0.274 C 
BRANCH   2   3
ATOM      3  O   UNL A   1      35.406  22.885  24.971  1.00  0.00    -0.458 OA
BRANCH   3   4
ATOM      4  C   UNL A   1      34.918  23.656  23.956  1.00  0.00     0.365 C 
ATOM      5  O   UNL A   1      35.030  23.314  22.778  1.00  0.00    -0.245 OA
BRANCH   4   6
ATOM      6  C   UNL A   1      34.409  25.083  24.322  1.00  0.00     0.295 C 
ATOM      7  N   UNL A   1      33.653  25.426  25.575  1.00  0.00    -0.318 N 
ATOM      8  C   UNL A   1      33.705  27.052  25.521  1.00  0.00     0.188 C 
ATOM      9  H   UNL A   1      34.018  25.117  26.475  1.00  0.00     0.349 HD
ATOM     10  C   UNL A   1      33.719  25.821  23.152  1.00  0.00     0.078 C 
ATOM     11  C   UNL A   1      32.377  27.455  24.978  1.00  0.00     0.048 C 
ATOM     12  C   UNL A   1      34.088  28.203  26.536  1.00  0.00     0.065 C 
ATOM     13  C   UNL A   1      32.549  26.846  23.511  1.00  0.00     0.016 C 
ATOM     14  C   UNL A   1      31.560  27.227  26.336  1.00  0.00     0.010 C 
ATOM     15  C   UNL A   1      32.987  29.014  27.272  1.00  0.00     0.006 C 
ATOM     16  C   UNL A   1      31.630  28.358  27.344  1.00  0.00     0.001 C 
BRANCH   7  17
ATOM     17  C   UNL A   1      32.244  24.644  25.626  1.00  0.00     0.187 C 
ATOM     18  C   UNL A   1      30.606  24.108  23.297  1.00  0.00     0.014 C 
ATOM     19  C   UNL A   1      31.354  23.714  24.597  1.00  0.00     0.044 C 
ATOM     20  C   UNL A   1      31.916  22.326  24.389  1.00  0.00     0.009 C 
ATOM     21  C   UNL A   1      32.326  21.692  25.685  1.00  0.00     0.001 C 
ATOM     22  C   UNL A   1      32.075  23.929  26.997  1.00  0.00     0.065 C 
ATOM     23  C   UNL A   1      32.060  22.412  26.985  1.00  0.00     0.006 C 
ENDBRANCH   7  17
ENDBRANCH   4   6
ENDBRANCH   3   4
ENDBRANCH   2   3
ENDBRANCH   1   2
BRANCH   1  24
ATOM     24  O   UNL A   1      38.125  22.972  25.385  1.00  0.00    -0.458 OA
BRANCH  24  25
ATOM     25  C   UNL A   1      39.301  23.074  26.050  1.00  0.00     0.338 C 
ATOM     26  O   UNL A   1      40.255  22.288  25.940  1.00  0.00    -0.246 OA
BRANCH  25  27
ATOM     27  C   UNL A   1      39.370  24.372  26.795  1.00  0.00     0.060 A 
ATOM     28  C   UNL A   1      40.277  25.353  26.389  1.00  0.00     0.016 A 
ATOM     29  C   UNL A   1      38.739  24.529  28.041  1.00  0.00     0.016 A 
ATOM     30  C   UNL A   1      40.682  26.350  27.284  1.00  0.00     0.010 A 
ATOM     31  C   UNL A   1      39.052  25.627  28.876  1.00  0.00     0.010 A 
ATOM     32  C   UNL A   1      40.051  26.552  28.524  1.00  0.00    -0.014 A 
BRANCH  32  33
ATOM     33  C   UNL A   1      40.403  27.740  29.388  1.00  0.00     0.031 A 
ATOM     34  C   UNL A   1      41.645  27.785  30.262  1.00  0.00     0.074 A 
ATOM     35  C   UNL A   1      39.594  28.824  29.406  1.00  0.00     0.049 A 
ATOM     36  N   UNL A   1      41.943  28.609  31.241  1.00  0.00    -0.248 NA
ATOM     37  C   UNL A   1      42.691  26.789  29.996  1.00  0.00     0.031 C 
ATOM     38  C   UNL A   1      38.399  29.013  28.581  1.00  0.00     0.029 A 
ATOM     39  N   UNL A   1      39.651  29.981  30.151  1.00  0.00    -0.354 N 
ATOM     40  C   UNL A   1      43.175  28.196  31.747  1.00  0.00     0.074 A 
ATOM     41  C   UNL A   1      43.584  27.062  30.941  1.00  0.00     0.031 C 
ATOM     42  C   UNL A   1      37.879  30.224  28.811  1.00  0.00     0.029 A 
ATOM     43  C   UNL A   1      38.593  30.832  29.923  1.00  0.00     0.049 A 
ATOM     44  H   UNL A   1      40.378  30.181  30.785  1.00  0.00     0.167 HD
ATOM     45  C   UNL A   1      43.884  28.696  32.796  1.00  0.00     0.037 A 
ATOM     46  C   UNL A   1      38.159  31.927  30.574  1.00  0.00     0.037 A 
ATOM     47  C   UNL A   1      43.488  29.845  33.582  1.00  0.00     0.049 A 
ATOM     48  C   UNL A   1      38.880  32.396  31.797  1.00  0.00     0.074 A 
ATOM     49  C   UNL A   1      44.130  30.407  34.676  1.00  0.00     0.029 A 
ATOM     50  N   UNL A   1      42.355  30.613  33.358  1.00  0.00    -0.354 N 
ATOM     51  N   UNL A   1      39.966  31.915  32.346  1.00  0.00    -0.248 NA
ATOM     52  C   UNL A   1      38.295  33.540  32.508  1.00  0.00     0.031 C 
ATOM     53  C   UNL A   1      43.361  31.482  35.140  1.00  0.00     0.029 A 
ATOM     54  C   UNL A   1      42.270  31.629  34.302  1.00  0.00     0.049 A 
ATOM     55  H   UNL A   1      41.705  30.461  32.635  1.00  0.00     0.167 HD
ATOM     56  C   UNL A   1      40.211  32.710  33.456  1.00  0.00     0.074 A 
ATOM     57  C   UNL A   1      39.159  33.707  33.499  1.00  0.00     0.031 C 
ATOM     58  C   UNL A   1      41.224  32.622  34.353  1.00  0.00     0.037 A 
BRANCH  45  59
ATOM     59  C   UNL A   1      45.132  27.955  33.222  1.00  0.00     0.058 A 
ATOM     60  C   UNL A   1      46.415  28.301  32.771  1.00  0.00     0.135 A 
ATOM     61  C   UNL A   1      45.035  26.888  34.136  1.00  0.00     0.135 A 
ATOM     62  F   UNL A   1      46.575  29.311  31.901  1.00  0.00    -0.206 F 
ATOM     63  C   UNL A   1      47.546  27.588  33.168  1.00  0.00     0.059 A 
ATOM     64  C   UNL A   1      46.154  26.180  34.567  1.00  0.00     0.059 A 
ATOM     65  F   UNL A   1      43.838  26.521  34.620  1.00  0.00    -0.206 F 
ATOM     66  C   UNL A   1      47.404  26.520  34.056  1.00  0.00     0.060 A 
BRANCH  66  67
ATOM     67  S   UNL A   1      48.867  25.565  34.518  1.00  0.00     0.124 S 
ATOM     68  O   UNL A   1      49.929  26.340  33.883  1.00  0.00    -0.237 OA
ATOM     69  O   UNL A   1      48.831  25.618  35.976  1.00  0.00    -0.237 OA
ATOM     70  O   UNL A   1      48.616  24.252  33.935  1.00  0.00    -0.744 OA
ENDBRANCH  66  67
ENDBRANCH  45  59
BRANCH  46  71
ATOM     71  C   UNL A   1      36.922  32.603  30.100  1.00  0.00     0.058 A 
ATOM     72  C   UNL A   1      35.668  32.240  30.608  1.00  0.00     0.135 A 
ATOM     73  C   UNL A   1      36.981  33.688  29.208  1.00  0.00     0.135 A 
ATOM     74  F   UNL A   1      35.560  31.200  31.448  1.00  0.00    -0.206 F 
ATOM     75  C   UNL A   1      34.518  32.944  30.271  1.00  0.00     0.059 A 
ATOM     76  C   UNL A   1      35.851  34.428  28.882  1.00  0.00     0.059 A 
ATOM     77  F   UNL A   1      38.162  34.081  28.704  1.00  0.00    -0.206 F 
ATOM     78  C   UNL A   1      34.623  34.050  29.422  1.00  0.00     0.060 A 
BRANCH  78  79
ATOM     79  S   UNL A   1      33.145  35.034  29.096  1.00  0.00     0.124 S 
ATOM     80  O   UNL A   1      32.471  34.225  28.088  1.00  0.00    -0.237 OA
ATOM     81  O   UNL A   1      32.511  35.079  30.410  1.00  0.00    -0.237 OA
ATOM     82  O   UNL A   1      33.687  36.306  28.627  1.00  0.00    -0.744 OA
ENDBRANCH  78  79
ENDBRANCH  46  71
BRANCH  58  83
ATOM     83  C   UNL A   1      41.277  33.673  35.426  1.00  0.00     0.058 A 
ATOM     84  C   UNL A   1      41.861  34.932  35.208  1.00  0.00     0.135 A 
ATOM     85  C   UNL A   1      40.747  33.411  36.698  1.00  0.00     0.135 A 
ATOM     86  F   UNL A   1      42.398  35.231  34.013  1.00  0.00    -0.206 F 
ATOM     87  C   UNL A   1      41.947  35.879  36.223  1.00  0.00     0.059 A 
ATOM     88  C   UNL A   1      40.798  34.352  37.722  1.00  0.00     0.059 A 
ATOM     89  F   UNL A   1      40.173  32.226  36.961  1.00  0.00    -0.206 F 
ATOM     90  C   UNL A   1      41.417  35.578  37.480  1.00  0.00     0.060 A 
BRANCH  90  91
ATOM     91  S   UNL A   1      41.534  36.813  38.792  1.00  0.00     0.124 S 
ATOM     92  O   UNL A   1      41.728  35.974  39.970  1.00  0.00    -0.237 OA
ATOM     93  O   UNL A   1      42.691  37.602  38.378  1.00  0.00    -0.237 OA
ATOM     94  O   UNL A   1      40.252  37.508  38.719  1.00  0.00    -0.744 OA
ENDBRANCH  90  91
ENDBRANCH  58  83
ENDBRANCH  32  33
ENDBRANCH  25  27
ENDBRANCH  24  25
ENDBRANCH   1  24
TORSDOF 15
ENDMDL
