MODEL 1
REMARK VINA RESULT:     -13.2      0.000      0.000
REMARK SMILES O=C(OCCOC(=O)c1nnn(-c2ccccc2C(F)(F)F)c1-c1cccc(Cl)c1)c1ccc(-c2c3nc(c(-c4c(F)cc(S(=O)(=O)[O-])cc4F)c4ccc([nH]4)c(-c4c(F)cc(S(=O)(=O)[O-])cc4F)c4nc(c(-c5c(F)cc(S(=O)(=O)[O-])cc5F)c5ccc2[nH]5)C=C4)C=C3)cc1
REMARK SMILES IDX 4 1 3 2 2 3 1 4 31 5 32 6 96 7 33 8 95 9 34 10 35 11 36 12
REMARK SMILES IDX 89 13 37 14 94 15 88 16 90 17 38 18 93 19 87 20 86 21 39 23
REMARK SMILES IDX 73 24 52 25 72 26 53 27 56 28 71 29 91 30 54 31 55 32 70 34
REMARK SMILES IDX 92 35 57 36 40 37 41 38 50 39 42 40 43 41 49 42 51 43 44 44
REMARK SMILES IDX 45 45 46 46 47 47 48 48 74 49 75 50 84 51 76 52 77 53 83 54
REMARK SMILES IDX 85 55 78 56 79 57 80 58 81 59 82 60 58 61 59 62 68 63 60 64
REMARK SMILES IDX 61 65 67 66 69 67 62 68 63 69 64 70 65 71 66 72 5 73 6 74
REMARK SMILES IDX 7 75 8 76 9 77 10 78 23 79 11 80 12 81 24 82 25 83 30 84
REMARK SMILES IDX 26 85 28 86 27 87 29 88 13 89 14 90 18 91 15 92 17 93 16 94
REMARK SMILES IDX 19 95 20 96 21 97 22 98
REMARK H PARENT 90 22 56 33
REMARK Flexibility Score: inf
ROOT
ATOM      1  C   UNL A   1      32.270  29.349  27.230  1.00  0.00     0.275 C 
ENDROOT
BRANCH   1   2
ATOM      2  O   UNL A   1      33.388  30.100  26.715  1.00  0.00    -0.458 OA
BRANCH   2   3
ATOM      3  C   UNL A   1      33.960  31.033  27.512  1.00  0.00     0.338 C 
ATOM      4  O   UNL A   1      33.363  31.974  28.003  1.00  0.00    -0.246 OA
BRANCH   3   5
ATOM      5  C   UNL A   1      35.376  30.700  27.798  1.00  0.00     0.060 A 
ATOM      6  C   UNL A   1      35.868  29.402  27.616  1.00  0.00     0.016 A 
ATOM      7  C   UNL A   1      36.223  31.718  28.252  1.00  0.00     0.016 A 
ATOM      8  C   UNL A   1      37.178  29.102  27.950  1.00  0.00     0.010 A 
ATOM      9  C   UNL A   1      37.537  31.416  28.595  1.00  0.00     0.010 A 
ATOM     10  C   UNL A   1      37.997  30.101  28.475  1.00  0.00    -0.014 A 
BRANCH  10  11
ATOM     11  C   UNL A   1      39.347  29.711  28.867  1.00  0.00     0.031 A 
ATOM     12  C   UNL A   1      39.662  29.767  30.320  1.00  0.00     0.074 A 
ATOM     13  C   UNL A   1      40.232  29.222  27.976  1.00  0.00     0.049 A 
ATOM     14  N   UNL A   1      40.616  30.410  30.915  1.00  0.00    -0.248 NA
ATOM     15  C   UNL A   1      38.760  29.055  31.238  1.00  0.00     0.031 C 
ATOM     16  C   UNL A   1      39.964  28.854  26.584  1.00  0.00     0.029 A 
ATOM     17  N   UNL A   1      41.526  28.829  28.163  1.00  0.00    -0.354 N 
ATOM     18  C   UNL A   1      40.578  30.004  32.248  1.00  0.00     0.074 A 
ATOM     19  C   UNL A   1      39.339  29.288  32.416  1.00  0.00     0.031 C 
ATOM     20  C   UNL A   1      40.975  28.085  26.131  1.00  0.00     0.029 A 
ATOM     21  C   UNL A   1      42.003  28.000  27.155  1.00  0.00     0.049 A 
ATOM     22  H   UNL A   1      42.068  29.105  28.937  1.00  0.00     0.167 HD
ATOM     23  C   UNL A   1      41.674  30.081  33.055  1.00  0.00     0.037 A 
ATOM     24  C   UNL A   1      43.112  27.221  27.194  1.00  0.00     0.037 A 
ATOM     25  C   UNL A   1      42.631  31.042  32.567  1.00  0.00     0.049 A 
ATOM     26  C   UNL A   1      44.010  27.754  28.249  1.00  0.00     0.074 A 
ATOM     27  C   UNL A   1      42.592  32.385  32.241  1.00  0.00     0.029 A 
ATOM     28  N   UNL A   1      43.825  30.581  32.066  1.00  0.00    -0.354 N 
ATOM     29  N   UNL A   1      44.643  28.893  28.176  1.00  0.00    -0.248 NA
ATOM     30  C   UNL A   1      43.932  27.173  29.582  1.00  0.00     0.031 C 
ATOM     31  C   UNL A   1      43.517  32.540  31.167  1.00  0.00     0.029 A 
ATOM     32  C   UNL A   1      44.082  31.289  30.923  1.00  0.00     0.049 A 
ATOM     33  H   UNL A   1      44.389  29.876  32.457  1.00  0.00     0.167 HD
ATOM     34  C   UNL A   1      44.668  29.368  29.477  1.00  0.00     0.074 A 
ATOM     35  C   UNL A   1      44.337  28.217  30.307  1.00  0.00     0.031 C 
ATOM     36  C   UNL A   1      44.677  30.709  29.740  1.00  0.00     0.037 A 
BRANCH  23  37
ATOM     37  C   UNL A   1      42.054  29.004  34.058  1.00  0.00     0.058 A 
ATOM     38  C   UNL A   1      42.171  27.667  33.618  1.00  0.00     0.135 A 
ATOM     39  C   UNL A   1      41.973  29.175  35.458  1.00  0.00     0.135 A 
ATOM     40  F   UNL A   1      42.279  27.383  32.311  1.00  0.00    -0.206 F 
ATOM     41  C   UNL A   1      42.073  26.581  34.491  1.00  0.00     0.059 A 
ATOM     42  C   UNL A   1      41.931  28.109  36.349  1.00  0.00     0.059 A 
ATOM     43  F   UNL A   1      41.831  30.376  36.030  1.00  0.00    -0.206 F 
ATOM     44  C   UNL A   1      41.917  26.817  35.852  1.00  0.00     0.060 A 
BRANCH  44  45
ATOM     45  S   UNL A   1      41.602  25.435  36.964  1.00  0.00     0.124 S 
ATOM     46  O   UNL A   1      42.834  25.415  37.745  1.00  0.00    -0.237 OA
ATOM     47  O   UNL A   1      40.403  25.877  37.668  1.00  0.00    -0.237 OA
ATOM     48  O   UNL A   1      41.409  24.313  36.051  1.00  0.00    -0.744 OA
ENDBRANCH  44  45
ENDBRANCH  23  37
BRANCH  24  49
ATOM     49  C   UNL A   1      43.306  25.885  26.572  1.00  0.00     0.058 A 
ATOM     50  C   UNL A   1      44.281  25.677  25.581  1.00  0.00     0.135 A 
ATOM     51  C   UNL A   1      42.714  24.723  27.111  1.00  0.00     0.135 A 
ATOM     52  F   UNL A   1      44.921  26.721  25.032  1.00  0.00    -0.206 F 
ATOM     53  C   UNL A   1      44.672  24.396  25.176  1.00  0.00     0.059 A 
ATOM     54  C   UNL A   1      43.069  23.439  26.707  1.00  0.00     0.059 A 
ATOM     55  F   UNL A   1      41.832  24.792  28.119  1.00  0.00    -0.206 F 
ATOM     56  C   UNL A   1      44.069  23.280  25.756  1.00  0.00     0.060 A 
BRANCH  56  57
ATOM     57  S   UNL A   1      44.676  21.627  25.359  1.00  0.00     0.124 S 
ATOM     58  O   UNL A   1      44.503  21.581  23.911  1.00  0.00    -0.237 OA
ATOM     59  O   UNL A   1      46.053  21.681  25.835  1.00  0.00    -0.237 OA
ATOM     60  O   UNL A   1      43.791  20.748  26.120  1.00  0.00    -0.744 OA
ENDBRANCH  56  57
ENDBRANCH  24  49
BRANCH  36  61
ATOM     61  C   UNL A   1      45.065  31.654  28.636  1.00  0.00     0.058 A 
ATOM     62  C   UNL A   1      44.249  31.965  27.535  1.00  0.00     0.135 A 
ATOM     63  C   UNL A   1      46.266  32.370  28.769  1.00  0.00     0.135 A 
ATOM     64  F   UNL A   1      43.035  31.414  27.397  1.00  0.00    -0.206 F 
ATOM     65  C   UNL A   1      44.638  32.904  26.579  1.00  0.00     0.059 A 
ATOM     66  C   UNL A   1      46.656  33.336  27.846  1.00  0.00     0.059 A 
ATOM     67  F   UNL A   1      47.057  32.167  29.836  1.00  0.00    -0.206 F 
ATOM     68  C   UNL A   1      45.844  33.586  26.742  1.00  0.00     0.060 A 
BRANCH  68  69
ATOM     69  S   UNL A   1      46.304  34.856  25.545  1.00  0.00     0.124 S 
ATOM     70  O   UNL A   1      45.396  34.578  24.437  1.00  0.00    -0.237 OA
ATOM     71  O   UNL A   1      46.051  36.093  26.279  1.00  0.00    -0.237 OA
ATOM     72  O   UNL A   1      47.715  34.581  25.280  1.00  0.00    -0.744 OA
ENDBRANCH  68  69
ENDBRANCH  36  61
ENDBRANCH  10  11
ENDBRANCH   3   5
ENDBRANCH   2   3
ENDBRANCH   1   2
BRANCH   1  73
ATOM     73  C   UNL A   1      31.618  28.339  26.290  1.00  0.00     0.275 C 
BRANCH  73  74
ATOM     74  O   UNL A   1      31.226  27.167  27.024  1.00  0.00    -0.457 OA
BRANCH  74  75
ATOM     75  C   UNL A   1      30.780  26.121  26.266  1.00  0.00     0.361 C 
ATOM     76  O   UNL A   1      29.669  26.046  25.760  1.00  0.00    -0.244 OA
BRANCH  75  77
ATOM     77  C   UNL A   1      31.685  24.997  26.317  1.00  0.00     0.198 A 
ATOM     78  N   UNL A   1      31.765  24.081  27.331  1.00  0.00    -0.122 NA
ATOM     79  C   UNL A   1      32.602  24.682  25.329  1.00  0.00     0.109 A 
ATOM     80  N   UNL A   1      32.735  23.222  27.029  1.00  0.00    -0.061 NA
ATOM     81  N   UNL A   1      33.356  23.684  25.923  1.00  0.00    -0.211 N 
BRANCH  79  82
ATOM     82  C   UNL A   1      32.781  25.218  23.986  1.00  0.00     0.004 A 
ATOM     83  C   UNL A   1      32.326  24.499  22.872  1.00  0.00     0.010 A 
ATOM     84  C   UNL A   1      33.374  26.471  23.793  1.00  0.00     0.031 A 
ATOM     85  C   UNL A   1      32.489  25.009  21.583  1.00  0.00     0.002 A 
ATOM     86  C   UNL A   1      33.535  26.975  22.505  1.00  0.00     0.041 A 
ATOM     87  C   UNL A   1      33.099  26.248  21.399  1.00  0.00     0.020 A 
ATOM     88  Cl  UNL A   1      34.283  28.508  22.277  1.00  0.00    -0.084 Cl
ENDBRANCH  79  82
BRANCH  81  89
ATOM     89  C   UNL A   1      34.578  23.152  25.460  1.00  0.00     0.079 A 
ATOM     90  C   UNL A   1      35.731  23.929  25.636  1.00  0.00     0.029 A 
ATOM     91  C   UNL A   1      34.659  21.834  24.962  1.00  0.00     0.081 A 
ATOM     92  C   UNL A   1      36.984  23.356  25.422  1.00  0.00     0.002 A 
ATOM     93  C   UNL A   1      35.937  21.279  24.766  1.00  0.00     0.015 A 
ATOM     94  C   UNL A   1      37.088  22.027  25.011  1.00  0.00     0.001 A 
BRANCH  91  95
ATOM     95  C   UNL A   1      33.467  21.003  24.535  1.00  0.00     0.418 C 
ATOM     96  F   UNL A   1      33.837  19.757  24.120  1.00  0.00    -0.166 F 
ATOM     97  F   UNL A   1      32.590  20.794  25.556  1.00  0.00    -0.166 F 
ATOM     98  F   UNL A   1      32.741  21.517  23.510  1.00  0.00    -0.166 F 
ENDBRANCH  91  95
ENDBRANCH  81  89
ENDBRANCH  75  77
ENDBRANCH  74  75
ENDBRANCH  73  74
ENDBRANCH   1  73
TORSDOF 17
ENDMDL
MODEL 2
REMARK VINA RESULT:     -13.0      3.240      9.009
REMARK SMILES O=C(OCCOC(=O)c1nnn(-c2ccccc2C(F)(F)F)c1-c1cccc(Cl)c1)c1ccc(-c2c3nc(c(-c4c(F)cc(S(=O)(=O)[O-])cc4F)c4ccc([nH]4)c(-c4c(F)cc(S(=O)(=O)[O-])cc4F)c4nc(c(-c5c(F)cc(S(=O)(=O)[O-])cc5F)c5ccc2[nH]5)C=C4)C=C3)cc1
REMARK SMILES IDX 4 1 3 2 2 3 1 4 31 5 32 6 96 7 33 8 95 9 34 10 35 11 36 12
REMARK SMILES IDX 89 13 37 14 94 15 88 16 90 17 38 18 93 19 87 20 86 21 39 23
REMARK SMILES IDX 73 24 52 25 72 26 53 27 56 28 71 29 91 30 54 31 55 32 70 34
REMARK SMILES IDX 92 35 57 36 40 37 41 38 50 39 42 40 43 41 49 42 51 43 44 44
REMARK SMILES IDX 45 45 46 46 47 47 48 48 74 49 75 50 84 51 76 52 77 53 83 54
REMARK SMILES IDX 85 55 78 56 79 57 80 58 81 59 82 60 58 61 59 62 68 63 60 64
REMARK SMILES IDX 61 65 67 66 69 67 62 68 63 69 64 70 65 71 66 72 5 73 6 74
REMARK SMILES IDX 7 75 8 76 9 77 10 78 23 79 11 80 12 81 24 82 25 83 30 84
REMARK SMILES IDX 26 85 28 86 27 87 29 88 13 89 14 90 18 91 15 92 17 93 16 94
REMARK SMILES IDX 19 95 20 96 21 97 22 98
REMARK H PARENT 90 22 56 33
REMARK Flexibility Score: inf
ROOT
ATOM      1  C   UNL A   1      37.041  22.454  24.198  1.00  0.00     0.275 C 
ENDROOT
BRANCH   1   2
ATOM      2  O   UNL A   1      37.322  22.321  25.606  1.00  0.00    -0.458 OA
BRANCH   2   3
ATOM      3  C   UNL A   1      38.598  22.088  25.991  1.00  0.00     0.338 C 
ATOM      4  O   UNL A   1      39.227  21.084  25.705  1.00  0.00    -0.246 OA
BRANCH   3   5
ATOM      5  C   UNL A   1      39.166  23.255  26.707  1.00  0.00     0.060 A 
ATOM      6  C   UNL A   1      38.507  24.492  26.717  1.00  0.00     0.016 A 
ATOM      7  C   UNL A   1      40.380  23.099  27.384  1.00  0.00     0.016 A 
ATOM      8  C   UNL A   1      39.087  25.583  27.340  1.00  0.00     0.010 A 
ATOM      9  C   UNL A   1      40.968  24.197  28.003  1.00  0.00     0.010 A 
ATOM     10  C   UNL A   1      40.335  25.441  27.947  1.00  0.00    -0.014 A 
BRANCH  10  11
ATOM     11  C   UNL A   1      40.926  26.641  28.532  1.00  0.00     0.031 A 
ATOM     12  C   UNL A   1      42.172  27.149  27.896  1.00  0.00     0.074 A 
ATOM     13  C   UNL A   1      40.320  27.319  29.526  1.00  0.00     0.049 A 
ATOM     14  N   UNL A   1      43.323  27.373  28.445  1.00  0.00    -0.248 NA
ATOM     15  C   UNL A   1      42.146  27.384  26.445  1.00  0.00     0.031 C 
ATOM     16  C   UNL A   1      38.969  27.092  30.046  1.00  0.00     0.029 A 
ATOM     17  N   UNL A   1      40.732  28.436  30.194  1.00  0.00    -0.354 N 
ATOM     18  C   UNL A   1      44.098  27.994  27.465  1.00  0.00     0.074 A 
ATOM     19  C   UNL A   1      43.378  27.845  26.227  1.00  0.00     0.031 C 
ATOM     20  C   UNL A   1      38.590  28.169  30.766  1.00  0.00     0.029 A 
ATOM     21  C   UNL A   1      39.703  29.102  30.847  1.00  0.00     0.049 A 
ATOM     22  H   UNL A   1      41.668  28.741  30.209  1.00  0.00     0.167 HD
ATOM     23  C   UNL A   1      45.158  28.789  27.784  1.00  0.00     0.037 A 
ATOM     24  C   UNL A   1      39.727  30.366  31.335  1.00  0.00     0.037 A 
ATOM     25  C   UNL A   1      45.664  28.503  29.104  1.00  0.00     0.049 A 
ATOM     26  C   UNL A   1      41.147  30.757  31.526  1.00  0.00     0.074 A 
ATOM     27  C   UNL A   1      46.125  27.372  29.752  1.00  0.00     0.029 A 
ATOM     28  N   UNL A   1      45.483  29.440  30.092  1.00  0.00    -0.354 N 
ATOM     29  N   UNL A   1      41.940  30.245  32.427  1.00  0.00    -0.248 NA
ATOM     30  C   UNL A   1      41.812  31.486  30.456  1.00  0.00     0.031 C 
ATOM     31  C   UNL A   1      45.742  27.536  31.116  1.00  0.00     0.029 A 
ATOM     32  C   UNL A   1      45.095  28.767  31.220  1.00  0.00     0.049 A 
ATOM     33  H   UNL A   1      45.609  30.412  30.006  1.00  0.00     0.167 HD
ATOM     34  C   UNL A   1      43.189  30.222  31.827  1.00  0.00     0.074 A 
ATOM     35  C   UNL A   1      43.073  31.112  30.678  1.00  0.00     0.031 C 
ATOM     36  C   UNL A   1      44.111  29.269  32.152  1.00  0.00     0.037 A 
BRANCH  23  37
ATOM     37  C   UNL A   1      45.479  30.088  27.064  1.00  0.00     0.058 A 
ATOM     38  C   UNL A   1      46.827  30.409  26.796  1.00  0.00     0.135 A 
ATOM     39  C   UNL A   1      44.565  31.158  26.936  1.00  0.00     0.135 A 
ATOM     40  F   UNL A   1      47.782  29.468  26.862  1.00  0.00    -0.206 F 
ATOM     41  C   UNL A   1      47.252  31.719  26.560  1.00  0.00     0.059 A 
ATOM     42  C   UNL A   1      44.960  32.459  26.646  1.00  0.00     0.059 A 
ATOM     43  F   UNL A   1      43.258  31.022  27.182  1.00  0.00    -0.206 F 
ATOM     44  C   UNL A   1      46.310  32.741  26.523  1.00  0.00     0.060 A 
BRANCH  44  45
ATOM     45  S   UNL A   1      46.860  34.452  26.407  1.00  0.00     0.124 S 
ATOM     46  O   UNL A   1      45.622  35.120  26.021  1.00  0.00    -0.237 OA
ATOM     47  O   UNL A   1      47.333  34.713  27.763  1.00  0.00    -0.237 OA
ATOM     48  O   UNL A   1      47.899  34.398  25.385  1.00  0.00    -0.744 OA
ENDBRANCH  44  45
ENDBRANCH  23  37
BRANCH  24  49
ATOM     49  C   UNL A   1      38.610  31.347  31.373  1.00  0.00     0.058 A 
ATOM     50  C   UNL A   1      37.977  31.776  30.194  1.00  0.00     0.135 A 
ATOM     51  C   UNL A   1      37.969  31.695  32.581  1.00  0.00     0.135 A 
ATOM     52  F   UNL A   1      38.496  31.466  28.996  1.00  0.00    -0.206 F 
ATOM     53  C   UNL A   1      36.765  32.475  30.210  1.00  0.00     0.059 A 
ATOM     54  C   UNL A   1      36.776  32.410  32.623  1.00  0.00     0.059 A 
ATOM     55  F   UNL A   1      38.434  31.270  33.765  1.00  0.00    -0.206 F 
ATOM     56  C   UNL A   1      36.164  32.775  31.432  1.00  0.00     0.060 A 
BRANCH  56  57
ATOM     57  S   UNL A   1      34.525  33.533  31.459  1.00  0.00     0.124 S 
ATOM     58  O   UNL A   1      34.084  33.352  30.081  1.00  0.00    -0.237 OA
ATOM     59  O   UNL A   1      33.831  32.732  32.461  1.00  0.00    -0.237 OA
ATOM     60  O   UNL A   1      34.796  34.915  31.850  1.00  0.00    -0.744 OA
ENDBRANCH  56  57
ENDBRANCH  24  49
BRANCH  36  61
ATOM     61  C   UNL A   1      43.930  28.503  33.434  1.00  0.00     0.058 A 
ATOM     62  C   UNL A   1      44.478  28.884  34.670  1.00  0.00     0.135 A 
ATOM     63  C   UNL A   1      43.058  27.402  33.429  1.00  0.00     0.135 A 
ATOM     64  F   UNL A   1      45.225  29.992  34.783  1.00  0.00    -0.206 F 
ATOM     65  C   UNL A   1      44.216  28.167  35.838  1.00  0.00     0.059 A 
ATOM     66  C   UNL A   1      42.755  26.694  34.588  1.00  0.00     0.059 A 
ATOM     67  F   UNL A   1      42.449  27.029  32.291  1.00  0.00    -0.206 F 
ATOM     68  C   UNL A   1      43.352  27.072  35.789  1.00  0.00     0.060 A 
BRANCH  68  69
ATOM     69  S   UNL A   1      42.954  26.198  37.317  1.00  0.00     0.124 S 
ATOM     70  O   UNL A   1      43.383  24.837  37.013  1.00  0.00    -0.237 OA
ATOM     71  O   UNL A   1      43.754  26.910  38.310  1.00  0.00    -0.237 OA
ATOM     72  O   UNL A   1      41.511  26.383  37.449  1.00  0.00    -0.744 OA
ENDBRANCH  68  69
ENDBRANCH  36  61
ENDBRANCH  10  11
ENDBRANCH   3   5
ENDBRANCH   2   3
ENDBRANCH   1   2
BRANCH   1  73
ATOM     73  C   UNL A   1      35.574  22.458  23.777  1.00  0.00     0.275 C 
BRANCH  73  74
ATOM     74  O   UNL A   1      35.337  23.517  22.834  1.00  0.00    -0.457 OA
BRANCH  74  75
ATOM     75  C   UNL A   1      34.023  23.787  22.573  1.00  0.00     0.361 C 
ATOM     76  O   UNL A   1      33.256  23.038  21.984  1.00  0.00    -0.244 OA
BRANCH  75  77
ATOM     77  C   UNL A   1      33.690  25.162  22.867  1.00  0.00     0.198 A 
ATOM     78  N   UNL A   1      33.980  26.240  22.075  1.00  0.00    -0.122 NA
ATOM     79  C   UNL A   1      33.013  25.581  23.999  1.00  0.00     0.109 A 
ATOM     80  N   UNL A   1      33.543  27.332  22.698  1.00  0.00    -0.061 NA
ATOM     81  N   UNL A   1      33.128  26.960  23.927  1.00  0.00    -0.211 N 
BRANCH  79  82
ATOM     82  C   UNL A   1      32.330  24.823  25.039  1.00  0.00     0.004 A 
ATOM     83  C   UNL A   1      30.931  24.849  25.127  1.00  0.00     0.010 A 
ATOM     84  C   UNL A   1      33.056  24.033  25.937  1.00  0.00     0.031 A 
ATOM     85  C   UNL A   1      30.269  24.121  26.117  1.00  0.00     0.002 A 
ATOM     86  C   UNL A   1      32.391  23.309  26.924  1.00  0.00     0.041 A 
ATOM     87  C   UNL A   1      31.001  23.353  27.020  1.00  0.00     0.020 A 
ATOM     88  Cl  UNL A   1      33.293  22.356  28.036  1.00  0.00    -0.084 Cl
ENDBRANCH  79  82
BRANCH  81  89
ATOM     89  C   UNL A   1      32.824  27.893  24.941  1.00  0.00     0.079 A 
ATOM     90  C   UNL A   1      33.658  27.922  26.066  1.00  0.00     0.029 A 
ATOM     91  C   UNL A   1      31.800  28.850  24.769  1.00  0.00     0.081 A 
ATOM     92  C   UNL A   1      33.551  28.976  26.973  1.00  0.00     0.002 A 
ATOM     93  C   UNL A   1      31.724  29.907  25.694  1.00  0.00     0.015 A 
ATOM     94  C   UNL A   1      32.602  29.979  26.775  1.00  0.00     0.001 A 
BRANCH  91  95
ATOM     95  C   UNL A   1      30.720  28.771  23.711  1.00  0.00     0.418 C 
ATOM     96  F   UNL A   1      29.657  29.574  24.007  1.00  0.00    -0.166 F 
ATOM     97  F   UNL A   1      31.158  29.193  22.492  1.00  0.00    -0.166 F 
ATOM     98  F   UNL A   1      30.189  27.537  23.517  1.00  0.00    -0.166 F 
ENDBRANCH  91  95
ENDBRANCH  81  89
ENDBRANCH  75  77
ENDBRANCH  74  75
ENDBRANCH  73  74
ENDBRANCH   1  73
TORSDOF 17
ENDMDL
MODEL 3
REMARK VINA RESULT:     -12.7      2.992      8.937
REMARK SMILES O=C(OCCOC(=O)c1nnn(-c2ccccc2C(F)(F)F)c1-c1cccc(Cl)c1)c1ccc(-c2c3nc(c(-c4c(F)cc(S(=O)(=O)[O-])cc4F)c4ccc([nH]4)c(-c4c(F)cc(S(=O)(=O)[O-])cc4F)c4nc(c(-c5c(F)cc(S(=O)(=O)[O-])cc5F)c5ccc2[nH]5)C=C4)C=C3)cc1
REMARK SMILES IDX 4 1 3 2 2 3 1 4 31 5 32 6 96 7 33 8 95 9 34 10 35 11 36 12
REMARK SMILES IDX 89 13 37 14 94 15 88 16 90 17 38 18 93 19 87 20 86 21 39 23
REMARK SMILES IDX 73 24 52 25 72 26 53 27 56 28 71 29 91 30 54 31 55 32 70 34
REMARK SMILES IDX 92 35 57 36 40 37 41 38 50 39 42 40 43 41 49 42 51 43 44 44
REMARK SMILES IDX 45 45 46 46 47 47 48 48 74 49 75 50 84 51 76 52 77 53 83 54
REMARK SMILES IDX 85 55 78 56 79 57 80 58 81 59 82 60 58 61 59 62 68 63 60 64
REMARK SMILES IDX 61 65 67 66 69 67 62 68 63 69 64 70 65 71 66 72 5 73 6 74
REMARK SMILES IDX 7 75 8 76 9 77 10 78 23 79 11 80 12 81 24 82 25 83 30 84
REMARK SMILES IDX 26 85 28 86 27 87 29 88 13 89 14 90 18 91 15 92 17 93 16 94
REMARK SMILES IDX 19 95 20 96 21 97 22 98
REMARK H PARENT 90 22 56 33
REMARK Flexibility Score: inf
ROOT
ATOM      1  C   UNL A   1      36.408  21.486  25.308  1.00  0.00     0.275 C 
ENDROOT
BRANCH   1   2
ATOM      2  O   UNL A   1      37.424  22.505  25.399  1.00  0.00    -0.458 OA
BRANCH   2   3
ATOM      3  C   UNL A   1      38.605  22.189  25.981  1.00  0.00     0.338 C 
ATOM      4  O   UNL A   1      39.171  21.119  25.844  1.00  0.00    -0.246 OA
BRANCH   3   5
ATOM      5  C   UNL A   1      39.170  23.347  26.714  1.00  0.00     0.060 A 
ATOM      6  C   UNL A   1      38.548  24.601  26.681  1.00  0.00     0.016 A 
ATOM      7  C   UNL A   1      40.345  23.162  27.451  1.00  0.00     0.016 A 
ATOM      8  C   UNL A   1      39.129  25.682  27.321  1.00  0.00     0.010 A 
ATOM      9  C   UNL A   1      40.934  24.249  28.089  1.00  0.00     0.010 A 
ATOM     10  C   UNL A   1      40.341  25.511  27.991  1.00  0.00    -0.014 A 
BRANCH  10  11
ATOM     11  C   UNL A   1      40.937  26.699  28.593  1.00  0.00     0.031 A 
ATOM     12  C   UNL A   1      42.181  27.214  27.960  1.00  0.00     0.074 A 
ATOM     13  C   UNL A   1      40.337  27.361  29.602  1.00  0.00     0.049 A 
ATOM     14  N   UNL A   1      43.336  27.427  28.508  1.00  0.00    -0.248 NA
ATOM     15  C   UNL A   1      42.150  27.475  26.514  1.00  0.00     0.031 C 
ATOM     16  C   UNL A   1      38.988  27.129  30.124  1.00  0.00     0.029 A 
ATOM     17  N   UNL A   1      40.755  28.466  30.286  1.00  0.00    -0.354 N 
ATOM     18  C   UNL A   1      44.108  28.063  27.535  1.00  0.00     0.074 A 
ATOM     19  C   UNL A   1      43.382  27.937  26.298  1.00  0.00     0.031 C 
ATOM     20  C   UNL A   1      38.615  28.194  30.864  1.00  0.00     0.029 A 
ATOM     21  C   UNL A   1      39.731  29.122  30.956  1.00  0.00     0.049 A 
ATOM     22  H   UNL A   1      41.692  28.768  30.303  1.00  0.00     0.167 HD
ATOM     23  C   UNL A   1      45.171  28.849  27.863  1.00  0.00     0.037 A 
ATOM     24  C   UNL A   1      39.760  30.378  31.465  1.00  0.00     0.037 A 
ATOM     25  C   UNL A   1      45.683  28.539  29.175  1.00  0.00     0.049 A 
ATOM     26  C   UNL A   1      41.182  30.763  31.656  1.00  0.00     0.074 A 
ATOM     27  C   UNL A   1      46.144  27.397  29.802  1.00  0.00     0.029 A 
ATOM     28  N   UNL A   1      45.508  29.460  30.180  1.00  0.00    -0.354 N 
ATOM     29  N   UNL A   1      41.977  30.234  32.544  1.00  0.00    -0.248 NA
ATOM     30  C   UNL A   1      41.844  31.509  30.596  1.00  0.00     0.031 C 
ATOM     31  C   UNL A   1      45.767  27.538  31.170  1.00  0.00     0.029 A 
ATOM     32  C   UNL A   1      45.124  28.769  31.298  1.00  0.00     0.049 A 
ATOM     33  H   UNL A   1      45.636  30.434  30.110  1.00  0.00     0.167 HD
ATOM     34  C   UNL A   1      43.224  30.218  31.938  1.00  0.00     0.074 A 
ATOM     35  C   UNL A   1      43.105  31.127  30.806  1.00  0.00     0.031 C 
ATOM     36  C   UNL A   1      44.145  29.258  32.243  1.00  0.00     0.037 A 
BRANCH  23  37
ATOM     37  C   UNL A   1      45.492  30.159  27.164  1.00  0.00     0.058 A 
ATOM     38  C   UNL A   1      46.840  30.482  26.894  1.00  0.00     0.135 A 
ATOM     39  C   UNL A   1      44.581  31.235  27.059  1.00  0.00     0.135 A 
ATOM     40  F   UNL A   1      47.792  29.537  26.939  1.00  0.00    -0.206 F 
ATOM     41  C   UNL A   1      47.267  31.794  26.679  1.00  0.00     0.059 A 
ATOM     42  C   UNL A   1      44.978  32.540  26.789  1.00  0.00     0.059 A 
ATOM     43  F   UNL A   1      43.274  31.098  27.309  1.00  0.00    -0.206 F 
ATOM     44  C   UNL A   1      46.328  32.819  26.665  1.00  0.00     0.060 A 
BRANCH  44  45
ATOM     45  S   UNL A   1      46.882  34.531  26.575  1.00  0.00     0.124 S 
ATOM     46  O   UNL A   1      47.504  34.558  25.256  1.00  0.00    -0.237 OA
ATOM     47  O   UNL A   1      45.626  35.264  26.707  1.00  0.00    -0.237 OA
ATOM     48  O   UNL A   1      47.791  34.645  27.710  1.00  0.00    -0.744 OA
ENDBRANCH  44  45
ENDBRANCH  23  37
BRANCH  24  49
ATOM     49  C   UNL A   1      38.646  31.361  31.524  1.00  0.00     0.058 A 
ATOM     50  C   UNL A   1      38.055  31.865  30.353  1.00  0.00     0.135 A 
ATOM     51  C   UNL A   1      37.965  31.638  32.729  1.00  0.00     0.135 A 
ATOM     52  F   UNL A   1      38.614  31.625  29.156  1.00  0.00    -0.206 F 
ATOM     53  C   UNL A   1      36.845  32.568  30.371  1.00  0.00     0.059 A 
ATOM     54  C   UNL A   1      36.773  32.356  32.774  1.00  0.00     0.059 A 
ATOM     55  F   UNL A   1      38.388  31.140  33.900  1.00  0.00    -0.206 F 
ATOM     56  C   UNL A   1      36.203  32.796  31.587  1.00  0.00     0.060 A 
BRANCH  56  57
ATOM     57  S   UNL A   1      34.567  33.560  31.605  1.00  0.00     0.124 S 
ATOM     58  O   UNL A   1      34.877  34.931  31.995  1.00  0.00    -0.237 OA
ATOM     59  O   UNL A   1      34.123  33.372  30.229  1.00  0.00    -0.237 OA
ATOM     60  O   UNL A   1      33.839  32.779  32.603  1.00  0.00    -0.744 OA
ENDBRANCH  56  57
ENDBRANCH  24  49
BRANCH  36  61
ATOM     61  C   UNL A   1      43.968  28.470  33.512  1.00  0.00     0.058 A 
ATOM     62  C   UNL A   1      44.505  28.839  34.757  1.00  0.00     0.135 A 
ATOM     63  C   UNL A   1      43.110  27.359  33.487  1.00  0.00     0.135 A 
ATOM     64  F   UNL A   1      45.238  29.955  34.890  1.00  0.00    -0.206 F 
ATOM     65  C   UNL A   1      44.247  28.102  35.913  1.00  0.00     0.059 A 
ATOM     66  C   UNL A   1      42.811  26.629  34.634  1.00  0.00     0.059 A 
ATOM     67  F   UNL A   1      42.511  26.995  32.341  1.00  0.00    -0.206 F 
ATOM     68  C   UNL A   1      43.398  26.997  35.843  1.00  0.00     0.060 A 
BRANCH  68  69
ATOM     69  S   UNL A   1      43.004  26.095  37.356  1.00  0.00     0.124 S 
ATOM     70  O   UNL A   1      43.663  26.903  38.377  1.00  0.00    -0.237 OA
ATOM     71  O   UNL A   1      41.544  26.118  37.371  1.00  0.00    -0.237 OA
ATOM     72  O   UNL A   1      43.592  24.776  37.129  1.00  0.00    -0.744 OA
ENDBRANCH  68  69
ENDBRANCH  36  61
ENDBRANCH  10  11
ENDBRANCH   3   5
ENDBRANCH   2   3
ENDBRANCH   1   2
BRANCH   1  73
ATOM     73  C   UNL A   1      34.974  21.951  25.072  1.00  0.00     0.275 C 
BRANCH  73  74
ATOM     74  O   UNL A   1      34.876  23.369  25.282  1.00  0.00    -0.457 OA
BRANCH  74  75
ATOM     75  C   UNL A   1      33.735  23.793  25.903  1.00  0.00     0.361 C 
ATOM     76  O   UNL A   1      33.452  23.579  27.073  1.00  0.00    -0.244 OA
BRANCH  75  77
ATOM     77  C   UNL A   1      32.781  24.332  24.962  1.00  0.00     0.198 A 
ATOM     78  N   UNL A   1      32.188  23.639  23.941  1.00  0.00    -0.122 NA
ATOM     79  C   UNL A   1      32.322  25.637  24.969  1.00  0.00     0.109 A 
ATOM     80  N   UNL A   1      31.401  24.483  23.279  1.00  0.00    -0.061 NA
ATOM     81  N   UNL A   1      31.617  25.717  23.780  1.00  0.00    -0.211 N 
BRANCH  79  82
ATOM     82  C   UNL A   1      32.494  26.705  25.946  1.00  0.00     0.004 A 
ATOM     83  C   UNL A   1      31.434  27.068  26.789  1.00  0.00     0.010 A 
ATOM     84  C   UNL A   1      33.727  27.354  26.082  1.00  0.00     0.031 A 
ATOM     85  C   UNL A   1      31.593  28.086  27.730  1.00  0.00     0.002 A 
ATOM     86  C   UNL A   1      33.880  28.370  27.022  1.00  0.00     0.041 A 
ATOM     87  C   UNL A   1      32.817  28.741  27.844  1.00  0.00     0.020 A 
ATOM     88  Cl  UNL A   1      35.393  29.175  27.167  1.00  0.00    -0.084 Cl
ENDBRANCH  79  82
BRANCH  81  89
ATOM     89  C   UNL A   1      31.128  26.885  23.157  1.00  0.00     0.079 A 
ATOM     90  C   UNL A   1      29.758  27.154  23.268  1.00  0.00     0.029 A 
ATOM     91  C   UNL A   1      32.006  27.816  22.560  1.00  0.00     0.081 A 
ATOM     92  C   UNL A   1      29.270  28.403  22.887  1.00  0.00     0.002 A 
ATOM     93  C   UNL A   1      31.487  29.071  22.194  1.00  0.00     0.015 A 
ATOM     94  C   UNL A   1      30.136  29.368  22.373  1.00  0.00     0.001 A 
BRANCH  91  95
ATOM     95  C   UNL A   1      33.448  27.528  22.200  1.00  0.00     0.418 C 
ATOM     96  F   UNL A   1      33.941  28.433  21.306  1.00  0.00    -0.166 F 
ATOM     97  F   UNL A   1      34.276  27.603  23.279  1.00  0.00    -0.166 F 
ATOM     98  F   UNL A   1      33.671  26.313  21.635  1.00  0.00    -0.166 F 
ENDBRANCH  91  95
ENDBRANCH  81  89
ENDBRANCH  75  77
ENDBRANCH  74  75
ENDBRANCH  73  74
ENDBRANCH   1  73
TORSDOF 17
ENDMDL
