MODEL 1
REMARK VINA RESULT:     -11.0      0.000      0.000
REMARK SMILES C/C=C/C=C/C=C/C(=O)O[C@H]1C=C(C=O)[C@@](O)(C(=O)OCCOC(=O)c2ccc(-c3c4nc(c(-c5c(F)cc(S(=O)(=O)[O-])cc5F)c5ccc([nH]5)c(-c5c(F)cc(S(=O)(=O)[O-])cc5F)c5nc(c(-c6c(F)cc(S(=O)(=O)[O-])cc6F)c6ccc3[nH]6)C=C5)C=C4)cc2)[C@]2(C)CCCC(C)(C)[C@@H]12
REMARK SMILES IDX 21 1 20 2 18 3 19 4 16 5 11 6 12 7 100 8 13 9 92 10 97 11
REMARK SMILES IDX 94 12 93 13 96 14 98 15 99 16 95 17 10 18 8 19 9 20 7 21
REMARK SMILES IDX 6 22 5 23 4 24 3 25 1 26 2 27 14 28 15 29 17 30 22 32 23 33
REMARK SMILES IDX 24 34 25 35 26 36 27 37 91 38 28 39 90 40 29 41 30 42 31 43
REMARK SMILES IDX 84 44 32 45 89 46 83 47 85 48 33 49 88 50 82 51 81 52 34 54
REMARK SMILES IDX 68 55 47 56 67 57 48 58 51 59 66 60 86 61 49 62 50 63 65 65
REMARK SMILES IDX 87 66 52 67 35 68 36 69 45 70 37 71 38 72 44 73 46 74 39 75
REMARK SMILES IDX 40 76 41 77 42 78 43 79 69 80 70 81 79 82 71 83 72 84 78 85
REMARK SMILES IDX 80 86 73 87 74 88 75 89 76 90 77 91 53 92 54 93 63 94 55 95
REMARK SMILES IDX 56 96 62 97 64 98 57 99 58 100 59 101 60 102 61 103
REMARK H PARENT 17 31 85 53 51 64
REMARK Flexibility Score: inf
ROOT
ATOM      1  C   UNL A   1      31.894  29.746  25.723  1.00  0.00     0.274 C 
ENDROOT
BRANCH   1   2
ATOM      2  O   UNL A   1      31.256  28.466  25.889  1.00  0.00    -0.460 OA
BRANCH   2   3
ATOM      3  C   UNL A   1      31.199  27.578  24.845  1.00  0.00     0.343 C 
ATOM      4  O   UNL A   1      30.471  27.693  23.869  1.00  0.00    -0.248 OA
BRANCH   3   5
ATOM      5  C   UNL A   1      32.244  26.433  25.082  1.00  0.00     0.196 C 
ATOM      6  C   UNL A   1      34.176  24.231  25.191  1.00  0.00     0.204 C 
ATOM      7  C   UNL A   1      34.468  25.543  24.489  1.00  0.00     0.028 C 
ATOM      8  C   UNL A   1      32.701  24.034  25.740  1.00  0.00     0.050 C 
ATOM      9  C   UNL A   1      33.436  26.335  24.136  1.00  0.00     0.035 C 
ATOM     10  C   UNL A   1      31.566  25.021  25.202  1.00  0.00     0.019 C 
ATOM     11  C   UNL A   1      32.240  22.583  26.109  1.00  0.00    -0.028 C 
ATOM     12  C   UNL A   1      30.442  25.029  26.286  1.00  0.00     0.011 C 
ATOM     13  C   UNL A   1      30.865  24.636  23.865  1.00  0.00     0.016 C 
ATOM     14  C   UNL A   1      31.039  22.707  27.089  1.00  0.00     0.007 C 
ATOM     15  C   UNL A   1      31.841  21.692  24.919  1.00  0.00     0.011 C 
ATOM     16  C   UNL A   1      33.377  21.854  26.868  1.00  0.00     0.011 C 
ATOM     17  C   UNL A   1      29.921  23.625  26.595  1.00  0.00     0.001 C 
BRANCH   6  18
ATOM     18  O   UNL A   1      34.592  23.143  24.350  1.00  0.00    -0.455 OA
BRANCH  18  19
ATOM     19  C   UNL A   1      35.817  22.968  23.802  1.00  0.00     0.331 C 
ATOM     20  O   UNL A   1      35.980  23.121  22.592  1.00  0.00    -0.247 OA
BRANCH  19  21
ATOM     21  C   UNL A   1      36.998  22.530  24.583  1.00  0.00     0.093 C 
ATOM     22  C   UNL A   1      37.768  23.229  25.433  1.00  0.00     0.007 C 
BRANCH  22  23
ATOM     23  C   UNL A   1      38.788  22.621  26.271  1.00  0.00     0.000 C 
ATOM     24  C   UNL A   1      39.343  21.431  25.986  1.00  0.00    -0.000 C 
BRANCH  24  25
ATOM     25  C   UNL A   1      40.438  20.852  26.738  1.00  0.00    -0.005 C 
ATOM     26  C   UNL A   1      42.514  19.450  26.907  1.00  0.00     0.035 C 
ATOM     27  C   UNL A   1      41.339  20.027  26.183  1.00  0.00    -0.030 C 
ENDBRANCH  24  25
ENDBRANCH  22  23
ENDBRANCH  19  21
ENDBRANCH  18  19
ENDBRANCH   6  18
BRANCH   9  28
ATOM     28  C   UNL A   1      33.215  26.178  22.664  1.00  0.00     0.259 C 
ATOM     29  O   UNL A   1      34.098  25.836  21.886  1.00  0.00    -0.298 OA
ENDBRANCH   9  28
BRANCH   5  30
ATOM     30  O   UNL A   1      32.857  26.725  26.380  1.00  0.00    -0.373 OA
ATOM     31  H   UNL A   1      32.237  26.494  27.090  1.00  0.00     0.212 HD
ENDBRANCH   5  30
ENDBRANCH   3   5
ENDBRANCH   2   3
ENDBRANCH   1   2
BRANCH   1  32
ATOM     32  C   UNL A   1      32.417  30.267  27.069  1.00  0.00     0.275 C 
BRANCH  32  33
ATOM     33  O   UNL A   1      33.852  30.176  27.150  1.00  0.00    -0.458 OA
BRANCH  33  34
ATOM     34  C   UNL A   1      34.471  31.313  27.538  1.00  0.00     0.338 C 
ATOM     35  O   UNL A   1      33.975  32.424  27.649  1.00  0.00    -0.246 OA
BRANCH  34  36
ATOM     36  C   UNL A   1      35.786  30.988  28.100  1.00  0.00     0.060 A 
ATOM     37  C   UNL A   1      35.885  29.749  28.727  1.00  0.00     0.016 A 
ATOM     38  C   UNL A   1      36.857  31.869  28.118  1.00  0.00     0.016 A 
ATOM     39  C   UNL A   1      37.013  29.387  29.435  1.00  0.00     0.010 A 
ATOM     40  C   UNL A   1      38.024  31.490  28.794  1.00  0.00     0.010 A 
ATOM     41  C   UNL A   1      38.097  30.257  29.472  1.00  0.00    -0.014 A 
BRANCH  41  42
ATOM     42  C   UNL A   1      39.268  29.892  30.295  1.00  0.00     0.031 A 
ATOM     43  C   UNL A   1      40.254  28.901  29.754  1.00  0.00     0.074 A 
ATOM     44  C   UNL A   1      39.468  30.485  31.487  1.00  0.00     0.049 A 
ATOM     45  N   UNL A   1      41.243  28.305  30.360  1.00  0.00    -0.248 NA
ATOM     46  C   UNL A   1      40.100  28.529  28.337  1.00  0.00     0.031 C 
ATOM     47  C   UNL A   1      38.633  31.546  32.059  1.00  0.00     0.029 A 
ATOM     48  N   UNL A   1      40.436  30.279  32.434  1.00  0.00    -0.354 N 
ATOM     49  C   UNL A   1      41.802  27.452  29.417  1.00  0.00     0.074 A 
ATOM     50  C   UNL A   1      41.039  27.605  28.198  1.00  0.00     0.031 C 
ATOM     51  C   UNL A   1      39.120  31.889  33.261  1.00  0.00     0.029 A 
ATOM     52  C   UNL A   1      40.251  31.023  33.575  1.00  0.00     0.049 A 
ATOM     53  H   UNL A   1      41.190  29.659  32.310  1.00  0.00     0.167 HD
ATOM     54  C   UNL A   1      42.855  26.617  29.568  1.00  0.00     0.037 A 
ATOM     55  C   UNL A   1      40.888  30.969  34.760  1.00  0.00     0.037 A 
ATOM     56  C   UNL A   1      43.613  26.506  30.787  1.00  0.00     0.049 A 
ATOM     57  C   UNL A   1      42.002  29.972  34.932  1.00  0.00     0.074 A 
ATOM     58  C   UNL A   1      44.690  25.683  31.059  1.00  0.00     0.029 A 
ATOM     59  N   UNL A   1      43.375  27.251  31.935  1.00  0.00    -0.354 N 
ATOM     60  N   UNL A   1      42.486  29.119  34.059  1.00  0.00    -0.248 NA
ATOM     61  C   UNL A   1      42.648  29.918  36.249  1.00  0.00     0.031 C 
ATOM     62  C   UNL A   1      45.075  25.897  32.388  1.00  0.00     0.029 A 
ATOM     63  C   UNL A   1      44.275  26.894  32.925  1.00  0.00     0.049 A 
ATOM     64  H   UNL A   1      42.671  27.932  32.030  1.00  0.00     0.167 HD
ATOM     65  C   UNL A   1      43.516  28.451  34.710  1.00  0.00     0.074 A 
ATOM     66  C   UNL A   1      43.587  29.002  36.049  1.00  0.00     0.031 C 
ATOM     67  C   UNL A   1      44.333  27.473  34.245  1.00  0.00     0.037 A 
BRANCH  54  68
ATOM     68  C   UNL A   1      43.211  25.727  28.410  1.00  0.00     0.058 A 
ATOM     69  C   UNL A   1      44.277  26.018  27.544  1.00  0.00     0.135 A 
ATOM     70  C   UNL A   1      42.477  24.554  28.173  1.00  0.00     0.135 A 
ATOM     71  F   UNL A   1      44.995  27.140  27.707  1.00  0.00    -0.206 F 
ATOM     72  C   UNL A   1      44.586  25.189  26.470  1.00  0.00     0.059 A 
ATOM     73  C   UNL A   1      42.786  23.696  27.123  1.00  0.00     0.059 A 
ATOM     74  F   UNL A   1      41.441  24.233  28.965  1.00  0.00    -0.206 F 
ATOM     75  C   UNL A   1      43.835  24.029  26.267  1.00  0.00     0.060 A 
BRANCH  75  76
ATOM     76  S   UNL A   1      44.249  22.965  24.870  1.00  0.00     0.124 S 
ATOM     77  O   UNL A   1      42.929  22.704  24.303  1.00  0.00    -0.237 OA
ATOM     78  O   UNL A   1      45.122  23.821  24.073  1.00  0.00    -0.237 OA
ATOM     79  O   UNL A   1      44.900  21.818  25.496  1.00  0.00    -0.744 OA
ENDBRANCH  75  76
ENDBRANCH  54  68
BRANCH  55  80
ATOM     80  C   UNL A   1      40.456  31.845  35.881  1.00  0.00     0.058 A 
ATOM     81  C   UNL A   1      39.284  31.575  36.602  1.00  0.00     0.135 A 
ATOM     82  C   UNL A   1      41.209  32.971  36.257  1.00  0.00     0.135 A 
ATOM     83  F   UNL A   1      38.526  30.518  36.276  1.00  0.00    -0.206 F 
ATOM     84  C   UNL A   1      38.865  32.395  37.645  1.00  0.00     0.059 A 
ATOM     85  C   UNL A   1      40.826  33.789  37.315  1.00  0.00     0.059 A 
ATOM     86  F   UNL A   1      42.345  33.268  35.608  1.00  0.00    -0.206 F 
ATOM     87  C   UNL A   1      39.645  33.499  37.996  1.00  0.00     0.060 A 
BRANCH  87  88
ATOM     88  S   UNL A   1      39.109  34.537  39.373  1.00  0.00     0.124 S 
ATOM     89  O   UNL A   1      39.015  35.845  38.736  1.00  0.00    -0.237 OA
ATOM     90  O   UNL A   1      37.844  33.917  39.751  1.00  0.00    -0.237 OA
ATOM     91  O   UNL A   1      40.188  34.385  40.347  1.00  0.00    -0.744 OA
ENDBRANCH  87  88
ENDBRANCH  55  80
BRANCH  67  92
ATOM     92  C   UNL A   1      45.409  26.977  35.169  1.00  0.00     0.058 A 
ATOM     93  C   UNL A   1      45.206  25.882  36.022  1.00  0.00     0.135 A 
ATOM     94  C   UNL A   1      46.682  27.569  35.149  1.00  0.00     0.135 A 
ATOM     95  F   UNL A   1      44.004  25.286  36.084  1.00  0.00    -0.206 F 
ATOM     96  C   UNL A   1      46.223  25.405  36.841  1.00  0.00     0.059 A 
ATOM     97  C   UNL A   1      47.722  27.090  35.937  1.00  0.00     0.059 A 
ATOM     98  F   UNL A   1      46.930  28.612  34.341  1.00  0.00    -0.206 F 
ATOM     99  C   UNL A   1      47.480  26.012  36.788  1.00  0.00     0.060 A 
BRANCH  99 100
ATOM    100  S   UNL A   1      48.804  25.352  37.820  1.00  0.00     0.124 S 
ATOM    101  O   UNL A   1      49.548  26.563  38.154  1.00  0.00    -0.237 OA
ATOM    102  O   UNL A   1      48.066  24.738  38.919  1.00  0.00    -0.237 OA
ATOM    103  O   UNL A   1      49.492  24.417  36.936  1.00  0.00    -0.744 OA
ENDBRANCH  99 100
ENDBRANCH  67  92
ENDBRANCH  41  42
ENDBRANCH  34  36
ENDBRANCH  33  34
ENDBRANCH  32  33
ENDBRANCH   1  32
TORSDOF 21
ENDMDL
MODEL 2
REMARK VINA RESULT:     -10.9      4.830     10.448
REMARK SMILES C/C=C/C=C/C=C/C(=O)O[C@H]1C=C(C=O)[C@@](O)(C(=O)OCCOC(=O)c2ccc(-c3c4nc(c(-c5c(F)cc(S(=O)(=O)[O-])cc5F)c5ccc([nH]5)c(-c5c(F)cc(S(=O)(=O)[O-])cc5F)c5nc(c(-c6c(F)cc(S(=O)(=O)[O-])cc6F)c6ccc3[nH]6)C=C5)C=C4)cc2)[C@]2(C)CCCC(C)(C)[C@@H]12
REMARK SMILES IDX 21 1 20 2 18 3 19 4 16 5 11 6 12 7 100 8 13 9 92 10 97 11
REMARK SMILES IDX 94 12 93 13 96 14 98 15 99 16 95 17 10 18 8 19 9 20 7 21
REMARK SMILES IDX 6 22 5 23 4 24 3 25 1 26 2 27 14 28 15 29 17 30 22 32 23 33
REMARK SMILES IDX 24 34 25 35 26 36 27 37 91 38 28 39 90 40 29 41 30 42 31 43
REMARK SMILES IDX 84 44 32 45 89 46 83 47 85 48 33 49 88 50 82 51 81 52 34 54
REMARK SMILES IDX 68 55 47 56 67 57 48 58 51 59 66 60 86 61 49 62 50 63 65 65
REMARK SMILES IDX 87 66 52 67 35 68 36 69 45 70 37 71 38 72 44 73 46 74 39 75
REMARK SMILES IDX 40 76 41 77 42 78 43 79 69 80 70 81 79 82 71 83 72 84 78 85
REMARK SMILES IDX 80 86 73 87 74 88 75 89 76 90 77 91 53 92 54 93 63 94 55 95
REMARK SMILES IDX 56 96 62 97 64 98 57 99 58 100 59 101 60 102 61 103
REMARK H PARENT 17 31 85 53 51 64
REMARK Flexibility Score: inf
ROOT
ATOM      1  C   UNL A   1      35.928  21.485  25.194  1.00  0.00     0.274 C 
ENDROOT
BRANCH   1   2
ATOM      2  O   UNL A   1      35.123  21.804  24.044  1.00  0.00    -0.460 OA
BRANCH   2   3
ATOM      3  C   UNL A   1      33.797  22.122  24.191  1.00  0.00     0.343 C 
ATOM      4  O   UNL A   1      32.876  21.318  24.147  1.00  0.00    -0.248 OA
BRANCH   3   5
ATOM      5  C   UNL A   1      33.662  23.659  24.474  1.00  0.00     0.196 C 
ATOM      6  C   UNL A   1      33.105  26.459  25.139  1.00  0.00     0.204 C 
ATOM      7  C   UNL A   1      33.354  25.400  26.195  1.00  0.00     0.028 C 
ATOM      8  C   UNL A   1      33.002  25.953  23.639  1.00  0.00     0.050 C 
ATOM      9  C   UNL A   1      33.210  24.102  25.861  1.00  0.00     0.035 C 
ATOM     10  C   UNL A   1      32.788  24.389  23.391  1.00  0.00     0.019 C 
ATOM     11  C   UNL A   1      32.366  26.917  22.579  1.00  0.00    -0.028 C 
ATOM     12  C   UNL A   1      33.318  24.098  21.952  1.00  0.00     0.011 C 
ATOM     13  C   UNL A   1      31.324  23.860  23.421  1.00  0.00     0.016 C 
ATOM     14  C   UNL A   1      32.856  26.459  21.176  1.00  0.00     0.007 C 
ATOM     15  C   UNL A   1      30.828  26.988  22.587  1.00  0.00     0.011 C 
ATOM     16  C   UNL A   1      32.895  28.356  22.802  1.00  0.00     0.011 C 
ATOM     17  C   UNL A   1      32.644  24.972  20.894  1.00  0.00     0.001 C 
BRANCH   6  18
ATOM     18  O   UNL A   1      31.971  27.253  25.524  1.00  0.00    -0.455 OA
BRANCH  18  19
ATOM     19  C   UNL A   1      31.787  27.877  26.710  1.00  0.00     0.331 C 
ATOM     20  O   UNL A   1      30.950  27.455  27.507  1.00  0.00    -0.247 OA
BRANCH  19  21
ATOM     21  C   UNL A   1      32.512  29.111  27.096  1.00  0.00     0.093 C 
ATOM     22  C   UNL A   1      33.826  29.304  27.297  1.00  0.00     0.007 C 
BRANCH  22  23
ATOM     23  C   UNL A   1      34.419  30.616  27.496  1.00  0.00     0.000 C 
ATOM     24  C   UNL A   1      33.694  31.693  27.840  1.00  0.00    -0.000 C 
BRANCH  24  25
ATOM     25  C   UNL A   1      34.269  32.985  28.153  1.00  0.00    -0.005 C 
ATOM     26  C   UNL A   1      34.068  35.428  28.698  1.00  0.00     0.035 C 
ATOM     27  C   UNL A   1      33.522  34.087  28.322  1.00  0.00    -0.030 C 
ENDBRANCH  24  25
ENDBRANCH  22  23
ENDBRANCH  19  21
ENDBRANCH  18  19
ENDBRANCH   6  18
BRANCH   9  28
ATOM     28  C   UNL A   1      31.903  23.625  26.413  1.00  0.00     0.259 C 
ATOM     29  O   UNL A   1      31.410  24.066  27.445  1.00  0.00    -0.298 OA
ENDBRANCH   9  28
BRANCH   5  30
ATOM     30  O   UNL A   1      35.019  24.198  24.363  1.00  0.00    -0.373 OA
ATOM     31  H   UNL A   1      35.551  23.622  23.791  1.00  0.00     0.212 HD
ENDBRANCH   5  30
ENDBRANCH   3   5
ENDBRANCH   2   3
ENDBRANCH   1   2
BRANCH   1  32
ATOM     32  C   UNL A   1      37.406  21.801  24.923  1.00  0.00     0.275 C 
BRANCH  32  33
ATOM     33  O   UNL A   1      37.946  22.694  25.915  1.00  0.00    -0.458 OA
BRANCH  33  34
ATOM     34  C   UNL A   1      39.164  22.347  26.387  1.00  0.00     0.338 C 
ATOM     35  O   UNL A   1      39.786  21.324  26.147  1.00  0.00    -0.246 OA
BRANCH  34  36
ATOM     36  C   UNL A   1      39.793  23.510  27.021  1.00  0.00     0.060 A 
ATOM     37  C   UNL A   1      39.537  24.738  26.418  1.00  0.00     0.016 A 
ATOM     38  C   UNL A   1      40.674  23.425  28.090  1.00  0.00     0.016 A 
ATOM     39  C   UNL A   1      40.192  25.887  26.814  1.00  0.00     0.010 A 
ATOM     40  C   UNL A   1      41.308  24.594  28.529  1.00  0.00     0.010 A 
ATOM     41  C   UNL A   1      41.085  25.824  27.878  1.00  0.00    -0.014 A 
BRANCH  41  42
ATOM     42  C   UNL A   1      41.836  27.042  28.244  1.00  0.00     0.031 A 
ATOM     43  C   UNL A   1      41.114  28.161  28.931  1.00  0.00     0.074 A 
ATOM     44  C   UNL A   1      43.160  27.115  28.009  1.00  0.00     0.049 A 
ATOM     45  N   UNL A   1      41.519  29.376  29.180  1.00  0.00    -0.248 NA
ATOM     46  C   UNL A   1      39.747  27.871  29.396  1.00  0.00     0.031 C 
ATOM     47  C   UNL A   1      43.984  26.040  27.449  1.00  0.00     0.029 A 
ATOM     48  N   UNL A   1      44.045  28.142  28.209  1.00  0.00    -0.354 N 
ATOM     49  C   UNL A   1      40.444  30.012  29.787  1.00  0.00     0.074 A 
ATOM     50  C   UNL A   1      39.367  29.051  29.866  1.00  0.00     0.031 C 
ATOM     51  C   UNL A   1      45.252  26.468  27.343  1.00  0.00     0.029 A 
ATOM     52  C   UNL A   1      45.313  27.866  27.753  1.00  0.00     0.049 A 
ATOM     53  H   UNL A   1      43.798  28.993  28.637  1.00  0.00     0.167 HD
ATOM     54  C   UNL A   1      40.373  31.288  30.232  1.00  0.00     0.037 A 
ATOM     55  C   UNL A   1      46.385  28.671  27.629  1.00  0.00     0.037 A 
ATOM     56  C   UNL A   1      41.472  32.215  30.164  1.00  0.00     0.049 A 
ATOM     57  C   UNL A   1      46.256  30.109  28.052  1.00  0.00     0.074 A 
ATOM     58  C   UNL A   1      41.510  33.536  30.570  1.00  0.00     0.029 A 
ATOM     59  N   UNL A   1      42.732  31.912  29.664  1.00  0.00    -0.354 N 
ATOM     60  N   UNL A   1      45.218  30.727  28.565  1.00  0.00    -0.248 NA
ATOM     61  C   UNL A   1      47.436  30.963  27.868  1.00  0.00     0.031 C 
ATOM     62  C   UNL A   1      42.780  34.046  30.273  1.00  0.00     0.029 A 
ATOM     63  C   UNL A   1      43.550  33.026  29.736  1.00  0.00     0.049 A 
ATOM     64  H   UNL A   1      43.003  31.033  29.312  1.00  0.00     0.167 HD
ATOM     65  C   UNL A   1      45.630  32.034  28.798  1.00  0.00     0.074 A 
ATOM     66  C   UNL A   1      47.013  32.116  28.372  1.00  0.00     0.031 C 
ATOM     67  C   UNL A   1      44.931  33.073  29.319  1.00  0.00     0.037 A 
BRANCH  54  68
ATOM     68  C   UNL A   1      39.056  31.764  30.777  1.00  0.00     0.058 A 
ATOM     69  C   UNL A   1      38.128  32.461  29.988  1.00  0.00     0.135 A 
ATOM     70  C   UNL A   1      38.712  31.502  32.113  1.00  0.00     0.135 A 
ATOM     71  F   UNL A   1      38.416  32.762  28.711  1.00  0.00    -0.206 F 
ATOM     72  C   UNL A   1      36.917  32.904  30.511  1.00  0.00     0.059 A 
ATOM     73  C   UNL A   1      37.495  31.911  32.650  1.00  0.00     0.059 A 
ATOM     74  F   UNL A   1      39.566  30.848  32.916  1.00  0.00    -0.206 F 
ATOM     75  C   UNL A   1      36.610  32.624  31.844  1.00  0.00     0.060 A 
BRANCH  75  76
ATOM     76  S   UNL A   1      35.035  33.206  32.508  1.00  0.00     0.124 S 
ATOM     77  O   UNL A   1      34.086  32.366  31.783  1.00  0.00    -0.237 OA
ATOM     78  O   UNL A   1      35.173  32.920  33.933  1.00  0.00    -0.237 OA
ATOM     79  O   UNL A   1      35.018  34.622  32.154  1.00  0.00    -0.744 OA
ENDBRANCH  75  76
ENDBRANCH  54  68
BRANCH  55  80
ATOM     80  C   UNL A   1      47.646  28.149  27.039  1.00  0.00     0.058 A 
ATOM     81  C   UNL A   1      47.830  28.101  25.650  1.00  0.00     0.135 A 
ATOM     82  C   UNL A   1      48.696  27.690  27.852  1.00  0.00     0.135 A 
ATOM     83  F   UNL A   1      46.854  28.517  24.830  1.00  0.00    -0.206 F 
ATOM     84  C   UNL A   1      49.002  27.603  25.087  1.00  0.00     0.059 A 
ATOM     85  C   UNL A   1      49.888  27.217  27.314  1.00  0.00     0.059 A 
ATOM     86  F   UNL A   1      48.577  27.726  29.189  1.00  0.00    -0.206 F 
ATOM     87  C   UNL A   1      50.026  27.166  25.929  1.00  0.00     0.060 A 
BRANCH  87  88
ATOM     88  S   UNL A   1      51.555  26.555  25.188  1.00  0.00     0.124 S 
ATOM     89  O   UNL A   1      52.541  27.474  25.745  1.00  0.00    -0.237 OA
ATOM     90  O   UNL A   1      51.610  25.183  25.682  1.00  0.00    -0.237 OA
ATOM     91  O   UNL A   1      51.310  26.687  23.754  1.00  0.00    -0.744 OA
ENDBRANCH  87  88
ENDBRANCH  55  80
BRANCH  67  92
ATOM     92  C   UNL A   1      45.664  34.370  29.511  1.00  0.00     0.058 A 
ATOM     93  C   UNL A   1      45.675  35.368  28.525  1.00  0.00     0.135 A 
ATOM     94  C   UNL A   1      46.313  34.639  30.727  1.00  0.00     0.135 A 
ATOM     95  F   UNL A   1      45.077  35.157  27.342  1.00  0.00    -0.206 F 
ATOM     96  C   UNL A   1      46.322  36.582  28.732  1.00  0.00     0.059 A 
ATOM     97  C   UNL A   1      46.939  35.856  30.967  1.00  0.00     0.059 A 
ATOM     98  F   UNL A   1      46.321  33.720  31.706  1.00  0.00    -0.206 F 
ATOM     99  C   UNL A   1      46.947  36.819  29.958  1.00  0.00     0.060 A 
BRANCH  99 100
ATOM    100  S   UNL A   1      47.740  38.416  30.230  1.00  0.00     0.124 S 
ATOM    101  O   UNL A   1      46.907  39.300  29.422  1.00  0.00    -0.237 OA
ATOM    102  O   UNL A   1      47.622  38.581  31.676  1.00  0.00    -0.237 OA
ATOM    103  O   UNL A   1      49.099  38.210  29.738  1.00  0.00    -0.744 OA
ENDBRANCH  99 100
ENDBRANCH  67  92
ENDBRANCH  41  42
ENDBRANCH  34  36
ENDBRANCH  33  34
ENDBRANCH  32  33
ENDBRANCH   1  32
TORSDOF 21
ENDMDL
MODEL 3
REMARK VINA RESULT:     -10.9      4.269      8.721
REMARK SMILES C/C=C/C=C/C=C/C(=O)O[C@H]1C=C(C=O)[C@@](O)(C(=O)OCCOC(=O)c2ccc(-c3c4nc(c(-c5c(F)cc(S(=O)(=O)[O-])cc5F)c5ccc([nH]5)c(-c5c(F)cc(S(=O)(=O)[O-])cc5F)c5nc(c(-c6c(F)cc(S(=O)(=O)[O-])cc6F)c6ccc3[nH]6)C=C5)C=C4)cc2)[C@]2(C)CCCC(C)(C)[C@@H]12
REMARK SMILES IDX 21 1 20 2 18 3 19 4 16 5 11 6 12 7 100 8 13 9 92 10 97 11
REMARK SMILES IDX 94 12 93 13 96 14 98 15 99 16 95 17 10 18 8 19 9 20 7 21
REMARK SMILES IDX 6 22 5 23 4 24 3 25 1 26 2 27 14 28 15 29 17 30 22 32 23 33
REMARK SMILES IDX 24 34 25 35 26 36 27 37 91 38 28 39 90 40 29 41 30 42 31 43
REMARK SMILES IDX 84 44 32 45 89 46 83 47 85 48 33 49 88 50 82 51 81 52 34 54
REMARK SMILES IDX 68 55 47 56 67 57 48 58 51 59 66 60 86 61 49 62 50 63 65 65
REMARK SMILES IDX 87 66 52 67 35 68 36 69 45 70 37 71 38 72 44 73 46 74 39 75
REMARK SMILES IDX 40 76 41 77 42 78 43 79 69 80 70 81 79 82 71 83 72 84 78 85
REMARK SMILES IDX 80 86 73 87 74 88 75 89 76 90 77 91 53 92 54 93 63 94 55 95
REMARK SMILES IDX 56 96 62 97 64 98 57 99 58 100 59 101 60 102 61 103
REMARK H PARENT 17 31 85 53 51 64
REMARK Flexibility Score: inf
ROOT
ATOM      1  C   UNL A   1      32.584  30.504  25.623  1.00  0.00     0.274 C 
ENDROOT
BRANCH   1   2
ATOM      2  O   UNL A   1      31.783  29.325  25.826  1.00  0.00    -0.460 OA
BRANCH   2   3
ATOM      3  C   UNL A   1      31.545  28.459  24.789  1.00  0.00     0.343 C 
ATOM      4  O   UNL A   1      30.843  28.708  23.820  1.00  0.00    -0.248 OA
BRANCH   3   5
ATOM      5  C   UNL A   1      32.354  27.136  25.024  1.00  0.00     0.196 C 
ATOM      6  C   UNL A   1      33.847  24.615  25.126  1.00  0.00     0.204 C 
ATOM      7  C   UNL A   1      34.405  25.873  24.488  1.00  0.00     0.028 C 
ATOM      8  C   UNL A   1      32.337  24.675  25.606  1.00  0.00     0.050 C 
ATOM      9  C   UNL A   1      33.551  26.851  24.124  1.00  0.00     0.035 C 
ATOM     10  C   UNL A   1      31.425  25.868  25.061  1.00  0.00     0.019 C 
ATOM     11  C   UNL A   1      31.603  23.321  25.899  1.00  0.00    -0.028 C 
ATOM     12  C   UNL A   1      30.272  26.048  26.098  1.00  0.00     0.011 C 
ATOM     13  C   UNL A   1      30.731  25.659  23.683  1.00  0.00     0.016 C 
ATOM     14  C   UNL A   1      30.399  23.633  26.834  1.00  0.00     0.007 C 
ATOM     15  C   UNL A   1      31.106  22.555  24.660  1.00  0.00     0.011 C 
ATOM     16  C   UNL A   1      32.552  22.374  26.675  1.00  0.00     0.011 C 
ATOM     17  C   UNL A   1      29.491  24.754  26.330  1.00  0.00     0.001 C 
BRANCH   6  18
ATOM     18  O   UNL A   1      34.098  23.496  24.261  1.00  0.00    -0.455 OA
BRANCH  18  19
ATOM     19  C   UNL A   1      35.205  22.718  24.247  1.00  0.00     0.331 C 
ATOM     20  O   UNL A   1      36.286  23.187  23.892  1.00  0.00    -0.247 OA
BRANCH  19  21
ATOM     21  C   UNL A   1      35.184  21.275  24.585  1.00  0.00     0.093 C 
ATOM     22  C   UNL A   1      34.206  20.371  24.414  1.00  0.00     0.007 C 
BRANCH  22  23
ATOM     23  C   UNL A   1      34.390  18.945  24.628  1.00  0.00     0.000 C 
ATOM     24  C   UNL A   1      33.367  18.115  24.892  1.00  0.00    -0.000 C 
BRANCH  24  25
ATOM     25  C   UNL A   1      33.504  16.677  24.999  1.00  0.00    -0.005 C 
ATOM     26  C   UNL A   1      32.623  14.406  25.610  1.00  0.00     0.035 C 
ATOM     27  C   UNL A   1      32.547  15.898  25.528  1.00  0.00    -0.030 C 
ENDBRANCH  24  25
ENDBRANCH  22  23
ENDBRANCH  19  21
ENDBRANCH  18  19
ENDBRANCH   6  18
BRANCH   9  28
ATOM     28  C   UNL A   1      33.375  26.782  22.639  1.00  0.00     0.259 C 
ATOM     29  O   UNL A   1      33.955  25.966  21.932  1.00  0.00    -0.298 OA
ENDBRANCH   9  28
BRANCH   5  30
ATOM     30  O   UNL A   1      32.947  27.270  26.357  1.00  0.00    -0.373 OA
ATOM     31  H   UNL A   1      33.794  27.738  26.288  1.00  0.00     0.212 HD
ENDBRANCH   5  30
ENDBRANCH   3   5
ENDBRANCH   2   3
ENDBRANCH   1   2
BRANCH   1  32
ATOM     32  C   UNL A   1      32.966  31.135  26.969  1.00  0.00     0.275 C 
BRANCH  32  33
ATOM     33  O   UNL A   1      34.339  30.864  27.309  1.00  0.00    -0.458 OA
BRANCH  33  34
ATOM     34  C   UNL A   1      34.521  29.802  28.126  1.00  0.00     0.338 C 
ATOM     35  O   UNL A   1      33.720  28.912  28.371  1.00  0.00    -0.246 OA
BRANCH  34  36
ATOM     36  C   UNL A   1      35.941  29.690  28.475  1.00  0.00     0.060 A 
ATOM     37  C   UNL A   1      36.837  29.897  27.430  1.00  0.00     0.016 A 
ATOM     38  C   UNL A   1      36.400  29.305  29.726  1.00  0.00     0.016 A 
ATOM     39  C   UNL A   1      38.189  29.665  27.583  1.00  0.00     0.010 A 
ATOM     40  C   UNL A   1      37.776  29.112  29.904  1.00  0.00     0.010 A 
ATOM     41  C   UNL A   1      38.671  29.271  28.827  1.00  0.00    -0.014 A 
BRANCH  41  42
ATOM     42  C   UNL A   1      40.108  28.953  28.959  1.00  0.00     0.031 A 
ATOM     43  C   UNL A   1      41.046  30.020  29.435  1.00  0.00     0.074 A 
ATOM     44  C   UNL A   1      40.550  27.706  28.706  1.00  0.00     0.049 A 
ATOM     45  N   UNL A   1      42.351  30.023  29.456  1.00  0.00    -0.248 NA
ATOM     46  C   UNL A   1      40.429  31.252  29.954  1.00  0.00     0.031 C 
ATOM     47  C   UNL A   1      39.706  26.563  28.347  1.00  0.00     0.029 A 
ATOM     48  N   UNL A   1      41.820  27.193  28.711  1.00  0.00    -0.354 N 
ATOM     49  C   UNL A   1      42.715  31.271  29.944  1.00  0.00     0.074 A 
ATOM     50  C   UNL A   1      41.494  32.001  30.203  1.00  0.00     0.031 C 
ATOM     51  C   UNL A   1      40.483  25.485  28.156  1.00  0.00     0.029 A 
ATOM     52  C   UNL A   1      41.879  25.880  28.305  1.00  0.00     0.049 A 
ATOM     53  H   UNL A   1      42.612  27.713  28.978  1.00  0.00     0.167 HD
ATOM     54  C   UNL A   1      43.961  31.756  30.149  1.00  0.00     0.037 A 
ATOM     55  C   UNL A   1      42.945  25.104  28.030  1.00  0.00     0.037 A 
ATOM     56  C   UNL A   1      45.159  30.995  29.906  1.00  0.00     0.049 A 
ATOM     57  C   UNL A   1      44.321  25.693  28.184  1.00  0.00     0.074 A 
ATOM     58  C   UNL A   1      46.475  31.388  30.064  1.00  0.00     0.029 A 
ATOM     59  N   UNL A   1      45.183  29.680  29.462  1.00  0.00    -0.354 N 
ATOM     60  N   UNL A   1      44.662  26.896  28.582  1.00  0.00    -0.248 NA
ATOM     61  C   UNL A   1      45.456  24.827  27.840  1.00  0.00     0.031 C 
ATOM     62  C   UNL A   1      47.296  30.324  29.671  1.00  0.00     0.029 A 
ATOM     63  C   UNL A   1      46.491  29.250  29.324  1.00  0.00     0.049 A 
ATOM     64  H   UNL A   1      44.385  29.133  29.274  1.00  0.00     0.167 HD
ATOM     65  C   UNL A   1      46.052  26.921  28.571  1.00  0.00     0.074 A 
ATOM     66  C   UNL A   1      46.487  25.610  28.128  1.00  0.00     0.031 C 
ATOM     67  C   UNL A   1      46.895  27.932  28.898  1.00  0.00     0.037 A 
BRANCH  54  68
ATOM     68  C   UNL A   1      44.088  33.182  30.607  1.00  0.00     0.058 A 
ATOM     69  C   UNL A   1      44.178  33.526  31.964  1.00  0.00     0.135 A 
ATOM     70  C   UNL A   1      44.135  34.221  29.663  1.00  0.00     0.135 A 
ATOM     71  F   UNL A   1      44.112  32.576  32.910  1.00  0.00    -0.206 F 
ATOM     72  C   UNL A   1      44.285  34.852  32.371  1.00  0.00     0.059 A 
ATOM     73  C   UNL A   1      44.270  35.552  30.046  1.00  0.00     0.059 A 
ATOM     74  F   UNL A   1      44.043  33.949  28.352  1.00  0.00    -0.206 F 
ATOM     75  C   UNL A   1      44.330  35.859  31.404  1.00  0.00     0.060 A 
BRANCH  75  76
ATOM     76  S   UNL A   1      44.468  37.575  31.948  1.00  0.00     0.124 S 
ATOM     77  O   UNL A   1      45.898  37.677  32.226  1.00  0.00    -0.237 OA
ATOM     78  O   UNL A   1      43.996  38.312  30.780  1.00  0.00    -0.237 OA
ATOM     79  O   UNL A   1      43.597  37.633  33.117  1.00  0.00    -0.744 OA
ENDBRANCH  75  76
ENDBRANCH  54  68
BRANCH  55  80
ATOM     80  C   UNL A   1      42.749  23.715  27.536  1.00  0.00     0.058 A 
ATOM     81  C   UNL A   1      42.549  22.651  28.428  1.00  0.00     0.135 A 
ATOM     82  C   UNL A   1      42.752  23.423  26.162  1.00  0.00     0.135 A 
ATOM     83  F   UNL A   1      42.547  22.876  29.749  1.00  0.00    -0.206 F 
ATOM     84  C   UNL A   1      42.375  21.346  27.976  1.00  0.00     0.059 A 
ATOM     85  C   UNL A   1      42.551  22.132  25.686  1.00  0.00     0.059 A 
ATOM     86  F   UNL A   1      42.927  24.407  25.265  1.00  0.00    -0.206 F 
ATOM     87  C   UNL A   1      42.375  21.097  26.603  1.00  0.00     0.060 A 
BRANCH  87  88
ATOM     88  S   UNL A   1      42.115  19.406  26.028  1.00  0.00     0.124 S 
ATOM     89  O   UNL A   1      42.588  18.631  27.169  1.00  0.00    -0.237 OA
ATOM     90  O   UNL A   1      40.675  19.380  25.790  1.00  0.00    -0.237 OA
ATOM     91  O   UNL A   1      42.942  19.329  24.826  1.00  0.00    -0.744 OA
ENDBRANCH  87  88
ENDBRANCH  55  80
BRANCH  67  92
ATOM     92  C   UNL A   1      48.369  27.646  28.845  1.00  0.00     0.058 A 
ATOM     93  C   UNL A   1      49.137  27.923  27.705  1.00  0.00     0.135 A 
ATOM     94  C   UNL A   1      49.029  27.145  29.978  1.00  0.00     0.135 A 
ATOM     95  F   UNL A   1      48.552  28.395  26.592  1.00  0.00    -0.206 F 
ATOM     96  C   UNL A   1      50.508  27.693  27.683  1.00  0.00     0.059 A 
ATOM     97  C   UNL A   1      50.403  26.936  29.989  1.00  0.00     0.059 A 
ATOM     98  F   UNL A   1      48.340  26.874  31.098  1.00  0.00    -0.206 F 
ATOM     99  C   UNL A   1      51.134  27.205  28.833  1.00  0.00     0.060 A 
BRANCH  99 100
ATOM    100  S   UNL A   1      52.921  26.958  28.807  1.00  0.00     0.124 S 
ATOM    101  O   UNL A   1      53.402  28.315  28.571  1.00  0.00    -0.237 OA
ATOM    102  O   UNL A   1      53.180  26.416  30.137  1.00  0.00    -0.237 OA
ATOM    103  O   UNL A   1      53.119  26.021  27.706  1.00  0.00    -0.744 OA
ENDBRANCH  99 100
ENDBRANCH  67  92
ENDBRANCH  41  42
ENDBRANCH  34  36
ENDBRANCH  33  34
ENDBRANCH  32  33
ENDBRANCH   1  32
TORSDOF 21
ENDMDL
