MODEL 1
REMARK VINA RESULT:     -11.7      0.000      0.000
REMARK SMILES O=C(Cc1c[nH]c(=S)n(-c2ccc(Cl)c(C(F)(F)F)c2)c1=O)OCCOC(=O)c1ccc(-c2c3nc(c(-c4c(F)cc(S(=O)(=O)[O-])cc4F)c4ccc([nH]4)c(-c4c(F)cc(S(=O)(=O)[O-])cc4F)c4nc(c(-c5c(F)cc(S(=O)(=O)[O-])cc5F)c5ccc2[nH]5)C=C4)C=C3)cc1
REMARK SMILES IDX 24 1 23 2 2 3 1 4 3 5 4 6 5 7 21 8 6 9 9 10 22 11 7 12 8 14
REMARK SMILES IDX 10 15 11 16 20 17 12 18 15 19 13 20 14 21 16 22 17 23 18 24
REMARK SMILES IDX 19 25 25 26 26 27 27 28 28 29 29 30 30 31 94 32 31 33 93 34
REMARK SMILES IDX 32 35 33 36 34 37 87 38 35 39 92 40 86 41 88 42 36 43 91 44
REMARK SMILES IDX 85 45 84 46 37 48 71 49 50 50 70 51 51 52 54 53 69 54 89 55
REMARK SMILES IDX 52 56 53 57 68 59 90 60 55 61 38 62 39 63 48 64 40 65 41 66
REMARK SMILES IDX 47 67 49 68 42 69 43 70 44 71 45 72 46 73 72 74 73 75 82 76
REMARK SMILES IDX 74 77 75 78 81 79 83 80 76 81 77 82 78 83 79 84 80 85 56 86
REMARK SMILES IDX 57 87 66 88 58 89 59 90 65 91 67 92 60 93 61 94 62 95 63 96
REMARK SMILES IDX 64 97
REMARK H PARENT 6 13 88 47 54 58
REMARK Flexibility Score: inf
ROOT
ATOM      1  C   UNL A   1      39.572  21.434  25.803  1.00  0.00     0.274 C 
ENDROOT
BRANCH   1   2
ATOM      2  O   UNL A   1      38.172  21.488  26.137  1.00  0.00    -0.462 OA
BRANCH   2   3
ATOM      3  C   UNL A   1      37.269  22.115  25.337  1.00  0.00     0.310 C 
ATOM      4  O   UNL A   1      36.982  21.639  24.244  1.00  0.00    -0.252 OA
BRANCH   3   5
ATOM      5  C   UNL A   1      36.710  23.435  25.832  1.00  0.00     0.165 C 
BRANCH   5   6
ATOM      6  C   UNL A   1      35.237  23.372  26.048  1.00  0.00     0.045 A 
ATOM      7  C   UNL A   1      34.614  22.367  26.668  1.00  0.00     0.095 A 
ATOM      8  C   UNL A   1      34.451  24.568  25.665  1.00  0.00     0.262 A 
ATOM      9  N   UNL A   1      33.270  22.375  26.854  1.00  0.00    -0.338 N 
ATOM     10  N   UNL A   1      33.066  24.496  25.860  1.00  0.00    -0.253 N 
ATOM     11  O   UNL A   1      35.068  25.566  25.290  1.00  0.00    -0.269 OA
ATOM     12  C   UNL A   1      32.435  23.385  26.440  1.00  0.00     0.184 A 
ATOM     13  H   UNL A   1      32.866  21.605  27.316  1.00  0.00     0.168 HD
ATOM     14  S   UNL A   1      30.792  23.096  26.633  1.00  0.00    -0.040 S 
BRANCH  10  15
ATOM     15  C   UNL A   1      32.350  25.695  25.560  1.00  0.00     0.052 A 
ATOM     16  C   UNL A   1      31.515  25.757  24.439  1.00  0.00     0.028 A 
ATOM     17  C   UNL A   1      32.618  26.865  26.277  1.00  0.00     0.041 A 
ATOM     18  C   UNL A   1      30.952  26.970  24.051  1.00  0.00     0.023 A 
ATOM     19  C   UNL A   1      32.071  28.101  25.883  1.00  0.00     0.076 A 
ATOM     20  C   UNL A   1      31.232  28.139  24.764  1.00  0.00     0.053 A 
ATOM     21  Cl  UNL A   1      30.535  29.599  24.175  1.00  0.00    -0.084 Cl
BRANCH  19  22
ATOM     22  C   UNL A   1      32.497  29.351  26.605  1.00  0.00     0.417 C 
ATOM     23  F   UNL A   1      33.133  30.206  25.776  1.00  0.00    -0.166 F 
ATOM     24  F   UNL A   1      31.477  29.999  27.217  1.00  0.00    -0.166 F 
ATOM     25  F   UNL A   1      33.398  29.081  27.600  1.00  0.00    -0.166 F 
ENDBRANCH  19  22
ENDBRANCH  10  15
ENDBRANCH   5   6
ENDBRANCH   3   5
ENDBRANCH   2   3
ENDBRANCH   1   2
BRANCH   1  26
ATOM     26  C   UNL A   1      40.426  22.273  26.755  1.00  0.00     0.275 C 
BRANCH  26  27
ATOM     27  O   UNL A   1      40.104  23.672  26.642  1.00  0.00    -0.458 OA
BRANCH  27  28
ATOM     28  C   UNL A   1      41.161  24.527  26.700  1.00  0.00     0.338 C 
ATOM     29  O   UNL A   1      42.093  24.567  25.915  1.00  0.00    -0.246 OA
BRANCH  28  30
ATOM     30  C   UNL A   1      40.922  25.551  27.753  1.00  0.00     0.060 A 
ATOM     31  C   UNL A   1      39.705  25.651  28.436  1.00  0.00     0.016 A 
ATOM     32  C   UNL A   1      41.942  26.477  28.018  1.00  0.00     0.016 A 
ATOM     33  C   UNL A   1      39.522  26.659  29.391  1.00  0.00     0.010 A 
ATOM     34  C   UNL A   1      41.760  27.478  28.979  1.00  0.00     0.010 A 
ATOM     35  C   UNL A   1      40.555  27.569  29.686  1.00  0.00    -0.014 A 
BRANCH  35  36
ATOM     36  C   UNL A   1      40.422  28.480  30.853  1.00  0.00     0.031 A 
ATOM     37  C   UNL A   1      41.293  28.366  32.073  1.00  0.00     0.074 A 
ATOM     38  C   UNL A   1      39.480  29.443  30.797  1.00  0.00     0.049 A 
ATOM     39  N   UNL A   1      41.366  29.179  33.097  1.00  0.00    -0.248 NA
ATOM     40  C   UNL A   1      42.188  27.204  32.161  1.00  0.00     0.031 C 
ATOM     41  C   UNL A   1      38.539  29.626  29.690  1.00  0.00     0.029 A 
ATOM     42  N   UNL A   1      39.164  30.449  31.674  1.00  0.00    -0.354 N 
ATOM     43  C   UNL A   1      42.323  28.641  33.948  1.00  0.00     0.074 A 
ATOM     44  C   UNL A   1      42.784  27.412  33.332  1.00  0.00     0.031 C 
ATOM     45  C   UNL A   1      37.777  30.703  29.936  1.00  0.00     0.029 A 
ATOM     46  C   UNL A   1      38.160  31.275  31.225  1.00  0.00     0.049 A 
ATOM     47  H   UNL A   1      39.613  30.570  32.541  1.00  0.00     0.167 HD
ATOM     48  C   UNL A   1      42.781  29.136  35.122  1.00  0.00     0.037 A 
ATOM     49  C   UNL A   1      37.613  32.376  31.774  1.00  0.00     0.037 A 
ATOM     50  C   UNL A   1      42.319  30.356  35.738  1.00  0.00     0.049 A 
ATOM     51  C   UNL A   1      38.131  32.894  33.085  1.00  0.00     0.074 A 
ATOM     52  C   UNL A   1      42.790  30.965  36.890  1.00  0.00     0.029 A 
ATOM     53  N   UNL A   1      41.276  31.142  35.273  1.00  0.00    -0.354 N 
ATOM     54  N   UNL A   1      39.112  32.429  33.819  1.00  0.00    -0.248 NA
ATOM     55  C   UNL A   1      37.474  34.086  33.638  1.00  0.00     0.031 C 
ATOM     56  C   UNL A   1      42.004  32.093  37.147  1.00  0.00     0.029 A 
ATOM     57  C   UNL A   1      41.068  32.211  36.133  1.00  0.00     0.049 A 
ATOM     58  H   UNL A   1      40.759  30.969  34.454  1.00  0.00     0.167 HD
ATOM     59  C   UNL A   1      39.198  33.280  34.916  1.00  0.00     0.074 A 
ATOM     60  C   UNL A   1      38.181  34.295  34.742  1.00  0.00     0.031 C 
ATOM     61  C   UNL A   1      40.050  33.218  35.967  1.00  0.00     0.037 A 
BRANCH  48  62
ATOM     62  C   UNL A   1      43.868  28.385  35.838  1.00  0.00     0.058 A 
ATOM     63  C   UNL A   1      45.216  28.728  35.656  1.00  0.00     0.135 A 
ATOM     64  C   UNL A   1      43.559  27.421  36.810  1.00  0.00     0.135 A 
ATOM     65  F   UNL A   1      45.564  29.636  34.731  1.00  0.00    -0.206 F 
ATOM     66  C   UNL A   1      46.220  28.145  36.423  1.00  0.00     0.059 A 
ATOM     67  C   UNL A   1      44.548  26.822  37.584  1.00  0.00     0.059 A 
ATOM     68  F   UNL A   1      42.281  27.075  37.034  1.00  0.00    -0.206 F 
ATOM     69  C   UNL A   1      45.879  27.185  37.378  1.00  0.00     0.060 A 
BRANCH  69  70
ATOM     70  S   UNL A   1      47.181  26.444  38.393  1.00  0.00     0.124 S 
ATOM     71  O   UNL A   1      46.499  26.256  39.669  1.00  0.00    -0.237 OA
ATOM     72  O   UNL A   1      47.504  25.221  37.663  1.00  0.00    -0.237 OA
ATOM     73  O   UNL A   1      48.225  27.464  38.386  1.00  0.00    -0.744 OA
ENDBRANCH  69  70
ENDBRANCH  48  62
BRANCH  49  74
ATOM     74  C   UNL A   1      36.539  33.093  31.041  1.00  0.00     0.058 A 
ATOM     75  C   UNL A   1      35.209  33.022  31.474  1.00  0.00     0.135 A 
ATOM     76  C   UNL A   1      36.831  33.908  29.936  1.00  0.00     0.135 A 
ATOM     77  F   UNL A   1      34.884  32.251  32.524  1.00  0.00    -0.206 F 
ATOM     78  C   UNL A   1      34.201  33.742  30.843  1.00  0.00     0.059 A 
ATOM     79  C   UNL A   1      35.843  34.654  29.301  1.00  0.00     0.059 A 
ATOM     80  F   UNL A   1      38.094  34.018  29.497  1.00  0.00    -0.206 F 
ATOM     81  C   UNL A   1      34.531  34.563  29.763  1.00  0.00     0.060 A 
BRANCH  81  82
ATOM     82  S   UNL A   1      33.227  35.560  29.010  1.00  0.00     0.124 S 
ATOM     83  O   UNL A   1      34.002  36.497  28.204  1.00  0.00    -0.237 OA
ATOM     84  O   UNL A   1      32.467  34.558  28.271  1.00  0.00    -0.237 OA
ATOM     85  O   UNL A   1      32.538  36.136  30.161  1.00  0.00    -0.744 OA
ENDBRANCH  81  82
ENDBRANCH  49  74
BRANCH  61  86
ATOM     86  C   UNL A   1      39.929  34.272  37.033  1.00  0.00     0.058 A 
ATOM     87  C   UNL A   1      40.436  35.566  36.840  1.00  0.00     0.135 A 
ATOM     88  C   UNL A   1      39.224  34.014  38.220  1.00  0.00     0.135 A 
ATOM     89  F   UNL A   1      41.128  35.862  35.729  1.00  0.00    -0.206 F 
ATOM     90  C   UNL A   1      40.249  36.568  37.788  1.00  0.00     0.059 A 
ATOM     91  C   UNL A   1      39.006  35.007  39.171  1.00  0.00     0.059 A 
ATOM     92  F   UNL A   1      38.714  32.793  38.451  1.00  0.00    -0.206 F 
ATOM     93  C   UNL A   1      39.524  36.282  38.946  1.00  0.00     0.060 A 
BRANCH  93  94
ATOM     94  S   UNL A   1      39.235  37.611  40.134  1.00  0.00     0.124 S 
ATOM     95  O   UNL A   1      38.762  36.869  41.298  1.00  0.00    -0.237 OA
ATOM     96  O   UNL A   1      40.560  38.209  40.260  1.00  0.00    -0.237 OA
ATOM     97  O   UNL A   1      38.236  38.447  39.475  1.00  0.00    -0.744 OA
ENDBRANCH  93  94
ENDBRANCH  61  86
ENDBRANCH  35  36
ENDBRANCH  28  30
ENDBRANCH  27  28
ENDBRANCH  26  27
ENDBRANCH   1  26
TORSDOF 17
ENDMDL
MODEL 2
REMARK VINA RESULT:     -11.6      6.183      8.309
REMARK SMILES O=C(Cc1c[nH]c(=S)n(-c2ccc(Cl)c(C(F)(F)F)c2)c1=O)OCCOC(=O)c1ccc(-c2c3nc(c(-c4c(F)cc(S(=O)(=O)[O-])cc4F)c4ccc([nH]4)c(-c4c(F)cc(S(=O)(=O)[O-])cc4F)c4nc(c(-c5c(F)cc(S(=O)(=O)[O-])cc5F)c5ccc2[nH]5)C=C4)C=C3)cc1
REMARK SMILES IDX 24 1 23 2 2 3 1 4 3 5 4 6 5 7 21 8 6 9 9 10 22 11 7 12 8 14
REMARK SMILES IDX 10 15 11 16 20 17 12 18 15 19 13 20 14 21 16 22 17 23 18 24
REMARK SMILES IDX 19 25 25 26 26 27 27 28 28 29 29 30 30 31 94 32 31 33 93 34
REMARK SMILES IDX 32 35 33 36 34 37 87 38 35 39 92 40 86 41 88 42 36 43 91 44
REMARK SMILES IDX 85 45 84 46 37 48 71 49 50 50 70 51 51 52 54 53 69 54 89 55
REMARK SMILES IDX 52 56 53 57 68 59 90 60 55 61 38 62 39 63 48 64 40 65 41 66
REMARK SMILES IDX 47 67 49 68 42 69 43 70 44 71 45 72 46 73 72 74 73 75 82 76
REMARK SMILES IDX 74 77 75 78 81 79 83 80 76 81 77 82 78 83 79 84 80 85 56 86
REMARK SMILES IDX 57 87 66 88 58 89 59 90 65 91 67 92 60 93 61 94 62 95 63 96
REMARK SMILES IDX 64 97
REMARK H PARENT 6 13 88 47 54 58
REMARK Flexibility Score: inf
ROOT
ATOM      1  C   UNL A   1      38.810  21.433  25.792  1.00  0.00     0.274 C 
ENDROOT
BRANCH   1   2
ATOM      2  O   UNL A   1      37.434  21.500  25.371  1.00  0.00    -0.462 OA
BRANCH   2   3
ATOM      3  C   UNL A   1      36.890  22.645  24.881  1.00  0.00     0.310 C 
ATOM      4  O   UNL A   1      37.317  23.735  25.248  1.00  0.00    -0.252 OA
BRANCH   3   5
ATOM      5  C   UNL A   1      35.712  22.499  23.937  1.00  0.00     0.165 C 
BRANCH   5   6
ATOM      6  C   UNL A   1      34.410  22.684  24.638  1.00  0.00     0.045 A 
ATOM      7  C   UNL A   1      33.870  21.784  25.464  1.00  0.00     0.095 A 
ATOM      8  C   UNL A   1      33.759  24.008  24.505  1.00  0.00     0.262 A 
ATOM      9  N   UNL A   1      32.690  22.019  26.091  1.00  0.00    -0.338 N 
ATOM     10  N   UNL A   1      32.530  24.170  25.157  1.00  0.00    -0.253 N 
ATOM     11  O   UNL A   1      34.375  24.895  23.913  1.00  0.00    -0.269 OA
ATOM     12  C   UNL A   1      31.951  23.169  25.951  1.00  0.00     0.184 A 
ATOM     13  H   UNL A   1      32.339  21.317  26.687  1.00  0.00     0.168 HD
ATOM     14  S   UNL A   1      30.446  23.162  26.695  1.00  0.00    -0.040 S 
BRANCH  10  15
ATOM     15  C   UNL A   1      31.973  25.483  25.078  1.00  0.00     0.052 A 
ATOM     16  C   UNL A   1      31.177  25.847  23.987  1.00  0.00     0.028 A 
ATOM     17  C   UNL A   1      32.365  26.464  25.994  1.00  0.00     0.041 A 
ATOM     18  C   UNL A   1      30.774  27.170  23.823  1.00  0.00     0.023 A 
ATOM     19  C   UNL A   1      31.981  27.808  25.829  1.00  0.00     0.076 A 
ATOM     20  C   UNL A   1      31.178  28.149  24.735  1.00  0.00     0.053 A 
ATOM     21  Cl  UNL A   1      30.678  29.766  24.419  1.00  0.00    -0.084 Cl
BRANCH  19  22
ATOM     22  C   UNL A   1      32.540  28.846  26.764  1.00  0.00     0.417 C 
ATOM     23  F   UNL A   1      31.555  29.536  27.380  1.00  0.00    -0.166 F 
ATOM     24  F   UNL A   1      33.380  28.339  27.699  1.00  0.00    -0.166 F 
ATOM     25  F   UNL A   1      33.274  29.789  26.097  1.00  0.00    -0.166 F 
ENDBRANCH  19  22
ENDBRANCH  10  15
ENDBRANCH   5   6
ENDBRANCH   3   5
ENDBRANCH   2   3
ENDBRANCH   1   2
BRANCH   1  26
ATOM     26  C   UNL A   1      39.445  20.077  25.475  1.00  0.00     0.275 C 
BRANCH  26  27
ATOM     27  O   UNL A   1      40.313  19.652  26.542  1.00  0.00    -0.458 OA
BRANCH  27  28
ATOM     28  C   UNL A   1      41.633  19.556  26.225  1.00  0.00     0.338 C 
ATOM     29  O   UNL A   1      42.168  18.614  25.668  1.00  0.00    -0.246 OA
BRANCH  28  30
ATOM     30  C   UNL A   1      42.307  20.859  26.477  1.00  0.00     0.060 A 
ATOM     31  C   UNL A   1      42.816  21.649  25.441  1.00  0.00     0.016 A 
ATOM     32  C   UNL A   1      42.479  21.267  27.807  1.00  0.00     0.016 A 
ATOM     33  C   UNL A   1      43.474  22.850  25.738  1.00  0.00     0.010 A 
ATOM     34  C   UNL A   1      43.130  22.472  28.102  1.00  0.00     0.010 A 
ATOM     35  C   UNL A   1      43.619  23.282  27.070  1.00  0.00    -0.014 A 
BRANCH  35  36
ATOM     36  C   UNL A   1      44.115  24.655  27.349  1.00  0.00     0.031 A 
ATOM     37  C   UNL A   1      45.553  25.049  27.169  1.00  0.00     0.074 A 
ATOM     38  C   UNL A   1      43.223  25.571  27.777  1.00  0.00     0.049 A 
ATOM     39  N   UNL A   1      46.084  26.244  27.251  1.00  0.00    -0.248 NA
ATOM     40  C   UNL A   1      46.516  23.982  26.864  1.00  0.00     0.031 C 
ATOM     41  C   UNL A   1      41.808  25.301  28.038  1.00  0.00     0.029 A 
ATOM     42  N   UNL A   1      43.364  26.907  28.055  1.00  0.00    -0.354 N 
ATOM     43  C   UNL A   1      47.439  26.081  26.993  1.00  0.00     0.074 A 
ATOM     44  C   UNL A   1      47.655  24.663  26.781  1.00  0.00     0.031 C 
ATOM     45  C   UNL A   1      41.203  26.442  28.402  1.00  0.00     0.029 A 
ATOM     46  C   UNL A   1      42.188  27.520  28.419  1.00  0.00     0.049 A 
ATOM     47  H   UNL A   1      44.224  27.382  27.999  1.00  0.00     0.167 HD
ATOM     48  C   UNL A   1      48.405  27.028  26.927  1.00  0.00     0.037 A 
ATOM     49  C   UNL A   1      41.921  28.805  28.720  1.00  0.00     0.037 A 
ATOM     50  C   UNL A   1      48.191  28.439  27.142  1.00  0.00     0.049 A 
ATOM     51  C   UNL A   1      43.014  29.832  28.652  1.00  0.00     0.074 A 
ATOM     52  C   UNL A   1      49.106  29.472  27.016  1.00  0.00     0.029 A 
ATOM     53  N   UNL A   1      46.997  29.015  27.546  1.00  0.00    -0.354 N 
ATOM     54  N   UNL A   1      44.267  29.673  28.300  1.00  0.00    -0.248 NA
ATOM     55  C   UNL A   1      42.659  31.211  29.016  1.00  0.00     0.031 C 
ATOM     56  C   UNL A   1      48.477  30.666  27.386  1.00  0.00     0.029 A 
ATOM     57  C   UNL A   1      47.159  30.383  27.704  1.00  0.00     0.049 A 
ATOM     58  H   UNL A   1      46.156  28.526  27.698  1.00  0.00     0.167 HD
ATOM     59  C   UNL A   1      44.846  30.934  28.388  1.00  0.00     0.074 A 
ATOM     60  C   UNL A   1      43.806  31.847  28.812  1.00  0.00     0.031 C 
ATOM     61  C   UNL A   1      46.128  31.294  28.135  1.00  0.00     0.037 A 
BRANCH  48  62
ATOM     62  C   UNL A   1      49.802  26.601  26.578  1.00  0.00     0.058 A 
ATOM     63  C   UNL A   1      50.673  26.121  27.567  1.00  0.00     0.135 A 
ATOM     64  C   UNL A   1      50.224  26.536  25.241  1.00  0.00     0.135 A 
ATOM     65  F   UNL A   1      50.321  26.171  28.861  1.00  0.00    -0.206 F 
ATOM     66  C   UNL A   1      51.913  25.582  27.239  1.00  0.00     0.059 A 
ATOM     67  C   UNL A   1      51.463  26.005  24.891  1.00  0.00     0.059 A 
ATOM     68  F   UNL A   1      49.417  26.965  24.258  1.00  0.00    -0.206 F 
ATOM     69  C   UNL A   1      52.306  25.537  25.899  1.00  0.00     0.060 A 
BRANCH  69  70
ATOM     70  S   UNL A   1      53.906  24.814  25.468  1.00  0.00     0.124 S 
ATOM     71  O   UNL A   1      54.352  25.686  24.388  1.00  0.00    -0.237 OA
ATOM     72  O   UNL A   1      54.657  24.921  26.717  1.00  0.00    -0.237 OA
ATOM     73  O   UNL A   1      53.557  23.453  25.070  1.00  0.00    -0.744 OA
ENDBRANCH  69  70
ENDBRANCH  48  62
BRANCH  49  74
ATOM     74  C   UNL A   1      40.529  29.194  29.063  1.00  0.00     0.058 A 
ATOM     75  C   UNL A   1      40.138  29.345  30.399  1.00  0.00     0.135 A 
ATOM     76  C   UNL A   1      39.588  29.481  28.062  1.00  0.00     0.135 A 
ATOM     77  F   UNL A   1      41.005  29.077  31.387  1.00  0.00    -0.206 F 
ATOM     78  C   UNL A   1      38.860  29.776  30.736  1.00  0.00     0.059 A 
ATOM     79  C   UNL A   1      38.309  29.933  28.375  1.00  0.00     0.059 A 
ATOM     80  F   UNL A   1      39.924  29.366  26.768  1.00  0.00    -0.206 F 
ATOM     81  C   UNL A   1      37.956  30.077  29.716  1.00  0.00     0.060 A 
BRANCH  81  82
ATOM     82  S   UNL A   1      36.331  30.721  30.168  1.00  0.00     0.124 S 
ATOM     83  O   UNL A   1      35.504  30.229  29.072  1.00  0.00    -0.237 OA
ATOM     84  O   UNL A   1      36.107  30.096  31.467  1.00  0.00    -0.237 OA
ATOM     85  O   UNL A   1      36.540  32.165  30.203  1.00  0.00    -0.744 OA
ENDBRANCH  81  82
ENDBRANCH  49  74
BRANCH  61  86
ATOM     86  C   UNL A   1      46.500  32.740  28.312  1.00  0.00     0.058 A 
ATOM     87  C   UNL A   1      46.312  33.673  27.282  1.00  0.00     0.135 A 
ATOM     88  C   UNL A   1      46.967  33.214  29.549  1.00  0.00     0.135 A 
ATOM     89  F   UNL A   1      45.879  33.270  26.077  1.00  0.00    -0.206 F 
ATOM     90  C   UNL A   1      46.573  35.027  27.471  1.00  0.00     0.059 A 
ATOM     91  C   UNL A   1      47.214  34.566  29.767  1.00  0.00     0.059 A 
ATOM     92  F   UNL A   1      47.160  32.363  30.570  1.00  0.00    -0.206 F 
ATOM     93  C   UNL A   1      47.015  35.466  28.720  1.00  0.00     0.060 A 
BRANCH  93  94
ATOM     94  S   UNL A   1      47.286  37.234  28.967  1.00  0.00     0.124 S 
ATOM     95  O   UNL A   1      48.424  37.483  28.089  1.00  0.00    -0.237 OA
ATOM     96  O   UNL A   1      46.016  37.807  28.535  1.00  0.00    -0.237 OA
ATOM     97  O   UNL A   1      47.562  37.341  30.396  1.00  0.00    -0.744 OA
ENDBRANCH  93  94
ENDBRANCH  61  86
ENDBRANCH  35  36
ENDBRANCH  28  30
ENDBRANCH  27  28
ENDBRANCH  26  27
ENDBRANCH   1  26
TORSDOF 17
ENDMDL
MODEL 3
REMARK VINA RESULT:     -11.6      6.585     12.070
REMARK SMILES O=C(Cc1c[nH]c(=S)n(-c2ccc(Cl)c(C(F)(F)F)c2)c1=O)OCCOC(=O)c1ccc(-c2c3nc(c(-c4c(F)cc(S(=O)(=O)[O-])cc4F)c4ccc([nH]4)c(-c4c(F)cc(S(=O)(=O)[O-])cc4F)c4nc(c(-c5c(F)cc(S(=O)(=O)[O-])cc5F)c5ccc2[nH]5)C=C4)C=C3)cc1
REMARK SMILES IDX 24 1 23 2 2 3 1 4 3 5 4 6 5 7 21 8 6 9 9 10 22 11 7 12 8 14
REMARK SMILES IDX 10 15 11 16 20 17 12 18 15 19 13 20 14 21 16 22 17 23 18 24
REMARK SMILES IDX 19 25 25 26 26 27 27 28 28 29 29 30 30 31 94 32 31 33 93 34
REMARK SMILES IDX 32 35 33 36 34 37 87 38 35 39 92 40 86 41 88 42 36 43 91 44
REMARK SMILES IDX 85 45 84 46 37 48 71 49 50 50 70 51 51 52 54 53 69 54 89 55
REMARK SMILES IDX 52 56 53 57 68 59 90 60 55 61 38 62 39 63 48 64 40 65 41 66
REMARK SMILES IDX 47 67 49 68 42 69 43 70 44 71 45 72 46 73 72 74 73 75 82 76
REMARK SMILES IDX 74 77 75 78 81 79 83 80 76 81 77 82 78 83 79 84 80 85 56 86
REMARK SMILES IDX 57 87 66 88 58 89 59 90 65 91 67 92 60 93 61 94 62 95 63 96
REMARK SMILES IDX 64 97
REMARK H PARENT 6 13 88 47 54 58
REMARK Flexibility Score: inf
ROOT
ATOM      1  C   UNL A   1      34.532  32.273  28.025  1.00  0.00     0.274 C 
ENDROOT
BRANCH   1   2
ATOM      2  O   UNL A   1      33.309  31.607  27.657  1.00  0.00    -0.462 OA
BRANCH   2   3
ATOM      3  C   UNL A   1      33.301  30.330  27.194  1.00  0.00     0.310 C 
ATOM      4  O   UNL A   1      34.351  29.790  26.859  1.00  0.00    -0.252 OA
BRANCH   3   5
ATOM      5  C   UNL A   1      31.948  29.658  27.051  1.00  0.00     0.165 C 
BRANCH   5   6
ATOM      6  C   UNL A   1      31.863  28.835  25.811  1.00  0.00     0.045 A 
ATOM      7  C   UNL A   1      31.705  29.343  24.586  1.00  0.00     0.095 A 
ATOM      8  C   UNL A   1      32.107  27.381  25.953  1.00  0.00     0.262 A 
ATOM      9  N   UNL A   1      31.656  28.542  23.491  1.00  0.00    -0.338 N 
ATOM     10  N   UNL A   1      32.014  26.613  24.786  1.00  0.00    -0.253 N 
ATOM     11  O   UNL A   1      32.460  26.962  27.057  1.00  0.00    -0.269 OA
ATOM     12  C   UNL A   1      31.762  27.173  23.524  1.00  0.00     0.184 A 
ATOM     13  H   UNL A   1      31.535  28.973  22.613  1.00  0.00     0.168 HD
ATOM     14  S   UNL A   1      31.505  26.388  22.062  1.00  0.00    -0.040 S 
BRANCH  10  15
ATOM     15  C   UNL A   1      32.338  25.231  24.944  1.00  0.00     0.052 A 
ATOM     16  C   UNL A   1      31.371  24.326  25.395  1.00  0.00     0.028 A 
ATOM     17  C   UNL A   1      33.665  24.807  24.821  1.00  0.00     0.041 A 
ATOM     18  C   UNL A   1      31.728  23.018  25.710  1.00  0.00     0.023 A 
ATOM     19  C   UNL A   1      34.042  23.493  25.156  1.00  0.00     0.076 A 
ATOM     20  C   UNL A   1      33.058  22.602  25.598  1.00  0.00     0.053 A 
ATOM     21  Cl  UNL A   1      33.412  20.983  26.064  1.00  0.00    -0.084 Cl
BRANCH  19  22
ATOM     22  C   UNL A   1      35.501  23.126  25.137  1.00  0.00     0.417 C 
ATOM     23  F   UNL A   1      35.942  22.793  26.370  1.00  0.00    -0.166 F 
ATOM     24  F   UNL A   1      35.800  22.126  24.273  1.00  0.00    -0.166 F 
ATOM     25  F   UNL A   1      36.286  24.179  24.749  1.00  0.00    -0.166 F 
ENDBRANCH  19  22
ENDBRANCH  10  15
ENDBRANCH   5   6
ENDBRANCH   3   5
ENDBRANCH   2   3
ENDBRANCH   1   2
BRANCH   1  26
ATOM     26  C   UNL A   1      34.846  32.122  29.515  1.00  0.00     0.275 C 
BRANCH  26  27
ATOM     27  O   UNL A   1      35.538  30.887  29.774  1.00  0.00    -0.458 OA
BRANCH  27  28
ATOM     28  C   UNL A   1      36.492  30.937  30.744  1.00  0.00     0.338 C 
ATOM     29  O   UNL A   1      36.301  31.189  31.921  1.00  0.00    -0.246 OA
BRANCH  28  30
ATOM     30  C   UNL A   1      37.786  30.440  30.204  1.00  0.00     0.060 A 
ATOM     31  C   UNL A   1      38.016  30.294  28.832  1.00  0.00     0.016 A 
ATOM     32  C   UNL A   1      38.779  30.057  31.117  1.00  0.00     0.016 A 
ATOM     33  C   UNL A   1      39.241  29.787  28.380  1.00  0.00     0.010 A 
ATOM     34  C   UNL A   1      40.006  29.557  30.664  1.00  0.00     0.010 A 
ATOM     35  C   UNL A   1      40.255  29.432  29.291  1.00  0.00    -0.014 A 
BRANCH  35  36
ATOM     36  C   UNL A   1      41.617  29.113  28.790  1.00  0.00     0.031 A 
ATOM     37  C   UNL A   1      42.728  30.124  28.763  1.00  0.00     0.074 A 
ATOM     38  C   UNL A   1      41.847  27.860  28.347  1.00  0.00     0.049 A 
ATOM     39  N   UNL A   1      43.992  29.934  28.475  1.00  0.00    -0.248 NA
ATOM     40  C   UNL A   1      42.389  31.514  29.096  1.00  0.00     0.031 C 
ATOM     41  C   UNL A   1      40.838  26.802  28.274  1.00  0.00     0.029 A 
ATOM     42  N   UNL A   1      42.993  27.261  27.889  1.00  0.00    -0.354 N 
ATOM     43  C   UNL A   1      44.606  31.173  28.605  1.00  0.00     0.074 A 
ATOM     44  C   UNL A   1      43.568  32.116  28.971  1.00  0.00     0.031 C 
ATOM     45  C   UNL A   1      41.417  25.673  27.836  1.00  0.00     0.029 A 
ATOM     46  C   UNL A   1      42.832  25.931  27.577  1.00  0.00     0.049 A 
ATOM     47  H   UNL A   1      43.849  27.736  27.792  1.00  0.00     0.167 HD
ATOM     48  C   UNL A   1      45.915  31.486  28.447  1.00  0.00     0.037 A 
ATOM     49  C   UNL A   1      43.717  25.013  27.147  1.00  0.00     0.037 A 
ATOM     50  C   UNL A   1      46.947  30.548  28.079  1.00  0.00     0.049 A 
ATOM     51  C   UNL A   1      45.159  25.392  26.967  1.00  0.00     0.074 A 
ATOM     52  C   UNL A   1      48.311  30.773  27.975  1.00  0.00     0.029 A 
ATOM     53  N   UNL A   1      46.738  29.221  27.735  1.00  0.00    -0.354 N 
ATOM     54  N   UNL A   1      45.738  26.544  27.200  1.00  0.00    -0.248 NA
ATOM     55  C   UNL A   1      46.067  24.348  26.472  1.00  0.00     0.031 C 
ATOM     56  C   UNL A   1      48.920  29.597  27.527  1.00  0.00     0.029 A 
ATOM     57  C   UNL A   1      47.943  28.626  27.389  1.00  0.00     0.049 A 
ATOM     58  H   UNL A   1      45.865  28.767  27.738  1.00  0.00     0.167 HD
ATOM     59  C   UNL A   1      47.082  26.360  26.893  1.00  0.00     0.074 A 
ATOM     60  C   UNL A   1      47.233  24.984  26.470  1.00  0.00     0.031 C 
ATOM     61  C   UNL A   1      48.094  27.258  26.960  1.00  0.00     0.037 A 
BRANCH  48  62
ATOM     62  C   UNL A   1      46.345  32.904  28.696  1.00  0.00     0.058 A 
ATOM     63  C   UNL A   1      46.791  33.307  29.963  1.00  0.00     0.135 A 
ATOM     64  C   UNL A   1      46.446  33.822  27.639  1.00  0.00     0.135 A 
ATOM     65  F   UNL A   1      46.705  32.468  31.008  1.00  0.00    -0.206 F 
ATOM     66  C   UNL A   1      47.332  34.571  30.171  1.00  0.00     0.059 A 
ATOM     67  C   UNL A   1      46.979  35.094  27.827  1.00  0.00     0.059 A 
ATOM     68  F   UNL A   1      46.049  33.475  26.405  1.00  0.00    -0.206 F 
ATOM     69  C   UNL A   1      47.413  35.464  29.099  1.00  0.00     0.060 A 
BRANCH  69  70
ATOM     70  S   UNL A   1      48.140  37.099  29.362  1.00  0.00     0.124 S 
ATOM     71  O   UNL A   1      47.743  37.805  28.148  1.00  0.00    -0.237 OA
ATOM     72  O   UNL A   1      47.493  37.547  30.593  1.00  0.00    -0.237 OA
ATOM     73  O   UNL A   1      49.565  36.812  29.481  1.00  0.00    -0.744 OA
ENDBRANCH  69  70
ENDBRANCH  48  62
BRANCH  49  74
ATOM     74  C   UNL A   1      43.258  23.621  26.908  1.00  0.00     0.058 A 
ATOM     75  C   UNL A   1      43.049  23.151  25.606  1.00  0.00     0.135 A 
ATOM     76  C   UNL A   1      43.084  22.721  27.972  1.00  0.00     0.135 A 
ATOM     77  F   UNL A   1      43.202  23.978  24.560  1.00  0.00    -0.206 F 
ATOM     78  C   UNL A   1      42.688  21.831  25.360  1.00  0.00     0.059 A 
ATOM     79  C   UNL A   1      42.742  21.391  27.750  1.00  0.00     0.059 A 
ATOM     80  F   UNL A   1      43.289  23.124  29.235  1.00  0.00    -0.206 F 
ATOM     81  C   UNL A   1      42.547  20.957  26.439  1.00  0.00     0.060 A 
BRANCH  81  82
ATOM     82  S   UNL A   1      42.165  19.225  26.099  1.00  0.00     0.124 S 
ATOM     83  O   UNL A   1      42.534  18.589  27.359  1.00  0.00    -0.237 OA
ATOM     84  O   UNL A   1      40.736  19.280  25.806  1.00  0.00    -0.237 OA
ATOM     85  O   UNL A   1      43.019  18.911  24.957  1.00  0.00    -0.744 OA
ENDBRANCH  81  82
ENDBRANCH  49  74
BRANCH  61  86
ATOM     86  C   UNL A   1      49.470  26.798  26.562  1.00  0.00     0.058 A 
ATOM     87  C   UNL A   1      50.295  26.105  27.461  1.00  0.00     0.135 A 
ATOM     88  C   UNL A   1      49.932  26.974  25.248  1.00  0.00     0.135 A 
ATOM     89  F   UNL A   1      49.904  25.920  28.731  1.00  0.00    -0.206 F 
ATOM     90  C   UNL A   1      51.532  25.601  27.070  1.00  0.00     0.059 A 
ATOM     91  C   UNL A   1      51.157  26.459  24.831  1.00  0.00     0.059 A 
ATOM     92  F   UNL A   1      49.180  27.627  24.348  1.00  0.00    -0.206 F 
ATOM     93  C   UNL A   1      51.950  25.775  25.750  1.00  0.00     0.060 A 
BRANCH  93  94
ATOM     94  S   UNL A   1      53.529  25.058  25.244  1.00  0.00     0.124 S 
ATOM     95  O   UNL A   1      53.251  23.629  25.345  1.00  0.00    -0.237 OA
ATOM     96  O   UNL A   1      53.687  25.578  23.890  1.00  0.00    -0.237 OA
ATOM     97  O   UNL A   1      54.473  25.584  26.226  1.00  0.00    -0.744 OA
ENDBRANCH  93  94
ENDBRANCH  61  86
ENDBRANCH  35  36
ENDBRANCH  28  30
ENDBRANCH  27  28
ENDBRANCH  26  27
ENDBRANCH   1  26
TORSDOF 17
ENDMDL
