MODEL 1
REMARK VINA RESULT:     -11.6      0.000      0.000
REMARK SMILES O=C(OCCOC(=O)c1nccnc1C(=O)N1CCC(Cc2ccccc2)CC1)c1ccc(-c2c3nc(c(-c4c(F)cc(S(=O)(=O)[O-])cc4F)c4ccc([nH]4)c(-c4c(F)cc(S(=O)(=O)[O-])cc4F)c4nc(c(-c5c(F)cc(S(=O)(=O)[O-])cc5F)c5ccc2[nH]5)C=C4)C=C3)cc1
REMARK SMILES IDX 4 1 3 2 2 3 1 4 30 5 31 6 95 7 32 8 94 9 33 10 34 11 35 12
REMARK SMILES IDX 88 13 36 14 93 15 87 16 89 17 37 18 92 19 86 20 85 21 38 23
REMARK SMILES IDX 72 24 51 25 71 26 52 27 55 28 70 29 90 30 53 31 54 32 69 34
REMARK SMILES IDX 91 35 56 36 39 37 40 38 49 39 41 40 42 41 48 42 50 43 43 44
REMARK SMILES IDX 44 45 45 46 46 47 47 48 73 49 74 50 83 51 75 52 76 53 82 54
REMARK SMILES IDX 84 55 77 56 78 57 79 58 80 59 81 60 57 61 58 62 67 63 59 64
REMARK SMILES IDX 60 65 66 66 68 67 61 68 62 69 63 70 64 71 65 72 5 73 6 74
REMARK SMILES IDX 7 75 8 76 9 77 10 78 14 79 11 80 13 81 12 82 15 83 16 84
REMARK SMILES IDX 17 85 18 86 29 87 19 88 28 89 20 90 21 91 22 92 23 93 27 94
REMARK SMILES IDX 24 95 26 96 25 97
REMARK H PARENT 89 22 55 33
REMARK Flexibility Score: inf
ROOT
ATOM      1  C   UNL A   1      32.787  28.515  27.510  1.00  0.00     0.275 C 
ENDROOT
BRANCH   1   2
ATOM      2  O   UNL A   1      34.198  28.711  27.499  1.00  0.00    -0.458 OA
BRANCH   2   3
ATOM      3  C   UNL A   1      34.578  29.918  27.978  1.00  0.00     0.338 C 
ATOM      4  O   UNL A   1      33.956  30.958  27.864  1.00  0.00    -0.246 OA
BRANCH   3   5
ATOM      5  C   UNL A   1      36.004  29.830  28.354  1.00  0.00     0.060 A 
ATOM      6  C   UNL A   1      36.379  29.417  29.629  1.00  0.00     0.016 A 
ATOM      7  C   UNL A   1      36.968  29.985  27.354  1.00  0.00     0.016 A 
ATOM      8  C   UNL A   1      37.707  29.143  29.890  1.00  0.00     0.010 A 
ATOM      9  C   UNL A   1      38.297  29.678  27.593  1.00  0.00     0.010 A 
ATOM     10  C   UNL A   1      38.659  29.267  28.870  1.00  0.00    -0.014 A 
BRANCH  10  11
ATOM     11  C   UNL A   1      40.058  29.015  29.214  1.00  0.00     0.031 A 
ATOM     12  C   UNL A   1      40.617  27.673  28.886  1.00  0.00     0.074 A 
ATOM     13  C   UNL A   1      40.791  30.043  29.671  1.00  0.00     0.049 A 
ATOM     14  N   UNL A   1      41.860  27.331  28.715  1.00  0.00    -0.248 NA
ATOM     15  C   UNL A   1      39.650  26.578  28.694  1.00  0.00     0.031 C 
ATOM     16  C   UNL A   1      40.258  31.362  30.033  1.00  0.00     0.029 A 
ATOM     17  N   UNL A   1      42.136  30.160  29.860  1.00  0.00    -0.354 N 
ATOM     18  C   UNL A   1      41.823  25.997  28.335  1.00  0.00     0.074 A 
ATOM     19  C   UNL A   1      40.445  25.566  28.383  1.00  0.00     0.031 C 
ATOM     20  C   UNL A   1      41.277  32.165  30.379  1.00  0.00     0.029 A 
ATOM     21  C   UNL A   1      42.525  31.427  30.223  1.00  0.00     0.049 A 
ATOM     22  H   UNL A   1      42.766  29.411  29.750  1.00  0.00     0.167 HD
ATOM     23  C   UNL A   1      42.861  25.225  27.945  1.00  0.00     0.037 A 
ATOM     24  C   UNL A   1      43.763  31.936  30.344  1.00  0.00     0.037 A 
ATOM     25  C   UNL A   1      44.215  25.706  27.959  1.00  0.00     0.049 A 
ATOM     26  C   UNL A   1      44.907  31.055  29.922  1.00  0.00     0.074 A 
ATOM     27  C   UNL A   1      45.377  25.053  27.602  1.00  0.00     0.029 A 
ATOM     28  N   UNL A   1      44.579  26.984  28.377  1.00  0.00    -0.354 N 
ATOM     29  N   UNL A   1      44.867  29.822  29.463  1.00  0.00    -0.248 NA
ATOM     30  C   UNL A   1      46.250  31.635  29.985  1.00  0.00     0.031 C 
ATOM     31  C   UNL A   1      46.447  25.924  27.844  1.00  0.00     0.029 A 
ATOM     32  C   UNL A   1      45.949  27.135  28.309  1.00  0.00     0.049 A 
ATOM     33  H   UNL A   1      43.950  27.679  28.678  1.00  0.00     0.167 HD
ATOM     34  C   UNL A   1      46.176  29.487  29.151  1.00  0.00     0.074 A 
ATOM     35  C   UNL A   1      46.981  30.657  29.467  1.00  0.00     0.031 C 
ATOM     36  C   UNL A   1      46.681  28.333  28.645  1.00  0.00     0.037 A 
BRANCH  23  37
ATOM     37  C   UNL A   1      42.548  23.824  27.507  1.00  0.00     0.058 A 
ATOM     38  C   UNL A   1      42.460  22.767  28.432  1.00  0.00     0.135 A 
ATOM     39  C   UNL A   1      42.383  23.515  26.149  1.00  0.00     0.135 A 
ATOM     40  F   UNL A   1      42.640  22.998  29.742  1.00  0.00    -0.206 F 
ATOM     41  C   UNL A   1      42.250  21.453  28.022  1.00  0.00     0.059 A 
ATOM     42  C   UNL A   1      42.150  22.212  25.718  1.00  0.00     0.059 A 
ATOM     43  F   UNL A   1      42.475  24.481  25.222  1.00  0.00    -0.206 F 
ATOM     44  C   UNL A   1      42.104  21.184  26.661  1.00  0.00     0.060 A 
BRANCH  44  45
ATOM     45  S   UNL A   1      41.859  19.472  26.141  1.00  0.00     0.124 S 
ATOM     46  O   UNL A   1      42.768  19.381  25.002  1.00  0.00    -0.237 OA
ATOM     47  O   UNL A   1      42.256  18.724  27.329  1.00  0.00    -0.237 OA
ATOM     48  O   UNL A   1      40.437  19.417  25.815  1.00  0.00    -0.744 OA
ENDBRANCH  44  45
ENDBRANCH  23  37
BRANCH  24  49
ATOM     49  C   UNL A   1      43.949  33.342  30.787  1.00  0.00     0.058 A 
ATOM     50  C   UNL A   1      44.104  33.676  32.140  1.00  0.00     0.135 A 
ATOM     51  C   UNL A   1      44.031  34.385  29.847  1.00  0.00     0.135 A 
ATOM     52  F   UNL A   1      44.051  32.717  33.077  1.00  0.00    -0.206 F 
ATOM     53  C   UNL A   1      44.309  34.991  32.550  1.00  0.00     0.059 A 
ATOM     54  C   UNL A   1      44.255  35.704  30.230  1.00  0.00     0.059 A 
ATOM     55  F   UNL A   1      43.926  34.117  28.536  1.00  0.00    -0.206 F 
ATOM     56  C   UNL A   1      44.382  35.999  31.586  1.00  0.00     0.060 A 
BRANCH  56  57
ATOM     57  S   UNL A   1      44.685  37.697  32.126  1.00  0.00     0.124 S 
ATOM     58  O   UNL A   1      46.120  37.824  31.905  1.00  0.00    -0.237 OA
ATOM     59  O   UNL A   1      43.828  38.462  31.224  1.00  0.00    -0.237 OA
ATOM     60  O   UNL A   1      44.259  37.685  33.522  1.00  0.00    -0.744 OA
ENDBRANCH  56  57
ENDBRANCH  24  49
BRANCH  36  61
ATOM     61  C   UNL A   1      48.158  28.307  28.398  1.00  0.00     0.058 A 
ATOM     62  C   UNL A   1      48.696  28.673  27.155  1.00  0.00     0.135 A 
ATOM     63  C   UNL A   1      49.041  27.958  29.431  1.00  0.00     0.135 A 
ATOM     64  F   UNL A   1      47.885  29.008  26.140  1.00  0.00    -0.206 F 
ATOM     65  C   UNL A   1      50.066  28.663  26.935  1.00  0.00     0.059 A 
ATOM     66  C   UNL A   1      50.416  27.969  29.240  1.00  0.00     0.059 A 
ATOM     67  F   UNL A   1      48.568  27.615  30.640  1.00  0.00    -0.206 F 
ATOM     68  C   UNL A   1      50.917  28.309  27.984  1.00  0.00     0.060 A 
BRANCH  68  69
ATOM     69  S   UNL A   1      52.696  28.325  27.693  1.00  0.00     0.124 S 
ATOM     70  O   UNL A   1      53.117  27.118  28.397  1.00  0.00    -0.237 OA
ATOM     71  O   UNL A   1      52.778  28.273  26.237  1.00  0.00    -0.237 OA
ATOM     72  O   UNL A   1      53.123  29.586  28.293  1.00  0.00    -0.744 OA
ENDBRANCH  68  69
ENDBRANCH  36  61
ENDBRANCH  10  11
ENDBRANCH   3   5
ENDBRANCH   2   3
ENDBRANCH   1   2
BRANCH   1  73
ATOM     73  C   UNL A   1      32.192  28.349  26.095  1.00  0.00     0.275 C 
BRANCH  73  74
ATOM     74  O   UNL A   1      32.479  29.436  25.192  1.00  0.00    -0.457 OA
BRANCH  74  75
ATOM     75  C   UNL A   1      32.508  29.230  23.844  1.00  0.00     0.359 C 
ATOM     76  O   UNL A   1      33.492  29.273  23.127  1.00  0.00    -0.244 OA
BRANCH  75  77
ATOM     77  C   UNL A   1      31.100  29.035  23.395  1.00  0.00     0.179 A 
ATOM     78  N   UNL A   1      30.310  30.155  23.582  1.00  0.00    -0.245 NA
ATOM     79  C   UNL A   1      30.590  27.880  22.809  1.00  0.00     0.161 A 
ATOM     80  C   UNL A   1      29.028  30.079  23.160  1.00  0.00     0.132 A 
ATOM     81  N   UNL A   1      29.266  27.820  22.429  1.00  0.00    -0.247 NA
ATOM     82  C   UNL A   1      28.514  28.931  22.605  1.00  0.00     0.132 A 
BRANCH  79  83
ATOM     83  C   UNL A   1      31.343  26.652  22.394  1.00  0.00     0.274 C 
ATOM     84  O   UNL A   1      31.356  26.369  21.192  1.00  0.00    -0.267 OA
ATOM     85  N   UNL A   1      31.984  25.817  23.325  1.00  0.00    -0.337 N 
ATOM     86  C   UNL A   1      33.357  25.486  22.944  1.00  0.00     0.120 C 
ATOM     87  C   UNL A   1      31.237  24.670  23.861  1.00  0.00     0.120 C 
ATOM     88  C   UNL A   1      33.852  24.136  23.461  1.00  0.00     0.025 C 
ATOM     89  C   UNL A   1      31.933  23.975  25.050  1.00  0.00     0.025 C 
ATOM     90  C   UNL A   1      33.476  23.972  24.936  1.00  0.00    -0.003 C 
BRANCH  90  91
ATOM     91  C   UNL A   1      34.090  22.730  25.622  1.00  0.00     0.039 C 
BRANCH  91  92
ATOM     92  C   UNL A   1      35.597  22.651  25.520  1.00  0.00    -0.048 A 
ATOM     93  C   UNL A   1      36.383  23.684  26.053  1.00  0.00     0.004 A 
ATOM     94  C   UNL A   1      36.230  21.519  24.990  1.00  0.00     0.004 A 
ATOM     95  C   UNL A   1      37.773  23.577  26.079  1.00  0.00     0.000 A 
ATOM     96  C   UNL A   1      37.624  21.415  25.017  1.00  0.00     0.000 A 
ATOM     97  C   UNL A   1      38.394  22.440  25.567  1.00  0.00     0.000 A 
ENDBRANCH  91  92
ENDBRANCH  90  91
ENDBRANCH  79  83
ENDBRANCH  75  77
ENDBRANCH  74  75
ENDBRANCH  73  74
ENDBRANCH   1  73
TORSDOF 17
ENDMDL
MODEL 2
REMARK VINA RESULT:     -11.4      7.257     14.519
REMARK SMILES O=C(OCCOC(=O)c1nccnc1C(=O)N1CCC(Cc2ccccc2)CC1)c1ccc(-c2c3nc(c(-c4c(F)cc(S(=O)(=O)[O-])cc4F)c4ccc([nH]4)c(-c4c(F)cc(S(=O)(=O)[O-])cc4F)c4nc(c(-c5c(F)cc(S(=O)(=O)[O-])cc5F)c5ccc2[nH]5)C=C4)C=C3)cc1
REMARK SMILES IDX 4 1 3 2 2 3 1 4 30 5 31 6 95 7 32 8 94 9 33 10 34 11 35 12
REMARK SMILES IDX 88 13 36 14 93 15 87 16 89 17 37 18 92 19 86 20 85 21 38 23
REMARK SMILES IDX 72 24 51 25 71 26 52 27 55 28 70 29 90 30 53 31 54 32 69 34
REMARK SMILES IDX 91 35 56 36 39 37 40 38 49 39 41 40 42 41 48 42 50 43 43 44
REMARK SMILES IDX 44 45 45 46 46 47 47 48 73 49 74 50 83 51 75 52 76 53 82 54
REMARK SMILES IDX 84 55 77 56 78 57 79 58 80 59 81 60 57 61 58 62 67 63 59 64
REMARK SMILES IDX 60 65 66 66 68 67 61 68 62 69 63 70 64 71 65 72 5 73 6 74
REMARK SMILES IDX 7 75 8 76 9 77 10 78 14 79 11 80 13 81 12 82 15 83 16 84
REMARK SMILES IDX 17 85 18 86 29 87 19 88 28 89 20 90 21 91 22 92 23 93 27 94
REMARK SMILES IDX 24 95 26 96 25 97
REMARK H PARENT 89 22 55 33
REMARK Flexibility Score: inf
ROOT
ATOM      1  C   UNL A   1      45.689  38.806  26.895  1.00  0.00     0.275 C 
ENDROOT
BRANCH   1   2
ATOM      2  O   UNL A   1      45.681  37.392  27.069  1.00  0.00    -0.458 OA
BRANCH   2   3
ATOM      3  C   UNL A   1      46.837  36.798  26.695  1.00  0.00     0.338 C 
ATOM      4  O   UNL A   1      47.708  37.300  26.009  1.00  0.00    -0.246 OA
BRANCH   3   5
ATOM      5  C   UNL A   1      46.714  35.350  26.966  1.00  0.00     0.060 A 
ATOM      6  C   UNL A   1      47.035  34.831  28.217  1.00  0.00     0.016 A 
ATOM      7  C   UNL A   1      46.090  34.544  26.009  1.00  0.00     0.016 A 
ATOM      8  C   UNL A   1      46.714  33.520  28.509  1.00  0.00     0.010 A 
ATOM      9  C   UNL A   1      45.731  33.239  26.303  1.00  0.00     0.010 A 
ATOM     10  C   UNL A   1      46.058  32.732  27.555  1.00  0.00    -0.014 A 
BRANCH  10  11
ATOM     11  C   UNL A   1      45.789  31.336  27.898  1.00  0.00     0.031 A 
ATOM     12  C   UNL A   1      44.421  30.997  28.381  1.00  0.00     0.074 A 
ATOM     13  C   UNL A   1      46.737  30.425  27.625  1.00  0.00     0.049 A 
ATOM     14  N   UNL A   1      43.818  29.844  28.368  1.00  0.00    -0.248 NA
ATOM     15  C   UNL A   1      43.612  32.103  28.922  1.00  0.00     0.031 C 
ATOM     16  C   UNL A   1      48.101  30.736  27.182  1.00  0.00     0.029 A 
ATOM     17  N   UNL A   1      46.688  29.062  27.631  1.00  0.00    -0.354 N 
ATOM     18  C   UNL A   1      42.538  30.097  28.841  1.00  0.00     0.074 A 
ATOM     19  C   UNL A   1      42.475  31.491  29.212  1.00  0.00     0.031 C 
ATOM     20  C   UNL A   1      48.752  29.589  26.933  1.00  0.00     0.029 A 
ATOM     21  C   UNL A   1      47.839  28.476  27.163  1.00  0.00     0.049 A 
ATOM     22  H   UNL A   1      45.906  28.550  27.941  1.00  0.00     0.167 HD
ATOM     23  C   UNL A   1      41.503  29.230  28.914  1.00  0.00     0.037 A 
ATOM     24  C   UNL A   1      48.085  27.183  26.891  1.00  0.00     0.037 A 
ATOM     25  C   UNL A   1      41.646  27.844  28.564  1.00  0.00     0.049 A 
ATOM     26  C   UNL A   1      46.926  26.230  26.995  1.00  0.00     0.074 A 
ATOM     27  C   UNL A   1      40.703  26.837  28.586  1.00  0.00     0.029 A 
ATOM     28  N   UNL A   1      42.841  27.272  28.136  1.00  0.00    -0.354 N 
ATOM     29  N   UNL A   1      45.683  26.486  27.344  1.00  0.00    -0.248 NA
ATOM     30  C   UNL A   1      47.178  24.835  26.627  1.00  0.00     0.031 C 
ATOM     31  C   UNL A   1      41.340  25.647  28.211  1.00  0.00     0.029 A 
ATOM     32  C   UNL A   1      42.669  25.921  27.911  1.00  0.00     0.049 A 
ATOM     33  H   UNL A   1      43.687  27.759  28.011  1.00  0.00     0.167 HD
ATOM     34  C   UNL A   1      44.993  25.290  27.209  1.00  0.00     0.074 A 
ATOM     35  C   UNL A   1      45.962  24.314  26.735  1.00  0.00     0.031 C 
ATOM     36  C   UNL A   1      43.686  25.010  27.442  1.00  0.00     0.037 A 
BRANCH  23  37
ATOM     37  C   UNL A   1      40.188  29.770  29.394  1.00  0.00     0.058 A 
ATOM     38  C   UNL A   1      39.125  30.016  28.506  1.00  0.00     0.135 A 
ATOM     39  C   UNL A   1      39.994  30.093  30.745  1.00  0.00     0.135 A 
ATOM     40  F   UNL A   1      39.265  29.754  27.196  1.00  0.00    -0.206 F 
ATOM     41  C   UNL A   1      37.933  30.591  28.935  1.00  0.00     0.059 A 
ATOM     42  C   UNL A   1      38.801  30.649  31.201  1.00  0.00     0.059 A 
ATOM     43  F   UNL A   1      40.980  29.895  31.635  1.00  0.00    -0.206 F 
ATOM     44  C   UNL A   1      37.783  30.912  30.284  1.00  0.00     0.060 A 
BRANCH  44  45
ATOM     45  S   UNL A   1      36.241  31.682  30.823  1.00  0.00     0.124 S 
ATOM     46  O   UNL A   1      35.423  31.568  29.619  1.00  0.00    -0.237 OA
ATOM     47  O   UNL A   1      35.841  30.833  31.941  1.00  0.00    -0.237 OA
ATOM     48  O   UNL A   1      36.646  33.037  31.182  1.00  0.00    -0.744 OA
ENDBRANCH  44  45
ENDBRANCH  23  37
BRANCH  24  49
ATOM     49  C   UNL A   1      49.431  26.766  26.418  1.00  0.00     0.058 A 
ATOM     50  C   UNL A   1      50.370  26.185  27.282  1.00  0.00     0.135 A 
ATOM     51  C   UNL A   1      49.787  26.894  25.064  1.00  0.00     0.135 A 
ATOM     52  F   UNL A   1      50.074  26.023  28.582  1.00  0.00    -0.206 F 
ATOM     53  C   UNL A   1      51.620  25.766  26.832  1.00  0.00     0.059 A 
ATOM     54  C   UNL A   1      51.022  26.466  24.585  1.00  0.00     0.059 A 
ATOM     55  F   UNL A   1      48.913  27.411  24.186  1.00  0.00    -0.206 F 
ATOM     56  C   UNL A   1      51.936  25.913  25.479  1.00  0.00     0.060 A 
BRANCH  56  57
ATOM     57  S   UNL A   1      53.546  25.334  24.896  1.00  0.00     0.124 S 
ATOM     58  O   UNL A   1      53.430  23.894  25.095  1.00  0.00    -0.237 OA
ATOM     59  O   UNL A   1      53.553  25.791  23.510  1.00  0.00    -0.237 OA
ATOM     60  O   UNL A   1      54.487  26.020  25.778  1.00  0.00    -0.744 OA
ENDBRANCH  56  57
ENDBRANCH  24  49
BRANCH  36  61
ATOM     61  C   UNL A   1      43.250  23.602  27.169  1.00  0.00     0.058 A 
ATOM     62  C   UNL A   1      43.045  22.688  28.212  1.00  0.00     0.135 A 
ATOM     63  C   UNL A   1      42.992  23.186  25.854  1.00  0.00     0.135 A 
ATOM     64  F   UNL A   1      43.285  23.046  29.483  1.00  0.00    -0.206 F 
ATOM     65  C   UNL A   1      42.625  21.390  27.957  1.00  0.00     0.059 A 
ATOM     66  C   UNL A   1      42.545  21.901  25.579  1.00  0.00     0.059 A 
ATOM     67  F   UNL A   1      43.163  24.035  24.828  1.00  0.00    -0.206 F 
ATOM     68  C   UNL A   1      42.379  21.006  26.636  1.00  0.00     0.060 A 
BRANCH  68  69
ATOM     69  S   UNL A   1      41.810  19.326  26.319  1.00  0.00     0.124 S 
ATOM     70  O   UNL A   1      42.245  18.638  27.529  1.00  0.00    -0.237 OA
ATOM     71  O   UNL A   1      40.369  19.504  26.173  1.00  0.00    -0.237 OA
ATOM     72  O   UNL A   1      42.516  18.957  25.095  1.00  0.00    -0.744 OA
ENDBRANCH  68  69
ENDBRANCH  36  61
ENDBRANCH  10  11
ENDBRANCH   3   5
ENDBRANCH   2   3
ENDBRANCH   1   2
BRANCH   1  73
ATOM     73  C   UNL A   1      44.270  39.405  26.780  1.00  0.00     0.275 C 
BRANCH  73  74
ATOM     74  O   UNL A   1      44.095  40.324  25.682  1.00  0.00    -0.457 OA
BRANCH  74  75
ATOM     75  C   UNL A   1      43.119  41.276  25.723  1.00  0.00     0.359 C 
ATOM     76  O   UNL A   1      41.935  41.089  25.941  1.00  0.00    -0.244 OA
BRANCH  75  77
ATOM     77  C   UNL A   1      43.753  42.576  25.361  1.00  0.00     0.179 A 
ATOM     78  N   UNL A   1      44.524  43.108  26.379  1.00  0.00    -0.245 NA
ATOM     79  C   UNL A   1      43.644  43.214  24.128  1.00  0.00     0.161 A 
ATOM     80  C   UNL A   1      45.171  44.265  26.119  1.00  0.00     0.132 A 
ATOM     81  N   UNL A   1      44.284  44.415  23.909  1.00  0.00    -0.247 NA
ATOM     82  C   UNL A   1      45.045  44.911  24.912  1.00  0.00     0.132 A 
BRANCH  79  83
ATOM     83  C   UNL A   1      42.989  42.698  22.883  1.00  0.00     0.274 C 
ATOM     84  O   UNL A   1      42.297  41.680  22.982  1.00  0.00    -0.267 OA
ATOM     85  N   UNL A   1      43.175  43.308  21.631  1.00  0.00    -0.337 N 
ATOM     86  C   UNL A   1      41.920  43.533  20.914  1.00  0.00     0.120 C 
ATOM     87  C   UNL A   1      44.256  42.812  20.768  1.00  0.00     0.120 C 
ATOM     88  C   UNL A   1      42.047  43.527  19.392  1.00  0.00     0.025 C 
ATOM     89  C   UNL A   1      44.533  43.705  19.541  1.00  0.00     0.025 C 
ATOM     90  C   UNL A   1      43.257  44.364  18.965  1.00  0.00    -0.003 C 
BRANCH  90  91
ATOM     91  C   UNL A   1      43.377  44.590  17.441  1.00  0.00     0.039 C 
BRANCH  91  92
ATOM     92  C   UNL A   1      43.289  46.041  17.023  1.00  0.00    -0.048 A 
ATOM     93  C   UNL A   1      42.036  46.608  16.746  1.00  0.00     0.004 A 
ATOM     94  C   UNL A   1      44.426  46.860  17.002  1.00  0.00     0.004 A 
ATOM     95  C   UNL A   1      41.918  47.971  16.477  1.00  0.00     0.000 A 
ATOM     96  C   UNL A   1      44.305  48.226  16.733  1.00  0.00     0.000 A 
ATOM     97  C   UNL A   1      43.051  48.782  16.477  1.00  0.00     0.000 A 
ENDBRANCH  91  92
ENDBRANCH  90  91
ENDBRANCH  79  83
ENDBRANCH  75  77
ENDBRANCH  74  75
ENDBRANCH  73  74
ENDBRANCH   1  73
TORSDOF 17
ENDMDL
MODEL 3
REMARK VINA RESULT:     -11.4      1.513      2.395
REMARK SMILES O=C(OCCOC(=O)c1nccnc1C(=O)N1CCC(Cc2ccccc2)CC1)c1ccc(-c2c3nc(c(-c4c(F)cc(S(=O)(=O)[O-])cc4F)c4ccc([nH]4)c(-c4c(F)cc(S(=O)(=O)[O-])cc4F)c4nc(c(-c5c(F)cc(S(=O)(=O)[O-])cc5F)c5ccc2[nH]5)C=C4)C=C3)cc1
REMARK SMILES IDX 4 1 3 2 2 3 1 4 30 5 31 6 95 7 32 8 94 9 33 10 34 11 35 12
REMARK SMILES IDX 88 13 36 14 93 15 87 16 89 17 37 18 92 19 86 20 85 21 38 23
REMARK SMILES IDX 72 24 51 25 71 26 52 27 55 28 70 29 90 30 53 31 54 32 69 34
REMARK SMILES IDX 91 35 56 36 39 37 40 38 49 39 41 40 42 41 48 42 50 43 43 44
REMARK SMILES IDX 44 45 45 46 46 47 47 48 73 49 74 50 83 51 75 52 76 53 82 54
REMARK SMILES IDX 84 55 77 56 78 57 79 58 80 59 81 60 57 61 58 62 67 63 59 64
REMARK SMILES IDX 60 65 66 66 68 67 61 68 62 69 63 70 64 71 65 72 5 73 6 74
REMARK SMILES IDX 7 75 8 76 9 77 10 78 14 79 11 80 13 81 12 82 15 83 16 84
REMARK SMILES IDX 17 85 18 86 29 87 19 88 28 89 20 90 21 91 22 92 23 93 27 94
REMARK SMILES IDX 24 95 26 96 25 97
REMARK H PARENT 89 22 55 33
REMARK Flexibility Score: inf
ROOT
ATOM      1  C   UNL A   1      32.734  28.920  26.671  1.00  0.00     0.275 C 
ENDROOT
BRANCH   1   2
ATOM      2  O   UNL A   1      34.009  28.893  27.306  1.00  0.00    -0.458 OA
BRANCH   2   3
ATOM      3  C   UNL A   1      34.334  30.059  27.910  1.00  0.00     0.338 C 
ATOM      4  O   UNL A   1      33.670  31.079  27.894  1.00  0.00    -0.246 OA
BRANCH   3   5
ATOM      5  C   UNL A   1      35.760  29.993  28.292  1.00  0.00     0.060 A 
ATOM      6  C   UNL A   1      36.132  29.739  29.609  1.00  0.00     0.016 A 
ATOM      7  C   UNL A   1      36.723  29.999  27.279  1.00  0.00     0.016 A 
ATOM      8  C   UNL A   1      37.455  29.474  29.901  1.00  0.00     0.010 A 
ATOM      9  C   UNL A   1      38.047  29.700  27.553  1.00  0.00     0.010 A 
ATOM     10  C   UNL A   1      38.406  29.448  28.872  1.00  0.00    -0.014 A 
BRANCH  10  11
ATOM     11  C   UNL A   1      39.801  29.215  29.244  1.00  0.00     0.031 A 
ATOM     12  C   UNL A   1      40.380  27.877  28.938  1.00  0.00     0.074 A 
ATOM     13  C   UNL A   1      40.514  30.255  29.705  1.00  0.00     0.049 A 
ATOM     14  N   UNL A   1      41.630  27.547  28.792  1.00  0.00    -0.248 NA
ATOM     15  C   UNL A   1      39.429  26.769  28.739  1.00  0.00     0.031 C 
ATOM     16  C   UNL A   1      39.960  31.570  30.045  1.00  0.00     0.029 A 
ATOM     17  N   UNL A   1      41.854  30.389  29.917  1.00  0.00    -0.354 N 
ATOM     18  C   UNL A   1      41.614  26.209  28.424  1.00  0.00     0.074 A 
ATOM     19  C   UNL A   1      40.241  25.764  28.451  1.00  0.00     0.031 C 
ATOM     20  C   UNL A   1      40.963  32.388  30.402  1.00  0.00     0.029 A 
ATOM     21  C   UNL A   1      42.222  31.663  30.275  1.00  0.00     0.049 A 
ATOM     22  H   UNL A   1      42.494  29.645  29.825  1.00  0.00     0.167 HD
ATOM     23  C   UNL A   1      42.668  25.445  28.060  1.00  0.00     0.037 A 
ATOM     24  C   UNL A   1      43.453  32.186  30.414  1.00  0.00     0.037 A 
ATOM     25  C   UNL A   1      44.016  25.941  28.094  1.00  0.00     0.049 A 
ATOM     26  C   UNL A   1      44.613  31.314  30.021  1.00  0.00     0.074 A 
ATOM     27  C   UNL A   1      45.191  25.298  27.764  1.00  0.00     0.029 A 
ATOM     28  N   UNL A   1      44.358  27.227  28.507  1.00  0.00    -0.354 N 
ATOM     29  N   UNL A   1      44.595  30.077  29.573  1.00  0.00    -0.248 NA
ATOM     30  C   UNL A   1      45.948  31.910  30.103  1.00  0.00     0.031 C 
ATOM     31  C   UNL A   1      46.247  26.183  28.018  1.00  0.00     0.029 A 
ATOM     32  C   UNL A   1      45.727  27.392  28.463  1.00  0.00     0.049 A 
ATOM     33  H   UNL A   1      43.716  27.917  28.790  1.00  0.00     0.167 HD
ATOM     34  C   UNL A   1      45.914  29.754  29.287  1.00  0.00     0.074 A 
ATOM     35  C   UNL A   1      46.699  30.935  29.607  1.00  0.00     0.031 C 
ATOM     36  C   UNL A   1      46.440  28.601  28.801  1.00  0.00     0.037 A 
BRANCH  23  37
ATOM     37  C   UNL A   1      42.378  24.036  27.629  1.00  0.00     0.058 A 
ATOM     38  C   UNL A   1      42.379  22.972  28.548  1.00  0.00     0.135 A 
ATOM     39  C   UNL A   1      42.145  23.731  26.280  1.00  0.00     0.135 A 
ATOM     40  F   UNL A   1      42.627  23.201  29.848  1.00  0.00    -0.206 F 
ATOM     41  C   UNL A   1      42.191  21.654  28.140  1.00  0.00     0.059 A 
ATOM     42  C   UNL A   1      41.933  22.423  25.853  1.00  0.00     0.059 A 
ATOM     43  F   UNL A   1      42.150  24.705  25.357  1.00  0.00    -0.206 F 
ATOM     44  C   UNL A   1      41.976  21.389  26.788  1.00  0.00     0.060 A 
BRANCH  44  45
ATOM     45  S   UNL A   1      41.760  19.673  26.268  1.00  0.00     0.124 S 
ATOM     46  O   UNL A   1      42.183  18.951  27.465  1.00  0.00    -0.237 OA
ATOM     47  O   UNL A   1      40.333  19.615  25.966  1.00  0.00    -0.237 OA
ATOM     48  O   UNL A   1      42.648  19.553  25.116  1.00  0.00    -0.744 OA
ENDBRANCH  44  45
ENDBRANCH  23  37
BRANCH  24  49
ATOM     49  C   UNL A   1      43.615  33.599  30.848  1.00  0.00     0.058 A 
ATOM     50  C   UNL A   1      43.773  33.943  32.197  1.00  0.00     0.135 A 
ATOM     51  C   UNL A   1      43.670  34.637  29.902  1.00  0.00     0.135 A 
ATOM     52  F   UNL A   1      43.746  32.989  33.140  1.00  0.00    -0.206 F 
ATOM     53  C   UNL A   1      43.957  35.264  32.599  1.00  0.00     0.059 A 
ATOM     54  C   UNL A   1      43.871  35.962  30.275  1.00  0.00     0.059 A 
ATOM     55  F   UNL A   1      43.560  34.360  28.593  1.00  0.00    -0.206 F 
ATOM     56  C   UNL A   1      44.003  36.268  31.629  1.00  0.00     0.060 A 
BRANCH  56  57
ATOM     57  S   UNL A   1      44.277  37.975  32.156  1.00  0.00     0.124 S 
ATOM     58  O   UNL A   1      43.399  38.068  33.316  1.00  0.00    -0.237 OA
ATOM     59  O   UNL A   1      45.710  37.983  32.435  1.00  0.00    -0.237 OA
ATOM     60  O   UNL A   1      43.869  38.754  30.990  1.00  0.00    -0.744 OA
ENDBRANCH  56  57
ENDBRANCH  24  49
BRANCH  36  61
ATOM     61  C   UNL A   1      47.922  28.590  28.581  1.00  0.00     0.058 A 
ATOM     62  C   UNL A   1      48.806  28.193  29.595  1.00  0.00     0.135 A 
ATOM     63  C   UNL A   1      48.452  28.933  27.328  1.00  0.00     0.135 A 
ATOM     64  F   UNL A   1      48.339  27.862  30.808  1.00  0.00    -0.206 F 
ATOM     65  C   UNL A   1      50.177  28.168  29.382  1.00  0.00     0.059 A 
ATOM     66  C   UNL A   1      49.818  28.888  27.086  1.00  0.00     0.059 A 
ATOM     67  F   UNL A   1      47.639  29.304  26.327  1.00  0.00    -0.206 F 
ATOM     68  C   UNL A   1      50.673  28.518  28.124  1.00  0.00     0.060 A 
BRANCH  68  69
ATOM     69  S   UNL A   1      52.454  28.456  27.851  1.00  0.00     0.124 S 
ATOM     70  O   UNL A   1      52.668  27.027  27.652  1.00  0.00    -0.237 OA
ATOM     71  O   UNL A   1      52.621  29.295  26.669  1.00  0.00    -0.237 OA
ATOM     72  O   UNL A   1      53.002  29.010  29.086  1.00  0.00    -0.744 OA
ENDBRANCH  68  69
ENDBRANCH  36  61
ENDBRANCH  10  11
ENDBRANCH   3   5
ENDBRANCH   2   3
ENDBRANCH   1   2
BRANCH   1  73
ATOM     73  C   UNL A   1      31.708  27.981  27.343  1.00  0.00     0.275 C 
BRANCH  73  74
ATOM     74  O   UNL A   1      31.733  26.622  26.860  1.00  0.00    -0.457 OA
BRANCH  74  75
ATOM     75  C   UNL A   1      30.693  26.126  26.131  1.00  0.00     0.359 C 
ATOM     76  O   UNL A   1      29.797  25.410  26.543  1.00  0.00    -0.244 OA
BRANCH  75  77
ATOM     77  C   UNL A   1      30.904  26.544  24.715  1.00  0.00     0.179 A 
ATOM     78  N   UNL A   1      29.801  27.172  24.164  1.00  0.00    -0.245 NA
ATOM     79  C   UNL A   1      32.080  26.379  23.989  1.00  0.00     0.161 A 
ATOM     80  C   UNL A   1      29.922  27.624  22.896  1.00  0.00     0.132 A 
ATOM     81  N   UNL A   1      32.157  26.813  22.683  1.00  0.00    -0.247 NA
ATOM     82  C   UNL A   1      31.073  27.438  22.167  1.00  0.00     0.132 A 
BRANCH  79  83
ATOM     83  C   UNL A   1      33.400  25.872  24.485  1.00  0.00     0.274 C 
ATOM     84  O   UNL A   1      34.272  26.707  24.742  1.00  0.00    -0.267 OA
ATOM     85  N   UNL A   1      33.672  24.500  24.621  1.00  0.00    -0.337 N 
ATOM     86  C   UNL A   1      34.268  24.162  25.914  1.00  0.00     0.120 C 
ATOM     87  C   UNL A   1      34.298  23.799  23.492  1.00  0.00     0.120 C 
ATOM     88  C   UNL A   1      35.180  22.937  25.892  1.00  0.00     0.025 C 
ATOM     89  C   UNL A   1      34.321  22.264  23.646  1.00  0.00     0.025 C 
ATOM     90  C   UNL A   1      34.512  21.801  25.111  1.00  0.00    -0.003 C 
BRANCH  90  91
ATOM     91  C   UNL A   1      35.255  20.448  25.183  1.00  0.00     0.039 C 
BRANCH  91  92
ATOM     92  C   UNL A   1      34.453  19.276  24.663  1.00  0.00    -0.048 A 
ATOM     93  C   UNL A   1      33.077  19.424  24.437  1.00  0.00     0.004 A 
ATOM     94  C   UNL A   1      35.075  18.071  24.309  1.00  0.00     0.004 A 
ATOM     95  C   UNL A   1      32.340  18.398  23.846  1.00  0.00     0.000 A 
ATOM     96  C   UNL A   1      34.334  17.045  23.716  1.00  0.00     0.000 A 
ATOM     97  C   UNL A   1      32.969  17.211  23.479  1.00  0.00     0.000 A 
ENDBRANCH  91  92
ENDBRANCH  90  91
ENDBRANCH  79  83
ENDBRANCH  75  77
ENDBRANCH  74  75
ENDBRANCH  73  74
ENDBRANCH   1  73
TORSDOF 17
ENDMDL
