MODEL 1
REMARK VINA RESULT:     -11.8      0.000      0.000
REMARK SMILES Cc1nnc(-c2ccccc2-c2cc(NCC(=O)OCCOC(=O)c3ccc(-c4c5nc(c(-c6c(F)cc(S(=O)(=O)[O-])cc6F)c6ccc([nH]6)c(-c6c(F)cc(S(=O)(=O)[O-])cc6F)c6nc(c(-c7c(F)cc(S(=O)(=O)[O-])cc7F)c7ccc4[nH]7)C=C6)C=C5)cc3)nc3[nH]ccc23)o1
REMARK SMILES IDX 20 1 19 2 17 3 18 4 16 5 15 6 14 8 12 9 13 10 96 11 92 12
REMARK SMILES IDX 95 13 91 14 93 15 94 16 11 18 6 19 7 20 8 21 10 22 9 23 5 24
REMARK SMILES IDX 1 25 2 26 3 27 97 28 4 29 21 30 22 31 23 32 24 33 25 34
REMARK SMILES IDX 26 35 90 36 27 37 89 38 28 39 29 40 30 41 83 42 31 43 88 44
REMARK SMILES IDX 82 45 84 46 32 47 87 48 81 49 80 50 33 52 67 53 46 54 66 55
REMARK SMILES IDX 47 56 50 57 65 58 85 59 48 60 49 61 64 63 86 64 51 65 34 66
REMARK SMILES IDX 35 67 44 68 36 69 37 70 43 71 45 72 38 73 39 74 40 75 41 76
REMARK SMILES IDX 42 77 68 78 69 79 78 80 70 81 71 82 77 83 79 84 72 85 73 86
REMARK SMILES IDX 74 87 75 88 76 89 52 90 53 91 62 92 54 93 55 94 61 95 63 96
REMARK SMILES IDX 56 97 57 98 58 99 59 100 60 101
REMARK H PARENT 15 7 93 17 84 51 50 62
REMARK Flexibility Score: inf
ROOT
ATOM      1  C   UNL A   1      41.421  21.686  26.631  1.00  0.00     0.274 C 
ENDROOT
BRANCH   1   2
ATOM      2  O   UNL A   1      40.136  22.254  26.931  1.00  0.00    -0.461 OA
BRANCH   2   3
ATOM      3  C   UNL A   1      39.106  21.895  26.113  1.00  0.00     0.325 C 
ATOM      4  O   UNL A   1      38.939  20.770  25.658  1.00  0.00    -0.250 OA
BRANCH   3   5
ATOM      5  C   UNL A   1      38.184  23.068  25.798  1.00  0.00     0.237 C 
BRANCH   5   6
ATOM      6  N   UNL A   1      36.892  22.976  26.483  1.00  0.00    -0.359 N 
ATOM      7  H   UNL A   1      36.808  23.226  27.432  1.00  0.00     0.162 HD
BRANCH   6   8
ATOM      8  C   UNL A   1      35.791  22.527  25.767  1.00  0.00     0.129 A 
ATOM      9  C   UNL A   1      33.950  23.031  24.238  1.00  0.00    -0.003 A 
ATOM     10  C   UNL A   1      35.050  23.445  25.019  1.00  0.00     0.056 A 
ATOM     11  C   UNL A   1      33.619  21.661  24.304  1.00  0.00     0.027 A 
ATOM     12  C   UNL A   1      34.399  20.864  25.128  1.00  0.00     0.140 A 
ATOM     13  C   UNL A   1      32.652  20.790  23.716  1.00  0.00     0.030 A 
ATOM     14  N   UNL A   1      35.454  21.230  25.863  1.00  0.00    -0.213 NA
ATOM     15  N   UNL A   1      33.925  19.584  25.074  1.00  0.00    -0.346 N 
ATOM     16  C   UNL A   1      32.861  19.520  24.213  1.00  0.00     0.085 A 
ATOM     17  H   UNL A   1      34.291  18.822  25.578  1.00  0.00     0.167 HD
BRANCH   9  18
ATOM     18  C   UNL A   1      33.183  23.934  23.363  1.00  0.00    -0.005 A 
ATOM     19  C   UNL A   1      32.027  24.622  23.798  1.00  0.00     0.047 A 
ATOM     20  C   UNL A   1      31.359  25.495  22.917  1.00  0.00     0.014 A 
ATOM     21  C   UNL A   1      31.820  25.696  21.617  1.00  0.00     0.001 A 
ATOM     22  C   UNL A   1      33.613  24.136  22.035  1.00  0.00     0.009 A 
ATOM     23  C   UNL A   1      32.946  25.011  21.174  1.00  0.00     0.001 A 
BRANCH  19  24
ATOM     24  C   UNL A   1      31.498  24.463  25.141  1.00  0.00     0.248 A 
ATOM     25  C   UNL A   1      29.376  22.556  27.199  1.00  0.00     0.113 C 
ATOM     26  C   UNL A   1      30.330  23.529  26.645  1.00  0.00     0.213 A 
ATOM     27  N   UNL A   1      31.041  24.455  27.254  1.00  0.00    -0.113 NA
ATOM     28  O   UNL A   1      30.542  23.493  25.295  1.00  0.00    -0.421 OA
ATOM     29  N   UNL A   1      31.808  25.058  26.274  1.00  0.00    -0.108 NA
ENDBRANCH  19  24
ENDBRANCH   9  18
ENDBRANCH   6   8
ENDBRANCH   5   6
ENDBRANCH   3   5
ENDBRANCH   2   3
ENDBRANCH   1   2
BRANCH   1  30
ATOM     30  C   UNL A   1      42.288  22.673  25.845  1.00  0.00     0.275 C 
BRANCH  30  31
ATOM     31  O   UNL A   1      42.668  23.812  26.640  1.00  0.00    -0.458 OA
BRANCH  31  32
ATOM     32  C   UNL A   1      42.319  25.019  26.131  1.00  0.00     0.338 C 
ATOM     33  O   UNL A   1      42.152  25.300  24.955  1.00  0.00    -0.246 OA
BRANCH  32  34
ATOM     34  C   UNL A   1      42.003  25.937  27.240  1.00  0.00     0.060 A 
ATOM     35  C   UNL A   1      42.768  27.100  27.368  1.00  0.00     0.016 A 
ATOM     36  C   UNL A   1      40.997  25.648  28.164  1.00  0.00     0.016 A 
ATOM     37  C   UNL A   1      42.523  27.988  28.412  1.00  0.00     0.010 A 
ATOM     38  C   UNL A   1      40.756  26.538  29.218  1.00  0.00     0.010 A 
ATOM     39  C   UNL A   1      41.519  27.713  29.348  1.00  0.00    -0.014 A 
BRANCH  39  40
ATOM     40  C   UNL A   1      41.289  28.641  30.480  1.00  0.00     0.031 A 
ATOM     41  C   UNL A   1      42.163  28.563  31.699  1.00  0.00     0.074 A 
ATOM     42  C   UNL A   1      40.307  29.559  30.406  1.00  0.00     0.049 A 
ATOM     43  N   UNL A   1      42.074  29.221  32.824  1.00  0.00    -0.248 NA
ATOM     44  C   UNL A   1      43.289  27.618  31.639  1.00  0.00     0.031 C 
ATOM     45  C   UNL A   1      39.432  29.764  29.251  1.00  0.00     0.029 A 
ATOM     46  N   UNL A   1      39.879  30.487  31.320  1.00  0.00    -0.354 N 
ATOM     47  C   UNL A   1      43.116  28.759  33.618  1.00  0.00     0.074 A 
ATOM     48  C   UNL A   1      43.818  27.753  32.848  1.00  0.00     0.031 C 
ATOM     49  C   UNL A   1      38.573  30.760  29.525  1.00  0.00     0.029 A 
ATOM     50  C   UNL A   1      38.803  31.226  30.891  1.00  0.00     0.049 A 
ATOM     51  H   UNL A   1      40.301  30.611  32.200  1.00  0.00     0.167 HD
ATOM     52  C   UNL A   1      43.454  29.142  34.872  1.00  0.00     0.037 A 
ATOM     53  C   UNL A   1      38.066  32.152  31.536  1.00  0.00     0.037 A 
ATOM     54  C   UNL A   1      42.755  30.152  35.624  1.00  0.00     0.049 A 
ATOM     55  C   UNL A   1      38.409  32.497  32.961  1.00  0.00     0.074 A 
ATOM     56  C   UNL A   1      43.032  30.626  36.895  1.00  0.00     0.029 A 
ATOM     57  N   UNL A   1      41.635  30.837  35.177  1.00  0.00    -0.354 N 
ATOM     58  N   UNL A   1      39.395  32.052  33.701  1.00  0.00    -0.248 NA
ATOM     59  C   UNL A   1      37.530  33.458  33.641  1.00  0.00     0.031 C 
ATOM     60  C   UNL A   1      42.052  31.567  37.232  1.00  0.00     0.029 A 
ATOM     61  C   UNL A   1      41.189  31.709  36.157  1.00  0.00     0.049 A 
ATOM     62  H   UNL A   1      41.217  30.722  34.293  1.00  0.00     0.167 HD
ATOM     63  C   UNL A   1      39.267  32.690  34.930  1.00  0.00     0.074 A 
ATOM     64  C   UNL A   1      38.112  33.559  34.829  1.00  0.00     0.031 C 
ATOM     65  C   UNL A   1      40.037  32.568  36.039  1.00  0.00     0.037 A 
BRANCH  52  66
ATOM     66  C   UNL A   1      44.609  28.432  35.524  1.00  0.00     0.058 A 
ATOM     67  C   UNL A   1      44.429  27.274  36.295  1.00  0.00     0.135 A 
ATOM     68  C   UNL A   1      45.917  28.919  35.368  1.00  0.00     0.135 A 
ATOM     69  F   UNL A   1      43.199  26.775  36.489  1.00  0.00    -0.206 F 
ATOM     70  C   UNL A   1      45.501  26.642  36.918  1.00  0.00     0.059 A 
ATOM     71  C   UNL A   1      47.007  28.290  35.962  1.00  0.00     0.059 A 
ATOM     72  F   UNL A   1      46.146  30.024  34.640  1.00  0.00    -0.206 F 
ATOM     73  C   UNL A   1      46.787  27.163  36.752  1.00  0.00     0.060 A 
BRANCH  73  74
ATOM     74  S   UNL A   1      48.165  26.352  37.589  1.00  0.00     0.124 S 
ATOM     75  O   UNL A   1      47.663  26.264  38.957  1.00  0.00    -0.237 OA
ATOM     76  O   UNL A   1      48.270  25.086  36.871  1.00  0.00    -0.237 OA
ATOM     77  O   UNL A   1      49.277  27.277  37.388  1.00  0.00    -0.744 OA
ENDBRANCH  73  74
ENDBRANCH  52  66
BRANCH  53  78
ATOM     78  C   UNL A   1      36.919  32.799  30.848  1.00  0.00     0.058 A 
ATOM     79  C   UNL A   1      35.607  32.351  31.057  1.00  0.00     0.135 A 
ATOM     80  C   UNL A   1      37.108  33.888  29.983  1.00  0.00     0.135 A 
ATOM     81  F   UNL A   1      35.376  31.306  31.865  1.00  0.00    -0.206 F 
ATOM     82  C   UNL A   1      34.522  32.957  30.430  1.00  0.00     0.059 A 
ATOM     83  C   UNL A   1      36.038  34.525  29.363  1.00  0.00     0.059 A 
ATOM     84  F   UNL A   1      38.344  34.360  29.754  1.00  0.00    -0.206 F 
ATOM     85  C   UNL A   1      34.748  34.047  29.588  1.00  0.00     0.060 A 
BRANCH  85  86
ATOM     86  S   UNL A   1      33.329  34.862  28.824  1.00  0.00     0.124 S 
ATOM     87  O   UNL A   1      33.958  36.016  28.193  1.00  0.00    -0.237 OA
ATOM     88  O   UNL A   1      32.832  33.831  27.916  1.00  0.00    -0.237 OA
ATOM     89  O   UNL A   1      32.460  35.157  29.959  1.00  0.00    -0.744 OA
ENDBRANCH  85  86
ENDBRANCH  53  78
BRANCH  65  90
ATOM     90  C   UNL A   1      39.670  33.409  37.230  1.00  0.00     0.058 A 
ATOM     91  C   UNL A   1      38.715  32.981  38.164  1.00  0.00     0.135 A 
ATOM     92  C   UNL A   1      40.331  34.624  37.474  1.00  0.00     0.135 A 
ATOM     93  F   UNL A   1      38.048  31.832  37.971  1.00  0.00    -0.206 F 
ATOM     94  C   UNL A   1      38.418  33.735  39.294  1.00  0.00     0.059 A 
ATOM     95  C   UNL A   1      40.066  35.383  38.610  1.00  0.00     0.059 A 
ATOM     96  F   UNL A   1      41.259  35.073  36.615  1.00  0.00    -0.206 F 
ATOM     97  C   UNL A   1      39.102  34.933  39.512  1.00  0.00     0.060 A 
BRANCH  97  98
ATOM     98  S   UNL A   1      38.747  35.875  41.010  1.00  0.00     0.124 S 
ATOM     99  O   UNL A   1      37.576  35.177  41.527  1.00  0.00    -0.237 OA
ATOM    100  O   UNL A   1      39.976  35.711  41.782  1.00  0.00    -0.237 OA
ATOM    101  O   UNL A   1      38.506  37.226  40.512  1.00  0.00    -0.744 OA
ENDBRANCH  97  98
ENDBRANCH  65  90
ENDBRANCH  39  40
ENDBRANCH  32  34
ENDBRANCH  31  32
ENDBRANCH  30  31
ENDBRANCH   1  30
TORSDOF 18
ENDMDL
MODEL 2
REMARK VINA RESULT:     -11.8      6.453     11.589
REMARK SMILES Cc1nnc(-c2ccccc2-c2cc(NCC(=O)OCCOC(=O)c3ccc(-c4c5nc(c(-c6c(F)cc(S(=O)(=O)[O-])cc6F)c6ccc([nH]6)c(-c6c(F)cc(S(=O)(=O)[O-])cc6F)c6nc(c(-c7c(F)cc(S(=O)(=O)[O-])cc7F)c7ccc4[nH]7)C=C6)C=C5)cc3)nc3[nH]ccc23)o1
REMARK SMILES IDX 20 1 19 2 17 3 18 4 16 5 15 6 14 8 12 9 13 10 96 11 92 12
REMARK SMILES IDX 95 13 91 14 93 15 94 16 11 18 6 19 7 20 8 21 10 22 9 23 5 24
REMARK SMILES IDX 1 25 2 26 3 27 97 28 4 29 21 30 22 31 23 32 24 33 25 34
REMARK SMILES IDX 26 35 90 36 27 37 89 38 28 39 29 40 30 41 83 42 31 43 88 44
REMARK SMILES IDX 82 45 84 46 32 47 87 48 81 49 80 50 33 52 67 53 46 54 66 55
REMARK SMILES IDX 47 56 50 57 65 58 85 59 48 60 49 61 64 63 86 64 51 65 34 66
REMARK SMILES IDX 35 67 44 68 36 69 37 70 43 71 45 72 38 73 39 74 40 75 41 76
REMARK SMILES IDX 42 77 68 78 69 79 78 80 70 81 71 82 77 83 79 84 72 85 73 86
REMARK SMILES IDX 74 87 75 88 76 89 52 90 53 91 62 92 54 93 55 94 61 95 63 96
REMARK SMILES IDX 56 97 57 98 58 99 59 100 60 101
REMARK H PARENT 15 7 93 17 84 51 50 62
REMARK Flexibility Score: inf
ROOT
ATOM      1  C   UNL A   1      34.284  31.746  27.922  1.00  0.00     0.274 C 
ENDROOT
BRANCH   1   2
ATOM      2  O   UNL A   1      33.529  30.556  27.642  1.00  0.00    -0.461 OA
BRANCH   2   3
ATOM      3  C   UNL A   1      32.403  30.713  26.889  1.00  0.00     0.325 C 
ATOM      4  O   UNL A   1      31.712  31.725  26.874  1.00  0.00    -0.250 OA
BRANCH   3   5
ATOM      5  C   UNL A   1      32.075  29.466  26.075  1.00  0.00     0.237 C 
BRANCH   5   6
ATOM      6  N   UNL A   1      33.252  28.636  25.808  1.00  0.00    -0.359 N 
ATOM      7  H   UNL A   1      34.114  29.048  25.572  1.00  0.00     0.162 HD
BRANCH   6   8
ATOM      8  C   UNL A   1      33.125  27.257  25.894  1.00  0.00     0.129 A 
ATOM      9  C   UNL A   1      34.114  25.046  25.560  1.00  0.00    -0.003 A 
ATOM     10  C   UNL A   1      34.177  26.450  25.452  1.00  0.00     0.056 A 
ATOM     11  C   UNL A   1      32.917  24.512  26.083  1.00  0.00     0.027 A 
ATOM     12  C   UNL A   1      31.926  25.416  26.433  1.00  0.00     0.140 A 
ATOM     13  C   UNL A   1      32.397  23.219  26.393  1.00  0.00     0.030 A 
ATOM     14  N   UNL A   1      31.969  26.750  26.355  1.00  0.00    -0.213 NA
ATOM     15  N   UNL A   1      30.848  24.722  26.903  1.00  0.00    -0.346 N 
ATOM     16  C   UNL A   1      31.121  23.380  26.890  1.00  0.00     0.085 A 
ATOM     17  H   UNL A   1      30.002  25.125  27.206  1.00  0.00     0.167 HD
BRANCH   9  18
ATOM     18  C   UNL A   1      35.223  24.148  25.193  1.00  0.00    -0.005 A 
ATOM     19  C   UNL A   1      35.264  23.443  23.966  1.00  0.00     0.047 A 
ATOM     20  C   UNL A   1      36.370  22.624  23.665  1.00  0.00     0.014 A 
ATOM     21  C   UNL A   1      37.432  22.497  24.558  1.00  0.00     0.001 A 
ATOM     22  C   UNL A   1      36.300  23.979  26.087  1.00  0.00     0.009 A 
ATOM     23  C   UNL A   1      37.395  23.171  25.773  1.00  0.00     0.001 A 
BRANCH  19  24
ATOM     24  C   UNL A   1      34.193  23.538  22.990  1.00  0.00     0.248 A 
ATOM     25  C   UNL A   1      32.667  25.585  20.570  1.00  0.00     0.113 C 
ATOM     26  C   UNL A   1      33.058  24.492  21.473  1.00  0.00     0.213 A 
ATOM     27  N   UNL A   1      32.597  23.261  21.559  1.00  0.00    -0.113 NA
ATOM     28  O   UNL A   1      34.054  24.754  22.373  1.00  0.00    -0.421 OA
ATOM     29  N   UNL A   1      33.342  22.638  22.542  1.00  0.00    -0.108 NA
ENDBRANCH  19  24
ENDBRANCH   9  18
ENDBRANCH   6   8
ENDBRANCH   5   6
ENDBRANCH   3   5
ENDBRANCH   2   3
ENDBRANCH   1   2
BRANCH   1  30
ATOM     30  C   UNL A   1      35.201  31.543  29.131  1.00  0.00     0.275 C 
BRANCH  30  31
ATOM     31  O   UNL A   1      35.874  30.271  29.092  1.00  0.00    -0.458 OA
BRANCH  31  32
ATOM     32  C   UNL A   1      36.628  29.978  30.180  1.00  0.00     0.338 C 
ATOM     33  O   UNL A   1      36.234  29.809  31.323  1.00  0.00    -0.246 OA
BRANCH  32  34
ATOM     34  C   UNL A   1      38.017  29.729  29.752  1.00  0.00     0.060 A 
ATOM     35  C   UNL A   1      38.283  29.683  28.381  1.00  0.00     0.016 A 
ATOM     36  C   UNL A   1      39.038  29.507  30.679  1.00  0.00     0.016 A 
ATOM     37  C   UNL A   1      39.575  29.429  27.928  1.00  0.00     0.010 A 
ATOM     38  C   UNL A   1      40.334  29.244  30.222  1.00  0.00     0.010 A 
ATOM     39  C   UNL A   1      40.610  29.203  28.843  1.00  0.00    -0.014 A 
BRANCH  39  40
ATOM     40  C   UNL A   1      41.975  28.893  28.354  1.00  0.00     0.031 A 
ATOM     41  C   UNL A   1      42.318  27.491  27.939  1.00  0.00     0.074 A 
ATOM     42  C   UNL A   1      42.895  29.872  28.272  1.00  0.00     0.049 A 
ATOM     43  N   UNL A   1      43.470  26.998  27.568  1.00  0.00    -0.248 NA
ATOM     44  C   UNL A   1      41.215  26.517  27.942  1.00  0.00     0.031 C 
ATOM     45  C   UNL A   1      42.659  31.280  28.594  1.00  0.00     0.029 A 
ATOM     46  N   UNL A   1      44.213  29.830  27.895  1.00  0.00    -0.354 N 
ATOM     47  C   UNL A   1      43.241  25.652  27.311  1.00  0.00     0.074 A 
ATOM     48  C   UNL A   1      41.840  25.404  27.583  1.00  0.00     0.031 C 
ATOM     49  C   UNL A   1      43.795  31.969  28.397  1.00  0.00     0.029 A 
ATOM     50  C   UNL A   1      44.849  31.045  27.985  1.00  0.00     0.049 A 
ATOM     51  H   UNL A   1      44.661  29.009  27.590  1.00  0.00     0.167 HD
ATOM     52  C   UNL A   1      44.119  24.713  26.887  1.00  0.00     0.037 A 
ATOM     53  C   UNL A   1      46.142  31.370  27.789  1.00  0.00     0.037 A 
ATOM     54  C   UNL A   1      45.508  24.974  26.609  1.00  0.00     0.049 A 
ATOM     55  C   UNL A   1      47.118  30.291  27.402  1.00  0.00     0.074 A 
ATOM     56  C   UNL A   1      46.477  24.095  26.154  1.00  0.00     0.029 A 
ATOM     57  N   UNL A   1      46.129  26.205  26.768  1.00  0.00    -0.354 N 
ATOM     58  N   UNL A   1      46.890  29.022  27.165  1.00  0.00    -0.248 NA
ATOM     59  C   UNL A   1      48.527  30.685  27.272  1.00  0.00     0.031 C 
ATOM     60  C   UNL A   1      47.692  24.786  26.081  1.00  0.00     0.029 A 
ATOM     61  C   UNL A   1      47.474  26.103  26.450  1.00  0.00     0.049 A 
ATOM     62  H   UNL A   1      45.680  27.030  27.063  1.00  0.00     0.167 HD
ATOM     63  C   UNL A   1      48.124  28.467  26.840  1.00  0.00     0.074 A 
ATOM     64  C   UNL A   1      49.092  29.543  26.904  1.00  0.00     0.031 C 
ATOM     65  C   UNL A   1      48.424  27.185  26.518  1.00  0.00     0.037 A 
BRANCH  52  66
ATOM     66  C   UNL A   1      43.611  23.306  26.738  1.00  0.00     0.058 A 
ATOM     67  C   UNL A   1      43.329  22.497  27.850  1.00  0.00     0.135 A 
ATOM     68  C   UNL A   1      43.396  22.762  25.461  1.00  0.00     0.135 A 
ATOM     69  F   UNL A   1      43.530  22.961  29.092  1.00  0.00    -0.206 F 
ATOM     70  C   UNL A   1      42.886  21.186  27.701  1.00  0.00     0.059 A 
ATOM     71  C   UNL A   1      42.931  21.462  25.289  1.00  0.00     0.059 A 
ATOM     72  F   UNL A   1      43.649  23.493  24.364  1.00  0.00    -0.206 F 
ATOM     73  C   UNL A   1      42.698  20.674  26.415  1.00  0.00     0.060 A 
BRANCH  73  74
ATOM     74  S   UNL A   1      42.151  18.963  26.234  1.00  0.00     0.124 S 
ATOM     75  O   UNL A   1      40.777  19.146  25.775  1.00  0.00    -0.237 OA
ATOM     76  O   UNL A   1      43.084  18.436  25.245  1.00  0.00    -0.237 OA
ATOM     77  O   UNL A   1      42.294  18.417  27.580  1.00  0.00    -0.744 OA
ENDBRANCH  73  74
ENDBRANCH  52  66
BRANCH  53  78
ATOM     78  C   UNL A   1      46.591  32.774  27.978  1.00  0.00     0.058 A 
ATOM     79  C   UNL A   1      47.181  33.187  29.181  1.00  0.00     0.135 A 
ATOM     80  C   UNL A   1      46.456  33.726  26.956  1.00  0.00     0.135 A 
ATOM     81  F   UNL A   1      47.321  32.317  30.193  1.00  0.00    -0.206 F 
ATOM     82  C   UNL A   1      47.620  34.494  29.366  1.00  0.00     0.059 A 
ATOM     83  C   UNL A   1      46.908  35.033  27.108  1.00  0.00     0.059 A 
ATOM     84  F   UNL A   1      45.904  33.381  25.782  1.00  0.00    -0.206 F 
ATOM     85  C   UNL A   1      47.482  35.410  28.321  1.00  0.00     0.060 A 
BRANCH  85  86
ATOM     86  S   UNL A   1      48.105  37.090  28.551  1.00  0.00     0.124 S 
ATOM     87  O   UNL A   1      49.508  36.843  28.861  1.00  0.00    -0.237 OA
ATOM     88  O   UNL A   1      47.837  37.699  27.251  1.00  0.00    -0.237 OA
ATOM     89  O   UNL A   1      47.294  37.600  29.652  1.00  0.00    -0.744 OA
ENDBRANCH  85  86
ENDBRANCH  53  78
BRANCH  65  90
ATOM     90  C   UNL A   1      49.857  26.875  26.188  1.00  0.00     0.058 A 
ATOM     91  C   UNL A   1      50.735  26.349  27.148  1.00  0.00     0.135 A 
ATOM     92  C   UNL A   1      50.339  27.043  24.880  1.00  0.00     0.135 A 
ATOM     93  F   UNL A   1      50.326  26.179  28.416  1.00  0.00    -0.206 F 
ATOM     94  C   UNL A   1      52.044  26.010  26.826  1.00  0.00     0.059 A 
ATOM     95  C   UNL A   1      51.638  26.689  24.529  1.00  0.00     0.059 A 
ATOM     96  F   UNL A   1      49.537  27.535  23.922  1.00  0.00    -0.206 F 
ATOM     97  C   UNL A   1      52.487  26.180  25.512  1.00  0.00     0.060 A 
BRANCH  97  98
ATOM     98  S   UNL A   1      54.172  25.685  25.093  1.00  0.00     0.124 S 
ATOM     99  O   UNL A   1      54.073  24.231  25.146  1.00  0.00    -0.237 OA
ATOM    100  O   UNL A   1      54.347  26.262  23.764  1.00  0.00    -0.237 OA
ATOM    101  O   UNL A   1      54.976  26.299  26.146  1.00  0.00    -0.744 OA
ENDBRANCH  97  98
ENDBRANCH  65  90
ENDBRANCH  39  40
ENDBRANCH  32  34
ENDBRANCH  31  32
ENDBRANCH  30  31
ENDBRANCH   1  30
TORSDOF 18
ENDMDL
MODEL 3
REMARK VINA RESULT:     -11.7      6.242     11.667
REMARK SMILES Cc1nnc(-c2ccccc2-c2cc(NCC(=O)OCCOC(=O)c3ccc(-c4c5nc(c(-c6c(F)cc(S(=O)(=O)[O-])cc6F)c6ccc([nH]6)c(-c6c(F)cc(S(=O)(=O)[O-])cc6F)c6nc(c(-c7c(F)cc(S(=O)(=O)[O-])cc7F)c7ccc4[nH]7)C=C6)C=C5)cc3)nc3[nH]ccc23)o1
REMARK SMILES IDX 20 1 19 2 17 3 18 4 16 5 15 6 14 8 12 9 13 10 96 11 92 12
REMARK SMILES IDX 95 13 91 14 93 15 94 16 11 18 6 19 7 20 8 21 10 22 9 23 5 24
REMARK SMILES IDX 1 25 2 26 3 27 97 28 4 29 21 30 22 31 23 32 24 33 25 34
REMARK SMILES IDX 26 35 90 36 27 37 89 38 28 39 29 40 30 41 83 42 31 43 88 44
REMARK SMILES IDX 82 45 84 46 32 47 87 48 81 49 80 50 33 52 67 53 46 54 66 55
REMARK SMILES IDX 47 56 50 57 65 58 85 59 48 60 49 61 64 63 86 64 51 65 34 66
REMARK SMILES IDX 35 67 44 68 36 69 37 70 43 71 45 72 38 73 39 74 40 75 41 76
REMARK SMILES IDX 42 77 68 78 69 79 78 80 70 81 71 82 77 83 79 84 72 85 73 86
REMARK SMILES IDX 74 87 75 88 76 89 52 90 53 91 62 92 54 93 55 94 61 95 63 96
REMARK SMILES IDX 56 97 57 98 58 99 59 100 60 101
REMARK H PARENT 15 7 93 17 84 51 50 62
REMARK Flexibility Score: inf
ROOT
ATOM      1  C   UNL A   1      33.842  31.640  27.487  1.00  0.00     0.274 C 
ENDROOT
BRANCH   1   2
ATOM      2  O   UNL A   1      32.895  30.563  27.574  1.00  0.00    -0.461 OA
BRANCH   2   3
ATOM      3  C   UNL A   1      32.044  30.414  26.519  1.00  0.00     0.325 C 
ATOM      4  O   UNL A   1      31.314  31.298  26.086  1.00  0.00    -0.250 OA
BRANCH   3   5
ATOM      5  C   UNL A   1      32.078  29.002  25.945  1.00  0.00     0.237 C 
BRANCH   5   6
ATOM      6  N   UNL A   1      32.531  28.004  26.917  1.00  0.00    -0.359 N 
ATOM      7  H   UNL A   1      32.935  28.281  27.770  1.00  0.00     0.162 HD
BRANCH   6   8
ATOM      8  C   UNL A   1      32.378  26.660  26.608  1.00  0.00     0.129 A 
ATOM      9  C   UNL A   1      33.360  24.592  25.748  1.00  0.00    -0.003 A 
ATOM     10  C   UNL A   1      33.451  25.969  26.038  1.00  0.00     0.056 A 
ATOM     11  C   UNL A   1      32.118  23.978  26.015  1.00  0.00     0.027 A 
ATOM     12  C   UNL A   1      31.114  24.786  26.527  1.00  0.00     0.140 A 
ATOM     13  C   UNL A   1      31.557  22.668  25.916  1.00  0.00     0.030 A 
ATOM     14  N   UNL A   1      31.182  26.087  26.825  1.00  0.00    -0.213 NA
ATOM     15  N   UNL A   1      29.993  24.027  26.708  1.00  0.00    -0.346 N 
ATOM     16  C   UNL A   1      30.247  22.731  26.344  1.00  0.00     0.085 A 
ATOM     17  H   UNL A   1      29.132  24.361  27.048  1.00  0.00     0.167 HD
BRANCH   9  18
ATOM     18  C   UNL A   1      34.482  23.791  25.228  1.00  0.00    -0.005 A 
ATOM     19  C   UNL A   1      34.877  23.817  23.870  1.00  0.00     0.047 A 
ATOM     20  C   UNL A   1      35.979  23.048  23.446  1.00  0.00     0.014 A 
ATOM     21  C   UNL A   1      36.693  22.260  24.346  1.00  0.00     0.001 A 
ATOM     22  C   UNL A   1      35.207  22.964  26.112  1.00  0.00     0.009 A 
ATOM     23  C   UNL A   1      36.303  22.214  25.680  1.00  0.00     0.001 A 
BRANCH  19  24
ATOM     24  C   UNL A   1      34.179  24.622  22.883  1.00  0.00     0.248 A 
ATOM     25  C   UNL A   1      33.367  27.894  21.881  1.00  0.00     0.113 C 
ATOM     26  C   UNL A   1      33.529  26.437  22.000  1.00  0.00     0.213 A 
ATOM     27  N   UNL A   1      33.167  25.477  21.175  1.00  0.00    -0.113 NA
ATOM     28  O   UNL A   1      34.151  25.971  23.125  1.00  0.00    -0.421 OA
ATOM     29  N   UNL A   1      33.599  24.295  21.747  1.00  0.00    -0.108 NA
ENDBRANCH  19  24
ENDBRANCH   9  18
ENDBRANCH   6   8
ENDBRANCH   5   6
ENDBRANCH   3   5
ENDBRANCH   2   3
ENDBRANCH   1   2
BRANCH   1  30
ATOM     30  C   UNL A   1      34.522  31.883  28.837  1.00  0.00     0.275 C 
BRANCH  30  31
ATOM     31  O   UNL A   1      35.921  31.542  28.808  1.00  0.00    -0.458 OA
BRANCH  31  32
ATOM     32  C   UNL A   1      36.379  30.870  29.892  1.00  0.00     0.338 C 
ATOM     33  O   UNL A   1      35.733  30.521  30.867  1.00  0.00    -0.246 OA
BRANCH  32  34
ATOM     34  C   UNL A   1      37.777  30.466  29.654  1.00  0.00     0.060 A 
ATOM     35  C   UNL A   1      38.170  30.202  28.340  1.00  0.00     0.016 A 
ATOM     36  C   UNL A   1      38.681  30.312  30.707  1.00  0.00     0.016 A 
ATOM     37  C   UNL A   1      39.474  29.796  28.067  1.00  0.00     0.010 A 
ATOM     38  C   UNL A   1      39.989  29.896  30.433  1.00  0.00     0.010 A 
ATOM     39  C   UNL A   1      40.393  29.636  29.111  1.00  0.00    -0.014 A 
BRANCH  39  40
ATOM     40  C   UNL A   1      41.768  29.165  28.819  1.00  0.00     0.031 A 
ATOM     41  C   UNL A   1      42.919  30.125  28.903  1.00  0.00     0.074 A 
ATOM     42  C   UNL A   1      41.979  27.875  28.495  1.00  0.00     0.049 A 
ATOM     43  N   UNL A   1      44.178  29.935  28.605  1.00  0.00    -0.248 NA
ATOM     44  C   UNL A   1      42.611  31.479  29.388  1.00  0.00     0.031 C 
ATOM     45  C   UNL A   1      40.946  26.840  28.439  1.00  0.00     0.029 A 
ATOM     46  N   UNL A   1      43.133  27.217  28.151  1.00  0.00    -0.354 N 
ATOM     47  C   UNL A   1      44.812  31.147  28.845  1.00  0.00     0.074 A 
ATOM     48  C   UNL A   1      43.794  32.072  29.302  1.00  0.00     0.031 C 
ATOM     49  C   UNL A   1      41.514  25.676  28.083  1.00  0.00     0.029 A 
ATOM     50  C   UNL A   1      42.938  25.893  27.839  1.00  0.00     0.049 A 
ATOM     51  H   UNL A   1      44.015  27.652  28.128  1.00  0.00     0.167 HD
ATOM     52  C   UNL A   1      46.122  31.457  28.699  1.00  0.00     0.037 A 
ATOM     53  C   UNL A   1      43.802  24.969  27.378  1.00  0.00     0.037 A 
ATOM     54  C   UNL A   1      47.127  30.526  28.255  1.00  0.00     0.049 A 
ATOM     55  C   UNL A   1      45.237  25.361  27.141  1.00  0.00     0.074 A 
ATOM     56  C   UNL A   1      48.486  30.736  28.094  1.00  0.00     0.029 A 
ATOM     57  N   UNL A   1      46.881  29.209  27.893  1.00  0.00    -0.354 N 
ATOM     58  N   UNL A   1      45.824  26.512  27.369  1.00  0.00    -0.248 NA
ATOM     59  C   UNL A   1      46.120  24.336  26.569  1.00  0.00     0.031 C 
ATOM     60  C   UNL A   1      49.052  29.559  27.593  1.00  0.00     0.029 A 
ATOM     61  C   UNL A   1      48.056  28.603  27.480  1.00  0.00     0.049 A 
ATOM     62  H   UNL A   1      46.000  28.770  27.925  1.00  0.00     0.167 HD
ATOM     63  C   UNL A   1      47.150  26.345  26.986  1.00  0.00     0.074 A 
ATOM     64  C   UNL A   1      47.279  24.979  26.519  1.00  0.00     0.031 C 
ATOM     65  C   UNL A   1      48.167  27.241  27.019  1.00  0.00     0.037 A 
BRANCH  52  66
ATOM     66  C   UNL A   1      46.533  32.875  28.983  1.00  0.00     0.058 A 
ATOM     67  C   UNL A   1      46.539  33.861  27.984  1.00  0.00     0.135 A 
ATOM     68  C   UNL A   1      46.921  33.253  30.279  1.00  0.00     0.135 A 
ATOM     69  F   UNL A   1      46.192  33.551  26.726  1.00  0.00    -0.206 F 
ATOM     70  C   UNL A   1      46.950  35.163  28.252  1.00  0.00     0.059 A 
ATOM     71  C   UNL A   1      47.313  34.556  30.574  1.00  0.00     0.059 A 
ATOM     72  F   UNL A   1      46.934  32.350  31.272  1.00  0.00    -0.206 F 
ATOM     73  C   UNL A   1      47.343  35.499  29.549  1.00  0.00     0.060 A 
BRANCH  73  74
ATOM     74  S   UNL A   1      47.901  37.185  29.877  1.00  0.00     0.124 S 
ATOM     75  O   UNL A   1      48.730  36.990  31.062  1.00  0.00    -0.237 OA
ATOM     76  O   UNL A   1      48.618  37.525  28.652  1.00  0.00    -0.237 OA
ATOM     77  O   UNL A   1      46.658  37.918  30.096  1.00  0.00    -0.744 OA
ENDBRANCH  73  74
ENDBRANCH  52  66
BRANCH  53  78
ATOM     78  C   UNL A   1      43.330  23.589  27.089  1.00  0.00     0.058 A 
ATOM     79  C   UNL A   1      43.065  23.179  25.775  1.00  0.00     0.135 A 
ATOM     80  C   UNL A   1      43.152  22.650  28.117  1.00  0.00     0.135 A 
ATOM     81  F   UNL A   1      43.209  24.044  24.760  1.00  0.00    -0.206 F 
ATOM     82  C   UNL A   1      42.637  21.886  25.489  1.00  0.00     0.059 A 
ATOM     83  C   UNL A   1      42.747  21.346  27.854  1.00  0.00     0.059 A 
ATOM     84  F   UNL A   1      43.399  22.991  29.392  1.00  0.00    -0.206 F 
ATOM     85  C   UNL A   1      42.485  20.975  26.536  1.00  0.00     0.060 A 
BRANCH  85  86
ATOM     86  S   UNL A   1      41.983  19.284  26.149  1.00  0.00     0.124 S 
ATOM     87  O   UNL A   1      42.402  18.571  27.350  1.00  0.00    -0.237 OA
ATOM     88  O   UNL A   1      40.541  19.425  25.961  1.00  0.00    -0.237 OA
ATOM     89  O   UNL A   1      42.737  18.979  24.937  1.00  0.00    -0.744 OA
ENDBRANCH  85  86
ENDBRANCH  53  78
BRANCH  65  90
ATOM     90  C   UNL A   1      49.517  26.770  26.557  1.00  0.00     0.058 A 
ATOM     91  C   UNL A   1      50.361  26.024  27.394  1.00  0.00     0.135 A 
ATOM     92  C   UNL A   1      49.943  27.012  25.241  1.00  0.00     0.135 A 
ATOM     93  F   UNL A   1      50.003  25.775  28.664  1.00  0.00    -0.206 F 
ATOM     94  C   UNL A   1      51.585  25.541  26.945  1.00  0.00     0.059 A 
ATOM     95  C   UNL A   1      51.154  26.519  24.764  1.00  0.00     0.059 A 
ATOM     96  F   UNL A   1      49.169  27.714  24.398  1.00  0.00    -0.206 F 
ATOM     97  C   UNL A   1      51.972  25.790  25.627  1.00  0.00     0.060 A 
BRANCH  97  98
ATOM     98  S   UNL A   1      53.539  25.112  25.039  1.00  0.00     0.124 S 
ATOM     99  O   UNL A   1      53.534  25.528  23.642  1.00  0.00    -0.237 OA
ATOM    100  O   UNL A   1      54.512  25.781  25.898  1.00  0.00    -0.237 OA
ATOM    101  O   UNL A   1      53.394  23.677  25.269  1.00  0.00    -0.744 OA
ENDBRANCH  97  98
ENDBRANCH  65  90
ENDBRANCH  39  40
ENDBRANCH  32  34
ENDBRANCH  31  32
ENDBRANCH  30  31
ENDBRANCH   1  30
TORSDOF 18
ENDMDL
