MODEL 1
REMARK VINA RESULT:     -11.2      0.000      0.000
REMARK SMILES O=C(OCCOC(=O)c1ccc(-c2c3nc(c(-c4c(F)cc(S(=O)(=O)[O-])cc4F)c4ccc([nH]4)c(-c4c(F)cc(S(=O)(=O)[O-])cc4F)c4nc(c(-c5c(F)cc(S(=O)(=O)[O-])cc5F)c5ccc2[nH]5)C=C4)C=C3)cc1)c1ccc(CN2C(=O)CSC2=S)cc1
REMARK SMILES IDX 5 1 4 2 3 3 2 4 1 5 75 6 76 7 88 8 77 9 87 10 78 11 79 12
REMARK SMILES IDX 80 13 81 14 85 15 82 16 83 17 84 18 86 19 6 20 7 21 8 22
REMARK SMILES IDX 9 23 10 24 74 25 11 26 73 27 12 28 13 29 14 30 67 31 15 32
REMARK SMILES IDX 72 33 66 34 68 35 16 36 71 37 65 38 64 39 17 41 51 42 30 43
REMARK SMILES IDX 50 44 31 45 34 46 49 47 69 48 32 49 33 50 48 52 70 53 35 54
REMARK SMILES IDX 18 55 19 56 28 57 20 58 21 59 27 60 29 61 22 62 23 63 24 64
REMARK SMILES IDX 25 65 26 66 52 67 53 68 62 69 54 70 55 71 61 72 63 73 56 74
REMARK SMILES IDX 57 75 58 76 59 77 60 78 36 79 37 80 46 81 38 82 39 83 45 84
REMARK SMILES IDX 47 85 40 86 41 87 42 88 43 89 44 90
REMARK H PARENT 68 40 34 51
REMARK Flexibility Score: inf
ROOT
ATOM      1  C   UNL A   1      40.677  22.256  26.561  1.00  0.00     0.275 C 
ENDROOT
BRANCH   1   2
ATOM      2  C   UNL A   1      39.489  21.382  26.126  1.00  0.00     0.275 C 
BRANCH   2   3
ATOM      3  O   UNL A   1      38.402  22.158  25.592  1.00  0.00    -0.458 OA
BRANCH   3   4
ATOM      4  C   UNL A   1      37.135  21.776  25.297  1.00  0.00     0.338 C 
ATOM      5  O   UNL A   1      36.863  20.578  25.372  1.00  0.00    -0.246 OA
BRANCH   4   6
ATOM      6  C   UNL A   1      36.080  22.702  24.755  1.00  0.00     0.060 A 
ATOM      7  C   UNL A   1      35.562  22.697  23.462  1.00  0.00     0.016 A 
ATOM      8  C   UNL A   1      35.506  23.610  25.663  1.00  0.00     0.016 A 
ATOM      9  C   UNL A   1      34.433  23.444  23.126  1.00  0.00     0.006 A 
ATOM     10  C   UNL A   1      34.417  24.418  25.304  1.00  0.00     0.006 A 
ATOM     11  C   UNL A   1      33.826  24.294  24.047  1.00  0.00    -0.028 A 
BRANCH  11  12
ATOM     12  C   UNL A   1      32.557  25.038  23.676  1.00  0.00     0.162 C 
BRANCH  12  13
ATOM     13  N   UNL A   1      32.811  26.473  23.582  1.00  0.00    -0.293 N 
ATOM     14  C   UNL A   1      33.415  26.975  22.443  1.00  0.00     0.238 C 
ATOM     15  C   UNL A   1      32.530  27.372  24.585  1.00  0.00     0.143 C 
ATOM     16  O   UNL A   1      33.653  26.344  21.416  1.00  0.00    -0.273 OA
ATOM     17  C   UNL A   1      33.869  28.393  22.630  1.00  0.00     0.177 C 
ATOM     18  S   UNL A   1      33.033  28.985  24.104  1.00  0.00    -0.086 SA
ATOM     19  S   UNL A   1      31.846  27.078  26.075  1.00  0.00    -0.052 S 
ENDBRANCH  12  13
ENDBRANCH  11  12
ENDBRANCH   4   6
ENDBRANCH   3   4
ENDBRANCH   2   3
ENDBRANCH   1   2
BRANCH   1  20
ATOM     20  O   UNL A   1      40.368  23.664  26.546  1.00  0.00    -0.458 OA
BRANCH  20  21
ATOM     21  C   UNL A   1      41.442  24.498  26.451  1.00  0.00     0.338 C 
ATOM     22  O   UNL A   1      42.280  24.479  25.576  1.00  0.00    -0.246 OA
BRANCH  21  23
ATOM     23  C   UNL A   1      41.380  25.553  27.502  1.00  0.00     0.060 A 
ATOM     24  C   UNL A   1      40.258  25.570  28.340  1.00  0.00     0.016 A 
ATOM     25  C   UNL A   1      42.385  26.507  27.683  1.00  0.00     0.016 A 
ATOM     26  C   UNL A   1      40.134  26.538  29.348  1.00  0.00     0.010 A 
ATOM     27  C   UNL A   1      42.262  27.471  28.700  1.00  0.00     0.010 A 
ATOM     28  C   UNL A   1      41.131  27.503  29.538  1.00  0.00    -0.014 A 
BRANCH  28  29
ATOM     29  C   UNL A   1      40.984  28.571  30.572  1.00  0.00     0.031 A 
ATOM     30  C   UNL A   1      41.775  28.499  31.850  1.00  0.00     0.074 A 
ATOM     31  C   UNL A   1      40.127  29.599  30.404  1.00  0.00     0.049 A 
ATOM     32  N   UNL A   1      41.734  29.296  32.888  1.00  0.00    -0.248 NA
ATOM     33  C   UNL A   1      42.746  27.401  31.970  1.00  0.00     0.031 C 
ATOM     34  C   UNL A   1      39.344  29.853  29.201  1.00  0.00     0.029 A 
ATOM     35  N   UNL A   1      39.745  30.607  31.259  1.00  0.00    -0.354 N 
ATOM     36  C   UNL A   1      42.683  28.811  33.777  1.00  0.00     0.074 A 
ATOM     37  C   UNL A   1      43.253  27.623  33.176  1.00  0.00     0.031 C 
ATOM     38  C   UNL A   1      38.504  30.879  29.420  1.00  0.00     0.029 A 
ATOM     39  C   UNL A   1      38.710  31.377  30.778  1.00  0.00     0.049 A 
ATOM     40  H   UNL A   1      40.171  30.763  32.132  1.00  0.00     0.167 HD
ATOM     41  C   UNL A   1      43.065  29.323  34.971  1.00  0.00     0.037 A 
ATOM     42  C   UNL A   1      37.994  32.361  31.361  1.00  0.00     0.037 A 
ATOM     43  C   UNL A   1      42.523  30.515  35.569  1.00  0.00     0.049 A 
ATOM     44  C   UNL A   1      38.360  32.840  32.741  1.00  0.00     0.074 A 
ATOM     45  C   UNL A   1      42.929  31.147  36.733  1.00  0.00     0.029 A 
ATOM     46  N   UNL A   1      41.453  31.241  35.075  1.00  0.00    -0.354 N 
ATOM     47  N   UNL A   1      39.325  32.427  33.524  1.00  0.00    -0.248 NA
ATOM     48  C   UNL A   1      37.554  33.934  33.309  1.00  0.00     0.031 C 
ATOM     49  C   UNL A   1      42.063  32.218  36.976  1.00  0.00     0.029 A 
ATOM     50  C   UNL A   1      41.149  32.282  35.939  1.00  0.00     0.049 A 
ATOM     51  H   UNL A   1      40.978  31.047  34.236  1.00  0.00     0.167 HD
ATOM     52  C   UNL A   1      39.266  33.232  34.658  1.00  0.00     0.074 A 
ATOM     53  C   UNL A   1      38.172  34.157  34.462  1.00  0.00     0.031 C 
ATOM     54  C   UNL A   1      40.060  33.208  35.755  1.00  0.00     0.037 A 
BRANCH  41  55
ATOM     55  C   UNL A   1      44.135  28.598  35.732  1.00  0.00     0.058 A 
ATOM     56  C   UNL A   1      43.822  27.585  36.651  1.00  0.00     0.135 A 
ATOM     57  C   UNL A   1      45.489  28.854  35.465  1.00  0.00     0.135 A 
ATOM     58  F   UNL A   1      42.542  27.313  36.948  1.00  0.00    -0.206 F 
ATOM     59  C   UNL A   1      44.819  26.851  37.284  1.00  0.00     0.059 A 
ATOM     60  C   UNL A   1      46.501  28.118  36.071  1.00  0.00     0.059 A 
ATOM     61  F   UNL A   1      45.836  29.815  34.595  1.00  0.00    -0.206 F 
ATOM     62  C   UNL A   1      46.156  27.121  36.982  1.00  0.00     0.060 A 
BRANCH  62  63
ATOM     63  S   UNL A   1      47.435  26.130  37.780  1.00  0.00     0.124 S 
ATOM     64  O   UNL A   1      46.643  25.318  38.698  1.00  0.00    -0.237 OA
ATOM     65  O   UNL A   1      48.026  25.417  36.652  1.00  0.00    -0.237 OA
ATOM     66  O   UNL A   1      48.296  27.127  38.409  1.00  0.00    -0.744 OA
ENDBRANCH  62  63
ENDBRANCH  41  55
BRANCH  42  67
ATOM     67  C   UNL A   1      36.824  32.955  30.661  1.00  0.00     0.058 A 
ATOM     68  C   UNL A   1      36.984  33.922  29.659  1.00  0.00     0.135 A 
ATOM     69  C   UNL A   1      35.517  32.611  31.039  1.00  0.00     0.135 A 
ATOM     70  F   UNL A   1      38.216  34.291  29.275  1.00  0.00    -0.206 F 
ATOM     71  C   UNL A   1      35.891  34.557  29.080  1.00  0.00     0.059 A 
ATOM     72  C   UNL A   1      34.406  33.216  30.460  1.00  0.00     0.059 A 
ATOM     73  F   UNL A   1      35.317  31.687  31.992  1.00  0.00    -0.206 F 
ATOM     74  C   UNL A   1      34.605  34.204  29.495  1.00  0.00     0.060 A 
BRANCH  74  75
ATOM     75  S   UNL A   1      33.192  35.050  28.751  1.00  0.00     0.124 S 
ATOM     76  O   UNL A   1      32.695  34.033  27.831  1.00  0.00    -0.237 OA
ATOM     77  O   UNL A   1      32.352  35.324  29.912  1.00  0.00    -0.237 OA
ATOM     78  O   UNL A   1      33.793  36.224  28.128  1.00  0.00    -0.744 OA
ENDBRANCH  74  75
ENDBRANCH  42  67
BRANCH  54  79
ATOM     79  C   UNL A   1      39.800  34.218  36.838  1.00  0.00     0.058 A 
ATOM     80  C   UNL A   1      39.078  33.885  37.994  1.00  0.00     0.135 A 
ATOM     81  C   UNL A   1      40.337  35.513  36.753  1.00  0.00     0.135 A 
ATOM     82  F   UNL A   1      38.533  32.665  38.122  1.00  0.00    -0.206 F 
ATOM     83  C   UNL A   1      38.894  34.801  39.026  1.00  0.00     0.059 A 
ATOM     84  C   UNL A   1      40.188  36.437  37.783  1.00  0.00     0.059 A 
ATOM     85  F   UNL A   1      41.041  35.883  35.671  1.00  0.00    -0.206 F 
ATOM     86  C   UNL A   1      39.459  36.073  38.915  1.00  0.00     0.060 A 
BRANCH  86  87
ATOM     87  S   UNL A   1      39.265  37.230  40.288  1.00  0.00     0.124 S 
ATOM     88  O   UNL A   1      38.528  36.422  41.254  1.00  0.00    -0.237 OA
ATOM     89  O   UNL A   1      40.650  37.532  40.640  1.00  0.00    -0.237 OA
ATOM     90  O   UNL A   1      38.520  38.337  39.698  1.00  0.00    -0.744 OA
ENDBRANCH  86  87
ENDBRANCH  54  79
ENDBRANCH  28  29
ENDBRANCH  21  23
ENDBRANCH  20  21
ENDBRANCH   1  20
TORSDOF 16
ENDMDL
MODEL 2
REMARK VINA RESULT:     -11.1      1.730      8.604
REMARK SMILES O=C(OCCOC(=O)c1ccc(-c2c3nc(c(-c4c(F)cc(S(=O)(=O)[O-])cc4F)c4ccc([nH]4)c(-c4c(F)cc(S(=O)(=O)[O-])cc4F)c4nc(c(-c5c(F)cc(S(=O)(=O)[O-])cc5F)c5ccc2[nH]5)C=C4)C=C3)cc1)c1ccc(CN2C(=O)CSC2=S)cc1
REMARK SMILES IDX 5 1 4 2 3 3 2 4 1 5 75 6 76 7 88 8 77 9 87 10 78 11 79 12
REMARK SMILES IDX 80 13 81 14 85 15 82 16 83 17 84 18 86 19 6 20 7 21 8 22
REMARK SMILES IDX 9 23 10 24 74 25 11 26 73 27 12 28 13 29 14 30 67 31 15 32
REMARK SMILES IDX 72 33 66 34 68 35 16 36 71 37 65 38 64 39 17 41 51 42 30 43
REMARK SMILES IDX 50 44 31 45 34 46 49 47 69 48 32 49 33 50 48 52 70 53 35 54
REMARK SMILES IDX 18 55 19 56 28 57 20 58 21 59 27 60 29 61 22 62 23 63 24 64
REMARK SMILES IDX 25 65 26 66 52 67 53 68 62 69 54 70 55 71 61 72 63 73 56 74
REMARK SMILES IDX 57 75 58 76 59 77 60 78 36 79 37 80 46 81 38 82 39 83 45 84
REMARK SMILES IDX 47 85 40 86 41 87 42 88 43 89 44 90
REMARK H PARENT 68 40 34 51
REMARK Flexibility Score: inf
ROOT
ATOM      1  C   UNL A   1      42.882  23.148  25.405  1.00  0.00     0.275 C 
ENDROOT
BRANCH   1   2
ATOM      2  C   UNL A   1      42.830  21.691  25.893  1.00  0.00     0.275 C 
BRANCH   2   3
ATOM      3  O   UNL A   1      41.493  21.159  25.896  1.00  0.00    -0.458 OA
BRANCH   3   4
ATOM      4  C   UNL A   1      40.439  21.484  26.683  1.00  0.00     0.338 C 
ATOM      5  O   UNL A   1      40.480  21.152  27.867  1.00  0.00    -0.246 OA
BRANCH   4   6
ATOM      6  C   UNL A   1      39.166  22.105  26.173  1.00  0.00     0.060 A 
ATOM      7  C   UNL A   1      38.165  21.460  25.450  1.00  0.00     0.016 A 
ATOM      8  C   UNL A   1      38.928  23.446  26.525  1.00  0.00     0.016 A 
ATOM      9  C   UNL A   1      36.928  22.063  25.220  1.00  0.00     0.006 A 
ATOM     10  C   UNL A   1      37.712  24.078  26.228  1.00  0.00     0.006 A 
ATOM     11  C   UNL A   1      36.671  23.370  25.628  1.00  0.00    -0.028 A 
BRANCH  11  12
ATOM     12  C   UNL A   1      35.294  23.973  25.430  1.00  0.00     0.162 C 
BRANCH  12  13
ATOM     13  N   UNL A   1      34.342  22.951  25.002  1.00  0.00    -0.293 N 
ATOM     14  C   UNL A   1      34.082  22.799  23.652  1.00  0.00     0.238 C 
ATOM     15  C   UNL A   1      33.637  22.147  25.867  1.00  0.00     0.143 C 
ATOM     16  O   UNL A   1      34.677  23.360  22.736  1.00  0.00    -0.273 OA
ATOM     17  C   UNL A   1      32.882  21.931  23.410  1.00  0.00     0.177 C 
ATOM     18  S   UNL A   1      32.560  21.092  24.963  1.00  0.00    -0.086 SA
ATOM     19  S   UNL A   1      33.696  22.114  27.531  1.00  0.00    -0.052 S 
ENDBRANCH  12  13
ENDBRANCH  11  12
ENDBRANCH   4   6
ENDBRANCH   3   4
ENDBRANCH   2   3
ENDBRANCH   1   2
BRANCH   1  20
ATOM     20  O   UNL A   1      42.724  24.099  26.476  1.00  0.00    -0.458 OA
BRANCH  20  21
ATOM     21  C   UNL A   1      42.304  25.340  26.098  1.00  0.00     0.338 C 
ATOM     22  O   UNL A   1      42.122  25.712  24.959  1.00  0.00    -0.246 OA
BRANCH  21  23
ATOM     23  C   UNL A   1      41.949  26.158  27.292  1.00  0.00     0.060 A 
ATOM     24  C   UNL A   1      42.698  27.317  27.532  1.00  0.00     0.016 A 
ATOM     25  C   UNL A   1      40.909  25.822  28.164  1.00  0.00     0.016 A 
ATOM     26  C   UNL A   1      42.420  28.132  28.639  1.00  0.00     0.010 A 
ATOM     27  C   UNL A   1      40.627  26.646  29.269  1.00  0.00     0.010 A 
ATOM     28  C   UNL A   1      41.384  27.805  29.523  1.00  0.00    -0.014 A 
BRANCH  28  29
ATOM     29  C   UNL A   1      41.114  28.635  30.736  1.00  0.00     0.031 A 
ATOM     30  C   UNL A   1      40.033  29.682  30.709  1.00  0.00     0.074 A 
ATOM     31  C   UNL A   1      41.841  28.493  31.863  1.00  0.00     0.049 A 
ATOM     32  N   UNL A   1      39.696  30.539  31.638  1.00  0.00    -0.248 NA
ATOM     33  C   UNL A   1      39.217  29.764  29.488  1.00  0.00     0.031 C 
ATOM     34  C   UNL A   1      42.872  27.483  32.076  1.00  0.00     0.029 A 
ATOM     35  N   UNL A   1      41.851  29.218  33.032  1.00  0.00    -0.354 N 
ATOM     36  C   UNL A   1      38.620  31.251  31.127  1.00  0.00     0.074 A 
ATOM     37  C   UNL A   1      38.388  30.756  29.786  1.00  0.00     0.031 C 
ATOM     38  C   UNL A   1      43.483  27.707  33.252  1.00  0.00     0.029 A 
ATOM     39  C   UNL A   1      42.866  28.865  33.893  1.00  0.00     0.049 A 
ATOM     40  H   UNL A   1      41.195  29.923  33.233  1.00  0.00     0.167 HD
ATOM     41  C   UNL A   1      37.875  32.209  31.728  1.00  0.00     0.037 A 
ATOM     42  C   UNL A   1      43.268  29.414  35.058  1.00  0.00     0.037 A 
ATOM     43  C   UNL A   1      38.080  32.694  33.068  1.00  0.00     0.049 A 
ATOM     44  C   UNL A   1      42.494  30.560  35.656  1.00  0.00     0.074 A 
ATOM     45  C   UNL A   1      37.305  33.596  33.778  1.00  0.00     0.029 A 
ATOM     46  N   UNL A   1      39.137  32.345  33.891  1.00  0.00    -0.354 N 
ATOM     47  N   UNL A   1      41.421  31.154  35.196  1.00  0.00    -0.248 NA
ATOM     48  C   UNL A   1      42.973  31.096  36.941  1.00  0.00     0.031 C 
ATOM     49  C   UNL A   1      37.928  33.841  35.006  1.00  0.00     0.029 A 
ATOM     50  C   UNL A   1      39.065  33.055  35.080  1.00  0.00     0.049 A 
ATOM     51  H   UNL A   1      39.836  31.690  33.666  1.00  0.00     0.167 HD
ATOM     52  C   UNL A   1      41.075  32.105  36.151  1.00  0.00     0.074 A 
ATOM     53  C   UNL A   1      42.051  32.011  37.214  1.00  0.00     0.031 C 
ATOM     54  C   UNL A   1      40.032  32.970  36.144  1.00  0.00     0.037 A 
BRANCH  41  55
ATOM     55  C   UNL A   1      36.748  32.813  30.944  1.00  0.00     0.058 A 
ATOM     56  C   UNL A   1      35.416  32.428  31.160  1.00  0.00     0.135 A 
ATOM     57  C   UNL A   1      36.996  33.857  30.039  1.00  0.00     0.135 A 
ATOM     58  F   UNL A   1      35.131  31.426  32.007  1.00  0.00    -0.206 F 
ATOM     59  C   UNL A   1      34.367  33.057  30.501  1.00  0.00     0.059 A 
ATOM     60  C   UNL A   1      35.960  34.513  29.385  1.00  0.00     0.059 A 
ATOM     61  F   UNL A   1      38.255  34.258  29.799  1.00  0.00    -0.206 F 
ATOM     62  C   UNL A   1      34.648  34.103  29.620  1.00  0.00     0.060 A 
BRANCH  62  63
ATOM     63  S   UNL A   1      33.271  34.937  28.805  1.00  0.00     0.124 S 
ATOM     64  O   UNL A   1      32.395  35.224  29.937  1.00  0.00    -0.237 OA
ATOM     65  O   UNL A   1      33.922  36.095  28.199  1.00  0.00    -0.237 OA
ATOM     66  O   UNL A   1      32.775  33.937  27.866  1.00  0.00    -0.744 OA
ENDBRANCH  62  63
ENDBRANCH  41  55
BRANCH  42  67
ATOM     67  C   UNL A   1      44.492  28.915  35.740  1.00  0.00     0.058 A 
ATOM     68  C   UNL A   1      45.762  29.415  35.422  1.00  0.00     0.135 A 
ATOM     69  C   UNL A   1      44.411  27.874  36.677  1.00  0.00     0.135 A 
ATOM     70  F   UNL A   1      45.887  30.402  34.522  1.00  0.00    -0.206 F 
ATOM     71  C   UNL A   1      46.915  28.875  35.980  1.00  0.00     0.059 A 
ATOM     72  C   UNL A   1      45.549  27.331  37.265  1.00  0.00     0.059 A 
ATOM     73  F   UNL A   1      43.214  27.366  37.014  1.00  0.00    -0.206 F 
ATOM     74  C   UNL A   1      46.799  27.826  36.894  1.00  0.00     0.060 A 
BRANCH  74  75
ATOM     75  S   UNL A   1      48.306  27.118  37.596  1.00  0.00     0.124 S 
ATOM     76  O   UNL A   1      48.671  28.131  38.580  1.00  0.00    -0.237 OA
ATOM     77  O   UNL A   1      47.828  25.850  38.135  1.00  0.00    -0.237 OA
ATOM     78  O   UNL A   1      49.195  27.008  36.445  1.00  0.00    -0.744 OA
ENDBRANCH  74  75
ENDBRANCH  42  67
BRANCH  54  79
ATOM     79  C   UNL A   1      39.865  33.885  37.326  1.00  0.00     0.058 A 
ATOM     80  C   UNL A   1      40.463  35.153  37.363  1.00  0.00     0.135 A 
ATOM     81  C   UNL A   1      39.041  33.519  38.403  1.00  0.00     0.135 A 
ATOM     82  F   UNL A   1      41.270  35.548  36.366  1.00  0.00    -0.206 F 
ATOM     83  C   UNL A   1      40.254  36.025  38.428  1.00  0.00     0.059 A 
ATOM     84  C   UNL A   1      38.797  34.384  39.466  1.00  0.00     0.059 A 
ATOM     85  F   UNL A   1      38.439  32.318  38.417  1.00  0.00    -0.206 F 
ATOM     86  C   UNL A   1      39.414  35.635  39.472  1.00  0.00     0.060 A 
BRANCH  86  87
ATOM     87  S   UNL A   1      39.102  36.801  40.816  1.00  0.00     0.124 S 
ATOM     88  O   UNL A   1      38.348  35.976  41.754  1.00  0.00    -0.237 OA
ATOM     89  O   UNL A   1      40.452  37.165  41.234  1.00  0.00    -0.237 OA
ATOM     90  O   UNL A   1      38.344  37.869  40.170  1.00  0.00    -0.744 OA
ENDBRANCH  86  87
ENDBRANCH  54  79
ENDBRANCH  28  29
ENDBRANCH  21  23
ENDBRANCH  20  21
ENDBRANCH   1  20
TORSDOF 16
ENDMDL
MODEL 3
REMARK VINA RESULT:     -11.1      1.485      2.193
REMARK SMILES O=C(OCCOC(=O)c1ccc(-c2c3nc(c(-c4c(F)cc(S(=O)(=O)[O-])cc4F)c4ccc([nH]4)c(-c4c(F)cc(S(=O)(=O)[O-])cc4F)c4nc(c(-c5c(F)cc(S(=O)(=O)[O-])cc5F)c5ccc2[nH]5)C=C4)C=C3)cc1)c1ccc(CN2C(=O)CSC2=S)cc1
REMARK SMILES IDX 5 1 4 2 3 3 2 4 1 5 75 6 76 7 88 8 77 9 87 10 78 11 79 12
REMARK SMILES IDX 80 13 81 14 85 15 82 16 83 17 84 18 86 19 6 20 7 21 8 22
REMARK SMILES IDX 9 23 10 24 74 25 11 26 73 27 12 28 13 29 14 30 67 31 15 32
REMARK SMILES IDX 72 33 66 34 68 35 16 36 71 37 65 38 64 39 17 41 51 42 30 43
REMARK SMILES IDX 50 44 31 45 34 46 49 47 69 48 32 49 33 50 48 52 70 53 35 54
REMARK SMILES IDX 18 55 19 56 28 57 20 58 21 59 27 60 29 61 22 62 23 63 24 64
REMARK SMILES IDX 25 65 26 66 52 67 53 68 62 69 54 70 55 71 61 72 63 73 56 74
REMARK SMILES IDX 57 75 58 76 59 77 60 78 36 79 37 80 46 81 38 82 39 83 45 84
REMARK SMILES IDX 47 85 40 86 41 87 42 88 43 89 44 90
REMARK H PARENT 68 40 34 51
REMARK Flexibility Score: inf
ROOT
ATOM      1  C   UNL A   1      41.808  22.257  26.127  1.00  0.00     0.275 C 
ENDROOT
BRANCH   1   2
ATOM      2  C   UNL A   1      40.763  21.474  26.938  1.00  0.00     0.275 C 
BRANCH   2   3
ATOM      3  O   UNL A   1      39.486  21.412  26.277  1.00  0.00    -0.458 OA
BRANCH   3   4
ATOM      4  C   UNL A   1      38.623  22.413  25.975  1.00  0.00     0.338 C 
ATOM      5  O   UNL A   1      38.886  23.543  26.384  1.00  0.00    -0.246 OA
BRANCH   4   6
ATOM      6  C   UNL A   1      37.300  22.205  25.289  1.00  0.00     0.060 A 
ATOM      7  C   UNL A   1      36.288  21.337  25.692  1.00  0.00     0.016 A 
ATOM      8  C   UNL A   1      37.026  23.024  24.178  1.00  0.00     0.016 A 
ATOM      9  C   UNL A   1      35.016  21.383  25.120  1.00  0.00     0.006 A 
ATOM     10  C   UNL A   1      35.770  23.017  23.554  1.00  0.00     0.006 A 
ATOM     11  C   UNL A   1      34.729  22.242  24.062  1.00  0.00    -0.028 A 
BRANCH  11  12
ATOM     12  C   UNL A   1      33.318  22.323  23.509  1.00  0.00     0.162 C 
BRANCH  12  13
ATOM     13  N   UNL A   1      32.394  22.810  24.529  1.00  0.00    -0.293 N 
ATOM     14  C   UNL A   1      31.654  21.895  25.257  1.00  0.00     0.238 C 
ATOM     15  C   UNL A   1      32.167  24.142  24.790  1.00  0.00     0.143 C 
ATOM     16  O   UNL A   1      31.787  20.675  25.227  1.00  0.00    -0.273 OA
ATOM     17  C   UNL A   1      30.556  22.558  26.036  1.00  0.00     0.177 C 
ATOM     18  S   UNL A   1      30.949  24.309  26.045  1.00  0.00    -0.086 SA
ATOM     19  S   UNL A   1      32.864  25.470  24.066  1.00  0.00    -0.052 S 
ENDBRANCH  12  13
ENDBRANCH  11  12
ENDBRANCH   4   6
ENDBRANCH   3   4
ENDBRANCH   2   3
ENDBRANCH   1   2
BRANCH   1  20
ATOM     20  O   UNL A   1      42.452  23.290  26.898  1.00  0.00    -0.458 OA
BRANCH  20  21
ATOM     21  C   UNL A   1      42.364  24.548  26.379  1.00  0.00     0.338 C 
ATOM     22  O   UNL A   1      42.410  24.835  25.202  1.00  0.00    -0.246 OA
BRANCH  21  23
ATOM     23  C   UNL A   1      42.055  25.536  27.451  1.00  0.00     0.060 A 
ATOM     24  C   UNL A   1      42.913  26.634  27.590  1.00  0.00     0.016 A 
ATOM     25  C   UNL A   1      40.954  25.414  28.305  1.00  0.00     0.016 A 
ATOM     26  C   UNL A   1      42.682  27.600  28.580  1.00  0.00     0.010 A 
ATOM     27  C   UNL A   1      40.721  26.389  29.291  1.00  0.00     0.010 A 
ATOM     28  C   UNL A   1      41.587  27.488  29.445  1.00  0.00    -0.014 A 
BRANCH  28  29
ATOM     29  C   UNL A   1      41.362  28.482  30.538  1.00  0.00     0.031 A 
ATOM     30  C   UNL A   1      42.103  28.352  31.842  1.00  0.00     0.074 A 
ATOM     31  C   UNL A   1      40.477  29.491  30.400  1.00  0.00     0.049 A 
ATOM     32  N   UNL A   1      41.993  29.078  32.925  1.00  0.00    -0.248 NA
ATOM     33  C   UNL A   1      43.106  27.281  31.932  1.00  0.00     0.031 C 
ATOM     34  C   UNL A   1      39.735  29.797  29.183  1.00  0.00     0.029 A 
ATOM     35  N   UNL A   1      40.026  30.428  31.300  1.00  0.00    -0.354 N 
ATOM     36  C   UNL A   1      42.921  28.567  33.821  1.00  0.00     0.074 A 
ATOM     37  C   UNL A   1      43.556  27.440  33.170  1.00  0.00     0.031 C 
ATOM     38  C   UNL A   1      38.851  30.778  29.432  1.00  0.00     0.029 A 
ATOM     39  C   UNL A   1      38.984  31.194  30.825  1.00  0.00     0.049 A 
ATOM     40  H   UNL A   1      40.411  30.541  32.199  1.00  0.00     0.167 HD
ATOM     41  C   UNL A   1      43.237  29.013  35.060  1.00  0.00     0.037 A 
ATOM     42  C   UNL A   1      38.212  32.114  31.439  1.00  0.00     0.037 A 
ATOM     43  C   UNL A   1      42.630  30.146  35.709  1.00  0.00     0.049 A 
ATOM     44  C   UNL A   1      38.505  32.514  32.861  1.00  0.00     0.074 A 
ATOM     45  C   UNL A   1      42.966  30.713  36.928  1.00  0.00     0.029 A 
ATOM     46  N   UNL A   1      41.556  30.867  35.218  1.00  0.00    -0.354 N 
ATOM     47  N   UNL A   1      39.452  32.082  33.657  1.00  0.00    -0.248 NA
ATOM     48  C   UNL A   1      37.639  33.542  33.463  1.00  0.00     0.031 C 
ATOM     49  C   UNL A   1      42.055  31.738  37.202  1.00  0.00     0.029 A 
ATOM     50  C   UNL A   1      41.181  31.839  36.133  1.00  0.00     0.049 A 
ATOM     51  H   UNL A   1      41.122  30.713  34.348  1.00  0.00     0.167 HD
ATOM     52  C   UNL A   1      39.319  32.809  34.835  1.00  0.00     0.074 A 
ATOM     53  C   UNL A   1      38.202  33.710  34.653  1.00  0.00     0.031 C 
ATOM     54  C   UNL A   1      40.069  32.740  35.962  1.00  0.00     0.037 A 
BRANCH  41  55
ATOM     55  C   UNL A   1      44.300  28.275  35.819  1.00  0.00     0.058 A 
ATOM     56  C   UNL A   1      45.655  28.621  35.704  1.00  0.00     0.135 A 
ATOM     57  C   UNL A   1      43.948  27.279  36.742  1.00  0.00     0.135 A 
ATOM     58  F   UNL A   1      46.042  29.559  34.825  1.00  0.00    -0.206 F 
ATOM     59  C   UNL A   1      46.627  28.000  36.479  1.00  0.00     0.059 A 
ATOM     60  C   UNL A   1      44.901  26.659  37.542  1.00  0.00     0.059 A 
ATOM     61  F   UNL A   1      42.663  26.914  36.885  1.00  0.00    -0.206 F 
ATOM     62  C   UNL A   1      46.239  27.024  37.400  1.00  0.00     0.060 A 
BRANCH  62  63
ATOM     63  S   UNL A   1      47.508  26.258  38.429  1.00  0.00     0.124 S 
ATOM     64  O   UNL A   1      47.834  25.068  37.651  1.00  0.00    -0.237 OA
ATOM     65  O   UNL A   1      48.540  27.290  38.471  1.00  0.00    -0.237 OA
ATOM     66  O   UNL A   1      46.820  26.012  39.693  1.00  0.00    -0.744 OA
ENDBRANCH  62  63
ENDBRANCH  41  55
BRANCH  42  67
ATOM     67  C   UNL A   1      37.051  32.715  30.729  1.00  0.00     0.058 A 
ATOM     68  C   UNL A   1      37.204  33.822  29.883  1.00  0.00     0.135 A 
ATOM     69  C   UNL A   1      35.753  32.228  30.947  1.00  0.00     0.135 A 
ATOM     70  F   UNL A   1      38.425  34.328  29.656  1.00  0.00    -0.206 F 
ATOM     71  C   UNL A   1      36.106  34.450  29.305  1.00  0.00     0.059 A 
ATOM     72  C   UNL A   1      34.641  32.827  30.364  1.00  0.00     0.059 A 
ATOM     73  F   UNL A   1      35.561  31.168  31.748  1.00  0.00    -0.206 F 
ATOM     74  C   UNL A   1      34.827  33.951  29.560  1.00  0.00     0.060 A 
BRANCH  74  75
ATOM     75  S   UNL A   1      33.408  34.789  28.820  1.00  0.00     0.124 S 
ATOM     76  O   UNL A   1      32.985  33.816  27.819  1.00  0.00    -0.237 OA
ATOM     77  O   UNL A   1      32.517  34.954  29.964  1.00  0.00    -0.237 OA
ATOM     78  O   UNL A   1      33.981  36.025  28.296  1.00  0.00    -0.744 OA
ENDBRANCH  74  75
ENDBRANCH  42  67
BRANCH  54  79
ATOM     79  C   UNL A   1      39.730  33.668  37.095  1.00  0.00     0.058 A 
ATOM     80  C   UNL A   1      38.794  33.315  38.078  1.00  0.00     0.135 A 
ATOM     81  C   UNL A   1      40.400  34.894  37.240  1.00  0.00     0.135 A 
ATOM     82  F   UNL A   1      38.117  32.161  37.982  1.00  0.00    -0.206 F 
ATOM     83  C   UNL A   1      38.530  34.147  39.163  1.00  0.00     0.059 A 
ATOM     84  C   UNL A   1      40.171  35.730  38.330  1.00  0.00     0.059 A 
ATOM     85  F   UNL A   1      41.310  35.279  36.331  1.00  0.00    -0.206 F 
ATOM     86  C   UNL A   1      39.228  35.349  39.284  1.00  0.00     0.060 A 
BRANCH  86  87
ATOM     87  S   UNL A   1      38.920  36.389  40.729  1.00  0.00     0.124 S 
ATOM     88  O   UNL A   1      38.464  37.629  40.110  1.00  0.00    -0.237 OA
ATOM     89  O   UNL A   1      37.904  35.629  41.450  1.00  0.00    -0.237 OA
ATOM     90  O   UNL A   1      40.224  36.456  41.383  1.00  0.00    -0.744 OA
ENDBRANCH  86  87
ENDBRANCH  54  79
ENDBRANCH  28  29
ENDBRANCH  21  23
ENDBRANCH  20  21
ENDBRANCH   1  20
TORSDOF 16
ENDMDL
