MODEL 1
REMARK VINA RESULT:     -10.7      0.000      0.000
REMARK SMILES Cc1cccc(Nc2ccccc2C(=O)OCCOC(=O)c2ccc(-c3c4nc(c(-c5c(F)cc(S(=O)(=O)[O-])cc5F)c5ccc([nH]5)c(-c5c(F)cc(S(=O)(=O)[O-])cc5F)c5nc(c(-c6c(F)cc(S(=O)(=O)[O-])cc6F)c6ccc3[nH]6)C=C5)C=C4)cc2)c1C
REMARK SMILES IDX 18 1 17 2 16 3 14 4 15 5 13 6 8 7 9 8 10 9 12 10 11 11 7 12
REMARK SMILES IDX 6 14 1 15 2 16 3 17 88 18 4 19 89 20 5 21 19 22 20 23 21 24
REMARK SMILES IDX 22 25 23 26 87 27 24 28 86 29 25 30 26 31 27 32 80 33 28 34
REMARK SMILES IDX 85 35 79 36 81 37 29 38 84 39 78 40 77 41 30 43 64 44 43 45
REMARK SMILES IDX 63 46 44 47 47 48 62 49 82 50 45 51 46 52 61 54 83 55 48 56
REMARK SMILES IDX 31 57 32 58 41 59 33 60 34 61 40 62 42 63 35 64 36 65 37 66
REMARK SMILES IDX 38 67 39 68 65 69 66 70 75 71 67 72 68 73 74 74 76 75 69 76
REMARK SMILES IDX 70 77 71 78 72 79 73 80 49 81 50 82 59 83 51 84 52 85 58 86
REMARK SMILES IDX 60 87 53 88 54 89 55 90 56 91 57 92
REMARK H PARENT 7 13 81 42 47 53
REMARK Flexibility Score: inf
ROOT
ATOM      1  C   UNL A   1      33.932  31.627  28.042  1.00  0.00     0.275 C 
ENDROOT
BRANCH   1   2
ATOM      2  C   UNL A   1      33.965  33.152  28.004  1.00  0.00     0.275 C 
BRANCH   2   3
ATOM      3  O   UNL A   1      33.261  33.748  29.111  1.00  0.00    -0.458 OA
BRANCH   3   4
ATOM      4  C   UNL A   1      33.500  35.072  29.278  1.00  0.00     0.340 C 
ATOM      5  O   UNL A   1      33.512  35.920  28.397  1.00  0.00    -0.246 OA
BRANCH   4   6
ATOM      6  C   UNL A   1      33.706  35.422  30.700  1.00  0.00     0.083 A 
ATOM      7  C   UNL A   1      34.427  34.612  31.594  1.00  0.00     0.053 A 
ATOM      8  C   UNL A   1      34.612  35.092  32.907  1.00  0.00     0.027 A 
ATOM      9  C   UNL A   1      34.128  36.339  33.314  1.00  0.00     0.002 A 
ATOM     10  C   UNL A   1      33.214  36.672  31.122  1.00  0.00     0.018 A 
ATOM     11  C   UNL A   1      33.427  37.131  32.418  1.00  0.00     0.001 A 
BRANCH   7  12
ATOM     12  N   UNL A   1      35.085  33.410  31.265  1.00  0.00    -0.355 N 
ATOM     13  H   UNL A   1      34.503  32.616  31.269  1.00  0.00     0.167 HD
BRANCH  12  14
ATOM     14  C   UNL A   1      36.428  33.141  30.932  1.00  0.00     0.042 A 
ATOM     15  C   UNL A   1      39.654  31.581  32.298  1.00  0.00     0.044 C 
ATOM     16  C   UNL A   1      38.672  32.298  31.408  1.00  0.00    -0.046 A 
ATOM     17  C   UNL A   1      39.159  32.993  30.291  1.00  0.00     0.004 A 
ATOM     18  C   UNL A   1      37.285  32.319  31.702  1.00  0.00    -0.025 A 
ATOM     19  C   UNL A   1      38.300  33.729  29.485  1.00  0.00     0.002 A 
ATOM     20  C   UNL A   1      36.754  31.453  32.822  1.00  0.00     0.047 C 
ATOM     21  C   UNL A   1      36.951  33.817  29.816  1.00  0.00     0.026 A 
ENDBRANCH  12  14
ENDBRANCH   7  12
ENDBRANCH   4   6
ENDBRANCH   3   4
ENDBRANCH   2   3
ENDBRANCH   1   2
BRANCH   1  22
ATOM     22  O   UNL A   1      35.046  31.111  28.789  1.00  0.00    -0.458 OA
BRANCH  22  23
ATOM     23  C   UNL A   1      35.484  29.895  28.396  1.00  0.00     0.338 C 
ATOM     24  O   UNL A   1      34.815  28.964  27.980  1.00  0.00    -0.246 OA
BRANCH  23  25
ATOM     25  C   UNL A   1      36.948  29.820  28.508  1.00  0.00     0.060 A 
ATOM     26  C   UNL A   1      37.730  30.090  27.391  1.00  0.00     0.016 A 
ATOM     27  C   UNL A   1      37.532  29.299  29.660  1.00  0.00     0.016 A 
ATOM     28  C   UNL A   1      39.064  29.702  27.361  1.00  0.00     0.010 A 
ATOM     29  C   UNL A   1      38.905  29.037  29.674  1.00  0.00     0.010 A 
ATOM     30  C   UNL A   1      39.677  29.184  28.506  1.00  0.00    -0.014 A 
BRANCH  30  31
ATOM     31  C   UNL A   1      41.104  28.757  28.473  1.00  0.00     0.031 A 
ATOM     32  C   UNL A   1      42.195  29.769  28.711  1.00  0.00     0.074 A 
ATOM     33  C   UNL A   1      41.427  27.470  28.232  1.00  0.00     0.049 A 
ATOM     34  N   UNL A   1      43.482  29.664  28.501  1.00  0.00    -0.248 NA
ATOM     35  C   UNL A   1      41.781  31.081  29.234  1.00  0.00     0.031 C 
ATOM     36  C   UNL A   1      40.470  26.379  28.031  1.00  0.00     0.029 A 
ATOM     37  N   UNL A   1      42.651  26.860  28.109  1.00  0.00    -0.354 N 
ATOM     38  C   UNL A   1      44.018  30.916  28.785  1.00  0.00     0.074 A 
ATOM     39  C   UNL A   1      42.918  31.762  29.196  1.00  0.00     0.031 C 
ATOM     40  C   UNL A   1      41.139  25.233  27.840  1.00  0.00     0.029 A 
ATOM     41  C   UNL A   1      42.566  25.523  27.798  1.00  0.00     0.049 A 
ATOM     42  H   UNL A   1      43.505  27.334  28.231  1.00  0.00     0.167 HD
ATOM     43  C   UNL A   1      45.308  31.319  28.698  1.00  0.00     0.037 A 
ATOM     44  C   UNL A   1      43.520  24.637  27.452  1.00  0.00     0.037 A 
ATOM     45  C   UNL A   1      46.400  30.443  28.356  1.00  0.00     0.049 A 
ATOM     46  C   UNL A   1      44.945  25.102  27.368  1.00  0.00     0.074 A 
ATOM     47  C   UNL A   1      47.750  30.738  28.278  1.00  0.00     0.029 A 
ATOM     48  N   UNL A   1      46.267  29.096  28.050  1.00  0.00    -0.354 N 
ATOM     49  N   UNL A   1      45.431  26.301  27.585  1.00  0.00    -0.248 NA
ATOM     50  C   UNL A   1      45.945  24.104  26.974  1.00  0.00     0.031 C 
ATOM     51  C   UNL A   1      48.429  29.577  27.890  1.00  0.00     0.029 A 
ATOM     52  C   UNL A   1      47.507  28.548  27.768  1.00  0.00     0.049 A 
ATOM     53  H   UNL A   1      45.415  28.602  28.035  1.00  0.00     0.167 HD
ATOM     54  C   UNL A   1      46.797  26.203  27.354  1.00  0.00     0.074 A 
ATOM     55  C   UNL A   1      47.061  24.821  27.004  1.00  0.00     0.031 C 
ATOM     56  C   UNL A   1      47.746  27.170  27.418  1.00  0.00     0.037 A 
BRANCH  43  57
ATOM     57  C   UNL A   1      45.604  32.777  28.927  1.00  0.00     0.058 A 
ATOM     58  C   UNL A   1      45.847  33.306  30.204  1.00  0.00     0.135 A 
ATOM     59  C   UNL A   1      45.656  33.661  27.836  1.00  0.00     0.135 A 
ATOM     60  F   UNL A   1      45.793  32.514  31.286  1.00  0.00    -0.206 F 
ATOM     61  C   UNL A   1      46.097  34.664  30.395  1.00  0.00     0.059 A 
ATOM     62  C   UNL A   1      45.930  35.015  27.999  1.00  0.00     0.059 A 
ATOM     63  F   UNL A   1      45.431  33.210  26.590  1.00  0.00    -0.206 F 
ATOM     64  C   UNL A   1      46.132  35.511  29.286  1.00  0.00     0.060 A 
BRANCH  64  65
ATOM     65  S   UNL A   1      46.445  37.271  29.545  1.00  0.00     0.124 S 
ATOM     66  O   UNL A   1      47.714  37.237  30.266  1.00  0.00    -0.237 OA
ATOM     67  O   UNL A   1      46.507  37.784  28.181  1.00  0.00    -0.237 OA
ATOM     68  O   UNL A   1      45.291  37.710  30.324  1.00  0.00    -0.744 OA
ENDBRANCH  64  65
ENDBRANCH  43  57
BRANCH  44  69
ATOM     69  C   UNL A   1      43.132  23.245  27.105  1.00  0.00     0.058 A 
ATOM     70  C   UNL A   1      43.088  22.814  25.772  1.00  0.00     0.135 A 
ATOM     71  C   UNL A   1      42.864  22.298  28.108  1.00  0.00     0.135 A 
ATOM     72  F   UNL A   1      43.325  23.683  24.778  1.00  0.00    -0.206 F 
ATOM     73  C   UNL A   1      42.799  21.492  25.445  1.00  0.00     0.059 A 
ATOM     74  C   UNL A   1      42.601  20.967  27.807  1.00  0.00     0.059 A 
ATOM     75  F   UNL A   1      42.908  22.658  29.401  1.00  0.00    -0.206 F 
ATOM     76  C   UNL A   1      42.567  20.573  26.471  1.00  0.00     0.060 A 
BRANCH  76  77
ATOM     77  S   UNL A   1      42.285  18.842  26.041  1.00  0.00     0.124 S 
ATOM     78  O   UNL A   1      42.618  18.170  27.292  1.00  0.00    -0.237 OA
ATOM     79  O   UNL A   1      40.872  18.841  25.672  1.00  0.00    -0.237 OA
ATOM     80  O   UNL A   1      43.212  18.617  24.935  1.00  0.00    -0.744 OA
ENDBRANCH  76  77
ENDBRANCH  44  69
BRANCH  56  81
ATOM     81  C   UNL A   1      49.159  26.758  27.123  1.00  0.00     0.058 A 
ATOM     82  C   UNL A   1      49.979  26.191  28.112  1.00  0.00     0.135 A 
ATOM     83  C   UNL A   1      49.685  26.896  25.830  1.00  0.00     0.135 A 
ATOM     84  F   UNL A   1      49.523  26.047  29.366  1.00  0.00    -0.206 F 
ATOM     85  C   UNL A   1      51.282  25.795  27.833  1.00  0.00     0.059 A 
ATOM     86  C   UNL A   1      50.978  26.485  25.523  1.00  0.00     0.059 A 
ATOM     87  F   UNL A   1      48.937  27.426  24.849  1.00  0.00    -0.206 F 
ATOM     88  C   UNL A   1      51.773  25.947  26.534  1.00  0.00     0.060 A 
BRANCH  88  89
ATOM     89  S   UNL A   1      53.457  25.407  26.175  1.00  0.00     0.124 S 
ATOM     90  O   UNL A   1      54.090  25.530  27.483  1.00  0.00    -0.237 OA
ATOM     91  O   UNL A   1      53.255  24.045  25.693  1.00  0.00    -0.237 OA
ATOM     92  O   UNL A   1      53.911  26.360  25.166  1.00  0.00    -0.744 OA
ENDBRANCH  88  89
ENDBRANCH  56  81
ENDBRANCH  30  31
ENDBRANCH  23  25
ENDBRANCH  22  23
ENDBRANCH   1  22
TORSDOF 16
ENDMDL
MODEL 2
REMARK VINA RESULT:     -10.7      5.673     13.674
REMARK SMILES Cc1cccc(Nc2ccccc2C(=O)OCCOC(=O)c2ccc(-c3c4nc(c(-c5c(F)cc(S(=O)(=O)[O-])cc5F)c5ccc([nH]5)c(-c5c(F)cc(S(=O)(=O)[O-])cc5F)c5nc(c(-c6c(F)cc(S(=O)(=O)[O-])cc6F)c6ccc3[nH]6)C=C5)C=C4)cc2)c1C
REMARK SMILES IDX 18 1 17 2 16 3 14 4 15 5 13 6 8 7 9 8 10 9 12 10 11 11 7 12
REMARK SMILES IDX 6 14 1 15 2 16 3 17 88 18 4 19 89 20 5 21 19 22 20 23 21 24
REMARK SMILES IDX 22 25 23 26 87 27 24 28 86 29 25 30 26 31 27 32 80 33 28 34
REMARK SMILES IDX 85 35 79 36 81 37 29 38 84 39 78 40 77 41 30 43 64 44 43 45
REMARK SMILES IDX 63 46 44 47 47 48 62 49 82 50 45 51 46 52 61 54 83 55 48 56
REMARK SMILES IDX 31 57 32 58 41 59 33 60 34 61 40 62 42 63 35 64 36 65 37 66
REMARK SMILES IDX 38 67 39 68 65 69 66 70 75 71 67 72 68 73 74 74 76 75 69 76
REMARK SMILES IDX 70 77 71 78 72 79 73 80 49 81 50 82 59 83 51 84 52 85 58 86
REMARK SMILES IDX 60 87 53 88 54 89 55 90 56 91 57 92
REMARK H PARENT 7 13 81 42 47 53
REMARK Flexibility Score: inf
ROOT
ATOM      1  C   UNL A   1      39.561  22.030  26.436  1.00  0.00     0.275 C 
ENDROOT
BRANCH   1   2
ATOM      2  C   UNL A   1      40.546  20.915  26.777  1.00  0.00     0.275 C 
BRANCH   2   3
ATOM      3  O   UNL A   1      41.523  20.705  25.738  1.00  0.00    -0.458 OA
BRANCH   3   4
ATOM      4  C   UNL A   1      42.506  19.829  26.063  1.00  0.00     0.340 C 
ATOM      5  O   UNL A   1      42.362  18.773  26.663  1.00  0.00    -0.246 OA
BRANCH   4   6
ATOM      6  C   UNL A   1      43.825  20.264  25.558  1.00  0.00     0.083 A 
ATOM      7  C   UNL A   1      44.267  21.597  25.612  1.00  0.00     0.053 A 
ATOM      8  C   UNL A   1      45.575  21.871  25.160  1.00  0.00     0.027 A 
ATOM      9  C   UNL A   1      46.425  20.862  24.700  1.00  0.00     0.002 A 
ATOM     10  C   UNL A   1      44.685  19.256  25.084  1.00  0.00     0.018 A 
ATOM     11  C   UNL A   1      45.978  19.549  24.662  1.00  0.00     0.001 A 
BRANCH   7  12
ATOM     12  N   UNL A   1      43.561  22.674  26.186  1.00  0.00    -0.355 N 
ATOM     13  H   UNL A   1      42.862  23.054  25.606  1.00  0.00     0.167 HD
BRANCH  12  14
ATOM     14  C   UNL A   1      43.677  23.304  27.441  1.00  0.00     0.042 A 
ATOM     15  C   UNL A   1      45.245  26.329  29.199  1.00  0.00     0.044 C 
ATOM     16  C   UNL A   1      44.506  25.041  28.947  1.00  0.00    -0.046 A 
ATOM     17  C   UNL A   1      44.133  24.253  30.045  1.00  0.00     0.004 A 
ATOM     18  C   UNL A   1      44.224  24.595  27.631  1.00  0.00    -0.025 A 
ATOM     19  C   UNL A   1      43.516  23.023  29.857  1.00  0.00     0.002 A 
ATOM     20  C   UNL A   1      44.502  25.515  26.463  1.00  0.00     0.047 C 
ATOM     21  C   UNL A   1      43.309  22.546  28.566  1.00  0.00     0.026 A 
ENDBRANCH  12  14
ENDBRANCH   7  12
ENDBRANCH   4   6
ENDBRANCH   3   4
ENDBRANCH   2   3
ENDBRANCH   1   2
BRANCH   1  22
ATOM     22  O   UNL A   1      39.741  23.154  27.311  1.00  0.00    -0.458 OA
BRANCH  22  23
ATOM     23  C   UNL A   1      40.448  24.180  26.787  1.00  0.00     0.338 C 
ATOM     24  O   UNL A   1      41.168  24.158  25.803  1.00  0.00    -0.246 OA
BRANCH  23  25
ATOM     25  C   UNL A   1      40.221  25.406  27.566  1.00  0.00     0.060 A 
ATOM     26  C   UNL A   1      41.022  26.518  27.334  1.00  0.00     0.016 A 
ATOM     27  C   UNL A   1      39.349  25.389  28.651  1.00  0.00     0.016 A 
ATOM     28  C   UNL A   1      41.071  27.551  28.261  1.00  0.00     0.010 A 
ATOM     29  C   UNL A   1      39.299  26.492  29.509  1.00  0.00     0.010 A 
ATOM     30  C   UNL A   1      40.200  27.563  29.355  1.00  0.00    -0.014 A 
BRANCH  30  31
ATOM     31  C   UNL A   1      40.258  28.664  30.357  1.00  0.00     0.031 A 
ATOM     32  C   UNL A   1      41.274  28.615  31.468  1.00  0.00     0.074 A 
ATOM     33  C   UNL A   1      39.407  29.707  30.274  1.00  0.00     0.049 A 
ATOM     34  N   UNL A   1      41.344  29.335  32.559  1.00  0.00    -0.248 NA
ATOM     35  C   UNL A   1      42.341  27.608  31.348  1.00  0.00     0.031 C 
ATOM     36  C   UNL A   1      38.406  29.905  29.223  1.00  0.00     0.029 A 
ATOM     37  N   UNL A   1      39.243  30.797  31.093  1.00  0.00    -0.354 N 
ATOM     38  C   UNL A   1      42.406  28.814  33.290  1.00  0.00     0.074 A 
ATOM     39  C   UNL A   1      42.961  27.726  32.514  1.00  0.00     0.031 C 
ATOM     40  C   UNL A   1      37.754  31.055  29.442  1.00  0.00     0.029 A 
ATOM     41  C   UNL A   1      38.215  31.624  30.703  1.00  0.00     0.049 A 
ATOM     42  H   UNL A   1      39.806  30.970  31.881  1.00  0.00     0.167 HD
ATOM     43  C   UNL A   1      42.865  29.205  34.504  1.00  0.00     0.037 A 
ATOM     44  C   UNL A   1      37.656  32.684  31.317  1.00  0.00     0.037 A 
ATOM     45  C   UNL A   1      42.346  30.337  35.229  1.00  0.00     0.049 A 
ATOM     46  C   UNL A   1      38.182  33.106  32.658  1.00  0.00     0.074 A 
ATOM     47  C   UNL A   1      42.763  30.845  36.447  1.00  0.00     0.029 A 
ATOM     48  N   UNL A   1      41.304  31.145  34.795  1.00  0.00    -0.354 N 
ATOM     49  N   UNL A   1      39.150  32.571  33.365  1.00  0.00    -0.248 NA
ATOM     50  C   UNL A   1      37.532  34.257  33.293  1.00  0.00     0.031 C 
ATOM     51  C   UNL A   1      41.950  31.939  36.766  1.00  0.00     0.029 A 
ATOM     52  C   UNL A   1      41.055  32.139  35.726  1.00  0.00     0.049 A 
ATOM     53  H   UNL A   1      40.815  31.028  33.949  1.00  0.00     0.167 HD
ATOM     54  C   UNL A   1      39.225  33.323  34.530  1.00  0.00     0.074 A 
ATOM     55  C   UNL A   1      38.221  34.362  34.421  1.00  0.00     0.031 C 
ATOM     56  C   UNL A   1      40.046  33.161  35.598  1.00  0.00     0.037 A 
BRANCH  43  57
ATOM     57  C   UNL A   1      43.946  28.377  35.145  1.00  0.00     0.058 A 
ATOM     58  C   UNL A   1      45.311  28.649  34.965  1.00  0.00     0.135 A 
ATOM     59  C   UNL A   1      43.602  27.291  35.968  1.00  0.00     0.135 A 
ATOM     60  F   UNL A   1      45.701  29.663  34.176  1.00  0.00    -0.206 F 
ATOM     61  C   UNL A   1      46.295  27.856  35.552  1.00  0.00     0.059 A 
ATOM     62  C   UNL A   1      44.566  26.501  36.585  1.00  0.00     0.059 A 
ATOM     63  F   UNL A   1      42.310  26.984  36.175  1.00  0.00    -0.206 F 
ATOM     64  C   UNL A   1      45.912  26.781  36.356  1.00  0.00     0.060 A 
BRANCH  64  65
ATOM     65  S   UNL A   1      47.196  25.752  37.101  1.00  0.00     0.124 S 
ATOM     66  O   UNL A   1      48.238  26.737  37.373  1.00  0.00    -0.237 OA
ATOM     67  O   UNL A   1      46.520  25.205  38.273  1.00  0.00    -0.237 OA
ATOM     68  O   UNL A   1      47.506  24.783  36.053  1.00  0.00    -0.744 OA
ENDBRANCH  64  65
ENDBRANCH  43  57
BRANCH  44  69
ATOM     69  C   UNL A   1      36.498  33.368  30.683  1.00  0.00     0.058 A 
ATOM     70  C   UNL A   1      35.202  33.229  31.199  1.00  0.00     0.135 A 
ATOM     71  C   UNL A   1      36.677  34.229  29.588  1.00  0.00     0.135 A 
ATOM     72  F   UNL A   1      34.976  32.409  32.236  1.00  0.00    -0.206 F 
ATOM     73  C   UNL A   1      34.125  33.926  30.656  1.00  0.00     0.059 A 
ATOM     74  C   UNL A   1      35.624  34.957  29.048  1.00  0.00     0.059 A 
ATOM     75  F   UNL A   1      37.902  34.407  29.067  1.00  0.00    -0.206 F 
ATOM     76  C   UNL A   1      34.349  34.796  29.587  1.00  0.00     0.060 A 
BRANCH  76  77
ATOM     77  S   UNL A   1      32.965  35.766  28.950  1.00  0.00     0.124 S 
ATOM     78  O   UNL A   1      32.327  34.812  28.051  1.00  0.00    -0.237 OA
ATOM     79  O   UNL A   1      32.227  36.089  30.168  1.00  0.00    -0.237 OA
ATOM     80  O   UNL A   1      33.621  36.902  28.306  1.00  0.00    -0.744 OA
ENDBRANCH  76  77
ENDBRANCH  44  69
BRANCH  56  81
ATOM     81  C   UNL A   1      39.903  34.147  36.721  1.00  0.00     0.058 A 
ATOM     82  C   UNL A   1      40.669  35.324  36.766  1.00  0.00     0.135 A 
ATOM     83  C   UNL A   1      38.965  33.932  37.741  1.00  0.00     0.135 A 
ATOM     84  F   UNL A   1      41.587  35.569  35.818  1.00  0.00    -0.206 F 
ATOM     85  C   UNL A   1      40.524  36.243  37.799  1.00  0.00     0.059 A 
ATOM     86  C   UNL A   1      38.786  34.850  38.771  1.00  0.00     0.059 A 
ATOM     87  F   UNL A   1      38.204  32.826  37.738  1.00  0.00    -0.206 F 
ATOM     88  C   UNL A   1      39.579  35.996  38.798  1.00  0.00     0.060 A 
BRANCH  88  89
ATOM     89  S   UNL A   1      39.380  37.207  40.121  1.00  0.00     0.124 S 
ATOM     90  O   UNL A   1      40.745  37.694  40.281  1.00  0.00    -0.237 OA
ATOM     91  O   UNL A   1      38.433  38.154  39.541  1.00  0.00    -0.237 OA
ATOM     92  O   UNL A   1      38.861  36.414  41.231  1.00  0.00    -0.744 OA
ENDBRANCH  88  89
ENDBRANCH  56  81
ENDBRANCH  30  31
ENDBRANCH  23  25
ENDBRANCH  22  23
ENDBRANCH   1  22
TORSDOF 16
ENDMDL
MODEL 3
REMARK VINA RESULT:     -10.3      3.354      5.735
REMARK SMILES Cc1cccc(Nc2ccccc2C(=O)OCCOC(=O)c2ccc(-c3c4nc(c(-c5c(F)cc(S(=O)(=O)[O-])cc5F)c5ccc([nH]5)c(-c5c(F)cc(S(=O)(=O)[O-])cc5F)c5nc(c(-c6c(F)cc(S(=O)(=O)[O-])cc6F)c6ccc3[nH]6)C=C5)C=C4)cc2)c1C
REMARK SMILES IDX 18 1 17 2 16 3 14 4 15 5 13 6 8 7 9 8 10 9 12 10 11 11 7 12
REMARK SMILES IDX 6 14 1 15 2 16 3 17 88 18 4 19 89 20 5 21 19 22 20 23 21 24
REMARK SMILES IDX 22 25 23 26 87 27 24 28 86 29 25 30 26 31 27 32 80 33 28 34
REMARK SMILES IDX 85 35 79 36 81 37 29 38 84 39 78 40 77 41 30 43 64 44 43 45
REMARK SMILES IDX 63 46 44 47 47 48 62 49 82 50 45 51 46 52 61 54 83 55 48 56
REMARK SMILES IDX 31 57 32 58 41 59 33 60 34 61 40 62 42 63 35 64 36 65 37 66
REMARK SMILES IDX 38 67 39 68 65 69 66 70 75 71 67 72 68 73 74 74 76 75 69 76
REMARK SMILES IDX 70 77 71 78 72 79 73 80 49 81 50 82 59 83 51 84 52 85 58 86
REMARK SMILES IDX 60 87 53 88 54 89 55 90 56 91 57 92
REMARK H PARENT 7 13 81 42 47 53
REMARK Flexibility Score: inf
ROOT
ATOM      1  C   UNL A   1      32.644  30.573  26.909  1.00  0.00     0.275 C 
ENDROOT
BRANCH   1   2
ATOM      2  C   UNL A   1      32.771  29.911  25.540  1.00  0.00     0.275 C 
BRANCH   2   3
ATOM      3  O   UNL A   1      32.224  28.577  25.519  1.00  0.00    -0.458 OA
BRANCH   3   4
ATOM      4  C   UNL A   1      33.145  27.598  25.346  1.00  0.00     0.340 C 
ATOM      5  O   UNL A   1      34.052  27.315  26.117  1.00  0.00    -0.246 OA
BRANCH   4   6
ATOM      6  C   UNL A   1      32.913  26.832  24.103  1.00  0.00     0.083 A 
ATOM      7  C   UNL A   1      33.695  25.727  23.724  1.00  0.00     0.053 A 
ATOM      8  C   UNL A   1      33.327  25.038  22.550  1.00  0.00     0.027 A 
ATOM      9  C   UNL A   1      32.212  25.408  21.794  1.00  0.00     0.002 A 
ATOM     10  C   UNL A   1      31.797  27.203  23.330  1.00  0.00     0.018 A 
ATOM     11  C   UNL A   1      31.444  26.495  22.185  1.00  0.00     0.001 A 
BRANCH   7  12
ATOM     12  N   UNL A   1      34.750  25.171  24.476  1.00  0.00    -0.355 N 
ATOM     13  H   UNL A   1      35.565  25.721  24.498  1.00  0.00     0.167 HD
BRANCH  12  14
ATOM     14  C   UNL A   1      34.845  23.967  25.202  1.00  0.00     0.042 A 
ATOM     15  C   UNL A   1      36.215  20.391  25.009  1.00  0.00     0.044 C 
ATOM     16  C   UNL A   1      35.507  21.632  25.487  1.00  0.00    -0.046 A 
ATOM     17  C   UNL A   1      34.648  21.533  26.592  1.00  0.00     0.004 A 
ATOM     18  C   UNL A   1      35.656  22.873  24.818  1.00  0.00    -0.025 A 
ATOM     19  C   UNL A   1      33.918  22.634  27.021  1.00  0.00     0.002 A 
ATOM     20  C   UNL A   1      36.688  23.002  23.721  1.00  0.00     0.047 C 
ATOM     21  C   UNL A   1      34.002  23.833  26.320  1.00  0.00     0.026 A 
ENDBRANCH  12  14
ENDBRANCH   7  12
ENDBRANCH   4   6
ENDBRANCH   3   4
ENDBRANCH   2   3
ENDBRANCH   1   2
BRANCH   1  22
ATOM     22  O   UNL A   1      33.525  29.953  27.859  1.00  0.00    -0.458 OA
BRANCH  22  23
ATOM     23  C   UNL A   1      34.450  30.774  28.402  1.00  0.00     0.338 C 
ATOM     24  O   UNL A   1      34.282  31.909  28.818  1.00  0.00    -0.246 OA
BRANCH  23  25
ATOM     25  C   UNL A   1      35.755  30.101  28.464  1.00  0.00     0.060 A 
ATOM     26  C   UNL A   1      36.237  29.663  29.693  1.00  0.00     0.016 A 
ATOM     27  C   UNL A   1      36.581  30.078  27.343  1.00  0.00     0.016 A 
ATOM     28  C   UNL A   1      37.581  29.344  29.844  1.00  0.00     0.010 A 
ATOM     29  C   UNL A   1      37.897  29.626  27.470  1.00  0.00     0.010 A 
ATOM     30  C   UNL A   1      38.429  29.306  28.733  1.00  0.00    -0.014 A 
BRANCH  30  31
ATOM     31  C   UNL A   1      39.873  28.975  28.894  1.00  0.00     0.031 A 
ATOM     32  C   UNL A   1      40.838  30.034  29.362  1.00  0.00     0.074 A 
ATOM     33  C   UNL A   1      40.322  27.732  28.626  1.00  0.00     0.049 A 
ATOM     34  N   UNL A   1      42.146  30.027  29.347  1.00  0.00    -0.248 NA
ATOM     35  C   UNL A   1      40.253  31.275  29.896  1.00  0.00     0.031 C 
ATOM     36  C   UNL A   1      39.491  26.599  28.211  1.00  0.00     0.029 A 
ATOM     37  N   UNL A   1      41.593  27.213  28.656  1.00  0.00    -0.354 N 
ATOM     38  C   UNL A   1      42.538  31.286  29.789  1.00  0.00     0.074 A 
ATOM     39  C   UNL A   1      41.329  32.028  30.078  1.00  0.00     0.031 C 
ATOM     40  C   UNL A   1      40.264  25.516  28.055  1.00  0.00     0.029 A 
ATOM     41  C   UNL A   1      41.656  25.899  28.253  1.00  0.00     0.049 A 
ATOM     42  H   UNL A   1      42.381  27.730  28.939  1.00  0.00     0.167 HD
ATOM     43  C   UNL A   1      43.793  31.777  29.930  1.00  0.00     0.037 A 
ATOM     44  C   UNL A   1      42.714  25.104  28.004  1.00  0.00     0.037 A 
ATOM     45  C   UNL A   1      44.985  30.999  29.707  1.00  0.00     0.049 A 
ATOM     46  C   UNL A   1      44.097  25.664  28.171  1.00  0.00     0.074 A 
ATOM     47  C   UNL A   1      46.306  31.385  29.857  1.00  0.00     0.029 A 
ATOM     48  N   UNL A   1      45.001  29.673  29.299  1.00  0.00    -0.354 N 
ATOM     49  N   UNL A   1      44.454  26.872  28.536  1.00  0.00    -0.248 NA
ATOM     50  C   UNL A   1      45.217  24.763  27.876  1.00  0.00     0.031 C 
ATOM     51  C   UNL A   1      47.121  30.301  29.507  1.00  0.00     0.029 A 
ATOM     52  C   UNL A   1      46.307  29.228  29.179  1.00  0.00     0.049 A 
ATOM     53  H   UNL A   1      44.200  29.128  29.121  1.00  0.00     0.167 HD
ATOM     54  C   UNL A   1      45.843  26.878  28.514  1.00  0.00     0.074 A 
ATOM     55  C   UNL A   1      46.259  25.545  28.123  1.00  0.00     0.031 C 
ATOM     56  C   UNL A   1      46.697  27.897  28.784  1.00  0.00     0.037 A 
BRANCH  43  57
ATOM     57  C   UNL A   1      43.941  33.230  30.292  1.00  0.00     0.058 A 
ATOM     58  C   UNL A   1      44.111  33.663  31.617  1.00  0.00     0.135 A 
ATOM     59  C   UNL A   1      43.925  34.209  29.284  1.00  0.00     0.135 A 
ATOM     60  F   UNL A   1      44.118  32.775  32.623  1.00  0.00    -0.206 F 
ATOM     61  C   UNL A   1      44.225  35.016  31.931  1.00  0.00     0.059 A 
ATOM     62  C   UNL A   1      44.064  35.563  29.572  1.00  0.00     0.059 A 
ATOM     63  F   UNL A   1      43.766  33.852  27.999  1.00  0.00    -0.206 F 
ATOM     64  C   UNL A   1      44.195  35.958  30.902  1.00  0.00     0.060 A 
BRANCH  64  65
ATOM     65  S   UNL A   1      44.331  37.710  31.322  1.00  0.00     0.124 S 
ATOM     66  O   UNL A   1      45.779  37.891  31.349  1.00  0.00    -0.237 OA
ATOM     67  O   UNL A   1      43.634  38.354  30.215  1.00  0.00    -0.237 OA
ATOM     68  O   UNL A   1      43.663  37.802  32.617  1.00  0.00    -0.744 OA
ENDBRANCH  64  65
ENDBRANCH  43  57
BRANCH  44  69
ATOM     69  C   UNL A   1      42.487  23.718  27.515  1.00  0.00     0.058 A 
ATOM     70  C   UNL A   1      42.453  23.430  26.144  1.00  0.00     0.135 A 
ATOM     71  C   UNL A   1      42.369  22.645  28.412  1.00  0.00     0.135 A 
ATOM     72  F   UNL A   1      42.550  24.421  25.246  1.00  0.00    -0.206 F 
ATOM     73  C   UNL A   1      42.316  22.124  25.679  1.00  0.00     0.059 A 
ATOM     74  C   UNL A   1      42.260  21.331  27.973  1.00  0.00     0.059 A 
ATOM     75  F   UNL A   1      42.411  22.868  29.736  1.00  0.00    -0.206 F 
ATOM     76  C   UNL A   1      42.232  21.080  26.603  1.00  0.00     0.060 A 
BRANCH  76  77
ATOM     77  S   UNL A   1      42.148  19.383  25.992  1.00  0.00     0.124 S 
ATOM     78  O   UNL A   1      43.004  19.452  24.813  1.00  0.00    -0.237 OA
ATOM     79  O   UNL A   1      42.676  18.621  27.120  1.00  0.00    -0.237 OA
ATOM     80  O   UNL A   1      40.724  19.191  25.731  1.00  0.00    -0.744 OA
ENDBRANCH  76  77
ENDBRANCH  44  69
BRANCH  56  81
ATOM     81  C   UNL A   1      48.165  27.598  28.688  1.00  0.00     0.058 A 
ATOM     82  C   UNL A   1      48.899  27.156  29.800  1.00  0.00     0.135 A 
ATOM     83  C   UNL A   1      48.836  27.719  27.461  1.00  0.00     0.135 A 
ATOM     84  F   UNL A   1      48.303  27.033  30.997  1.00  0.00    -0.206 F 
ATOM     85  C   UNL A   1      50.254  26.865  29.704  1.00  0.00     0.059 A 
ATOM     86  C   UNL A   1      50.186  27.411  27.337  1.00  0.00     0.059 A 
ATOM     87  F   UNL A   1      48.176  28.132  26.367  1.00  0.00    -0.206 F 
ATOM     88  C   UNL A   1      50.890  26.997  28.466  1.00  0.00     0.060 A 
BRANCH  88  89
ATOM     89  S   UNL A   1      52.645  26.592  28.346  1.00  0.00     0.124 S 
ATOM     90  O   UNL A   1      52.635  25.541  27.336  1.00  0.00    -0.237 OA
ATOM     91  O   UNL A   1      53.233  27.863  27.935  1.00  0.00    -0.237 OA
ATOM     92  O   UNL A   1      52.986  26.161  29.699  1.00  0.00    -0.744 OA
ENDBRANCH  88  89
ENDBRANCH  56  81
ENDBRANCH  30  31
ENDBRANCH  23  25
ENDBRANCH  22  23
ENDBRANCH   1  22
TORSDOF 16
ENDMDL
