MODEL 1
REMARK VINA RESULT:     -12.0      0.000      0.000
REMARK SMILES CCOC(=O)[C@@]1(C)C/C(=N/c2cccc(C(=O)OCCOC(=O)c3ccc(-c4c5nc(c(-c6c(F)cc(S(=O)(=O)[O-])cc6F)c6ccc([nH]6)c(-c6c(F)cc(S(=O)(=O)[O-])cc6F)c6nc(c(-c7c(F)cc(S(=O)(=O)[O-])cc7F)c7ccc4[nH]7)C=C6)C=C5)cc3)c2)C(=O)N1c1ccccc1
REMARK SMILES IDX 19 1 18 2 16 3 17 4 15 5 11 6 12 7 90 8 13 9 14 10 10 11
REMARK SMILES IDX 6 12 7 13 8 14 93 15 9 16 91 17 92 18 4 19 5 20 3 21 2 22
REMARK SMILES IDX 1 23 94 24 95 25 99 26 96 27 98 28 97 29 20 30 21 31 22 32
REMARK SMILES IDX 23 33 24 34 25 35 89 36 26 37 88 38 27 39 28 40 29 41 82 42
REMARK SMILES IDX 30 43 87 44 81 45 83 46 31 47 86 48 80 49 79 50 32 52 66 53
REMARK SMILES IDX 45 54 65 55 46 56 49 57 64 58 84 59 47 60 48 61 63 63 85 64
REMARK SMILES IDX 50 65 33 66 34 67 43 68 35 69 36 70 42 71 44 72 37 73 38 74
REMARK SMILES IDX 39 75 40 76 41 77 67 78 68 79 77 80 69 81 70 82 76 83 78 84
REMARK SMILES IDX 71 85 72 86 73 87 74 88 75 89 51 90 52 91 61 92 53 93 54 94
REMARK SMILES IDX 60 95 62 96 55 97 56 98 57 99 58 100 59 101
REMARK H PARENT 83 51 49 62
REMARK Flexibility Score: inf
ROOT
ATOM      1  C   UNL A   1      33.553  31.315  27.473  1.00  0.00     0.275 C 
ENDROOT
BRANCH   1   2
ATOM      2  O   UNL A   1      33.359  30.067  26.780  1.00  0.00    -0.458 OA
BRANCH   2   3
ATOM      3  C   UNL A   1      32.363  30.063  25.853  1.00  0.00     0.338 C 
ATOM      4  O   UNL A   1      31.428  30.845  25.793  1.00  0.00    -0.246 OA
BRANCH   3   5
ATOM      5  C   UNL A   1      32.594  28.998  24.847  1.00  0.00     0.062 A 
ATOM      6  C   UNL A   1      32.064  26.843  23.866  1.00  0.00     0.064 A 
ATOM      7  C   UNL A   1      33.021  27.063  22.875  1.00  0.00     0.028 A 
ATOM      8  C   UNL A   1      31.887  27.793  24.879  1.00  0.00     0.044 A 
ATOM      9  C   UNL A   1      33.752  28.251  22.853  1.00  0.00     0.003 A 
ATOM     10  C   UNL A   1      33.524  29.227  23.825  1.00  0.00     0.016 A 
BRANCH   6  11
ATOM     11  N   UNL A   1      31.279  25.680  23.846  1.00  0.00    -0.248 NA
ATOM     12  C   UNL A   1      32.404  22.393  23.736  1.00  0.00     0.148 C 
ATOM     13  C   UNL A   1      32.569  22.371  22.202  1.00  0.00     0.048 C 
ATOM     14  C   UNL A   1      31.167  23.260  24.085  1.00  0.00     0.103 C 
ATOM     15  N   UNL A   1      33.560  23.060  24.383  1.00  0.00    -0.290 N 
ATOM     16  C   UNL A   1      31.824  24.576  24.259  1.00  0.00     0.109 C 
ATOM     17  C   UNL A   1      33.213  24.344  24.799  1.00  0.00     0.273 C 
ATOM     18  O   UNL A   1      33.807  25.176  25.448  1.00  0.00    -0.267 OA
BRANCH  12  19
ATOM     19  C   UNL A   1      32.094  21.022  24.369  1.00  0.00     0.332 C 
ATOM     20  O   UNL A   1      31.616  20.866  25.486  1.00  0.00    -0.249 OA
BRANCH  19  21
ATOM     21  O   UNL A   1      32.316  20.009  23.482  1.00  0.00    -0.464 OA
BRANCH  21  22
ATOM     22  C   UNL A   1      32.548  18.712  24.053  1.00  0.00     0.229 C 
ATOM     23  C   UNL A   1      34.020  18.554  24.380  1.00  0.00     0.049 C 
ENDBRANCH  21  22
ENDBRANCH  19  21
ENDBRANCH  12  19
BRANCH  15  24
ATOM     24  C   UNL A   1      34.873  22.500  24.508  1.00  0.00     0.045 A 
ATOM     25  C   UNL A   1      35.239  21.742  25.633  1.00  0.00     0.026 A 
ATOM     26  C   UNL A   1      35.867  22.704  23.537  1.00  0.00     0.026 A 
ATOM     27  C   UNL A   1      36.531  21.226  25.791  1.00  0.00     0.002 A 
ATOM     28  C   UNL A   1      37.165  22.198  23.696  1.00  0.00     0.002 A 
ATOM     29  C   UNL A   1      37.499  21.460  24.825  1.00  0.00     0.000 A 
ENDBRANCH  15  24
ENDBRANCH   6  11
ENDBRANCH   3   5
ENDBRANCH   2   3
ENDBRANCH   1   2
BRANCH   1  30
ATOM     30  C   UNL A   1      35.037  31.524  27.771  1.00  0.00     0.275 C 
BRANCH  30  31
ATOM     31  O   UNL A   1      35.550  30.328  28.369  1.00  0.00    -0.458 OA
BRANCH  31  32
ATOM     32  C   UNL A   1      36.237  30.474  29.521  1.00  0.00     0.338 C 
ATOM     33  O   UNL A   1      35.796  30.912  30.570  1.00  0.00    -0.246 OA
BRANCH  32  34
ATOM     34  C   UNL A   1      37.646  30.050  29.302  1.00  0.00     0.060 A 
ATOM     35  C   UNL A   1      38.496  29.737  30.373  1.00  0.00     0.016 A 
ATOM     36  C   UNL A   1      38.125  29.959  27.992  1.00  0.00     0.016 A 
ATOM     37  C   UNL A   1      39.807  29.323  30.138  1.00  0.00     0.010 A 
ATOM     38  C   UNL A   1      39.434  29.527  27.754  1.00  0.00     0.010 A 
ATOM     39  C   UNL A   1      40.281  29.205  28.826  1.00  0.00    -0.014 A 
BRANCH  39  40
ATOM     40  C   UNL A   1      41.669  28.760  28.566  1.00  0.00     0.031 A 
ATOM     41  C   UNL A   1      42.804  29.731  28.703  1.00  0.00     0.074 A 
ATOM     42  C   UNL A   1      41.916  27.485  28.213  1.00  0.00     0.049 A 
ATOM     43  N   UNL A   1      44.057  29.586  28.361  1.00  0.00    -0.248 NA
ATOM     44  C   UNL A   1      42.484  31.036  29.300  1.00  0.00     0.031 C 
ATOM     45  C   UNL A   1      40.910  26.427  28.094  1.00  0.00     0.029 A 
ATOM     46  N   UNL A   1      43.096  26.864  27.893  1.00  0.00    -0.354 N 
ATOM     47  C   UNL A   1      44.670  30.797  28.656  1.00  0.00     0.074 A 
ATOM     48  C   UNL A   1      43.656  31.653  29.237  1.00  0.00     0.031 C 
ATOM     49  C   UNL A   1      41.521  25.282  27.748  1.00  0.00     0.029 A 
ATOM     50  C   UNL A   1      42.951  25.534  27.583  1.00  0.00     0.049 A 
ATOM     51  H   UNL A   1      43.964  27.327  27.887  1.00  0.00     0.167 HD
ATOM     52  C   UNL A   1      45.954  31.166  28.440  1.00  0.00     0.037 A 
ATOM     53  C   UNL A   1      43.865  24.628  27.190  1.00  0.00     0.037 A 
ATOM     54  C   UNL A   1      46.965  30.313  27.877  1.00  0.00     0.049 A 
ATOM     55  C   UNL A   1      45.292  25.049  26.993  1.00  0.00     0.074 A 
ATOM     56  C   UNL A   1      48.269  30.621  27.532  1.00  0.00     0.029 A 
ATOM     57  N   UNL A   1      46.787  28.966  27.601  1.00  0.00    -0.354 N 
ATOM     58  N   UNL A   1      45.830  26.233  27.157  1.00  0.00    -0.248 NA
ATOM     59  C   UNL A   1      46.230  24.015  26.533  1.00  0.00     0.031 C 
ATOM     60  C   UNL A   1      48.882  29.455  27.055  1.00  0.00     0.029 A 
ATOM     61  C   UNL A   1      47.961  28.423  27.110  1.00  0.00     0.049 A 
ATOM     62  H   UNL A   1      45.947  28.469  27.736  1.00  0.00     0.167 HD
ATOM     63  C   UNL A   1      47.165  26.094  26.798  1.00  0.00     0.074 A 
ATOM     64  C   UNL A   1      47.361  24.704  26.435  1.00  0.00     0.031 C 
ATOM     65  C   UNL A   1      48.135  27.038  26.754  1.00  0.00     0.037 A 
BRANCH  52  66
ATOM     66  C   UNL A   1      46.306  32.582  28.778  1.00  0.00     0.058 A 
ATOM     67  C   UNL A   1      46.088  33.626  27.870  1.00  0.00     0.135 A 
ATOM     68  C   UNL A   1      46.906  32.887  30.010  1.00  0.00     0.135 A 
ATOM     69  F   UNL A   1      45.537  33.377  26.672  1.00  0.00    -0.206 F 
ATOM     70  C   UNL A   1      46.478  34.930  28.160  1.00  0.00     0.059 A 
ATOM     71  C   UNL A   1      47.298  34.183  30.323  1.00  0.00     0.059 A 
ATOM     72  F   UNL A   1      47.144  31.915  30.904  1.00  0.00    -0.206 F 
ATOM     73  C   UNL A   1      47.098  35.194  29.384  1.00  0.00     0.060 A 
BRANCH  73  74
ATOM     74  S   UNL A   1      47.652  36.872  29.757  1.00  0.00     0.124 S 
ATOM     75  O   UNL A   1      48.828  36.610  30.583  1.00  0.00    -0.237 OA
ATOM     76  O   UNL A   1      47.920  37.431  28.437  1.00  0.00    -0.237 OA
ATOM     77  O   UNL A   1      46.506  37.448  30.456  1.00  0.00    -0.744 OA
ENDBRANCH  73  74
ENDBRANCH  52  66
BRANCH  53  78
ATOM     78  C   UNL A   1      43.446  23.231  26.938  1.00  0.00     0.058 A 
ATOM     79  C   UNL A   1      43.337  22.744  25.628  1.00  0.00     0.135 A 
ATOM     80  C   UNL A   1      43.176  22.351  27.995  1.00  0.00     0.135 A 
ATOM     81  F   UNL A   1      43.584  23.556  24.588  1.00  0.00    -0.206 F 
ATOM     82  C   UNL A   1      42.975  21.426  25.371  1.00  0.00     0.059 A 
ATOM     83  C   UNL A   1      42.819  21.028  27.764  1.00  0.00     0.059 A 
ATOM     84  F   UNL A   1      43.276  22.776  29.264  1.00  0.00    -0.206 F 
ATOM     85  C   UNL A   1      42.717  20.576  26.447  1.00  0.00     0.060 A 
BRANCH  85  86
ATOM     86  S   UNL A   1      42.308  18.842  26.141  1.00  0.00     0.124 S 
ATOM     87  O   UNL A   1      42.542  18.251  27.453  1.00  0.00    -0.237 OA
ATOM     88  O   UNL A   1      40.913  18.906  25.711  1.00  0.00    -0.237 OA
ATOM     89  O   UNL A   1      43.258  18.471  25.097  1.00  0.00    -0.744 OA
ENDBRANCH  85  86
ENDBRANCH  53  78
BRANCH  65  90
ATOM     90  C   UNL A   1      49.487  26.599  26.283  1.00  0.00     0.058 A 
ATOM     91  C   UNL A   1      49.837  26.687  24.928  1.00  0.00     0.135 A 
ATOM     92  C   UNL A   1      50.445  26.118  27.186  1.00  0.00     0.135 A 
ATOM     93  F   UNL A   1      48.949  27.137  24.028  1.00  0.00    -0.206 F 
ATOM     94  C   UNL A   1      51.096  26.303  24.479  1.00  0.00     0.059 A 
ATOM     95  C   UNL A   1      51.712  25.733  26.760  1.00  0.00     0.059 A 
ATOM     96  F   UNL A   1      50.152  26.016  28.492  1.00  0.00    -0.206 F 
ATOM     97  C   UNL A   1      52.026  25.821  25.402  1.00  0.00     0.060 A 
BRANCH  97  98
ATOM     98  S   UNL A   1      53.673  25.348  24.834  1.00  0.00     0.124 S 
ATOM     99  O   UNL A   1      53.570  23.893  24.816  1.00  0.00    -0.237 OA
ATOM    100  O   UNL A   1      53.765  25.992  23.527  1.00  0.00    -0.237 OA
ATOM    101  O   UNL A   1      54.548  25.906  25.860  1.00  0.00    -0.744 OA
ENDBRANCH  97  98
ENDBRANCH  65  90
ENDBRANCH  39  40
ENDBRANCH  32  34
ENDBRANCH  31  32
ENDBRANCH  30  31
ENDBRANCH   1  30
TORSDOF 19
ENDMDL
MODEL 2
REMARK VINA RESULT:     -11.6      6.235     11.823
REMARK SMILES CCOC(=O)[C@@]1(C)C/C(=N/c2cccc(C(=O)OCCOC(=O)c3ccc(-c4c5nc(c(-c6c(F)cc(S(=O)(=O)[O-])cc6F)c6ccc([nH]6)c(-c6c(F)cc(S(=O)(=O)[O-])cc6F)c6nc(c(-c7c(F)cc(S(=O)(=O)[O-])cc7F)c7ccc4[nH]7)C=C6)C=C5)cc3)c2)C(=O)N1c1ccccc1
REMARK SMILES IDX 19 1 18 2 16 3 17 4 15 5 11 6 12 7 90 8 13 9 14 10 10 11
REMARK SMILES IDX 6 12 7 13 8 14 93 15 9 16 91 17 92 18 4 19 5 20 3 21 2 22
REMARK SMILES IDX 1 23 94 24 95 25 99 26 96 27 98 28 97 29 20 30 21 31 22 32
REMARK SMILES IDX 23 33 24 34 25 35 89 36 26 37 88 38 27 39 28 40 29 41 82 42
REMARK SMILES IDX 30 43 87 44 81 45 83 46 31 47 86 48 80 49 79 50 32 52 66 53
REMARK SMILES IDX 45 54 65 55 46 56 49 57 64 58 84 59 47 60 48 61 63 63 85 64
REMARK SMILES IDX 50 65 33 66 34 67 43 68 35 69 36 70 42 71 44 72 37 73 38 74
REMARK SMILES IDX 39 75 40 76 41 77 67 78 68 79 77 80 69 81 70 82 76 83 78 84
REMARK SMILES IDX 71 85 72 86 73 87 74 88 75 89 51 90 52 91 61 92 53 93 54 94
REMARK SMILES IDX 60 95 62 96 55 97 56 98 57 99 58 100 59 101
REMARK H PARENT 83 51 49 62
REMARK Flexibility Score: inf
ROOT
ATOM      1  C   UNL A   1      38.401  22.334  25.494  1.00  0.00     0.275 C 
ENDROOT
BRANCH   1   2
ATOM      2  O   UNL A   1      37.245  21.640  26.002  1.00  0.00    -0.458 OA
BRANCH   2   3
ATOM      3  C   UNL A   1      36.647  20.786  25.127  1.00  0.00     0.338 C 
ATOM      4  O   UNL A   1      37.172  19.835  24.571  1.00  0.00    -0.246 OA
BRANCH   3   5
ATOM      5  C   UNL A   1      35.209  21.120  24.977  1.00  0.00     0.062 A 
ATOM      6  C   UNL A   1      33.396  22.265  23.841  1.00  0.00     0.064 A 
ATOM      7  C   UNL A   1      32.479  21.648  24.692  1.00  0.00     0.028 A 
ATOM      8  C   UNL A   1      34.766  22.035  24.018  1.00  0.00     0.044 A 
ATOM      9  C   UNL A   1      32.917  20.756  25.672  1.00  0.00     0.003 A 
ATOM     10  C   UNL A   1      34.278  20.476  25.801  1.00  0.00     0.016 A 
BRANCH   6  11
ATOM     11  N   UNL A   1      32.950  23.105  22.811  1.00  0.00    -0.248 NA
ATOM     12  C   UNL A   1      31.715  26.339  23.128  1.00  0.00     0.148 C 
ATOM     13  C   UNL A   1      30.276  25.890  23.455  1.00  0.00     0.048 C 
ATOM     14  C   UNL A   1      32.319  25.347  22.100  1.00  0.00     0.103 C 
ATOM     15  N   UNL A   1      32.582  26.254  24.329  1.00  0.00    -0.290 N 
ATOM     16  C   UNL A   1      32.959  24.385  23.027  1.00  0.00     0.109 C 
ATOM     17  C   UNL A   1      33.415  25.139  24.251  1.00  0.00     0.273 C 
ATOM     18  O   UNL A   1      34.329  24.758  24.949  1.00  0.00    -0.267 OA
BRANCH  12  19
ATOM     19  C   UNL A   1      31.818  27.711  22.432  1.00  0.00     0.332 C 
ATOM     20  O   UNL A   1      32.864  28.321  22.254  1.00  0.00    -0.249 OA
BRANCH  19  21
ATOM     21  O   UNL A   1      30.607  28.105  21.942  1.00  0.00    -0.464 OA
BRANCH  21  22
ATOM     22  C   UNL A   1      30.170  29.417  22.326  1.00  0.00     0.229 C 
ATOM     23  C   UNL A   1      30.327  29.591  23.823  1.00  0.00     0.049 C 
ENDBRANCH  21  22
ENDBRANCH  19  21
ENDBRANCH  12  19
BRANCH  15  24
ATOM     24  C   UNL A   1      32.532  27.146  25.449  1.00  0.00     0.045 A 
ATOM     25  C   UNL A   1      31.473  27.100  26.372  1.00  0.00     0.026 A 
ATOM     26  C   UNL A   1      33.512  28.128  25.665  1.00  0.00     0.026 A 
ATOM     27  C   UNL A   1      31.386  27.994  27.446  1.00  0.00     0.002 A 
ATOM     28  C   UNL A   1      33.423  29.032  26.734  1.00  0.00     0.002 A 
ATOM     29  C   UNL A   1      32.358  28.967  27.624  1.00  0.00     0.000 A 
ENDBRANCH  15  24
ENDBRANCH   6  11
ENDBRANCH   3   5
ENDBRANCH   2   3
ENDBRANCH   1   2
BRANCH   1  30
ATOM     30  C   UNL A   1      39.590  22.130  26.432  1.00  0.00     0.275 C 
BRANCH  30  31
ATOM     31  O   UNL A   1      39.714  23.291  27.262  1.00  0.00    -0.458 OA
BRANCH  31  32
ATOM     32  C   UNL A   1      40.690  24.165  26.938  1.00  0.00     0.338 C 
ATOM     33  O   UNL A   1      41.465  24.062  26.002  1.00  0.00    -0.246 OA
BRANCH  32  34
ATOM     34  C   UNL A   1      40.701  25.269  27.935  1.00  0.00     0.060 A 
ATOM     35  C   UNL A   1      41.833  26.073  28.130  1.00  0.00     0.016 A 
ATOM     36  C   UNL A   1      39.547  25.507  28.688  1.00  0.00     0.016 A 
ATOM     37  C   UNL A   1      41.810  27.115  29.057  1.00  0.00     0.010 A 
ATOM     38  C   UNL A   1      39.517  26.562  29.606  1.00  0.00     0.010 A 
ATOM     39  C   UNL A   1      40.647  27.373  29.794  1.00  0.00    -0.014 A 
BRANCH  39  40
ATOM     40  C   UNL A   1      40.611  28.480  30.776  1.00  0.00     0.031 A 
ATOM     41  C   UNL A   1      41.629  28.539  31.875  1.00  0.00     0.074 A 
ATOM     42  C   UNL A   1      39.669  29.436  30.682  1.00  0.00     0.049 A 
ATOM     43  N   UNL A   1      41.668  29.322  32.921  1.00  0.00    -0.248 NA
ATOM     44  C   UNL A   1      42.750  27.591  31.785  1.00  0.00     0.031 C 
ATOM     45  C   UNL A   1      38.651  29.526  29.634  1.00  0.00     0.029 A 
ATOM     46  N   UNL A   1      39.420  30.520  31.484  1.00  0.00    -0.354 N 
ATOM     47  C   UNL A   1      42.789  28.932  33.642  1.00  0.00     0.074 A 
ATOM     48  C   UNL A   1      43.422  27.864  32.894  1.00  0.00     0.031 C 
ATOM     49  C   UNL A   1      37.901  30.620  29.845  1.00  0.00     0.029 A 
ATOM     50  C   UNL A   1      38.359  31.284  31.063  1.00  0.00     0.049 A 
ATOM     51  H   UNL A   1      39.952  30.732  32.285  1.00  0.00     0.167 HD
ATOM     52  C   UNL A   1      43.233  29.405  34.830  1.00  0.00     0.037 A 
ATOM     53  C   UNL A   1      37.808  32.383  31.611  1.00  0.00     0.037 A 
ATOM     54  C   UNL A   1      42.615  30.473  35.565  1.00  0.00     0.049 A 
ATOM     55  C   UNL A   1      38.340  32.915  32.909  1.00  0.00     0.074 A 
ATOM     56  C   UNL A   1      42.933  30.962  36.820  1.00  0.00     0.029 A 
ATOM     57  N   UNL A   1      41.560  31.239  35.094  1.00  0.00    -0.354 N 
ATOM     58  N   UNL A   1      39.325  32.457  33.643  1.00  0.00    -0.248 NA
ATOM     59  C   UNL A   1      37.671  34.099  33.465  1.00  0.00     0.031 C 
ATOM     60  C   UNL A   1      42.074  32.033  37.103  1.00  0.00     0.029 A 
ATOM     61  C   UNL A   1      41.227  32.211  36.021  1.00  0.00     0.049 A 
ATOM     62  H   UNL A   1      41.113  31.110  34.226  1.00  0.00     0.167 HD
ATOM     63  C   UNL A   1      39.379  33.281  34.760  1.00  0.00     0.074 A 
ATOM     64  C   UNL A   1      38.347  34.284  34.592  1.00  0.00     0.031 C 
ATOM     65  C   UNL A   1      40.197  33.200  35.836  1.00  0.00     0.037 A 
BRANCH  52  66
ATOM     66  C   UNL A   1      44.428  28.718  35.415  1.00  0.00     0.058 A 
ATOM     67  C   UNL A   1      44.293  27.614  36.268  1.00  0.00     0.135 A 
ATOM     68  C   UNL A   1      45.721  29.198  35.150  1.00  0.00     0.135 A 
ATOM     69  F   UNL A   1      43.075  27.135  36.565  1.00  0.00    -0.206 F 
ATOM     70  C   UNL A   1      45.401  27.020  36.863  1.00  0.00     0.059 A 
ATOM     71  C   UNL A   1      46.842  28.617  35.730  1.00  0.00     0.059 A 
ATOM     72  F   UNL A   1      45.896  30.261  34.349  1.00  0.00    -0.206 F 
ATOM     73  C   UNL A   1      46.671  27.540  36.600  1.00  0.00     0.060 A 
BRANCH  73  74
ATOM     74  S   UNL A   1      48.115  26.811  37.402  1.00  0.00     0.124 S 
ATOM     75  O   UNL A   1      49.196  27.305  36.553  1.00  0.00    -0.237 OA
ATOM     76  O   UNL A   1      48.063  27.372  38.747  1.00  0.00    -0.237 OA
ATOM     77  O   UNL A   1      47.849  25.377  37.315  1.00  0.00    -0.744 OA
ENDBRANCH  73  74
ENDBRANCH  52  66
BRANCH  53  78
ATOM     78  C   UNL A   1      36.668  33.042  30.934  1.00  0.00     0.058 A 
ATOM     79  C   UNL A   1      35.363  32.890  31.424  1.00  0.00     0.135 A 
ATOM     80  C   UNL A   1      36.862  33.853  29.807  1.00  0.00     0.135 A 
ATOM     81  F   UNL A   1      35.136  32.120  32.498  1.00  0.00    -0.206 F 
ATOM     82  C   UNL A   1      34.283  33.526  30.821  1.00  0.00     0.059 A 
ATOM     83  C   UNL A   1      35.800  34.503  29.191  1.00  0.00     0.059 A 
ATOM     84  F   UNL A   1      38.096  34.028  29.311  1.00  0.00    -0.206 F 
ATOM     85  C   UNL A   1      34.512  34.329  29.703  1.00  0.00     0.060 A 
BRANCH  85  86
ATOM     86  S   UNL A   1      33.134  35.217  28.940  1.00  0.00     0.124 S 
ATOM     87  O   UNL A   1      32.272  35.460  30.090  1.00  0.00    -0.237 OA
ATOM     88  O   UNL A   1      33.781  36.395  28.369  1.00  0.00    -0.237 OA
ATOM     89  O   UNL A   1      32.637  34.253  27.964  1.00  0.00    -0.744 OA
ENDBRANCH  85  86
ENDBRANCH  53  78
BRANCH  65  90
ATOM     90  C   UNL A   1      39.994  34.214  36.919  1.00  0.00     0.058 A 
ATOM     91  C   UNL A   1      40.601  35.476  36.842  1.00  0.00     0.135 A 
ATOM     92  C   UNL A   1      39.170  33.940  38.019  1.00  0.00     0.135 A 
ATOM     93  F   UNL A   1      41.401  35.780  35.808  1.00  0.00    -0.206 F 
ATOM     94  C   UNL A   1      40.403  36.436  37.829  1.00  0.00     0.059 A 
ATOM     95  C   UNL A   1      38.956  34.886  39.016  1.00  0.00     0.059 A 
ATOM     96  F   UNL A   1      38.571  32.744  38.134  1.00  0.00    -0.206 F 
ATOM     97  C   UNL A   1      39.583  36.129  38.917  1.00  0.00     0.060 A 
BRANCH  97  98
ATOM     98  S   UNL A   1      39.297  37.378  40.189  1.00  0.00     0.124 S 
ATOM     99  O   UNL A   1      38.643  36.592  41.229  1.00  0.00    -0.237 OA
ATOM    100  O   UNL A   1      40.645  37.842  40.501  1.00  0.00    -0.237 OA
ATOM    101  O   UNL A   1      38.451  38.354  39.508  1.00  0.00    -0.744 OA
ENDBRANCH  97  98
ENDBRANCH  65  90
ENDBRANCH  39  40
ENDBRANCH  32  34
ENDBRANCH  31  32
ENDBRANCH  30  31
ENDBRANCH   1  30
TORSDOF 19
ENDMDL
MODEL 3
REMARK VINA RESULT:     -11.6      1.115      8.032
REMARK SMILES CCOC(=O)[C@@]1(C)C/C(=N/c2cccc(C(=O)OCCOC(=O)c3ccc(-c4c5nc(c(-c6c(F)cc(S(=O)(=O)[O-])cc6F)c6ccc([nH]6)c(-c6c(F)cc(S(=O)(=O)[O-])cc6F)c6nc(c(-c7c(F)cc(S(=O)(=O)[O-])cc7F)c7ccc4[nH]7)C=C6)C=C5)cc3)c2)C(=O)N1c1ccccc1
REMARK SMILES IDX 19 1 18 2 16 3 17 4 15 5 11 6 12 7 90 8 13 9 14 10 10 11
REMARK SMILES IDX 6 12 7 13 8 14 93 15 9 16 91 17 92 18 4 19 5 20 3 21 2 22
REMARK SMILES IDX 1 23 94 24 95 25 99 26 96 27 98 28 97 29 20 30 21 31 22 32
REMARK SMILES IDX 23 33 24 34 25 35 89 36 26 37 88 38 27 39 28 40 29 41 82 42
REMARK SMILES IDX 30 43 87 44 81 45 83 46 31 47 86 48 80 49 79 50 32 52 66 53
REMARK SMILES IDX 45 54 65 55 46 56 49 57 64 58 84 59 47 60 48 61 63 63 85 64
REMARK SMILES IDX 50 65 33 66 34 67 43 68 35 69 36 70 42 71 44 72 37 73 38 74
REMARK SMILES IDX 39 75 40 76 41 77 67 78 68 79 77 80 69 81 70 82 76 83 78 84
REMARK SMILES IDX 71 85 72 86 73 87 74 88 75 89 51 90 52 91 61 92 53 93 54 94
REMARK SMILES IDX 60 95 62 96 55 97 56 98 57 99 58 100 59 101
REMARK H PARENT 83 51 49 62
REMARK Flexibility Score: inf
ROOT
ATOM      1  C   UNL A   1      34.319  31.539  27.605  1.00  0.00     0.275 C 
ENDROOT
BRANCH   1   2
ATOM      2  O   UNL A   1      33.320  30.501  27.576  1.00  0.00    -0.458 OA
BRANCH   2   3
ATOM      3  C   UNL A   1      32.189  30.800  26.881  1.00  0.00     0.338 C 
ATOM      4  O   UNL A   1      31.608  31.872  26.872  1.00  0.00    -0.246 OA
BRANCH   3   5
ATOM      5  C   UNL A   1      31.770  29.644  26.050  1.00  0.00     0.062 A 
ATOM      6  C   UNL A   1      31.073  27.332  25.815  1.00  0.00     0.064 A 
ATOM      7  C   UNL A   1      30.906  27.525  24.444  1.00  0.00     0.028 A 
ATOM      8  C   UNL A   1      31.551  28.381  26.609  1.00  0.00     0.044 A 
ATOM      9  C   UNL A   1      31.152  28.775  23.874  1.00  0.00     0.003 A 
ATOM     10  C   UNL A   1      31.563  29.839  24.679  1.00  0.00     0.016 A 
BRANCH   6  11
ATOM     11  N   UNL A   1      30.757  26.096  26.399  1.00  0.00    -0.248 NA
ATOM     12  C   UNL A   1      32.356  23.056  25.865  1.00  0.00     0.148 C 
ATOM     13  C   UNL A   1      31.555  22.718  24.590  1.00  0.00     0.048 C 
ATOM     14  C   UNL A   1      31.418  23.797  26.853  1.00  0.00     0.103 C 
ATOM     15  N   UNL A   1      33.455  24.004  25.563  1.00  0.00    -0.290 N 
ATOM     16  C   UNL A   1      31.693  25.197  26.456  1.00  0.00     0.109 C 
ATOM     17  C   UNL A   1      33.126  25.287  25.997  1.00  0.00     0.273 C 
ATOM     18  O   UNL A   1      33.762  26.317  26.043  1.00  0.00    -0.267 OA
BRANCH  12  19
ATOM     19  C   UNL A   1      32.846  21.829  26.660  1.00  0.00     0.332 C 
ATOM     20  O   UNL A   1      33.313  21.878  27.791  1.00  0.00    -0.249 OA
BRANCH  19  21
ATOM     21  O   UNL A   1      32.590  20.672  25.985  1.00  0.00    -0.464 OA
BRANCH  21  22
ATOM     22  C   UNL A   1      33.715  20.064  25.329  1.00  0.00     0.229 C 
ATOM     23  C   UNL A   1      33.382  18.630  24.969  1.00  0.00     0.049 C 
ENDBRANCH  21  22
ENDBRANCH  19  21
ENDBRANCH  12  19
BRANCH  15  24
ATOM     24  C   UNL A   1      34.662  23.675  24.863  1.00  0.00     0.045 A 
ATOM     25  C   UNL A   1      34.642  23.317  23.504  1.00  0.00     0.026 A 
ATOM     26  C   UNL A   1      35.913  23.661  25.499  1.00  0.00     0.026 A 
ATOM     27  C   UNL A   1      35.806  22.949  22.818  1.00  0.00     0.002 A 
ATOM     28  C   UNL A   1      37.080  23.283  24.818  1.00  0.00     0.002 A 
ATOM     29  C   UNL A   1      37.026  22.925  23.477  1.00  0.00     0.000 A 
ENDBRANCH  15  24
ENDBRANCH   6  11
ENDBRANCH   3   5
ENDBRANCH   2   3
ENDBRANCH   1   2
BRANCH   1  30
ATOM     30  C   UNL A   1      35.063  31.514  28.939  1.00  0.00     0.275 C 
BRANCH  30  31
ATOM     31  O   UNL A   1      35.846  30.315  28.997  1.00  0.00    -0.458 OA
BRANCH  31  32
ATOM     32  C   UNL A   1      36.616  30.148  30.093  1.00  0.00     0.338 C 
ATOM     33  O   UNL A   1      36.249  30.250  31.252  1.00  0.00    -0.246 OA
BRANCH  32  34
ATOM     34  C   UNL A   1      38.009  29.855  29.665  1.00  0.00     0.060 A 
ATOM     35  C   UNL A   1      39.031  29.617  30.595  1.00  0.00     0.016 A 
ATOM     36  C   UNL A   1      38.298  29.812  28.297  1.00  0.00     0.016 A 
ATOM     37  C   UNL A   1      40.326  29.324  30.166  1.00  0.00     0.010 A 
ATOM     38  C   UNL A   1      39.592  29.502  27.865  1.00  0.00     0.010 A 
ATOM     39  C   UNL A   1      40.612  29.255  28.797  1.00  0.00    -0.014 A 
BRANCH  39  40
ATOM     40  C   UNL A   1      41.981  28.939  28.331  1.00  0.00     0.031 A 
ATOM     41  C   UNL A   1      42.317  27.549  27.881  1.00  0.00     0.074 A 
ATOM     42  C   UNL A   1      42.925  29.898  28.307  1.00  0.00     0.049 A 
ATOM     43  N   UNL A   1      43.484  27.033  27.600  1.00  0.00    -0.248 NA
ATOM     44  C   UNL A   1      41.189  26.617  27.728  1.00  0.00     0.031 C 
ATOM     45  C   UNL A   1      42.719  31.301  28.670  1.00  0.00     0.029 A 
ATOM     46  N   UNL A   1      44.249  29.833  27.956  1.00  0.00    -0.354 N 
ATOM     47  C   UNL A   1      43.242  25.703  27.284  1.00  0.00     0.074 A 
ATOM     48  C   UNL A   1      41.810  25.501  27.374  1.00  0.00     0.031 C 
ATOM     49  C   UNL A   1      43.873  31.969  28.501  1.00  0.00     0.029 A 
ATOM     50  C   UNL A   1      44.905  31.035  28.058  1.00  0.00     0.049 A 
ATOM     51  H   UNL A   1      44.688  29.004  27.659  1.00  0.00     0.167 HD
ATOM     52  C   UNL A   1      44.134  24.735  26.971  1.00  0.00     0.037 A 
ATOM     53  C   UNL A   1      46.197  31.343  27.838  1.00  0.00     0.037 A 
ATOM     54  C   UNL A   1      45.554  24.937  26.867  1.00  0.00     0.049 A 
ATOM     55  C   UNL A   1      47.163  30.262  27.454  1.00  0.00     0.074 A 
ATOM     56  C   UNL A   1      46.551  24.002  26.648  1.00  0.00     0.029 A 
ATOM     57  N   UNL A   1      46.176  26.172  26.950  1.00  0.00    -0.354 N 
ATOM     58  N   UNL A   1      46.939  28.982  27.280  1.00  0.00    -0.248 NA
ATOM     59  C   UNL A   1      48.564  30.663  27.259  1.00  0.00     0.031 C 
ATOM     60  C   UNL A   1      47.778  24.677  26.589  1.00  0.00     0.029 A 
ATOM     61  C   UNL A   1      47.540  26.030  26.765  1.00  0.00     0.049 A 
ATOM     62  H   UNL A   1      45.715  27.027  27.116  1.00  0.00     0.167 HD
ATOM     63  C   UNL A   1      48.174  28.419  26.980  1.00  0.00     0.074 A 
ATOM     64  C   UNL A   1      49.137  29.502  26.967  1.00  0.00     0.031 C 
ATOM     65  C   UNL A   1      48.482  27.120  26.756  1.00  0.00     0.037 A 
BRANCH  52  66
ATOM     66  C   UNL A   1      43.581  23.358  26.768  1.00  0.00     0.058 A 
ATOM     67  C   UNL A   1      43.099  22.598  27.842  1.00  0.00     0.135 A 
ATOM     68  C   UNL A   1      43.573  22.780  25.489  1.00  0.00     0.135 A 
ATOM     69  F   UNL A   1      43.108  23.104  29.085  1.00  0.00    -0.206 F 
ATOM     70  C   UNL A   1      42.647  21.295  27.661  1.00  0.00     0.059 A 
ATOM     71  C   UNL A   1      43.122  21.482  25.284  1.00  0.00     0.059 A 
ATOM     72  F   UNL A   1      44.037  23.467  24.434  1.00  0.00    -0.206 F 
ATOM     73  C   UNL A   1      42.679  20.740  26.379  1.00  0.00     0.060 A 
BRANCH  73  74
ATOM     74  S   UNL A   1      42.141  19.034  26.135  1.00  0.00     0.124 S 
ATOM     75  O   UNL A   1      42.406  18.457  27.450  1.00  0.00    -0.237 OA
ATOM     76  O   UNL A   1      40.733  19.180  25.782  1.00  0.00    -0.237 OA
ATOM     77  O   UNL A   1      43.007  18.568  25.055  1.00  0.00    -0.744 OA
ENDBRANCH  73  74
ENDBRANCH  52  66
BRANCH  53  78
ATOM     78  C   UNL A   1      46.651  32.743  27.997  1.00  0.00     0.058 A 
ATOM     79  C   UNL A   1      47.218  33.175  29.204  1.00  0.00     0.135 A 
ATOM     80  C   UNL A   1      46.553  33.663  26.945  1.00  0.00     0.135 A 
ATOM     81  F   UNL A   1      47.326  32.325  30.237  1.00  0.00    -0.206 F 
ATOM     82  C   UNL A   1      47.680  34.477  29.364  1.00  0.00     0.059 A 
ATOM     83  C   UNL A   1      47.013  34.967  27.078  1.00  0.00     0.059 A 
ATOM     84  F   UNL A   1      46.022  33.287  25.772  1.00  0.00    -0.206 F 
ATOM     85  C   UNL A   1      47.571  35.367  28.294  1.00  0.00     0.060 A 
BRANCH  85  86
ATOM     86  S   UNL A   1      48.221  37.045  28.455  1.00  0.00     0.124 S 
ATOM     87  O   UNL A   1      48.387  37.429  27.059  1.00  0.00    -0.237 OA
ATOM     88  O   UNL A   1      47.162  37.738  29.184  1.00  0.00    -0.237 OA
ATOM     89  O   UNL A   1      49.454  36.838  29.208  1.00  0.00    -0.744 OA
ENDBRANCH  85  86
ENDBRANCH  53  78
BRANCH  65  90
ATOM     90  C   UNL A   1      49.922  26.801  26.494  1.00  0.00     0.058 A 
ATOM     91  C   UNL A   1      50.426  26.780  25.186  1.00  0.00     0.135 A 
ATOM     92  C   UNL A   1      50.808  26.546  27.551  1.00  0.00     0.135 A 
ATOM     93  F   UNL A   1      49.612  27.014  24.144  1.00  0.00    -0.206 F 
ATOM     94  C   UNL A   1      51.765  26.508  24.930  1.00  0.00     0.059 A 
ATOM     95  C   UNL A   1      52.152  26.275  27.318  1.00  0.00     0.059 A 
ATOM     96  F   UNL A   1      50.368  26.554  28.819  1.00  0.00    -0.206 F 
ATOM     97  C   UNL A   1      52.620  26.250  26.003  1.00  0.00     0.060 A 
BRANCH  97  98
ATOM     98  S   UNL A   1      54.368  25.924  25.683  1.00  0.00     0.124 S 
ATOM     99  O   UNL A   1      54.847  25.568  27.015  1.00  0.00    -0.237 OA
ATOM    100  O   UNL A   1      54.324  24.833  24.714  1.00  0.00    -0.237 OA
ATOM    101  O   UNL A   1      54.849  27.197  25.158  1.00  0.00    -0.744 OA
ENDBRANCH  97  98
ENDBRANCH  65  90
ENDBRANCH  39  40
ENDBRANCH  32  34
ENDBRANCH  31  32
ENDBRANCH  30  31
ENDBRANCH   1  30
TORSDOF 19
ENDMDL
