MODEL 1
REMARK VINA RESULT:     -14.3      0.000      0.000
REMARK SMILES Cc1ccc(C[C@H](C(=O)OCCOC(=O)c2ccc(-c3c4nc(c(-c5c(F)cc(S(=O)(=O)[O-])cc5F)c5ccc([nH]5)c(-c5c(F)cc(S(=O)(=O)[O-])cc5F)c5nc(c(-c6c(F)cc(S(=O)(=O)[O-])cc6F)c6ccc3[nH]6)C=C5)C=C4)cc2)[C@@H]2CCCC[C@@H]2O)cc1
REMARK SMILES IDX 12 1 11 2 10 3 8 4 9 5 7 6 6 7 5 8 1 9 2 10 3 11 90 12 4 13
REMARK SMILES IDX 89 14 82 15 83 16 87 17 84 18 86 19 85 20 88 21 13 23 14 24
REMARK SMILES IDX 15 25 16 26 17 27 81 28 18 29 80 30 19 31 20 32 21 33 74 34
REMARK SMILES IDX 22 35 79 36 73 37 75 38 23 39 78 40 72 41 71 42 24 44 58 45
REMARK SMILES IDX 37 46 57 47 38 48 41 49 56 50 76 51 39 52 40 53 55 55 77 56
REMARK SMILES IDX 42 57 25 58 26 59 35 60 27 61 28 62 34 63 36 64 29 65 30 66
REMARK SMILES IDX 31 67 32 68 33 69 59 70 60 71 69 72 61 73 62 74 68 75 70 76
REMARK SMILES IDX 63 77 64 78 65 79 66 80 67 81 43 82 44 83 53 84 45 85 46 86
REMARK SMILES IDX 52 87 54 88 47 89 48 90 49 91 50 92 51 93
REMARK H PARENT 88 22 75 43 41 54
REMARK Flexibility Score: inf
ROOT
ATOM      1  C   UNL A   1      38.171  22.209  25.464  1.00  0.00     0.275 C 
ENDROOT
BRANCH   1   2
ATOM      2  C   UNL A   1      37.172  21.279  24.747  1.00  0.00     0.274 C 
BRANCH   2   3
ATOM      3  O   UNL A   1      36.151  20.804  25.647  1.00  0.00    -0.462 OA
BRANCH   3   4
ATOM      4  C   UNL A   1      34.921  21.618  25.767  1.00  0.00     0.309 C 
ATOM      5  O   UNL A   1      35.195  22.355  26.765  1.00  0.00    -0.252 OA
BRANCH   4   6
ATOM      6  C   UNL A   1      33.185  21.502  24.420  1.00  0.00     0.109 C 
BRANCH   6   7
ATOM      7  C   UNL A   1      32.365  20.046  23.594  1.00  0.00     0.051 C 
BRANCH   7   8
ATOM      8  C   UNL A   1      32.571  18.520  23.845  1.00  0.00    -0.047 A 
ATOM      9  C   UNL A   1      35.402  15.718  25.274  1.00  0.00     0.044 C 
ATOM     10  C   UNL A   1      34.196  16.429  24.726  1.00  0.00    -0.051 A 
ATOM     11  C   UNL A   1      34.083  16.699  23.356  1.00  0.00     0.004 A 
ATOM     12  C   UNL A   1      33.250  16.979  25.588  1.00  0.00     0.004 A 
ATOM     13  C   UNL A   1      33.238  17.727  22.903  1.00  0.00     0.004 A 
ATOM     14  C   UNL A   1      32.391  17.981  25.128  1.00  0.00     0.004 A 
ENDBRANCH   7   8
ENDBRANCH   6   7
BRANCH   6  15
ATOM     15  C   UNL A   1      31.658  22.668  24.329  1.00  0.00     0.032 C 
ATOM     16  C   UNL A   1      31.757  24.077  23.642  1.00  0.00     0.007 C 
ATOM     17  C   UNL A   1      30.755  23.015  25.623  1.00  0.00     0.118 C 
ATOM     18  C   UNL A   1      32.160  25.273  24.518  1.00  0.00     0.001 C 
ATOM     19  C   UNL A   1      31.389  24.031  26.572  1.00  0.00     0.032 C 
ATOM     20  C   UNL A   1      31.424  25.374  25.853  1.00  0.00     0.003 C 
BRANCH  17  21
ATOM     21  O   UNL A   1      30.059  21.991  26.289  1.00  0.00    -0.393 OA
ATOM     22  H   UNL A   1      30.694  21.383  26.699  1.00  0.00     0.210 HD
ENDBRANCH  17  21
ENDBRANCH   6  15
ENDBRANCH   4   6
ENDBRANCH   3   4
ENDBRANCH   2   3
ENDBRANCH   1   2
BRANCH   1  23
ATOM     23  O   UNL A   1      39.301  21.564  26.091  1.00  0.00    -0.458 OA
BRANCH  23  24
ATOM     24  C   UNL A   1      40.020  22.274  26.991  1.00  0.00     0.338 C 
ATOM     25  O   UNL A   1      40.867  21.863  27.763  1.00  0.00    -0.246 OA
BRANCH  24  26
ATOM     26  C   UNL A   1      39.732  23.689  26.811  1.00  0.00     0.060 A 
ATOM     27  C   UNL A   1      40.742  24.671  25.731  1.00  0.00     0.016 A 
ATOM     28  C   UNL A   1      38.989  24.477  28.200  1.00  0.00     0.016 A 
ATOM     29  C   UNL A   1      41.141  26.402  26.126  1.00  0.00     0.010 A 
ATOM     30  C   UNL A   1      39.379  26.208  28.605  1.00  0.00     0.010 A 
ATOM     31  C   UNL A   1      40.478  27.147  27.579  1.00  0.00    -0.014 A 
BRANCH  31  32
ATOM     32  C   UNL A   1      41.165  28.177  28.362  1.00  0.00     0.031 A 
ATOM     33  C   UNL A   1      40.361  29.375  28.618  1.00  0.00     0.074 A 
ATOM     34  C   UNL A   1      42.298  27.834  29.029  1.00  0.00     0.049 A 
ATOM     35  N   UNL A   1      40.773  30.451  29.156  1.00  0.00    -0.248 NA
ATOM     36  C   UNL A   1      38.962  29.491  28.241  1.00  0.00     0.031 C 
ATOM     37  C   UNL A   1      42.988  28.434  30.174  1.00  0.00     0.029 A 
ATOM     38  N   UNL A   1      43.226  26.892  28.593  1.00  0.00    -0.354 N 
ATOM     39  C   UNL A   1      39.661  31.164  29.571  1.00  0.00     0.074 A 
ATOM     40  C   UNL A   1      38.556  30.590  28.873  1.00  0.00     0.031 C 
ATOM     41  C   UNL A   1      44.299  28.111  30.123  1.00  0.00     0.029 A 
ATOM     42  C   UNL A   1      44.514  27.336  28.915  1.00  0.00     0.049 A 
ATOM     43  H   UNL A   1      43.011  26.050  28.132  1.00  0.00     0.167 HD
ATOM     44  C   UNL A   1      39.849  32.038  30.593  1.00  0.00     0.037 A 
ATOM     45  C   UNL A   1      45.312  27.689  27.864  1.00  0.00     0.037 A 
ATOM     46  C   UNL A   1      41.295  32.124  30.845  1.00  0.00     0.049 A 
ATOM     47  C   UNL A   1      45.341  29.215  27.704  1.00  0.00     0.074 A 
ATOM     48  C   UNL A   1      42.166  31.520  31.733  1.00  0.00     0.029 A 
ATOM     49  N   UNL A   1      42.082  32.510  29.777  1.00  0.00    -0.354 N 
ATOM     50  N   UNL A   1      44.580  30.041  28.388  1.00  0.00    -0.248 NA
ATOM     51  C   UNL A   1      46.245  29.948  26.825  1.00  0.00     0.031 C 
ATOM     52  C   UNL A   1      43.477  31.529  31.139  1.00  0.00     0.029 A 
ATOM     53  C   UNL A   1      43.397  32.125  29.890  1.00  0.00     0.049 A 
ATOM     54  H   UNL A   1      41.733  33.015  29.007  1.00  0.00     0.167 HD
ATOM     55  C   UNL A   1      44.873  31.351  28.106  1.00  0.00     0.074 A 
ATOM     56  C   UNL A   1      45.876  31.226  27.051  1.00  0.00     0.031 C 
ATOM     57  C   UNL A   1      44.291  32.417  28.762  1.00  0.00     0.037 A 
BRANCH  44  58
ATOM     58  C   UNL A   1      38.780  32.636  31.480  1.00  0.00     0.058 A 
ATOM     59  C   UNL A   1      37.988  31.759  32.249  1.00  0.00     0.135 A 
ATOM     60  C   UNL A   1      38.442  34.003  31.621  1.00  0.00     0.135 A 
ATOM     61  F   UNL A   1      38.184  30.435  32.226  1.00  0.00    -0.206 F 
ATOM     62  C   UNL A   1      36.949  32.187  33.072  1.00  0.00     0.059 A 
ATOM     63  C   UNL A   1      37.390  34.456  32.431  1.00  0.00     0.059 A 
ATOM     64  F   UNL A   1      39.124  34.975  31.006  1.00  0.00    -0.206 F 
ATOM     65  C   UNL A   1      36.655  33.537  33.163  1.00  0.00     0.060 A 
BRANCH  65  66
ATOM     66  S   UNL A   1      35.333  34.043  34.275  1.00  0.00     0.124 S 
ATOM     67  O   UNL A   1      35.912  33.760  35.585  1.00  0.00    -0.237 OA
ATOM     68  O   UNL A   1      35.183  35.455  33.939  1.00  0.00    -0.237 OA
ATOM     69  O   UNL A   1      34.216  33.185  33.892  1.00  0.00    -0.744 OA
ENDBRANCH  65  66
ENDBRANCH  44  58
BRANCH  45  70
ATOM     70  C   UNL A   1      45.331  26.550  26.858  1.00  0.00     0.058 A 
ATOM     71  C   UNL A   1      45.877  25.328  27.331  1.00  0.00     0.135 A 
ATOM     72  C   UNL A   1      44.484  26.430  25.748  1.00  0.00     0.135 A 
ATOM     73  F   UNL A   1      46.751  25.345  28.352  1.00  0.00    -0.206 F 
ATOM     74  C   UNL A   1      45.449  24.074  26.884  1.00  0.00     0.059 A 
ATOM     75  C   UNL A   1      44.088  25.162  25.234  1.00  0.00     0.059 A 
ATOM     76  F   UNL A   1      43.904  27.528  25.236  1.00  0.00    -0.206 F 
ATOM     77  C   UNL A   1      44.531  23.986  25.845  1.00  0.00     0.060 A 
BRANCH  77  78
ATOM     78  S   UNL A   1      43.950  22.310  25.397  1.00  0.00     0.124 S 
ATOM     79  O   UNL A   1      43.698  21.727  26.710  1.00  0.00    -0.237 OA
ATOM     80  O   UNL A   1      42.757  22.586  24.601  1.00  0.00    -0.237 OA
ATOM     81  O   UNL A   1      45.049  21.683  24.665  1.00  0.00    -0.744 OA
ENDBRANCH  77  78
ENDBRANCH  45  70
BRANCH  57  82
ATOM     82  C   UNL A   1      44.477  33.886  28.382  1.00  0.00     0.058 A 
ATOM     83  C   UNL A   1      44.050  34.417  27.159  1.00  0.00     0.135 A 
ATOM     84  C   UNL A   1      45.159  34.823  29.213  1.00  0.00     0.135 A 
ATOM     85  F   UNL A   1      43.609  33.621  26.175  1.00  0.00    -0.206 F 
ATOM     86  C   UNL A   1      44.128  35.780  26.866  1.00  0.00     0.059 A 
ATOM     87  C   UNL A   1      45.321  36.164  28.909  1.00  0.00     0.059 A 
ATOM     88  F   UNL A   1      45.714  34.513  30.389  1.00  0.00    -0.206 F 
ATOM     89  C   UNL A   1      44.762  36.648  27.750  1.00  0.00     0.060 A 
BRANCH  89  90
ATOM     90  S   UNL A   1      44.937  38.383  27.336  1.00  0.00     0.124 S 
ATOM     91  O   UNL A   1      46.028  38.350  26.367  1.00  0.00    -0.237 OA
ATOM     92  O   UNL A   1      43.616  38.691  26.800  1.00  0.00    -0.237 OA
ATOM     93  O   UNL A   1      45.257  39.013  28.614  1.00  0.00    -0.744 OA
ENDBRANCH  89  90
ENDBRANCH  57  82
ENDBRANCH  31  32
ENDBRANCH  24  26
ENDBRANCH  23  24
ENDBRANCH   1  23
TORSDOF 18
ENDMDL
MODEL 2
REMARK VINA RESULT:     -14.0      2.372      4.433
REMARK SMILES Cc1ccc(C[C@H](C(=O)OCCOC(=O)c2ccc(-c3c4nc(c(-c5c(F)cc(S(=O)(=O)[O-])cc5F)c5ccc([nH]5)c(-c5c(F)cc(S(=O)(=O)[O-])cc5F)c5nc(c(-c6c(F)cc(S(=O)(=O)[O-])cc6F)c6ccc3[nH]6)C=C5)C=C4)cc2)[C@@H]2CCCC[C@@H]2O)cc1
REMARK SMILES IDX 12 1 11 2 10 3 8 4 9 5 7 6 6 7 5 8 1 9 2 10 3 11 90 12 4 13
REMARK SMILES IDX 89 14 82 15 83 16 87 17 84 18 86 19 85 20 88 21 13 23 14 24
REMARK SMILES IDX 15 25 16 26 17 27 81 28 18 29 80 30 19 31 20 32 21 33 74 34
REMARK SMILES IDX 22 35 79 36 73 37 75 38 23 39 78 40 72 41 71 42 24 44 58 45
REMARK SMILES IDX 37 46 57 47 38 48 41 49 56 50 76 51 39 52 40 53 55 55 77 56
REMARK SMILES IDX 42 57 25 58 26 59 35 60 27 61 28 62 34 63 36 64 29 65 30 66
REMARK SMILES IDX 31 67 32 68 33 69 59 70 60 71 69 72 61 73 62 74 68 75 70 76
REMARK SMILES IDX 63 77 64 78 65 79 66 80 67 81 43 82 44 83 53 84 45 85 46 86
REMARK SMILES IDX 52 87 54 88 47 89 48 90 49 91 50 92 51 93
REMARK H PARENT 88 22 75 43 41 54
REMARK Flexibility Score: inf
ROOT
ATOM      1  C   UNL A   1      39.376  22.114  26.121  1.00  0.00     0.275 C 
ENDROOT
BRANCH   1   2
ATOM      2  C   UNL A   1      37.871  21.976  25.816  1.00  0.00     0.274 C 
BRANCH   2   3
ATOM      3  O   UNL A   1      37.587  22.222  24.425  1.00  0.00    -0.462 OA
BRANCH   3   4
ATOM      4  C   UNL A   1      36.504  23.181  24.114  1.00  0.00     0.309 C 
ATOM      5  O   UNL A   1      36.858  23.610  22.972  1.00  0.00    -0.252 OA
BRANCH   4   6
ATOM      6  C   UNL A   1      34.755  23.579  25.389  1.00  0.00     0.109 C 
BRANCH   6   7
ATOM      7  C   UNL A   1      33.947  25.179  25.902  1.00  0.00     0.051 C 
BRANCH   7   8
ATOM      8  C   UNL A   1      33.100  26.177  25.053  1.00  0.00    -0.047 A 
ATOM      9  C   UNL A   1      31.358  30.032  25.177  1.00  0.00     0.044 C 
ATOM     10  C   UNL A   1      31.841  28.657  24.810  1.00  0.00    -0.051 A 
ATOM     11  C   UNL A   1      31.092  27.520  25.139  1.00  0.00     0.004 A 
ATOM     12  C   UNL A   1      33.120  28.476  24.285  1.00  0.00     0.004 A 
ATOM     13  C   UNL A   1      31.713  26.262  25.227  1.00  0.00     0.004 A 
ATOM     14  C   UNL A   1      33.724  27.218  24.348  1.00  0.00     0.004 A 
ENDBRANCH   7   8
ENDBRANCH   6   7
BRANCH   6  15
ATOM     15  C   UNL A   1      33.212  22.472  25.689  1.00  0.00     0.032 C 
ATOM     16  C   UNL A   1      33.354  21.047  26.336  1.00  0.00     0.007 C 
ATOM     17  C   UNL A   1      32.116  22.184  24.538  1.00  0.00     0.118 C 
ATOM     18  C   UNL A   1      33.575  19.853  25.394  1.00  0.00     0.001 C 
ATOM     19  C   UNL A   1      32.562  21.163  23.492  1.00  0.00     0.032 C 
ATOM     20  C   UNL A   1      32.647  19.806  24.180  1.00  0.00     0.003 C 
BRANCH  17  21
ATOM     21  O   UNL A   1      31.372  23.246  23.995  1.00  0.00    -0.393 OA
ATOM     22  H   UNL A   1      31.975  23.884  23.581  1.00  0.00     0.210 HD
ENDBRANCH  17  21
ENDBRANCH   6  15
ENDBRANCH   4   6
ENDBRANCH   3   4
ENDBRANCH   2   3
ENDBRANCH   1   2
BRANCH   1  23
ATOM     23  O   UNL A   1      39.715  22.650  27.418  1.00  0.00    -0.458 OA
BRANCH  23  24
ATOM     24  C   UNL A   1      40.607  23.666  27.474  1.00  0.00     0.338 C 
ATOM     25  O   UNL A   1      41.822  23.595  27.493  1.00  0.00    -0.246 OA
BRANCH  24  26
ATOM     26  C   UNL A   1      39.889  24.928  27.364  1.00  0.00     0.060 A 
ATOM     27  C   UNL A   1      40.463  26.182  26.247  1.00  0.00     0.016 A 
ATOM     28  C   UNL A   1      39.055  25.436  28.829  1.00  0.00     0.016 A 
ATOM     29  C   UNL A   1      40.348  27.949  26.671  1.00  0.00     0.010 A 
ATOM     30  C   UNL A   1      38.932  27.199  29.264  1.00  0.00     0.010 A 
ATOM     31  C   UNL A   1      39.608  28.440  28.194  1.00  0.00    -0.014 A 
BRANCH  31  32
ATOM     32  C   UNL A   1      40.010  29.622  28.959  1.00  0.00     0.031 A 
ATOM     33  C   UNL A   1      39.050  30.728  28.907  1.00  0.00     0.074 A 
ATOM     34  C   UNL A   1      41.014  29.495  29.867  1.00  0.00     0.049 A 
ATOM     35  N   UNL A   1      39.228  31.897  29.376  1.00  0.00    -0.248 NA
ATOM     36  C   UNL A   1      37.752  30.627  28.260  1.00  0.00     0.031 C 
ATOM     37  C   UNL A   1      41.389  30.290  31.038  1.00  0.00     0.029 A 
ATOM     38  N   UNL A   1      42.104  28.640  29.734  1.00  0.00    -0.354 N 
ATOM     39  C   UNL A   1      37.987  32.500  29.481  1.00  0.00     0.074 A 
ATOM     40  C   UNL A   1      37.113  31.723  28.662  1.00  0.00     0.031 C 
ATOM     41  C   UNL A   1      42.710  30.133  31.278  1.00  0.00     0.029 A 
ATOM     42  C   UNL A   1      43.246  29.274  30.238  1.00  0.00     0.049 A 
ATOM     43  H   UNL A   1      42.076  27.735  29.349  1.00  0.00     0.167 HD
ATOM     44  C   UNL A   1      37.871  33.489  30.404  1.00  0.00     0.037 A 
ATOM     45  C   UNL A   1      44.199  29.618  29.322  1.00  0.00     0.037 A 
ATOM     46  C   UNL A   1      39.218  33.784  30.913  1.00  0.00     0.049 A 
ATOM     47  C   UNL A   1      44.100  31.112  28.983  1.00  0.00     0.074 A 
ATOM     48  C   UNL A   1      39.949  33.388  32.018  1.00  0.00     0.029 A 
ATOM     49  N   UNL A   1      40.161  34.157  29.975  1.00  0.00    -0.354 N 
ATOM     50  N   UNL A   1      43.133  31.899  29.402  1.00  0.00    -0.248 NA
ATOM     51  C   UNL A   1      45.082  31.861  28.208  1.00  0.00     0.031 C 
ATOM     52  C   UNL A   1      41.345  33.504  31.687  1.00  0.00     0.029 A 
ATOM     53  C   UNL A   1      41.459  33.956  30.382  1.00  0.00     0.049 A 
ATOM     54  H   UNL A   1      39.925  34.534  29.096  1.00  0.00     0.167 HD
ATOM     55  C   UNL A   1      43.340  33.201  29.021  1.00  0.00     0.074 A 
ATOM     56  C   UNL A   1      44.543  33.098  28.200  1.00  0.00     0.031 C 
ATOM     57  C   UNL A   1      42.527  34.244  29.418  1.00  0.00     0.037 A 
BRANCH  44  58
ATOM     58  C   UNL A   1      36.588  34.033  30.990  1.00  0.00     0.058 A 
ATOM     59  C   UNL A   1      35.625  34.562  30.105  1.00  0.00     0.135 A 
ATOM     60  C   UNL A   1      36.228  34.111  32.357  1.00  0.00     0.135 A 
ATOM     61  F   UNL A   1      35.817  34.562  28.780  1.00  0.00    -0.206 F 
ATOM     62  C   UNL A   1      34.424  35.126  30.527  1.00  0.00     0.059 A 
ATOM     63  C   UNL A   1      35.031  34.690  32.806  1.00  0.00     0.059 A 
ATOM     64  F   UNL A   1      36.999  33.611  33.327  1.00  0.00    -0.206 F 
ATOM     65  C   UNL A   1      34.130  35.185  31.879  1.00  0.00     0.060 A 
BRANCH  65  66
ATOM     66  S   UNL A   1      32.545  35.884  32.370  1.00  0.00     0.124 S 
ATOM     67  O   UNL A   1      31.834  34.708  32.863  1.00  0.00    -0.237 OA
ATOM     68  O   UNL A   1      32.946  36.853  33.384  1.00  0.00    -0.237 OA
ATOM     69  O   UNL A   1      32.021  36.452  31.131  1.00  0.00    -0.744 OA
ENDBRANCH  65  66
ENDBRANCH  44  58
BRANCH  45  70
ATOM     70  C   UNL A   1      44.542  28.395  28.487  1.00  0.00     0.058 A 
ATOM     71  C   UNL A   1      44.168  28.466  27.120  1.00  0.00     0.135 A 
ATOM     72  C   UNL A   1      45.551  27.468  28.778  1.00  0.00     0.135 A 
ATOM     73  F   UNL A   1      43.163  29.279  26.750  1.00  0.00    -0.206 F 
ATOM     74  C   UNL A   1      44.882  27.836  26.096  1.00  0.00     0.059 A 
ATOM     75  C   UNL A   1      46.248  26.765  27.753  1.00  0.00     0.059 A 
ATOM     76  F   UNL A   1      45.988  27.338  30.042  1.00  0.00    -0.206 F 
ATOM     77  C   UNL A   1      45.944  26.997  26.409  1.00  0.00     0.060 A 
BRANCH  77  78
ATOM     78  S   UNL A   1      46.887  26.299  25.005  1.00  0.00     0.124 S 
ATOM     79  O   UNL A   1      46.125  25.091  24.712  1.00  0.00    -0.237 OA
ATOM     80  O   UNL A   1      46.791  27.354  23.999  1.00  0.00    -0.237 OA
ATOM     81  O   UNL A   1      48.236  26.048  25.509  1.00  0.00    -0.744 OA
ENDBRANCH  77  78
ENDBRANCH  45  70
BRANCH  57  82
ATOM     82  C   UNL A   1      42.632  35.680  28.900  1.00  0.00     0.058 A 
ATOM     83  C   UNL A   1      42.016  36.111  27.720  1.00  0.00     0.135 A 
ATOM     84  C   UNL A   1      43.418  36.680  29.543  1.00  0.00     0.135 A 
ATOM     85  F   UNL A   1      41.443  35.239  26.879  1.00  0.00    -0.206 F 
ATOM     86  C   UNL A   1      42.029  37.447  27.313  1.00  0.00     0.059 A 
ATOM     87  C   UNL A   1      43.513  37.993  29.114  1.00  0.00     0.059 A 
ATOM     88  F   UNL A   1      44.150  36.465  30.641  1.00  0.00    -0.206 F 
ATOM     89  C   UNL A   1      42.777  38.383  28.020  1.00  0.00     0.060 A 
BRANCH  89  90
ATOM     90  S   UNL A   1      42.862  40.081  27.451  1.00  0.00     0.124 S 
ATOM     91  O   UNL A   1      43.432  40.757  28.612  1.00  0.00    -0.237 OA
ATOM     92  O   UNL A   1      43.739  39.957  26.291  1.00  0.00    -0.237 OA
ATOM     93  O   UNL A   1      41.473  40.416  27.154  1.00  0.00    -0.744 OA
ENDBRANCH  89  90
ENDBRANCH  57  82
ENDBRANCH  31  32
ENDBRANCH  24  26
ENDBRANCH  23  24
ENDBRANCH   1  23
TORSDOF 18
ENDMDL
MODEL 3
REMARK VINA RESULT:     -13.9      1.760      2.414
REMARK SMILES Cc1ccc(C[C@H](C(=O)OCCOC(=O)c2ccc(-c3c4nc(c(-c5c(F)cc(S(=O)(=O)[O-])cc5F)c5ccc([nH]5)c(-c5c(F)cc(S(=O)(=O)[O-])cc5F)c5nc(c(-c6c(F)cc(S(=O)(=O)[O-])cc6F)c6ccc3[nH]6)C=C5)C=C4)cc2)[C@@H]2CCCC[C@@H]2O)cc1
REMARK SMILES IDX 12 1 11 2 10 3 8 4 9 5 7 6 6 7 5 8 1 9 2 10 3 11 90 12 4 13
REMARK SMILES IDX 89 14 82 15 83 16 87 17 84 18 86 19 85 20 88 21 13 23 14 24
REMARK SMILES IDX 15 25 16 26 17 27 81 28 18 29 80 30 19 31 20 32 21 33 74 34
REMARK SMILES IDX 22 35 79 36 73 37 75 38 23 39 78 40 72 41 71 42 24 44 58 45
REMARK SMILES IDX 37 46 57 47 38 48 41 49 56 50 76 51 39 52 40 53 55 55 77 56
REMARK SMILES IDX 42 57 25 58 26 59 35 60 27 61 28 62 34 63 36 64 29 65 30 66
REMARK SMILES IDX 31 67 32 68 33 69 59 70 60 71 69 72 61 73 62 74 68 75 70 76
REMARK SMILES IDX 63 77 64 78 65 79 66 80 67 81 43 82 44 83 53 84 45 85 46 86
REMARK SMILES IDX 52 87 54 88 47 89 48 90 49 91 50 92 51 93
REMARK H PARENT 88 22 75 43 41 54
REMARK Flexibility Score: inf
ROOT
ATOM      1  C   UNL A   1      38.495  22.499  25.801  1.00  0.00     0.275 C 
ENDROOT
BRANCH   1   2
ATOM      2  C   UNL A   1      37.446  21.468  25.338  1.00  0.00     0.274 C 
BRANCH   2   3
ATOM      3  O   UNL A   1      36.113  22.015  25.375  1.00  0.00    -0.462 OA
BRANCH   3   4
ATOM      4  C   UNL A   1      35.510  22.419  24.087  1.00  0.00     0.309 C 
ATOM      5  O   UNL A   1      36.514  22.889  23.467  1.00  0.00    -0.252 OA
BRANCH   4   6
ATOM      6  C   UNL A   1      33.402  22.131  23.524  1.00  0.00     0.109 C 
BRANCH   6   7
ATOM      7  C   UNL A   1      32.485  20.624  22.921  1.00  0.00     0.051 C 
BRANCH   7   8
ATOM      8  C   UNL A   1      32.427  19.190  23.532  1.00  0.00    -0.047 A 
ATOM      9  C   UNL A   1      34.892  16.081  25.005  1.00  0.00     0.044 C 
ATOM     10  C   UNL A   1      33.758  16.965  24.568  1.00  0.00    -0.051 A 
ATOM     11  C   UNL A   1      33.314  16.960  23.240  1.00  0.00     0.004 A 
ATOM     12  C   UNL A   1      33.239  17.925  25.435  1.00  0.00     0.004 A 
ATOM     13  C   UNL A   1      32.611  18.062  22.723  1.00  0.00     0.004 A 
ATOM     14  C   UNL A   1      32.516  19.005  24.921  1.00  0.00     0.004 A 
ENDBRANCH   7   8
ENDBRANCH   6   7
BRANCH   6  15
ATOM     15  C   UNL A   1      31.850  23.061  24.175  1.00  0.00     0.032 C 
ATOM     16  C   UNL A   1      31.646  24.592  23.891  1.00  0.00     0.007 C 
ATOM     17  C   UNL A   1      31.362  22.961  25.712  1.00  0.00     0.118 C 
ATOM     18  C   UNL A   1      32.220  25.590  24.908  1.00  0.00     0.001 C 
ATOM     19  C   UNL A   1      32.189  23.801  26.684  1.00  0.00     0.032 C 
ATOM     20  C   UNL A   1      31.920  25.268  26.371  1.00  0.00     0.003 C 
BRANCH  17  21
ATOM     21  O   UNL A   1      30.967  21.722  26.246  1.00  0.00    -0.393 OA
ATOM     22  H   UNL A   1      30.981  21.050  25.547  1.00  0.00     0.210 HD
ENDBRANCH  17  21
ENDBRANCH   6  15
ENDBRANCH   4   6
ENDBRANCH   3   4
ENDBRANCH   2   3
ENDBRANCH   1   2
BRANCH   1  23
ATOM     23  O   UNL A   1      39.599  21.979  26.573  1.00  0.00    -0.458 OA
BRANCH  23  24
ATOM     24  C   UNL A   1      40.402  22.863  27.210  1.00  0.00     0.338 C 
ATOM     25  O   UNL A   1      41.479  22.650  27.736  1.00  0.00    -0.246 OA
BRANCH  24  26
ATOM     26  C   UNL A   1      39.844  24.199  27.058  1.00  0.00     0.060 A 
ATOM     27  C   UNL A   1      40.686  25.404  26.065  1.00  0.00     0.016 A 
ATOM     28  C   UNL A   1      38.894  24.766  28.428  1.00  0.00     0.016 A 
ATOM     29  C   UNL A   1      40.711  27.163  26.533  1.00  0.00     0.010 A 
ATOM     30  C   UNL A   1      38.909  26.521  28.906  1.00  0.00     0.010 A 
ATOM     31  C   UNL A   1      39.845  27.701  27.971  1.00  0.00    -0.014 A 
BRANCH  31  32
ATOM     32  C   UNL A   1      40.274  28.814  28.820  1.00  0.00     0.031 A 
ATOM     33  C   UNL A   1      39.364  29.964  28.811  1.00  0.00     0.074 A 
ATOM     34  C   UNL A   1      41.242  28.586  29.746  1.00  0.00     0.049 A 
ATOM     35  N   UNL A   1      39.579  31.092  29.358  1.00  0.00    -0.248 NA
ATOM     36  C   UNL A   1      38.085  29.962  28.123  1.00  0.00     0.031 C 
ATOM     37  C   UNL A   1      41.615  29.289  30.976  1.00  0.00     0.029 A 
ATOM     38  N   UNL A   1      42.298  27.692  29.591  1.00  0.00    -0.354 N 
ATOM     39  C   UNL A   1      38.362  31.743  29.466  1.00  0.00     0.074 A 
ATOM     40  C   UNL A   1      37.481  31.059  28.575  1.00  0.00     0.031 C 
ATOM     41  C   UNL A   1      42.920  29.057  31.242  1.00  0.00     0.029 A 
ATOM     42  C   UNL A   1      43.450  28.241  30.166  1.00  0.00     0.049 A 
ATOM     43  H   UNL A   1      42.243  26.815  29.148  1.00  0.00     0.167 HD
ATOM     44  C   UNL A   1      38.261  32.677  30.446  1.00  0.00     0.037 A 
ATOM     45  C   UNL A   1      44.445  28.598  29.301  1.00  0.00     0.037 A 
ATOM     46  C   UNL A   1      39.603  32.879  31.011  1.00  0.00     0.049 A 
ATOM     47  C   UNL A   1      44.422  30.113  29.055  1.00  0.00     0.074 A 
ATOM     48  C   UNL A   1      40.281  32.382  32.109  1.00  0.00     0.029 A 
ATOM     49  N   UNL A   1      40.590  33.266  30.125  1.00  0.00    -0.354 N 
ATOM     50  N   UNL A   1      43.478  30.915  29.495  1.00  0.00    -0.248 NA
ATOM     51  C   UNL A   1      45.459  30.864  28.356  1.00  0.00     0.031 C 
ATOM     52  C   UNL A   1      41.691  32.455  31.826  1.00  0.00     0.029 A 
ATOM     53  C   UNL A   1      41.865  32.981  30.556  1.00  0.00     0.049 A 
ATOM     54  H   UNL A   1      40.398  33.707  29.266  1.00  0.00     0.167 HD
ATOM     55  C   UNL A   1      43.752  32.227  29.203  1.00  0.00     0.074 A 
ATOM     56  C   UNL A   1      44.975  32.122  28.411  1.00  0.00     0.031 C 
ATOM     57  C   UNL A   1      42.974  33.280  29.642  1.00  0.00     0.037 A 
BRANCH  44  58
ATOM     58  C   UNL A   1      36.985  33.242  31.030  1.00  0.00     0.058 A 
ATOM     59  C   UNL A   1      36.168  34.035  30.197  1.00  0.00     0.135 A 
ATOM     60  C   UNL A   1      36.504  33.098  32.353  1.00  0.00     0.135 A 
ATOM     61  F   UNL A   1      36.487  34.266  28.917  1.00  0.00    -0.206 F 
ATOM     62  C   UNL A   1      34.992  34.641  30.630  1.00  0.00     0.059 A 
ATOM     63  C   UNL A   1      35.330  33.712  32.816  1.00  0.00     0.059 A 
ATOM     64  F   UNL A   1      37.124  32.338  33.260  1.00  0.00    -0.206 F 
ATOM     65  C   UNL A   1      34.574  34.475  31.940  1.00  0.00     0.060 A 
BRANCH  65  66
ATOM     66  S   UNL A   1      33.024  35.242  32.437  1.00  0.00     0.124 S 
ATOM     67  O   UNL A   1      32.412  35.555  31.150  1.00  0.00    -0.237 OA
ATOM     68  O   UNL A   1      32.389  34.170  33.197  1.00  0.00    -0.237 OA
ATOM     69  O   UNL A   1      33.448  36.398  33.221  1.00  0.00    -0.744 OA
ENDBRANCH  65  66
ENDBRANCH  44  58
BRANCH  45  70
ATOM     70  C   UNL A   1      44.760  27.415  28.400  1.00  0.00     0.058 A 
ATOM     71  C   UNL A   1      44.424  27.584  27.032  1.00  0.00     0.135 A 
ATOM     72  C   UNL A   1      45.724  26.431  28.656  1.00  0.00     0.135 A 
ATOM     73  F   UNL A   1      43.462  28.459  26.690  1.00  0.00    -0.206 F 
ATOM     74  C   UNL A   1      45.138  26.989  25.988  1.00  0.00     0.059 A 
ATOM     75  C   UNL A   1      46.419  25.764  27.606  1.00  0.00     0.059 A 
ATOM     76  F   UNL A   1      46.123  26.207  29.919  1.00  0.00    -0.206 F 
ATOM     77  C   UNL A   1      46.158  26.089  26.272  1.00  0.00     0.060 A 
BRANCH  77  78
ATOM     78  S   UNL A   1      47.108  25.440  24.849  1.00  0.00     0.124 S 
ATOM     79  O   UNL A   1      46.335  24.253  24.500  1.00  0.00    -0.237 OA
ATOM     80  O   UNL A   1      47.033  26.536  23.887  1.00  0.00    -0.237 OA
ATOM     81  O   UNL A   1      48.449  25.153  25.355  1.00  0.00    -0.744 OA
ENDBRANCH  77  78
ENDBRANCH  45  70
BRANCH  57  82
ATOM     82  C   UNL A   1      43.157  34.739  29.220  1.00  0.00     0.058 A 
ATOM     83  C   UNL A   1      43.081  35.162  27.888  1.00  0.00     0.135 A 
ATOM     84  C   UNL A   1      43.484  35.778  30.140  1.00  0.00     0.135 A 
ATOM     85  F   UNL A   1      43.019  34.278  26.883  1.00  0.00    -0.206 F 
ATOM     86  C   UNL A   1      43.143  36.509  27.525  1.00  0.00     0.059 A 
ATOM     87  C   UNL A   1      43.631  37.110  29.793  1.00  0.00     0.059 A 
ATOM     88  F   UNL A   1      43.680  35.583  31.448  1.00  0.00    -0.206 F 
ATOM     89  C   UNL A   1      43.414  37.478  28.487  1.00  0.00     0.060 A 
BRANCH  89  90
ATOM     90  S   UNL A   1      43.577  39.198  28.009  1.00  0.00     0.124 S 
ATOM     91  O   UNL A   1      42.211  39.684  28.172  1.00  0.00    -0.237 OA
ATOM     92  O   UNL A   1      44.548  39.682  28.985  1.00  0.00    -0.237 OA
ATOM     93  O   UNL A   1      44.055  39.130  26.631  1.00  0.00    -0.744 OA
ENDBRANCH  89  90
ENDBRANCH  57  82
ENDBRANCH  31  32
ENDBRANCH  24  26
ENDBRANCH  23  24
ENDBRANCH   1  23
TORSDOF 18
ENDMDL
