MODEL 1
REMARK VINA RESULT:     -10.6      0.000      0.000
REMARK SMILES CC[C@](C)(C(=O)OCCOC(=O)c1ccc(-c2c3nc(c(-c4c(F)cc(S(=O)(=O)[O-])cc4F)c4ccc([nH]4)c(-c4c(F)cc(S(=O)(=O)[O-])cc4F)c4nc(c(-c5c(F)cc(S(=O)(=O)[O-])cc5F)c5ccc2[nH]5)C=C4)C=C3)cc1)[C@H]1CCC[C@H](OC)C1
REMARK SMILES IDX 9 1 8 2 7 3 5 4 6 5 3 6 4 7 2 8 1 9 79 10 80 11 86 12 81 13
REMARK SMILES IDX 83 14 82 15 84 16 85 17 10 18 11 19 12 20 13 21 14 22 78 23
REMARK SMILES IDX 15 24 77 25 16 26 17 27 18 28 71 29 19 30 76 31 70 32 72 33
REMARK SMILES IDX 20 34 75 35 69 36 68 37 21 39 55 40 34 41 54 42 35 43 38 44
REMARK SMILES IDX 53 45 73 46 36 47 37 48 52 50 74 51 39 52 22 53 23 54 32 55
REMARK SMILES IDX 24 56 25 57 31 58 33 59 26 60 27 61 28 62 29 63 30 64 56 65
REMARK SMILES IDX 57 66 66 67 58 68 59 69 65 70 67 71 60 72 61 73 62 74 63 75
REMARK SMILES IDX 64 76 40 77 41 78 50 79 42 80 43 81 49 82 51 83 44 84 45 85
REMARK SMILES IDX 46 86 47 87 48 88
REMARK H PARENT 72 38 38 49
REMARK Flexibility Score: inf
ROOT
ATOM      1  C   UNL A   1      32.543  30.522  26.878  1.00  0.00     0.275 C 
ENDROOT
BRANCH   1   2
ATOM      2  C   UNL A   1      32.328  29.807  25.542  1.00  0.00     0.274 C 
BRANCH   2   3
ATOM      3  O   UNL A   1      33.343  28.805  25.310  1.00  0.00    -0.462 OA
BRANCH   3   4
ATOM      4  C   UNL A   1      33.381  28.273  24.058  1.00  0.00     0.312 C 
ATOM      5  O   UNL A   1      33.505  28.947  23.040  1.00  0.00    -0.252 OA
BRANCH   4   6
ATOM      6  C   UNL A   1      33.266  26.725  24.042  1.00  0.00     0.068 C 
ATOM      7  C   UNL A   1      33.851  26.123  22.750  1.00  0.00     0.024 C 
BRANCH   6   8
ATOM      8  C   UNL A   1      34.157  26.191  25.216  1.00  0.00     0.015 C 
ATOM      9  C   UNL A   1      34.799  24.814  25.042  1.00  0.00     0.005 C 
ENDBRANCH   6   8
BRANCH   6  10
ATOM     10  C   UNL A   1      31.743  26.325  24.224  1.00  0.00     0.008 C 
ATOM     11  C   UNL A   1      31.205  25.364  23.151  1.00  0.00     0.005 C 
ATOM     12  C   UNL A   1      31.277  25.857  25.625  1.00  0.00     0.036 C 
ATOM     13  C   UNL A   1      31.329  23.877  23.407  1.00  0.00     0.003 C 
ATOM     14  C   UNL A   1      31.238  24.333  25.866  1.00  0.00     0.118 C 
ATOM     15  C   UNL A   1      30.649  23.527  24.709  1.00  0.00     0.032 C 
BRANCH  14  16
ATOM     16  O   UNL A   1      30.615  24.034  27.124  1.00  0.00    -0.381 OA
ATOM     17  C   UNL A   1      29.734  22.914  27.135  1.00  0.00     0.195 C 
ENDBRANCH  14  16
ENDBRANCH   6  10
ENDBRANCH   4   6
ENDBRANCH   3   4
ENDBRANCH   2   3
ENDBRANCH   1   2
BRANCH   1  18
ATOM     18  O   UNL A   1      33.612  29.892  27.599  1.00  0.00    -0.458 OA
BRANCH  18  19
ATOM     19  C   UNL A   1      34.452  30.724  28.267  1.00  0.00     0.338 C 
ATOM     20  O   UNL A   1      34.140  31.788  28.775  1.00  0.00    -0.246 OA
BRANCH  19  21
ATOM     21  C   UNL A   1      35.805  30.107  28.395  1.00  0.00     0.060 A 
ATOM     22  C   UNL A   1      36.277  29.631  29.618  1.00  0.00     0.016 A 
ATOM     23  C   UNL A   1      36.677  30.123  27.302  1.00  0.00     0.016 A 
ATOM     24  C   UNL A   1      37.635  29.340  29.782  1.00  0.00     0.010 A 
ATOM     25  C   UNL A   1      38.008  29.695  27.444  1.00  0.00     0.010 A 
ATOM     26  C   UNL A   1      38.527  29.333  28.700  1.00  0.00    -0.014 A 
BRANCH  26  27
ATOM     27  C   UNL A   1      39.972  28.960  28.872  1.00  0.00     0.031 A 
ATOM     28  C   UNL A   1      40.990  29.972  29.357  1.00  0.00     0.074 A 
ATOM     29  C   UNL A   1      40.409  27.711  28.591  1.00  0.00     0.049 A 
ATOM     30  N   UNL A   1      42.297  29.942  29.262  1.00  0.00    -0.248 NA
ATOM     31  C   UNL A   1      40.473  31.178  30.024  1.00  0.00     0.031 C 
ATOM     32  C   UNL A   1      39.574  26.585  28.171  1.00  0.00     0.029 A 
ATOM     33  N   UNL A   1      41.679  27.177  28.614  1.00  0.00    -0.354 N 
ATOM     34  C   UNL A   1      42.751  31.159  29.763  1.00  0.00     0.074 A 
ATOM     35  C   UNL A   1      41.579  31.892  30.196  1.00  0.00     0.031 C 
ATOM     36  C   UNL A   1      40.332  25.489  28.042  1.00  0.00     0.029 A 
ATOM     37  C   UNL A   1      41.728  25.862  28.212  1.00  0.00     0.049 A 
ATOM     38  H   UNL A   1      42.474  27.688  28.890  1.00  0.00     0.167 HD
ATOM     39  C   UNL A   1      44.023  31.624  29.838  1.00  0.00     0.037 A 
ATOM     40  C   UNL A   1      42.765  25.053  27.919  1.00  0.00     0.037 A 
ATOM     41  C   UNL A   1      45.195  30.854  29.493  1.00  0.00     0.049 A 
ATOM     42  C   UNL A   1      44.162  25.590  27.975  1.00  0.00     0.074 A 
ATOM     43  C   UNL A   1      46.526  31.233  29.563  1.00  0.00     0.029 A 
ATOM     44  N   UNL A   1      45.182  29.543  29.042  1.00  0.00    -0.354 N 
ATOM     45  N   UNL A   1      44.567  26.787  28.322  1.00  0.00    -0.248 NA
ATOM     46  C   UNL A   1      45.237  24.681  27.559  1.00  0.00     0.031 C 
ATOM     47  C   UNL A   1      47.315  30.162  29.125  1.00  0.00     0.029 A 
ATOM     48  C   UNL A   1      46.477  29.102  28.821  1.00  0.00     0.049 A 
ATOM     49  H   UNL A   1      44.370  29.003  28.900  1.00  0.00     0.167 HD
ATOM     50  C   UNL A   1      45.946  26.778  28.158  1.00  0.00     0.074 A 
ATOM     51  C   UNL A   1      46.308  25.450  27.706  1.00  0.00     0.031 C 
ATOM     52  C   UNL A   1      46.831  27.786  28.359  1.00  0.00     0.037 A 
BRANCH  39  53
ATOM     53  C   UNL A   1      44.236  33.053  30.264  1.00  0.00     0.058 A 
ATOM     54  C   UNL A   1      44.146  34.129  29.371  1.00  0.00     0.135 A 
ATOM     55  C   UNL A   1      44.456  33.348  31.622  1.00  0.00     0.135 A 
ATOM     56  F   UNL A   1      43.950  33.907  28.062  1.00  0.00    -0.206 F 
ATOM     57  C   UNL A   1      44.278  35.447  29.805  1.00  0.00     0.059 A 
ATOM     58  C   UNL A   1      44.567  34.657  32.081  1.00  0.00     0.059 A 
ATOM     59  F   UNL A   1      44.546  32.356  32.523  1.00  0.00    -0.206 F 
ATOM     60  C   UNL A   1      44.488  35.701  31.163  1.00  0.00     0.060 A 
BRANCH  60  61
ATOM     61  S   UNL A   1      44.635  37.414  31.717  1.00  0.00     0.124 S 
ATOM     62  O   UNL A   1      43.669  37.449  32.810  1.00  0.00    -0.237 OA
ATOM     63  O   UNL A   1      46.038  37.499  32.109  1.00  0.00    -0.237 OA
ATOM     64  O   UNL A   1      44.271  38.187  30.534  1.00  0.00    -0.744 OA
ENDBRANCH  60  61
ENDBRANCH  39  53
BRANCH  40  65
ATOM     65  C   UNL A   1      42.495  23.667  27.452  1.00  0.00     0.058 A 
ATOM     66  C   UNL A   1      42.498  23.353  26.087  1.00  0.00     0.135 A 
ATOM     67  C   UNL A   1      42.302  22.619  28.368  1.00  0.00     0.135 A 
ATOM     68  F   UNL A   1      42.658  24.323  25.175  1.00  0.00    -0.206 F 
ATOM     69  C   UNL A   1      42.340  22.043  25.644  1.00  0.00     0.059 A 
ATOM     70  C   UNL A   1      42.174  21.300  27.951  1.00  0.00     0.059 A 
ATOM     71  F   UNL A   1      42.301  22.871  29.686  1.00  0.00    -0.206 F 
ATOM     72  C   UNL A   1      42.193  21.022  26.586  1.00  0.00     0.060 A 
BRANCH  72  73
ATOM     73  S   UNL A   1      42.108  19.311  26.015  1.00  0.00     0.124 S 
ATOM     74  O   UNL A   1      43.058  19.325  24.909  1.00  0.00    -0.237 OA
ATOM     75  O   UNL A   1      42.517  18.565  27.200  1.00  0.00    -0.237 OA
ATOM     76  O   UNL A   1      40.705  19.155  25.642  1.00  0.00    -0.744 OA
ENDBRANCH  72  73
ENDBRANCH  40  65
BRANCH  52  77
ATOM     77  C   UNL A   1      48.278  27.479  28.108  1.00  0.00     0.058 A 
ATOM     78  C   UNL A   1      49.096  26.934  29.110  1.00  0.00     0.135 A 
ATOM     79  C   UNL A   1      48.853  27.727  26.853  1.00  0.00     0.135 A 
ATOM     80  F   UNL A   1      48.595  26.689  30.332  1.00  0.00    -0.206 F 
ATOM     81  C   UNL A   1      50.443  26.672  28.885  1.00  0.00     0.059 A 
ATOM     82  C   UNL A   1      50.193  27.455  26.598  1.00  0.00     0.059 A 
ATOM     83  F   UNL A   1      48.111  28.242  25.860  1.00  0.00    -0.206 F 
ATOM     84  C   UNL A   1      50.984  26.942  27.625  1.00  0.00     0.060 A 
BRANCH  84  85
ATOM     85  S   UNL A   1      52.734  26.600  27.340  1.00  0.00     0.124 S 
ATOM     86  O   UNL A   1      53.121  27.729  26.501  1.00  0.00    -0.237 OA
ATOM     87  O   UNL A   1      53.280  26.600  28.695  1.00  0.00    -0.237 OA
ATOM     88  O   UNL A   1      52.720  25.299  26.678  1.00  0.00    -0.744 OA
ENDBRANCH  84  85
ENDBRANCH  52  77
ENDBRANCH  26  27
ENDBRANCH  19  21
ENDBRANCH  18  19
ENDBRANCH   1  18
TORSDOF 17
ENDMDL
MODEL 2
REMARK VINA RESULT:     -10.5      1.093      2.194
REMARK SMILES CC[C@](C)(C(=O)OCCOC(=O)c1ccc(-c2c3nc(c(-c4c(F)cc(S(=O)(=O)[O-])cc4F)c4ccc([nH]4)c(-c4c(F)cc(S(=O)(=O)[O-])cc4F)c4nc(c(-c5c(F)cc(S(=O)(=O)[O-])cc5F)c5ccc2[nH]5)C=C4)C=C3)cc1)[C@H]1CCC[C@H](OC)C1
REMARK SMILES IDX 9 1 8 2 7 3 5 4 6 5 3 6 4 7 2 8 1 9 79 10 80 11 86 12 81 13
REMARK SMILES IDX 83 14 82 15 84 16 85 17 10 18 11 19 12 20 13 21 14 22 78 23
REMARK SMILES IDX 15 24 77 25 16 26 17 27 18 28 71 29 19 30 76 31 70 32 72 33
REMARK SMILES IDX 20 34 75 35 69 36 68 37 21 39 55 40 34 41 54 42 35 43 38 44
REMARK SMILES IDX 53 45 73 46 36 47 37 48 52 50 74 51 39 52 22 53 23 54 32 55
REMARK SMILES IDX 24 56 25 57 31 58 33 59 26 60 27 61 28 62 29 63 30 64 56 65
REMARK SMILES IDX 57 66 66 67 58 68 59 69 65 70 67 71 60 72 61 73 62 74 63 75
REMARK SMILES IDX 64 76 40 77 41 78 50 79 42 80 43 81 49 82 51 83 44 84 45 85
REMARK SMILES IDX 46 86 47 87 48 88
REMARK H PARENT 72 38 38 49
REMARK Flexibility Score: inf
ROOT
ATOM      1  C   UNL A   1      33.013  31.056  27.258  1.00  0.00     0.275 C 
ENDROOT
BRANCH   1   2
ATOM      2  C   UNL A   1      32.080  30.159  26.444  1.00  0.00     0.274 C 
BRANCH   2   3
ATOM      3  O   UNL A   1      32.616  28.824  26.306  1.00  0.00    -0.462 OA
BRANCH   3   4
ATOM      4  C   UNL A   1      31.804  27.809  26.710  1.00  0.00     0.312 C 
ATOM      5  O   UNL A   1      31.225  27.795  27.791  1.00  0.00    -0.252 OA
BRANCH   4   6
ATOM      6  C   UNL A   1      31.671  26.673  25.660  1.00  0.00     0.068 C 
ATOM      7  C   UNL A   1      31.079  25.392  26.279  1.00  0.00     0.024 C 
BRANCH   6   8
ATOM      8  C   UNL A   1      30.635  27.161  24.590  1.00  0.00     0.015 C 
ATOM      9  C   UNL A   1      29.463  26.232  24.270  1.00  0.00     0.005 C 
ENDBRANCH   6   8
BRANCH   6  10
ATOM     10  C   UNL A   1      33.096  26.397  25.024  1.00  0.00     0.008 C 
ATOM     11  C   UNL A   1      33.697  25.027  25.378  1.00  0.00     0.005 C 
ATOM     12  C   UNL A   1      33.282  26.673  23.511  1.00  0.00     0.036 C 
ATOM     13  C   UNL A   1      33.381  23.859  24.466  1.00  0.00     0.003 C 
ATOM     14  C   UNL A   1      33.125  25.465  22.564  1.00  0.00     0.118 C 
ATOM     15  C   UNL A   1      33.805  24.187  23.055  1.00  0.00     0.032 C 
BRANCH  14  16
ATOM     16  O   UNL A   1      33.505  25.816  21.225  1.00  0.00    -0.381 OA
ATOM     17  C   UNL A   1      32.529  25.578  20.214  1.00  0.00     0.195 C 
ENDBRANCH  14  16
ENDBRANCH   6  10
ENDBRANCH   4   6
ENDBRANCH   3   4
ENDBRANCH   2   3
ENDBRANCH   1   2
BRANCH   1  18
ATOM     18  O   UNL A   1      34.109  30.282  27.767  1.00  0.00    -0.458 OA
BRANCH  18  19
ATOM     19  C   UNL A   1      34.910  30.903  28.671  1.00  0.00     0.338 C 
ATOM     20  O   UNL A   1      34.568  31.802  29.421  1.00  0.00    -0.246 OA
BRANCH  19  21
ATOM     21  C   UNL A   1      36.257  30.261  28.703  1.00  0.00     0.060 A 
ATOM     22  C   UNL A   1      36.855  29.879  29.903  1.00  0.00     0.016 A 
ATOM     23  C   UNL A   1      37.001  30.158  27.523  1.00  0.00     0.016 A 
ATOM     24  C   UNL A   1      38.217  29.564  29.942  1.00  0.00     0.010 A 
ATOM     25  C   UNL A   1      38.331  29.705  27.555  1.00  0.00     0.010 A 
ATOM     26  C   UNL A   1      38.981  29.439  28.772  1.00  0.00    -0.014 A 
BRANCH  26  27
ATOM     27  C   UNL A   1      40.430  29.040  28.817  1.00  0.00     0.031 A 
ATOM     28  C   UNL A   1      41.507  30.045  29.169  1.00  0.00     0.074 A 
ATOM     29  C   UNL A   1      40.815  27.775  28.535  1.00  0.00     0.049 A 
ATOM     30  N   UNL A   1      42.798  29.985  28.949  1.00  0.00    -0.248 NA
ATOM     31  C   UNL A   1      41.080  31.281  29.843  1.00  0.00     0.031 C 
ATOM     32  C   UNL A   1      39.922  26.654  28.234  1.00  0.00     0.029 A 
ATOM     33  N   UNL A   1      42.071  27.215  28.453  1.00  0.00    -0.354 N 
ATOM     34  C   UNL A   1      43.321  31.206  29.365  1.00  0.00     0.074 A 
ATOM     35  C   UNL A   1      42.210  31.977  29.885  1.00  0.00     0.031 C 
ATOM     36  C   UNL A   1      40.644  25.539  28.068  1.00  0.00     0.029 A 
ATOM     37  C   UNL A   1      42.057  25.888  28.091  1.00  0.00     0.049 A 
ATOM     38  H   UNL A   1      42.898  27.717  28.635  1.00  0.00     0.167 HD
ATOM     39  C   UNL A   1      44.602  31.646  29.301  1.00  0.00     0.037 A 
ATOM     40  C   UNL A   1      43.046  25.049  27.726  1.00  0.00     0.037 A 
ATOM     41  C   UNL A   1      45.721  30.842  28.871  1.00  0.00     0.049 A 
ATOM     42  C   UNL A   1      44.451  25.557  27.630  1.00  0.00     0.074 A 
ATOM     43  C   UNL A   1      47.060  31.195  28.800  1.00  0.00     0.029 A 
ATOM     44  N   UNL A   1      45.641  29.519  28.466  1.00  0.00    -0.354 N 
ATOM     45  N   UNL A   1      44.910  26.756  27.897  1.00  0.00    -0.248 NA
ATOM     46  C   UNL A   1      45.464  24.614  27.141  1.00  0.00     0.031 C 
ATOM     47  C   UNL A   1      47.783  30.095  28.323  1.00  0.00     0.029 A 
ATOM     48  C   UNL A   1      46.901  29.044  28.135  1.00  0.00     0.049 A 
ATOM     49  H   UNL A   1      44.810  28.991  28.420  1.00  0.00     0.167 HD
ATOM     50  C   UNL A   1      46.266  26.712  27.602  1.00  0.00     0.074 A 
ATOM     51  C   UNL A   1      46.558  25.364  27.160  1.00  0.00     0.031 C 
ATOM     52  C   UNL A   1      47.184  27.707  27.683  1.00  0.00     0.037 A 
BRANCH  39  53
ATOM     53  C   UNL A   1      44.882  33.083  29.659  1.00  0.00     0.058 A 
ATOM     54  C   UNL A   1      44.776  34.127  28.730  1.00  0.00     0.135 A 
ATOM     55  C   UNL A   1      45.182  33.422  30.991  1.00  0.00     0.135 A 
ATOM     56  F   UNL A   1      44.504  33.861  27.443  1.00  0.00    -0.206 F 
ATOM     57  C   UNL A   1      44.972  35.455  29.104  1.00  0.00     0.059 A 
ATOM     58  C   UNL A   1      45.358  34.743  31.391  1.00  0.00     0.059 A 
ATOM     59  F   UNL A   1      45.290  32.463  31.925  1.00  0.00    -0.206 F 
ATOM     60  C   UNL A   1      45.262  35.754  30.437  1.00  0.00     0.060 A 
BRANCH  60  61
ATOM     61  S   UNL A   1      45.490  37.481  30.914  1.00  0.00     0.124 S 
ATOM     62  O   UNL A   1      46.119  37.339  32.225  1.00  0.00    -0.237 OA
ATOM     63  O   UNL A   1      46.351  37.990  29.852  1.00  0.00    -0.237 OA
ATOM     64  O   UNL A   1      44.132  38.014  30.925  1.00  0.00    -0.744 OA
ENDBRANCH  60  61
ENDBRANCH  39  53
BRANCH  40  65
ATOM     65  C   UNL A   1      42.707  23.655  27.332  1.00  0.00     0.058 A 
ATOM     66  C   UNL A   1      42.604  23.292  25.983  1.00  0.00     0.135 A 
ATOM     67  C   UNL A   1      42.552  22.647  28.299  1.00  0.00     0.135 A 
ATOM     68  F   UNL A   1      42.725  24.224  25.026  1.00  0.00    -0.206 F 
ATOM     69  C   UNL A   1      42.381  21.972  25.602  1.00  0.00     0.059 A 
ATOM     70  C   UNL A   1      42.359  21.318  27.942  1.00  0.00     0.059 A 
ATOM     71  F   UNL A   1      42.652  22.946  29.603  1.00  0.00    -0.206 F 
ATOM     72  C   UNL A   1      42.274  20.990  26.590  1.00  0.00     0.060 A 
BRANCH  72  73
ATOM     73  S   UNL A   1      42.104  19.263  26.092  1.00  0.00     0.124 S 
ATOM     74  O   UNL A   1      40.685  19.192  25.764  1.00  0.00    -0.237 OA
ATOM     75  O   UNL A   1      43.027  19.170  24.965  1.00  0.00    -0.237 OA
ATOM     76  O   UNL A   1      42.516  18.531  27.287  1.00  0.00    -0.744 OA
ENDBRANCH  72  73
ENDBRANCH  40  65
BRANCH  52  77
ATOM     77  C   UNL A   1      48.594  27.362  27.305  1.00  0.00     0.058 A 
ATOM     78  C   UNL A   1      49.033  27.429  25.974  1.00  0.00     0.135 A 
ATOM     79  C   UNL A   1      49.518  26.963  28.283  1.00  0.00     0.135 A 
ATOM     80  F   UNL A   1      48.184  27.794  25.000  1.00  0.00    -0.206 F 
ATOM     81  C   UNL A   1      50.333  27.085  25.621  1.00  0.00     0.059 A 
ATOM     82  C   UNL A   1      50.829  26.634  27.956  1.00  0.00     0.059 A 
ATOM     83  F   UNL A   1      49.147  26.889  29.571  1.00  0.00    -0.206 F 
ATOM     84  C   UNL A   1      51.223  26.683  26.619  1.00  0.00     0.060 A 
BRANCH  84  85
ATOM     85  S   UNL A   1      52.910  26.238  26.153  1.00  0.00     0.124 S 
ATOM     86  O   UNL A   1      53.488  27.545  25.860  1.00  0.00    -0.237 OA
ATOM     87  O   UNL A   1      53.408  25.580  27.358  1.00  0.00    -0.237 OA
ATOM     88  O   UNL A   1      52.722  25.361  25.001  1.00  0.00    -0.744 OA
ENDBRANCH  84  85
ENDBRANCH  52  77
ENDBRANCH  26  27
ENDBRANCH  19  21
ENDBRANCH  18  19
ENDBRANCH   1  18
TORSDOF 17
ENDMDL
MODEL 3
REMARK VINA RESULT:     -10.3      1.150      2.087
REMARK SMILES CC[C@](C)(C(=O)OCCOC(=O)c1ccc(-c2c3nc(c(-c4c(F)cc(S(=O)(=O)[O-])cc4F)c4ccc([nH]4)c(-c4c(F)cc(S(=O)(=O)[O-])cc4F)c4nc(c(-c5c(F)cc(S(=O)(=O)[O-])cc5F)c5ccc2[nH]5)C=C4)C=C3)cc1)[C@H]1CCC[C@H](OC)C1
REMARK SMILES IDX 9 1 8 2 7 3 5 4 6 5 3 6 4 7 2 8 1 9 79 10 80 11 86 12 81 13
REMARK SMILES IDX 83 14 82 15 84 16 85 17 10 18 11 19 12 20 13 21 14 22 78 23
REMARK SMILES IDX 15 24 77 25 16 26 17 27 18 28 71 29 19 30 76 31 70 32 72 33
REMARK SMILES IDX 20 34 75 35 69 36 68 37 21 39 55 40 34 41 54 42 35 43 38 44
REMARK SMILES IDX 53 45 73 46 36 47 37 48 52 50 74 51 39 52 22 53 23 54 32 55
REMARK SMILES IDX 24 56 25 57 31 58 33 59 26 60 27 61 28 62 29 63 30 64 56 65
REMARK SMILES IDX 57 66 66 67 58 68 59 69 65 70 67 71 60 72 61 73 62 74 63 75
REMARK SMILES IDX 64 76 40 77 41 78 50 79 42 80 43 81 49 82 51 83 44 84 45 85
REMARK SMILES IDX 46 86 47 87 48 88
REMARK H PARENT 72 38 38 49
REMARK Flexibility Score: inf
ROOT
ATOM      1  C   UNL A   1      33.150  30.680  26.840  1.00  0.00     0.275 C 
ENDROOT
BRANCH   1   2
ATOM      2  C   UNL A   1      31.742  30.081  26.817  1.00  0.00     0.274 C 
BRANCH   2   3
ATOM      3  O   UNL A   1      31.597  29.112  25.755  1.00  0.00    -0.462 OA
BRANCH   3   4
ATOM      4  C   UNL A   1      31.729  27.806  26.117  1.00  0.00     0.312 C 
ATOM      5  O   UNL A   1      31.184  27.319  27.102  1.00  0.00    -0.252 OA
BRANCH   4   6
ATOM      6  C   UNL A   1      32.627  26.987  25.151  1.00  0.00     0.068 C 
ATOM      7  C   UNL A   1      33.828  27.813  24.651  1.00  0.00     0.024 C 
BRANCH   6   8
ATOM      8  C   UNL A   1      33.226  25.802  25.982  1.00  0.00     0.015 C 
ATOM      9  C   UNL A   1      34.464  25.102  25.420  1.00  0.00     0.005 C 
ENDBRANCH   6   8
BRANCH   6  10
ATOM     10  C   UNL A   1      31.740  26.474  23.941  1.00  0.00     0.008 C 
ATOM     11  C   UNL A   1      30.682  25.428  24.326  1.00  0.00     0.005 C 
ATOM     12  C   UNL A   1      31.110  27.533  23.002  1.00  0.00     0.036 C 
ATOM     13  C   UNL A   1      29.314  25.926  24.744  1.00  0.00     0.003 C 
ATOM     14  C   UNL A   1      29.654  27.945  23.305  1.00  0.00     0.118 C 
ATOM     15  C   UNL A   1      28.726  26.778  23.645  1.00  0.00     0.032 C 
BRANCH  14  16
ATOM     16  O   UNL A   1      29.134  28.780  22.260  1.00  0.00    -0.381 OA
ATOM     17  C   UNL A   1      29.602  30.126  22.242  1.00  0.00     0.195 C 
ENDBRANCH  14  16
ENDBRANCH   6  10
ENDBRANCH   4   6
ENDBRANCH   3   4
ENDBRANCH   2   3
ENDBRANCH   1   2
BRANCH   1  18
ATOM     18  O   UNL A   1      33.955  29.990  27.808  1.00  0.00    -0.458 OA
BRANCH  18  19
ATOM     19  C   UNL A   1      34.815  30.757  28.526  1.00  0.00     0.338 C 
ATOM     20  O   UNL A   1      34.523  31.782  29.120  1.00  0.00    -0.246 OA
BRANCH  19  21
ATOM     21  C   UNL A   1      36.162  30.119  28.582  1.00  0.00     0.060 A 
ATOM     22  C   UNL A   1      36.685  29.623  29.776  1.00  0.00     0.016 A 
ATOM     23  C   UNL A   1      36.981  30.133  27.449  1.00  0.00     0.016 A 
ATOM     24  C   UNL A   1      38.044  29.309  29.873  1.00  0.00     0.010 A 
ATOM     25  C   UNL A   1      38.311  29.683  27.523  1.00  0.00     0.010 A 
ATOM     26  C   UNL A   1      38.883  29.300  28.748  1.00  0.00    -0.014 A 
BRANCH  26  27
ATOM     27  C   UNL A   1      40.329  28.903  28.848  1.00  0.00     0.031 A 
ATOM     28  C   UNL A   1      41.389  29.903  29.261  1.00  0.00     0.074 A 
ATOM     29  C   UNL A   1      40.729  27.643  28.562  1.00  0.00     0.049 A 
ATOM     30  N   UNL A   1      42.688  29.848  29.095  1.00  0.00    -0.248 NA
ATOM     31  C   UNL A   1      40.931  31.128  29.936  1.00  0.00     0.031 C 
ATOM     32  C   UNL A   1      39.852  26.526  28.206  1.00  0.00     0.029 A 
ATOM     33  N   UNL A   1      41.988  27.086  28.524  1.00  0.00    -0.354 N 
ATOM     34  C   UNL A   1      43.190  31.063  29.552  1.00  0.00     0.074 A 
ATOM     35  C   UNL A   1      42.057  31.824  30.037  1.00  0.00     0.031 C 
ATOM     36  C   UNL A   1      40.582  25.414  28.053  1.00  0.00     0.029 A 
ATOM     37  C   UNL A   1      41.992  25.764  28.141  1.00  0.00     0.049 A 
ATOM     38  H   UNL A   1      42.805  27.586  28.750  1.00  0.00     0.167 HD
ATOM     39  C   UNL A   1      44.472  31.506  29.550  1.00  0.00     0.037 A 
ATOM     40  C   UNL A   1      42.997  24.932  27.805  1.00  0.00     0.037 A 
ATOM     41  C   UNL A   1      45.610  30.710  29.154  1.00  0.00     0.049 A 
ATOM     42  C   UNL A   1      44.404  25.444  27.776  1.00  0.00     0.074 A 
ATOM     43  C   UNL A   1      46.950  31.066  29.146  1.00  0.00     0.029 A 
ATOM     44  N   UNL A   1      45.550  29.393  28.725  1.00  0.00    -0.354 N 
ATOM     45  N   UNL A   1      44.849  26.639  28.082  1.00  0.00    -0.248 NA
ATOM     46  C   UNL A   1      45.439  24.510  27.316  1.00  0.00     0.031 C 
ATOM     47  C   UNL A   1      47.695  29.974  28.682  1.00  0.00     0.029 A 
ATOM     48  C   UNL A   1      46.823  28.926  28.440  1.00  0.00     0.049 A 
ATOM     49  H   UNL A   1      44.722  28.866  28.635  1.00  0.00     0.167 HD
ATOM     50  C   UNL A   1      46.216  26.602  27.844  1.00  0.00     0.074 A 
ATOM     51  C   UNL A   1      46.529  25.261  27.393  1.00  0.00     0.031 C 
ATOM     52  C   UNL A   1      47.128  27.596  27.980  1.00  0.00     0.037 A 
BRANCH  39  53
ATOM     53  C   UNL A   1      44.734  32.937  29.942  1.00  0.00     0.058 A 
ATOM     54  C   UNL A   1      45.100  33.308  31.244  1.00  0.00     0.135 A 
ATOM     55  C   UNL A   1      44.694  33.946  28.963  1.00  0.00     0.135 A 
ATOM     56  F   UNL A   1      45.143  32.390  32.222  1.00  0.00    -0.206 F 
ATOM     57  C   UNL A   1      45.406  34.630  31.564  1.00  0.00     0.059 A 
ATOM     58  C   UNL A   1      45.018  35.267  29.255  1.00  0.00     0.059 A 
ATOM     59  F   UNL A   1      44.355  33.646  27.698  1.00  0.00    -0.206 F 
ATOM     60  C   UNL A   1      45.362  35.603  30.563  1.00  0.00     0.060 A 
BRANCH  60  61
ATOM     61  S   UNL A   1      45.782  37.308  30.984  1.00  0.00     0.124 S 
ATOM     62  O   UNL A   1      47.152  37.159  31.465  1.00  0.00    -0.237 OA
ATOM     63  O   UNL A   1      45.632  37.995  29.706  1.00  0.00    -0.237 OA
ATOM     64  O   UNL A   1      44.796  37.661  32.000  1.00  0.00    -0.744 OA
ENDBRANCH  60  61
ENDBRANCH  39  53
BRANCH  40  65
ATOM     65  C   UNL A   1      42.677  23.545  27.374  1.00  0.00     0.058 A 
ATOM     66  C   UNL A   1      42.591  23.213  26.016  1.00  0.00     0.135 A 
ATOM     67  C   UNL A   1      42.526  22.512  28.315  1.00  0.00     0.135 A 
ATOM     68  F   UNL A   1      42.709  24.169  25.083  1.00  0.00    -0.206 F 
ATOM     69  C   UNL A   1      42.386  21.901  25.602  1.00  0.00     0.059 A 
ATOM     70  C   UNL A   1      42.352  21.190  27.925  1.00  0.00     0.059 A 
ATOM     71  F   UNL A   1      42.612  22.781  29.628  1.00  0.00    -0.206 F 
ATOM     72  C   UNL A   1      42.282  20.894  26.566  1.00  0.00     0.060 A 
BRANCH  72  73
ATOM     73  S   UNL A   1      42.137  19.177  26.024  1.00  0.00     0.124 S 
ATOM     74  O   UNL A   1      40.708  19.077  25.752  1.00  0.00    -0.237 OA
ATOM     75  O   UNL A   1      43.014  19.142  24.859  1.00  0.00    -0.237 OA
ATOM     76  O   UNL A   1      42.616  18.424  27.180  1.00  0.00    -0.744 OA
ENDBRANCH  72  73
ENDBRANCH  40  65
BRANCH  52  77
ATOM     77  C   UNL A   1      48.554  27.259  27.656  1.00  0.00     0.058 A 
ATOM     78  C   UNL A   1      49.400  26.663  28.604  1.00  0.00     0.135 A 
ATOM     79  C   UNL A   1      49.080  27.531  26.384  1.00  0.00     0.135 A 
ATOM     80  F   UNL A   1      48.946  26.393  29.839  1.00  0.00    -0.206 F 
ATOM     81  C   UNL A   1      50.727  26.373  28.310  1.00  0.00     0.059 A 
ATOM     82  C   UNL A   1      50.399  27.231  26.061  1.00  0.00     0.059 A 
ATOM     83  F   UNL A   1      48.309  28.096  25.441  1.00  0.00    -0.206 F 
ATOM     84  C   UNL A   1      51.220  26.667  27.037  1.00  0.00     0.060 A 
BRANCH  84  85
ATOM     85  S   UNL A   1      52.945  26.287  26.663  1.00  0.00     0.124 S 
ATOM     86  O   UNL A   1      53.621  26.790  27.855  1.00  0.00    -0.237 OA
ATOM     87  O   UNL A   1      52.924  24.835  26.511  1.00  0.00    -0.237 OA
ATOM     88  O   UNL A   1      53.198  27.035  25.436  1.00  0.00    -0.744 OA
ENDBRANCH  84  85
ENDBRANCH  52  77
ENDBRANCH  26  27
ENDBRANCH  19  21
ENDBRANCH  18  19
ENDBRANCH   1  18
TORSDOF 17
ENDMDL
