MODEL 1
REMARK VINA RESULT:      -9.9      0.000      0.000
REMARK SMILES [NH3+][C@@H](C(=O)OCCOC(=O)c1ccc(-c2c3nc(c(-c4c(F)cc(S(=O)(=O)[O-])cc4F)c4ccc([nH]4)c(-c4c(F)cc(S(=O)(=O)[O-])cc4F)c4nc(c(-c5c(F)cc(S(=O)(=O)[O-])cc5F)c5ccc2[nH]5)C=C4)C=C3)cc1)[C@@H](O)c1cccs1
REMARK SMILES IDX 7 1 6 2 5 3 3 4 4 5 2 6 1 7 77 11 78 12 79 14 80 15 83 16
REMARK SMILES IDX 81 17 82 18 8 19 9 20 10 21 11 22 12 23 76 24 13 25 75 26
REMARK SMILES IDX 14 27 15 28 16 29 69 30 17 31 74 32 68 33 70 34 18 35 73 36
REMARK SMILES IDX 67 37 66 38 19 40 53 41 32 42 52 43 33 44 36 45 51 46 71 47
REMARK SMILES IDX 34 48 35 49 50 51 72 52 37 53 20 54 21 55 30 56 22 57 23 58
REMARK SMILES IDX 29 59 31 60 24 61 25 62 26 63 27 64 28 65 54 66 55 67 64 68
REMARK SMILES IDX 56 69 57 70 63 71 65 72 58 73 59 74 60 75 61 76 62 77 38 78
REMARK SMILES IDX 39 79 48 80 40 81 41 82 47 83 49 84 42 85 43 86 44 87 45 88
REMARK SMILES IDX 46 89
REMARK H PARENT 1 8 1 9 1 10 78 13 70 39 36 50
REMARK Flexibility Score: inf
ROOT
ATOM      1  C   UNL A   1      34.384  33.115  28.138  1.00  0.00     0.275 C 
ENDROOT
BRANCH   1   2
ATOM      2  C   UNL A   1      33.487  34.226  28.692  1.00  0.00     0.274 C 
BRANCH   2   3
ATOM      3  O   UNL A   1      33.971  34.707  29.965  1.00  0.00    -0.458 OA
BRANCH   3   4
ATOM      4  C   UNL A   1      33.149  35.563  30.647  1.00  0.00     0.368 C 
ATOM      5  O   UNL A   1      32.555  36.491  30.112  1.00  0.00    -0.245 OA
BRANCH   4   6
ATOM      6  C   UNL A   1      33.166  35.296  32.169  1.00  0.00     0.326 C 
BRANCH   6   7
ATOM      7  N   UNL A   1      32.170  36.175  32.894  1.00  0.00    -0.343 N 
ATOM      8  H   UNL A   1      31.744  35.650  33.657  1.00  0.00     0.345 HD
ATOM      9  H   UNL A   1      31.445  36.476  32.242  1.00  0.00     0.345 HD
ATOM     10  H   UNL A   1      32.649  36.993  33.270  1.00  0.00     0.345 HD
ENDBRANCH   6   7
BRANCH   6  11
ATOM     11  C   UNL A   1      34.531  35.433  32.885  1.00  0.00     0.224 C 
BRANCH  11  12
ATOM     12  O   UNL A   1      34.308  36.093  34.145  1.00  0.00    -0.381 OA
ATOM     13  H   UNL A   1      34.127  35.430  34.829  1.00  0.00     0.211 HD
ENDBRANCH  11  12
BRANCH  11  14
ATOM     14  C   UNL A   1      35.342  34.181  33.109  1.00  0.00     0.040 A 
ATOM     15  C   UNL A   1      35.085  32.915  32.601  1.00  0.00     0.018 A 
ATOM     16  S   UNL A   1      36.818  34.177  33.990  1.00  0.00    -0.146 S 
ATOM     17  C   UNL A   1      36.093  31.963  32.920  1.00  0.00     0.012 A 
ATOM     18  C   UNL A   1      37.112  32.530  33.645  1.00  0.00     0.065 A 
ENDBRANCH  11  14
ENDBRANCH   6  11
ENDBRANCH   4   6
ENDBRANCH   3   4
ENDBRANCH   2   3
ENDBRANCH   1   2
BRANCH   1  19
ATOM     19  O   UNL A   1      34.371  31.953  28.989  1.00  0.00    -0.458 OA
BRANCH  19  20
ATOM     20  C   UNL A   1      34.427  30.774  28.323  1.00  0.00     0.338 C 
ATOM     21  O   UNL A   1      33.564  30.298  27.604  1.00  0.00    -0.246 OA
BRANCH  20  22
ATOM     22  C   UNL A   1      35.797  30.237  28.366  1.00  0.00     0.060 A 
ATOM     23  C   UNL A   1      36.260  29.881  29.631  1.00  0.00     0.016 A 
ATOM     24  C   UNL A   1      36.643  30.155  27.266  1.00  0.00     0.016 A 
ATOM     25  C   UNL A   1      37.556  29.415  29.821  1.00  0.00     0.010 A 
ATOM     26  C   UNL A   1      37.964  29.712  27.455  1.00  0.00     0.010 A 
ATOM     27  C   UNL A   1      38.429  29.343  28.734  1.00  0.00    -0.014 A 
BRANCH  27  28
ATOM     28  C   UNL A   1      39.853  28.992  28.972  1.00  0.00     0.031 A 
ATOM     29  C   UNL A   1      40.776  30.019  29.565  1.00  0.00     0.074 A 
ATOM     30  C   UNL A   1      40.307  27.747  28.729  1.00  0.00     0.049 A 
ATOM     31  N   UNL A   1      42.067  29.960  29.761  1.00  0.00    -0.248 NA
ATOM     32  C   UNL A   1      40.154  31.279  30.005  1.00  0.00     0.031 C 
ATOM     33  C   UNL A   1      39.492  26.626  28.261  1.00  0.00     0.029 A 
ATOM     34  N   UNL A   1      41.568  27.218  28.847  1.00  0.00    -0.354 N 
ATOM     35  C   UNL A   1      42.420  31.179  30.327  1.00  0.00     0.074 A 
ATOM     36  C   UNL A   1      41.207  31.962  30.434  1.00  0.00     0.031 C 
ATOM     37  C   UNL A   1      40.277  25.546  28.118  1.00  0.00     0.029 A 
ATOM     38  C   UNL A   1      41.659  25.911  28.431  1.00  0.00     0.049 A 
ATOM     39  H   UNL A   1      42.336  27.727  29.195  1.00  0.00     0.167 HD
ATOM     40  C   UNL A   1      43.645  31.607  30.717  1.00  0.00     0.037 A 
ATOM     41  C   UNL A   1      42.735  25.112  28.281  1.00  0.00     0.037 A 
ATOM     42  C   UNL A   1      44.848  30.822  30.615  1.00  0.00     0.049 A 
ATOM     43  C   UNL A   1      44.103  25.645  28.622  1.00  0.00     0.074 A 
ATOM     44  C   UNL A   1      46.140  31.177  30.961  1.00  0.00     0.029 A 
ATOM     45  N   UNL A   1      44.908  29.523  30.131  1.00  0.00    -0.354 N 
ATOM     46  N   UNL A   1      44.436  26.818  29.107  1.00  0.00    -0.248 NA
ATOM     47  C   UNL A   1      45.245  24.750  28.385  1.00  0.00     0.031 C 
ATOM     48  C   UNL A   1      46.989  30.112  30.642  1.00  0.00     0.029 A 
ATOM     49  C   UNL A   1      46.219  29.071  30.147  1.00  0.00     0.049 A 
ATOM     50  H   UNL A   1      44.134  28.999  29.822  1.00  0.00     0.167 HD
ATOM     51  C   UNL A   1      45.819  26.791  29.257  1.00  0.00     0.074 A 
ATOM     52  C   UNL A   1      46.261  25.484  28.820  1.00  0.00     0.031 C 
ATOM     53  C   UNL A   1      46.647  27.763  29.717  1.00  0.00     0.037 A 
BRANCH  40  54
ATOM     54  C   UNL A   1      43.752  33.013  31.239  1.00  0.00     0.058 A 
ATOM     55  C   UNL A   1      43.632  33.314  32.604  1.00  0.00     0.135 A 
ATOM     56  C   UNL A   1      43.989  34.077  30.352  1.00  0.00     0.135 A 
ATOM     57  F   UNL A   1      43.384  32.338  33.492  1.00  0.00    -0.206 F 
ATOM     58  C   UNL A   1      43.710  34.623  33.070  1.00  0.00     0.059 A 
ATOM     59  C   UNL A   1      44.097  35.391  30.799  1.00  0.00     0.059 A 
ATOM     60  F   UNL A   1      44.109  33.846  29.035  1.00  0.00    -0.206 F 
ATOM     61  C   UNL A   1      43.939  35.655  32.158  1.00  0.00     0.060 A 
BRANCH  61  62
ATOM     62  S   UNL A   1      44.018  37.351  32.771  1.00  0.00     0.124 S 
ATOM     63  O   UNL A   1      43.825  38.114  31.541  1.00  0.00    -0.237 OA
ATOM     64  O   UNL A   1      42.911  37.392  33.721  1.00  0.00    -0.237 OA
ATOM     65  O   UNL A   1      45.349  37.438  33.362  1.00  0.00    -0.744 OA
ENDBRANCH  61  62
ENDBRANCH  40  54
BRANCH  41  66
ATOM     66  C   UNL A   1      42.571  23.737  27.733  1.00  0.00     0.058 A 
ATOM     67  C   UNL A   1      42.469  22.622  28.576  1.00  0.00     0.135 A 
ATOM     68  C   UNL A   1      42.526  23.513  26.348  1.00  0.00     0.135 A 
ATOM     69  F   UNL A   1      42.527  22.781  29.908  1.00  0.00    -0.206 F 
ATOM     70  C   UNL A   1      42.338  21.333  28.068  1.00  0.00     0.059 A 
ATOM     71  C   UNL A   1      42.368  22.238  25.815  1.00  0.00     0.059 A 
ATOM     72  F   UNL A   1      42.617  24.546  25.495  1.00  0.00    -0.206 F 
ATOM     73  C   UNL A   1      42.284  21.152  26.685  1.00  0.00     0.060 A 
BRANCH  73  74
ATOM     74  S   UNL A   1      42.065  19.481  26.034  1.00  0.00     0.124 S 
ATOM     75  O   UNL A   1      42.566  18.668  27.136  1.00  0.00    -0.237 OA
ATOM     76  O   UNL A   1      40.624  19.428  25.805  1.00  0.00    -0.237 OA
ATOM     77  O   UNL A   1      42.883  19.482  24.825  1.00  0.00    -0.744 OA
ENDBRANCH  73  74
ENDBRANCH  41  66
BRANCH  53  78
ATOM     78  C   UNL A   1      48.115  27.442  29.811  1.00  0.00     0.058 A 
ATOM     79  C   UNL A   1      49.008  27.749  28.772  1.00  0.00     0.135 A 
ATOM     80  C   UNL A   1      48.644  26.876  30.982  1.00  0.00     0.135 A 
ATOM     81  F   UNL A   1      48.554  28.285  27.628  1.00  0.00    -0.206 F 
ATOM     82  C   UNL A   1      50.370  27.488  28.883  1.00  0.00     0.059 A 
ATOM     83  C   UNL A   1      50.007  26.632  31.126  1.00  0.00     0.059 A 
ATOM     84  F   UNL A   1      47.837  26.573  32.011  1.00  0.00    -0.206 F 
ATOM     85  C   UNL A   1      50.861  26.932  30.066  1.00  0.00     0.060 A 
BRANCH  85  86
ATOM     86  S   UNL A   1      52.637  26.637  30.214  1.00  0.00     0.124 S 
ATOM     87  O   UNL A   1      52.980  26.219  28.859  1.00  0.00    -0.237 OA
ATOM     88  O   UNL A   1      53.139  27.946  30.621  1.00  0.00    -0.237 OA
ATOM     89  O   UNL A   1      52.725  25.596  31.233  1.00  0.00    -0.744 OA
ENDBRANCH  85  86
ENDBRANCH  53  78
ENDBRANCH  27  28
ENDBRANCH  20  22
ENDBRANCH  19  20
ENDBRANCH   1  19
TORSDOF 18
ENDMDL
MODEL 2
REMARK VINA RESULT:      -9.6      4.685     11.737
REMARK SMILES [NH3+][C@@H](C(=O)OCCOC(=O)c1ccc(-c2c3nc(c(-c4c(F)cc(S(=O)(=O)[O-])cc4F)c4ccc([nH]4)c(-c4c(F)cc(S(=O)(=O)[O-])cc4F)c4nc(c(-c5c(F)cc(S(=O)(=O)[O-])cc5F)c5ccc2[nH]5)C=C4)C=C3)cc1)[C@@H](O)c1cccs1
REMARK SMILES IDX 7 1 6 2 5 3 3 4 4 5 2 6 1 7 77 11 78 12 79 14 80 15 83 16
REMARK SMILES IDX 81 17 82 18 8 19 9 20 10 21 11 22 12 23 76 24 13 25 75 26
REMARK SMILES IDX 14 27 15 28 16 29 69 30 17 31 74 32 68 33 70 34 18 35 73 36
REMARK SMILES IDX 67 37 66 38 19 40 53 41 32 42 52 43 33 44 36 45 51 46 71 47
REMARK SMILES IDX 34 48 35 49 50 51 72 52 37 53 20 54 21 55 30 56 22 57 23 58
REMARK SMILES IDX 29 59 31 60 24 61 25 62 26 63 27 64 28 65 54 66 55 67 64 68
REMARK SMILES IDX 56 69 57 70 63 71 65 72 58 73 59 74 60 75 61 76 62 77 38 78
REMARK SMILES IDX 39 79 48 80 40 81 41 82 47 83 49 84 42 85 43 86 44 87 45 88
REMARK SMILES IDX 46 89
REMARK H PARENT 1 8 1 9 1 10 78 13 70 39 36 50
REMARK Flexibility Score: inf
ROOT
ATOM      1  C   UNL A   1      44.128  25.092  25.421  1.00  0.00     0.275 C 
ENDROOT
BRANCH   1   2
ATOM      2  C   UNL A   1      44.242  23.788  24.628  1.00  0.00     0.274 C 
BRANCH   2   3
ATOM      3  O   UNL A   1      42.979  23.088  24.582  1.00  0.00    -0.458 OA
BRANCH   3   4
ATOM      4  C   UNL A   1      42.855  21.996  25.400  1.00  0.00     0.368 C 
ATOM      5  O   UNL A   1      43.521  20.978  25.263  1.00  0.00    -0.245 OA
BRANCH   4   6
ATOM      6  C   UNL A   1      41.703  22.159  26.416  1.00  0.00     0.326 C 
BRANCH   6   7
ATOM      7  N   UNL A   1      40.882  23.396  26.125  1.00  0.00    -0.343 N 
ATOM      8  H   UNL A   1      39.911  23.130  25.963  1.00  0.00     0.345 HD
ATOM      9  H   UNL A   1      41.250  23.861  25.295  1.00  0.00     0.345 HD
ATOM     10  H   UNL A   1      40.932  24.032  26.920  1.00  0.00     0.345 HD
ENDBRANCH   6   7
BRANCH   6  11
ATOM     11  C   UNL A   1      42.095  22.189  27.913  1.00  0.00     0.224 C 
BRANCH  11  12
ATOM     12  O   UNL A   1      42.651  20.906  28.252  1.00  0.00    -0.381 OA
ATOM     13  H   UNL A   1      42.091  20.204  27.886  1.00  0.00     0.211 HD
ENDBRANCH  11  12
BRANCH  11  14
ATOM     14  C   UNL A   1      43.026  23.281  28.381  1.00  0.00     0.040 A 
ATOM     15  C   UNL A   1      42.671  24.527  28.880  1.00  0.00     0.018 A 
ATOM     16  S   UNL A   1      44.731  23.079  28.447  1.00  0.00    -0.146 S 
ATOM     17  C   UNL A   1      43.783  25.295  29.323  1.00  0.00     0.012 A 
ATOM     18  C   UNL A   1      44.963  24.608  29.175  1.00  0.00     0.065 A 
ENDBRANCH  11  14
ENDBRANCH   6  11
ENDBRANCH   4   6
ENDBRANCH   3   4
ENDBRANCH   2   3
ENDBRANCH   1   2
BRANCH   1  19
ATOM     19  O   UNL A   1      42.760  25.536  25.513  1.00  0.00    -0.458 OA
BRANCH  19  20
ATOM     20  C   UNL A   1      42.592  26.867  25.314  1.00  0.00     0.338 C 
ATOM     21  O   UNL A   1      42.657  27.461  24.251  1.00  0.00    -0.246 OA
BRANCH  20  22
ATOM     22  C   UNL A   1      42.054  27.492  26.533  1.00  0.00     0.060 A 
ATOM     23  C   UNL A   1      42.725  28.632  26.967  1.00  0.00     0.016 A 
ATOM     24  C   UNL A   1      41.008  26.970  27.287  1.00  0.00     0.016 A 
ATOM     25  C   UNL A   1      42.356  29.287  28.137  1.00  0.00     0.010 A 
ATOM     26  C   UNL A   1      40.647  27.610  28.485  1.00  0.00     0.010 A 
ATOM     27  C   UNL A   1      41.322  28.770  28.919  1.00  0.00    -0.014 A 
BRANCH  27  28
ATOM     28  C   UNL A   1      41.037  29.386  30.241  1.00  0.00     0.031 A 
ATOM     29  C   UNL A   1      39.896  30.354  30.372  1.00  0.00     0.074 A 
ATOM     30  C   UNL A   1      41.745  29.036  31.332  1.00  0.00     0.049 A 
ATOM     31  N   UNL A   1      39.536  31.080  31.398  1.00  0.00    -0.248 NA
ATOM     32  C   UNL A   1      39.037  30.516  29.187  1.00  0.00     0.031 C 
ATOM     33  C   UNL A   1      42.803  28.027  31.367  1.00  0.00     0.029 A 
ATOM     34  N   UNL A   1      41.675  29.491  32.626  1.00  0.00    -0.354 N 
ATOM     35  C   UNL A   1      38.425  31.802  30.981  1.00  0.00     0.074 A 
ATOM     36  C   UNL A   1      38.175  31.432  29.604  1.00  0.00     0.031 C 
ATOM     37  C   UNL A   1      43.293  27.950  32.615  1.00  0.00     0.029 A 
ATOM     38  C   UNL A   1      42.622  28.940  33.456  1.00  0.00     0.049 A 
ATOM     39  H   UNL A   1      41.010  30.150  32.930  1.00  0.00     0.167 HD
ATOM     40  C   UNL A   1      37.684  32.693  31.681  1.00  0.00     0.037 A 
ATOM     41  C   UNL A   1      42.940  29.229  34.735  1.00  0.00     0.037 A 
ATOM     42  C   UNL A   1      37.933  33.052  33.055  1.00  0.00     0.049 A 
ATOM     43  C   UNL A   1      42.170  30.301  35.463  1.00  0.00     0.074 A 
ATOM     44  C   UNL A   1      37.252  33.964  33.843  1.00  0.00     0.029 A 
ATOM     45  N   UNL A   1      38.940  32.517  33.844  1.00  0.00    -0.354 N 
ATOM     46  N   UNL A   1      41.154  31.017  35.045  1.00  0.00    -0.248 NA
ATOM     47  C   UNL A   1      42.597  30.613  36.835  1.00  0.00     0.031 C 
ATOM     48  C   UNL A   1      37.878  34.016  35.093  1.00  0.00     0.029 A 
ATOM     49  C   UNL A   1      38.916  33.097  35.102  1.00  0.00     0.049 A 
ATOM     50  H   UNL A   1      39.579  31.827  33.552  1.00  0.00     0.167 HD
ATOM     51  C   UNL A   1      40.804  31.843  36.108  1.00  0.00     0.074 A 
ATOM     52  C   UNL A   1      41.712  31.534  37.193  1.00  0.00     0.031 C 
ATOM     53  C   UNL A   1      39.819  32.774  36.179  1.00  0.00     0.037 A 
BRANCH  40  54
ATOM     54  C   UNL A   1      36.566  33.386  30.953  1.00  0.00     0.058 A 
ATOM     55  C   UNL A   1      36.804  34.300  29.915  1.00  0.00     0.135 A 
ATOM     56  C   UNL A   1      35.230  33.120  31.298  1.00  0.00     0.135 A 
ATOM     57  F   UNL A   1      38.062  34.606  29.560  1.00  0.00    -0.206 F 
ATOM     58  C   UNL A   1      35.759  34.951  29.267  1.00  0.00     0.059 A 
ATOM     59  C   UNL A   1      34.169  33.739  30.645  1.00  0.00     0.059 A 
ATOM     60  F   UNL A   1      34.946  32.256  32.286  1.00  0.00    -0.206 F 
ATOM     61  C   UNL A   1      34.444  34.666  29.642  1.00  0.00     0.060 A 
BRANCH  61  62
ATOM     62  S   UNL A   1      33.099  35.533  28.807  1.00  0.00     0.124 S 
ATOM     63  O   UNL A   1      32.527  34.465  27.992  1.00  0.00    -0.237 OA
ATOM     64  O   UNL A   1      32.277  35.985  29.924  1.00  0.00    -0.237 OA
ATOM     65  O   UNL A   1      33.781  36.589  28.067  1.00  0.00    -0.744 OA
ENDBRANCH  61  62
ENDBRANCH  40  54
BRANCH  41  66
ATOM     66  C   UNL A   1      44.076  28.529  35.396  1.00  0.00     0.058 A 
ATOM     67  C   UNL A   1      43.876  27.370  36.158  1.00  0.00     0.135 A 
ATOM     68  C   UNL A   1      45.388  29.018  35.285  1.00  0.00     0.135 A 
ATOM     69  F   UNL A   1      42.639  26.873  36.311  1.00  0.00    -0.206 F 
ATOM     70  C   UNL A   1      44.932  26.725  36.796  1.00  0.00     0.059 A 
ATOM     71  C   UNL A   1      46.464  28.376  35.890  1.00  0.00     0.059 A 
ATOM     72  F   UNL A   1      45.636  30.124  34.565  1.00  0.00    -0.206 F 
ATOM     73  C   UNL A   1      46.224  27.234  36.651  1.00  0.00     0.060 A 
BRANCH  73  74
ATOM     74  S   UNL A   1      47.596  26.364  37.442  1.00  0.00     0.124 S 
ATOM     75  O   UNL A   1      46.904  25.261  38.100  1.00  0.00    -0.237 OA
ATOM     76  O   UNL A   1      48.429  26.005  36.298  1.00  0.00    -0.237 OA
ATOM     77  O   UNL A   1      48.165  27.373  38.329  1.00  0.00    -0.744 OA
ENDBRANCH  73  74
ENDBRANCH  41  66
BRANCH  53  78
ATOM     78  C   UNL A   1      39.640  33.503  37.484  1.00  0.00     0.058 A 
ATOM     79  C   UNL A   1      40.374  34.658  37.795  1.00  0.00     0.135 A 
ATOM     80  C   UNL A   1      38.676  33.072  38.411  1.00  0.00     0.135 A 
ATOM     81  F   UNL A   1      41.312  35.110  36.948  1.00  0.00    -0.206 F 
ATOM     82  C   UNL A   1      40.172  35.351  38.985  1.00  0.00     0.059 A 
ATOM     83  C   UNL A   1      38.438  33.764  39.594  1.00  0.00     0.059 A 
ATOM     84  F   UNL A   1      37.937  31.979  38.160  1.00  0.00    -0.206 F 
ATOM     85  C   UNL A   1      39.199  34.897  39.877  1.00  0.00     0.060 A 
BRANCH  85  86
ATOM     86  S   UNL A   1      38.918  35.828  41.400  1.00  0.00     0.124 S 
ATOM     87  O   UNL A   1      40.078  35.446  42.197  1.00  0.00    -0.237 OA
ATOM     88  O   UNL A   1      38.901  37.208  40.924  1.00  0.00    -0.237 OA
ATOM     89  O   UNL A   1      37.634  35.321  41.876  1.00  0.00    -0.744 OA
ENDBRANCH  85  86
ENDBRANCH  53  78
ENDBRANCH  27  28
ENDBRANCH  20  22
ENDBRANCH  19  20
ENDBRANCH   1  19
TORSDOF 18
ENDMDL
MODEL 3
REMARK VINA RESULT:      -9.6      4.866     13.092
REMARK SMILES [NH3+][C@@H](C(=O)OCCOC(=O)c1ccc(-c2c3nc(c(-c4c(F)cc(S(=O)(=O)[O-])cc4F)c4ccc([nH]4)c(-c4c(F)cc(S(=O)(=O)[O-])cc4F)c4nc(c(-c5c(F)cc(S(=O)(=O)[O-])cc5F)c5ccc2[nH]5)C=C4)C=C3)cc1)[C@@H](O)c1cccs1
REMARK SMILES IDX 7 1 6 2 5 3 3 4 4 5 2 6 1 7 77 11 78 12 79 14 80 15 83 16
REMARK SMILES IDX 81 17 82 18 8 19 9 20 10 21 11 22 12 23 76 24 13 25 75 26
REMARK SMILES IDX 14 27 15 28 16 29 69 30 17 31 74 32 68 33 70 34 18 35 73 36
REMARK SMILES IDX 67 37 66 38 19 40 53 41 32 42 52 43 33 44 36 45 51 46 71 47
REMARK SMILES IDX 34 48 35 49 50 51 72 52 37 53 20 54 21 55 30 56 22 57 23 58
REMARK SMILES IDX 29 59 31 60 24 61 25 62 26 63 27 64 28 65 54 66 55 67 64 68
REMARK SMILES IDX 56 69 57 70 63 71 65 72 58 73 59 74 60 75 61 76 62 77 38 78
REMARK SMILES IDX 39 79 48 80 40 81 41 82 47 83 49 84 42 85 43 86 44 87 45 88
REMARK SMILES IDX 46 89
REMARK H PARENT 1 8 1 9 1 10 78 13 70 39 36 50
REMARK Flexibility Score: inf
ROOT
ATOM      1  C   UNL A   1      43.227  24.132  25.891  1.00  0.00     0.275 C 
ENDROOT
BRANCH   1   2
ATOM      2  C   UNL A   1      44.225  24.397  24.762  1.00  0.00     0.274 C 
BRANCH   2   3
ATOM      3  O   UNL A   1      45.236  23.366  24.701  1.00  0.00    -0.458 OA
BRANCH   3   4
ATOM      4  C   UNL A   1      44.936  22.259  23.953  1.00  0.00     0.368 C 
ATOM      5  O   UNL A   1      44.220  22.295  22.960  1.00  0.00    -0.245 OA
BRANCH   4   6
ATOM      6  C   UNL A   1      45.497  20.963  24.581  1.00  0.00     0.326 C 
BRANCH   6   7
ATOM      7  N   UNL A   1      46.882  20.652  24.056  1.00  0.00    -0.343 N 
ATOM      8  H   UNL A   1      47.487  20.381  24.831  1.00  0.00     0.345 HD
ATOM      9  H   UNL A   1      47.265  21.478  23.598  1.00  0.00     0.345 HD
ATOM     10  H   UNL A   1      46.826  19.886  23.385  1.00  0.00     0.345 HD
ENDBRANCH   6   7
BRANCH   6  11
ATOM     11  C   UNL A   1      44.634  19.688  24.434  1.00  0.00     0.224 C 
BRANCH  11  12
ATOM     12  O   UNL A   1      45.520  18.575  24.215  1.00  0.00    -0.381 OA
ATOM     13  H   UNL A   1      45.074  17.752  24.469  1.00  0.00     0.211 HD
ENDBRANCH  11  12
BRANCH  11  14
ATOM     14  C   UNL A   1      43.669  19.353  25.545  1.00  0.00     0.040 A 
ATOM     15  C   UNL A   1      43.610  18.173  26.275  1.00  0.00     0.018 A 
ATOM     16  S   UNL A   1      42.519  20.480  26.145  1.00  0.00    -0.146 S 
ATOM     17  C   UNL A   1      42.645  18.204  27.319  1.00  0.00     0.012 A 
ATOM     18  C   UNL A   1      42.003  19.417  27.380  1.00  0.00     0.065 A 
ENDBRANCH  11  14
ENDBRANCH   6  11
ENDBRANCH   4   6
ENDBRANCH   3   4
ENDBRANCH   2   3
ENDBRANCH   1   2
BRANCH   1  19
ATOM     19  O   UNL A   1      42.122  25.056  25.847  1.00  0.00    -0.458 OA
BRANCH  19  20
ATOM     20  C   UNL A   1      41.042  24.668  26.568  1.00  0.00     0.338 C 
ATOM     21  O   UNL A   1      40.526  23.563  26.577  1.00  0.00    -0.246 OA
BRANCH  20  22
ATOM     22  C   UNL A   1      40.709  25.699  27.566  1.00  0.00     0.060 A 
ATOM     23  C   UNL A   1      41.546  26.811  27.578  1.00  0.00     0.016 A 
ATOM     24  C   UNL A   1      39.697  25.577  28.512  1.00  0.00     0.016 A 
ATOM     25  C   UNL A   1      41.379  27.832  28.508  1.00  0.00     0.010 A 
ATOM     26  C   UNL A   1      39.539  26.591  29.472  1.00  0.00     0.010 A 
ATOM     27  C   UNL A   1      40.381  27.722  29.479  1.00  0.00    -0.014 A 
BRANCH  27  28
ATOM     28  C   UNL A   1      40.309  28.739  30.559  1.00  0.00     0.031 A 
ATOM     29  C   UNL A   1      41.253  28.645  31.724  1.00  0.00     0.074 A 
ATOM     30  C   UNL A   1      39.458  29.780  30.471  1.00  0.00     0.049 A 
ATOM     31  N   UNL A   1      41.297  29.360  32.818  1.00  0.00    -0.248 NA
ATOM     32  C   UNL A   1      42.296  27.609  31.638  1.00  0.00     0.031 C 
ATOM     33  C   UNL A   1      38.568  30.052  29.343  1.00  0.00     0.029 A 
ATOM     34  N   UNL A   1      39.207  30.804  31.351  1.00  0.00    -0.354 N 
ATOM     35  C   UNL A   1      42.354  28.852  33.562  1.00  0.00     0.074 A 
ATOM     36  C   UNL A   1      42.920  27.760  32.798  1.00  0.00     0.031 C 
ATOM     37  C   UNL A   1      37.859  31.162  29.605  1.00  0.00     0.029 A 
ATOM     38  C   UNL A   1      38.203  31.649  30.940  1.00  0.00     0.049 A 
ATOM     39  H   UNL A   1      39.698  30.922  32.196  1.00  0.00     0.167 HD
ATOM     40  C   UNL A   1      42.808  29.255  34.772  1.00  0.00     0.037 A 
ATOM     41  C   UNL A   1      37.602  32.672  31.582  1.00  0.00     0.037 A 
ATOM     42  C   UNL A   1      42.245  30.347  35.525  1.00  0.00     0.049 A 
ATOM     43  C   UNL A   1      38.053  33.037  32.973  1.00  0.00     0.074 A 
ATOM     44  C   UNL A   1      42.620  30.817  36.772  1.00  0.00     0.029 A 
ATOM     45  N   UNL A   1      41.189  31.141  35.103  1.00  0.00    -0.354 N 
ATOM     46  N   UNL A   1      39.019  32.517  33.692  1.00  0.00    -0.248 NA
ATOM     47  C   UNL A   1      37.324  34.122  33.647  1.00  0.00     0.031 C 
ATOM     48  C   UNL A   1      41.760  31.862  37.125  1.00  0.00     0.029 A 
ATOM     49  C   UNL A   1      40.882  32.080  36.074  1.00  0.00     0.049 A 
ATOM     50  H   UNL A   1      40.724  31.049  34.239  1.00  0.00     0.167 HD
ATOM     51  C   UNL A   1      39.031  33.227  34.888  1.00  0.00     0.074 A 
ATOM     52  C   UNL A   1      37.981  34.220  34.795  1.00  0.00     0.031 C 
ATOM     53  C   UNL A   1      39.840  33.071  35.967  1.00  0.00     0.037 A 
BRANCH  40  54
ATOM     54  C   UNL A   1      43.937  28.473  35.383  1.00  0.00     0.058 A 
ATOM     55  C   UNL A   1      45.282  28.776  35.122  1.00  0.00     0.135 A 
ATOM     56  C   UNL A   1      43.663  27.406  36.256  1.00  0.00     0.135 A 
ATOM     57  F   UNL A   1      45.599  29.772  34.280  1.00  0.00    -0.206 F 
ATOM     58  C   UNL A   1      46.316  28.028  35.677  1.00  0.00     0.059 A 
ATOM     59  C   UNL A   1      44.682  26.662  36.843  1.00  0.00     0.059 A 
ATOM     60  F   UNL A   1      42.394  27.073  36.537  1.00  0.00    -0.206 F 
ATOM     61  C   UNL A   1      46.005  26.970  36.534  1.00  0.00     0.060 A 
BRANCH  61  62
ATOM     62  S   UNL A   1      47.354  25.995  37.230  1.00  0.00     0.124 S 
ATOM     63  O   UNL A   1      47.045  26.047  38.656  1.00  0.00    -0.237 OA
ATOM     64  O   UNL A   1      47.166  24.697  36.589  1.00  0.00    -0.237 OA
ATOM     65  O   UNL A   1      48.550  26.725  36.821  1.00  0.00    -0.744 OA
ENDBRANCH  61  62
ENDBRANCH  40  54
BRANCH  41  66
ATOM     66  C   UNL A   1      36.469  33.392  30.938  1.00  0.00     0.058 A 
ATOM     67  C   UNL A   1      35.154  33.252  31.404  1.00  0.00     0.135 A 
ATOM     68  C   UNL A   1      36.682  34.228  29.830  1.00  0.00     0.135 A 
ATOM     69  F   UNL A   1      34.895  32.449  32.448  1.00  0.00    -0.206 F 
ATOM     70  C   UNL A   1      34.089  33.907  30.792  1.00  0.00     0.059 A 
ATOM     71  C   UNL A   1      35.638  34.915  29.218  1.00  0.00     0.059 A 
ATOM     72  F   UNL A   1      37.921  34.400  29.344  1.00  0.00    -0.206 F 
ATOM     73  C   UNL A   1      34.343  34.740  29.701  1.00  0.00     0.060 A 
BRANCH  73  74
ATOM     74  S   UNL A   1      32.963  35.624  28.942  1.00  0.00     0.124 S 
ATOM     75  O   UNL A   1      32.175  35.999  30.111  1.00  0.00    -0.237 OA
ATOM     76  O   UNL A   1      33.642  36.716  28.251  1.00  0.00    -0.237 OA
ATOM     77  O   UNL A   1      32.361  34.620  28.070  1.00  0.00    -0.744 OA
ENDBRANCH  73  74
ENDBRANCH  41  66
BRANCH  53  78
ATOM     78  C   UNL A   1      39.653  34.018  37.123  1.00  0.00     0.058 A 
ATOM     79  C   UNL A   1      38.886  33.673  38.246  1.00  0.00     0.135 A 
ATOM     80  C   UNL A   1      40.302  35.263  37.131  1.00  0.00     0.135 A 
ATOM     81  F   UNL A   1      38.239  32.497  38.287  1.00  0.00    -0.206 F 
ATOM     82  C   UNL A   1      38.753  34.536  39.329  1.00  0.00     0.059 A 
ATOM     83  C   UNL A   1      40.206  36.131  38.215  1.00  0.00     0.059 A 
ATOM     84  F   UNL A   1      41.058  35.640  36.087  1.00  0.00    -0.206 F 
ATOM     85  C   UNL A   1      39.419  35.763  39.306  1.00  0.00     0.060 A 
BRANCH  85  86
ATOM     86  S   UNL A   1      39.272  36.857  40.735  1.00  0.00     0.124 S 
ATOM     87  O   UNL A   1      38.548  37.989  40.167  1.00  0.00    -0.237 OA
ATOM     88  O   UNL A   1      38.524  36.036  41.682  1.00  0.00    -0.237 OA
ATOM     89  O   UNL A   1      40.659  37.121  41.106  1.00  0.00    -0.744 OA
ENDBRANCH  85  86
ENDBRANCH  53  78
ENDBRANCH  27  28
ENDBRANCH  20  22
ENDBRANCH  19  20
ENDBRANCH   1  19
TORSDOF 18
ENDMDL
