MODEL 1
REMARK VINA RESULT:      -9.6      0.000      0.000
REMARK SMILES C[C@H](O)C[C@@H](Cc1cccc(Br)c1)C(=O)OCCOC(=O)c1ccc(-c2c3nc(c(-c4c(F)cc(S(=O)(=O)[O-])cc4F)c4ccc([nH]4)c(-c4c(F)cc(S(=O)(=O)[O-])cc4F)c4nc(c(-c5c(F)cc(S(=O)(=O)[O-])cc5F)c5ccc2[nH]5)C=C4)C=C3)cc1
REMARK SMILES IDX 17 1 16 2 14 3 15 4 5 5 4 6 2 7 1 8 3 9 6 11 7 12 8 13 13 14
REMARK SMILES IDX 9 15 11 16 10 17 12 18 18 19 19 20 20 21 21 22 22 23 23 24
REMARK SMILES IDX 87 25 24 26 86 27 25 28 26 29 27 30 80 31 28 32 85 33 79 34
REMARK SMILES IDX 81 35 29 36 84 37 78 38 77 39 30 41 64 42 43 43 63 44 44 45
REMARK SMILES IDX 47 46 62 47 82 48 45 49 46 50 61 52 83 53 48 54 31 55 32 56
REMARK SMILES IDX 41 57 33 58 34 59 40 60 42 61 35 62 36 63 37 64 38 65 39 66
REMARK SMILES IDX 65 67 66 68 75 69 67 70 68 71 74 72 76 73 69 74 70 75 71 76
REMARK SMILES IDX 72 77 73 78 49 79 50 80 59 81 51 82 52 83 58 84 60 85 53 86
REMARK SMILES IDX 54 87 55 88 56 89 57 90
REMARK H PARENT 3 10 81 40 47 51
REMARK Flexibility Score: inf
ROOT
ATOM      1  C   UNL A   1      33.865  32.355  28.219  1.00  0.00     0.274 C 
ENDROOT
BRANCH   1   2
ATOM      2  O   UNL A   1      34.528  33.508  28.776  1.00  0.00    -0.462 OA
BRANCH   2   3
ATOM      3  C   UNL A   1      33.743  34.363  29.479  1.00  0.00     0.309 C 
ATOM      4  O   UNL A   1      32.709  34.868  29.053  1.00  0.00    -0.252 OA
BRANCH   3   5
ATOM      5  C   UNL A   1      34.298  34.693  30.854  1.00  0.00     0.106 C 
BRANCH   5   6
ATOM      6  C   UNL A   1      33.254  35.190  31.878  1.00  0.00     0.047 C 
BRANCH   6   7
ATOM      7  C   UNL A   1      33.467  36.640  32.321  1.00  0.00     0.112 C 
ATOM      8  C   UNL A   1      33.290  37.620  31.170  1.00  0.00     0.038 C 
BRANCH   7   9
ATOM      9  O   UNL A   1      34.774  36.781  32.866  1.00  0.00    -0.393 OA
ATOM     10  H   UNL A   1      34.775  36.480  33.788  1.00  0.00     0.210 HD
ENDBRANCH   7   9
ENDBRANCH   6   7
ENDBRANCH   5   6
BRANCH   5  11
ATOM     11  C   UNL A   1      35.269  33.583  31.296  1.00  0.00     0.051 C 
BRANCH  11  12
ATOM     12  C   UNL A   1      36.638  33.894  31.865  1.00  0.00    -0.046 A 
ATOM     13  C   UNL A   1      36.894  34.249  33.193  1.00  0.00     0.004 A 
ATOM     14  C   UNL A   1      37.727  33.868  30.974  1.00  0.00     0.019 A 
ATOM     15  C   UNL A   1      38.188  34.557  33.627  1.00  0.00     0.001 A 
ATOM     16  C   UNL A   1      39.018  34.171  31.409  1.00  0.00     0.018 A 
ATOM     17  C   UNL A   1      39.253  34.517  32.735  1.00  0.00     0.016 A 
ATOM     18  Br  UNL A   1      40.459  34.113  30.187  1.00  0.00    -0.051 Br
ENDBRANCH  11  12
ENDBRANCH   5  11
ENDBRANCH   3   5
ENDBRANCH   2   3
ENDBRANCH   1   2
BRANCH   1  19
ATOM     19  C   UNL A   1      34.694  31.082  28.401  1.00  0.00     0.275 C 
BRANCH  19  20
ATOM     20  O   UNL A   1      36.015  31.375  28.886  1.00  0.00    -0.458 OA
BRANCH  20  21
ATOM     21  C   UNL A   1      36.478  30.507  29.816  1.00  0.00     0.338 C 
ATOM     22  O   UNL A   1      35.910  30.142  30.832  1.00  0.00    -0.246 OA
BRANCH  21  23
ATOM     23  C   UNL A   1      37.747  29.920  29.362  1.00  0.00     0.060 A 
ATOM     24  C   UNL A   1      38.698  29.604  30.334  1.00  0.00     0.016 A 
ATOM     25  C   UNL A   1      38.043  29.771  28.006  1.00  0.00     0.016 A 
ATOM     26  C   UNL A   1      39.963  29.176  29.963  1.00  0.00     0.010 A 
ATOM     27  C   UNL A   1      39.315  29.324  27.632  1.00  0.00     0.010 A 
ATOM     28  C   UNL A   1      40.288  29.046  28.609  1.00  0.00    -0.014 A 
BRANCH  28  29
ATOM     29  C   UNL A   1      41.675  28.681  28.245  1.00  0.00     0.031 A 
ATOM     30  C   UNL A   1      42.751  29.727  28.267  1.00  0.00     0.074 A 
ATOM     31  C   UNL A   1      41.975  27.395  27.980  1.00  0.00     0.049 A 
ATOM     32  N   UNL A   1      44.021  29.613  27.977  1.00  0.00    -0.248 NA
ATOM     33  C   UNL A   1      42.346  31.084  28.673  1.00  0.00     0.031 C 
ATOM     34  C   UNL A   1      41.014  26.290  27.977  1.00  0.00     0.029 A 
ATOM     35  N   UNL A   1      43.170  26.802  27.673  1.00  0.00    -0.354 N 
ATOM     36  C   UNL A   1      44.568  30.877  28.158  1.00  0.00     0.074 A 
ATOM     37  C   UNL A   1      43.486  31.752  28.557  1.00  0.00     0.031 C 
ATOM     38  C   UNL A   1      41.662  25.150  27.684  1.00  0.00     0.029 A 
ATOM     39  C   UNL A   1      43.070  25.450  27.445  1.00  0.00     0.049 A 
ATOM     40  H   UNL A   1      44.021  27.296  27.620  1.00  0.00     0.167 HD
ATOM     41  C   UNL A   1      45.856  31.269  28.012  1.00  0.00     0.037 A 
ATOM     42  C   UNL A   1      44.007  24.560  27.067  1.00  0.00     0.037 A 
ATOM     43  C   UNL A   1      46.926  30.391  27.616  1.00  0.00     0.049 A 
ATOM     44  C   UNL A   1      45.423  25.028  26.876  1.00  0.00     0.074 A 
ATOM     45  C   UNL A   1      48.260  30.693  27.406  1.00  0.00     0.029 A 
ATOM     46  N   UNL A   1      46.783  29.031  27.376  1.00  0.00    -0.354 N 
ATOM     47  N   UNL A   1      45.919  26.235  27.020  1.00  0.00    -0.248 NA
ATOM     48  C   UNL A   1      46.408  24.016  26.473  1.00  0.00     0.031 C 
ATOM     49  C   UNL A   1      48.919  29.522  27.016  1.00  0.00     0.029 A 
ATOM     50  C   UNL A   1      48.004  28.481  27.018  1.00  0.00     0.049 A 
ATOM     51  H   UNL A   1      45.939  28.530  27.450  1.00  0.00     0.167 HD
ATOM     52  C   UNL A   1      47.275  26.124  26.736  1.00  0.00     0.074 A 
ATOM     53  C   UNL A   1      47.525  24.729  26.434  1.00  0.00     0.031 C 
ATOM     54  C   UNL A   1      48.227  27.090  26.720  1.00  0.00     0.037 A 
BRANCH  41  55
ATOM     55  C   UNL A   1      46.170  32.716  28.265  1.00  0.00     0.058 A 
ATOM     56  C   UNL A   1      46.611  33.164  29.521  1.00  0.00     0.135 A 
ATOM     57  C   UNL A   1      46.048  33.664  27.236  1.00  0.00     0.135 A 
ATOM     58  F   UNL A   1      46.723  32.303  30.544  1.00  0.00    -0.206 F 
ATOM     59  C   UNL A   1      46.898  34.505  29.754  1.00  0.00     0.059 A 
ATOM     60  C   UNL A   1      46.351  35.007  27.441  1.00  0.00     0.059 A 
ATOM     61  F   UNL A   1      45.625  33.289  26.019  1.00  0.00    -0.206 F 
ATOM     62  C   UNL A   1      46.761  35.421  28.708  1.00  0.00     0.060 A 
BRANCH  62  63
ATOM     63  S   UNL A   1      47.134  37.158  29.025  1.00  0.00     0.124 S 
ATOM     64  O   UNL A   1      46.447  37.810  27.914  1.00  0.00    -0.237 OA
ATOM     65  O   UNL A   1      46.548  37.370  30.344  1.00  0.00    -0.237 OA
ATOM     66  O   UNL A   1      48.593  37.207  28.976  1.00  0.00    -0.744 OA
ENDBRANCH  62  63
ENDBRANCH  41  55
BRANCH  42  67
ATOM     67  C   UNL A   1      43.628  23.145  26.819  1.00  0.00     0.058 A 
ATOM     68  C   UNL A   1      43.248  22.295  27.868  1.00  0.00     0.135 A 
ATOM     69  C   UNL A   1      43.637  22.616  25.518  1.00  0.00     0.135 A 
ATOM     70  F   UNL A   1      43.231  22.753  29.128  1.00  0.00    -0.206 F 
ATOM     71  C   UNL A   1      42.908  20.965  27.639  1.00  0.00     0.059 A 
ATOM     72  C   UNL A   1      43.278  21.297  25.262  1.00  0.00     0.059 A 
ATOM     73  F   UNL A   1      43.979  23.393  24.478  1.00  0.00    -0.206 F 
ATOM     74  C   UNL A   1      42.928  20.475  26.332  1.00  0.00     0.060 A 
BRANCH  74  75
ATOM     75  S   UNL A   1      42.450  18.759  26.035  1.00  0.00     0.124 S 
ATOM     76  O   UNL A   1      43.392  18.369  24.994  1.00  0.00    -0.237 OA
ATOM     77  O   UNL A   1      42.656  18.148  27.344  1.00  0.00    -0.237 OA
ATOM     78  O   UNL A   1      41.055  18.869  25.618  1.00  0.00    -0.744 OA
ENDBRANCH  74  75
ENDBRANCH  42  67
BRANCH  54  79
ATOM     79  C   UNL A   1      49.627  26.659  26.382  1.00  0.00     0.058 A 
ATOM     80  C   UNL A   1      50.473  26.095  27.348  1.00  0.00     0.135 A 
ATOM     81  C   UNL A   1      50.118  26.796  25.075  1.00  0.00     0.135 A 
ATOM     82  F   UNL A   1      50.051  25.948  28.614  1.00  0.00    -0.206 F 
ATOM     83  C   UNL A   1      51.774  25.712  27.038  1.00  0.00     0.059 A 
ATOM     84  C   UNL A   1      51.408  26.398  24.736  1.00  0.00     0.059 A 
ATOM     85  F   UNL A   1      49.343  27.319  24.112  1.00  0.00    -0.206 F 
ATOM     86  C   UNL A   1      52.234  25.873  25.730  1.00  0.00     0.060 A 
BRANCH  86  87
ATOM     87  S   UNL A   1      53.921  25.369  25.333  1.00  0.00     0.124 S 
ATOM     88  O   UNL A   1      53.974  25.625  23.898  1.00  0.00    -0.237 OA
ATOM     89  O   UNL A   1      54.722  26.261  26.166  1.00  0.00    -0.237 OA
ATOM     90  O   UNL A   1      53.954  23.962  25.723  1.00  0.00    -0.744 OA
ENDBRANCH  86  87
ENDBRANCH  54  79
ENDBRANCH  28  29
ENDBRANCH  21  23
ENDBRANCH  20  21
ENDBRANCH  19  20
ENDBRANCH   1  19
TORSDOF 19
ENDMDL
MODEL 2
REMARK VINA RESULT:      -9.5      5.898      8.296
REMARK SMILES C[C@H](O)C[C@@H](Cc1cccc(Br)c1)C(=O)OCCOC(=O)c1ccc(-c2c3nc(c(-c4c(F)cc(S(=O)(=O)[O-])cc4F)c4ccc([nH]4)c(-c4c(F)cc(S(=O)(=O)[O-])cc4F)c4nc(c(-c5c(F)cc(S(=O)(=O)[O-])cc5F)c5ccc2[nH]5)C=C4)C=C3)cc1
REMARK SMILES IDX 17 1 16 2 14 3 15 4 5 5 4 6 2 7 1 8 3 9 6 11 7 12 8 13 13 14
REMARK SMILES IDX 9 15 11 16 10 17 12 18 18 19 19 20 20 21 21 22 22 23 23 24
REMARK SMILES IDX 87 25 24 26 86 27 25 28 26 29 27 30 80 31 28 32 85 33 79 34
REMARK SMILES IDX 81 35 29 36 84 37 78 38 77 39 30 41 64 42 43 43 63 44 44 45
REMARK SMILES IDX 47 46 62 47 82 48 45 49 46 50 61 52 83 53 48 54 31 55 32 56
REMARK SMILES IDX 41 57 33 58 34 59 40 60 42 61 35 62 36 63 37 64 38 65 39 66
REMARK SMILES IDX 65 67 66 68 75 69 67 70 68 71 74 72 76 73 69 74 70 75 71 76
REMARK SMILES IDX 72 77 73 78 49 79 50 80 59 81 51 82 52 83 58 84 60 85 53 86
REMARK SMILES IDX 54 87 55 88 56 89 57 90
REMARK H PARENT 3 10 81 40 47 51
REMARK Flexibility Score: inf
ROOT
ATOM      1  C   UNL A   1      32.426  29.864  25.273  1.00  0.00     0.274 C 
ENDROOT
BRANCH   1   2
ATOM      2  O   UNL A   1      31.111  29.742  24.692  1.00  0.00    -0.462 OA
BRANCH   2   3
ATOM      3  C   UNL A   1      31.014  28.930  23.608  1.00  0.00     0.309 C 
ATOM      4  O   UNL A   1      30.616  29.287  22.505  1.00  0.00    -0.252 OA
BRANCH   3   5
ATOM      5  C   UNL A   1      31.399  27.490  23.903  1.00  0.00     0.106 C 
BRANCH   5   6
ATOM      6  C   UNL A   1      30.215  26.549  24.217  1.00  0.00     0.047 C 
BRANCH   6   7
ATOM      7  C   UNL A   1      30.354  25.806  25.548  1.00  0.00     0.112 C 
ATOM      8  C   UNL A   1      31.372  26.467  26.467  1.00  0.00     0.038 C 
BRANCH   7   9
ATOM      9  O   UNL A   1      30.744  24.460  25.300  1.00  0.00    -0.393 OA
ATOM     10  H   UNL A   1      31.292  24.424  24.500  1.00  0.00     0.210 HD
ENDBRANCH   7   9
ENDBRANCH   6   7
ENDBRANCH   5   6
BRANCH   5  11
ATOM     11  C   UNL A   1      32.443  27.017  22.877  1.00  0.00     0.051 C 
BRANCH  11  12
ATOM     12  C   UNL A   1      33.082  25.645  22.956  1.00  0.00    -0.046 A 
ATOM     13  C   UNL A   1      32.794  24.575  22.104  1.00  0.00     0.004 A 
ATOM     14  C   UNL A   1      34.002  25.423  23.997  1.00  0.00     0.019 A 
ATOM     15  C   UNL A   1      33.405  23.327  22.272  1.00  0.00     0.001 A 
ATOM     16  C   UNL A   1      34.615  24.179  24.161  1.00  0.00     0.018 A 
ATOM     17  C   UNL A   1      34.318  23.128  23.301  1.00  0.00     0.016 A 
ATOM     18  Br  UNL A   1      35.856  23.920  25.564  1.00  0.00    -0.051 Br
ENDBRANCH  11  12
ENDBRANCH   5  11
ENDBRANCH   3   5
ENDBRANCH   2   3
ENDBRANCH   1   2
BRANCH   1  19
ATOM     19  C   UNL A   1      32.357  30.249  26.752  1.00  0.00     0.275 C 
BRANCH  19  20
ATOM     20  O   UNL A   1      33.599  29.985  27.427  1.00  0.00    -0.458 OA
BRANCH  20  21
ATOM     21  C   UNL A   1      34.313  31.091  27.743  1.00  0.00     0.338 C 
ATOM     22  O   UNL A   1      33.907  32.241  27.796  1.00  0.00    -0.246 OA
BRANCH  21  23
ATOM     23  C   UNL A   1      35.664  30.707  28.173  1.00  0.00     0.060 A 
ATOM     24  C   UNL A   1      35.822  29.453  28.767  1.00  0.00     0.016 A 
ATOM     25  C   UNL A   1      36.740  31.591  28.089  1.00  0.00     0.016 A 
ATOM     26  C   UNL A   1      37.041  29.086  29.317  1.00  0.00     0.010 A 
ATOM     27  C   UNL A   1      37.975  31.215  28.630  1.00  0.00     0.010 A 
ATOM     28  C   UNL A   1      38.123  29.969  29.266  1.00  0.00    -0.014 A 
BRANCH  28  29
ATOM     29  C   UNL A   1      39.382  29.587  29.946  1.00  0.00     0.031 A 
ATOM     30  C   UNL A   1      39.789  30.291  31.208  1.00  0.00     0.074 A 
ATOM     31  C   UNL A   1      40.105  28.555  29.472  1.00  0.00     0.049 A 
ATOM     32  N   UNL A   1      40.851  30.110  31.948  1.00  0.00    -0.248 NA
ATOM     33  C   UNL A   1      38.879  31.335  31.706  1.00  0.00     0.031 C 
ATOM     34  C   UNL A   1      39.774  27.771  28.280  1.00  0.00     0.029 A 
ATOM     35  N   UNL A   1      41.258  27.983  29.941  1.00  0.00    -0.354 N 
ATOM     36  C   UNL A   1      40.744  31.017  32.995  1.00  0.00     0.074 A 
ATOM     37  C   UNL A   1      39.526  31.767  32.780  1.00  0.00     0.031 C 
ATOM     38  C   UNL A   1      40.706  26.818  28.113  1.00  0.00     0.029 A 
ATOM     39  C   UNL A   1      41.712  26.945  29.162  1.00  0.00     0.049 A 
ATOM     40  H   UNL A   1      41.718  28.286  30.757  1.00  0.00     0.167 HD
ATOM     41  C   UNL A   1      41.583  31.200  34.043  1.00  0.00     0.037 A 
ATOM     42  C   UNL A   1      42.825  26.197  29.274  1.00  0.00     0.037 A 
ATOM     43  C   UNL A   1      42.792  30.447  34.249  1.00  0.00     0.049 A 
ATOM     44  C   UNL A   1      43.759  26.445  30.426  1.00  0.00     0.074 A 
ATOM     45  C   UNL A   1      43.729  30.575  35.259  1.00  0.00     0.029 A 
ATOM     46  N   UNL A   1      43.229  29.416  33.429  1.00  0.00    -0.354 N 
ATOM     47  N   UNL A   1      43.660  27.329  31.392  1.00  0.00    -0.248 NA
ATOM     48  C   UNL A   1      44.953  25.594  30.508  1.00  0.00     0.031 C 
ATOM     49  C   UNL A   1      44.745  29.639  35.037  1.00  0.00     0.029 A 
ATOM     50  C   UNL A   1      44.424  28.902  33.909  1.00  0.00     0.049 A 
ATOM     51  H   UNL A   1      42.761  29.096  32.625  1.00  0.00     0.167 HD
ATOM     52  C   UNL A   1      44.773  27.134  32.201  1.00  0.00     0.074 A 
ATOM     53  C   UNL A   1      45.519  26.032  31.624  1.00  0.00     0.031 C 
ATOM     54  C   UNL A   1      45.149  27.807  33.316  1.00  0.00     0.037 A 
BRANCH  41  55
ATOM     55  C   UNL A   1      41.225  32.271  35.035  1.00  0.00     0.058 A 
ATOM     56  C   UNL A   1      40.328  32.027  36.087  1.00  0.00     0.135 A 
ATOM     57  C   UNL A   1      41.798  33.549  34.944  1.00  0.00     0.135 A 
ATOM     58  F   UNL A   1      39.735  30.829  36.207  1.00  0.00    -0.206 F 
ATOM     59  C   UNL A   1      39.995  33.021  37.003  1.00  0.00     0.059 A 
ATOM     60  C   UNL A   1      41.496  34.552  35.860  1.00  0.00     0.059 A 
ATOM     61  F   UNL A   1      42.657  33.835  33.952  1.00  0.00    -0.206 F 
ATOM     62  C   UNL A   1      40.582  34.282  36.878  1.00  0.00     0.060 A 
BRANCH  62  63
ATOM     63  S   UNL A   1      40.139  35.563  38.071  1.00  0.00     0.124 S 
ATOM     64  O   UNL A   1      41.367  35.669  38.853  1.00  0.00    -0.237 OA
ATOM     65  O   UNL A   1      39.835  36.702  37.211  1.00  0.00    -0.237 OA
ATOM     66  O   UNL A   1      38.995  34.991  38.774  1.00  0.00    -0.744 OA
ENDBRANCH  62  63
ENDBRANCH  41  55
BRANCH  42  67
ATOM     67  C   UNL A   1      43.129  25.163  28.251  1.00  0.00     0.058 A 
ATOM     68  C   UNL A   1      42.801  23.815  28.454  1.00  0.00     0.135 A 
ATOM     69  C   UNL A   1      43.756  25.510  27.043  1.00  0.00     0.135 A 
ATOM     70  F   UNL A   1      42.208  23.434  29.595  1.00  0.00    -0.206 F 
ATOM     71  C   UNL A   1      43.099  22.843  27.504  1.00  0.00     0.059 A 
ATOM     72  C   UNL A   1      44.042  24.560  26.068  1.00  0.00     0.059 A 
ATOM     73  F   UNL A   1      44.078  26.789  26.795  1.00  0.00    -0.206 F 
ATOM     74  C   UNL A   1      43.722  23.225  26.314  1.00  0.00     0.060 A 
BRANCH  74  75
ATOM     75  S   UNL A   1      44.074  21.966  25.068  1.00  0.00     0.124 S 
ATOM     76  O   UNL A   1      43.963  22.736  23.836  1.00  0.00    -0.237 OA
ATOM     77  O   UNL A   1      45.419  21.535  25.433  1.00  0.00    -0.237 OA
ATOM     78  O   UNL A   1      43.025  20.975  25.291  1.00  0.00    -0.744 OA
ENDBRANCH  74  75
ENDBRANCH  42  67
BRANCH  54  79
ATOM     79  C   UNL A   1      46.413  27.354  33.990  1.00  0.00     0.058 A 
ATOM     80  C   UNL A   1      47.659  27.905  33.658  1.00  0.00     0.135 A 
ATOM     81  C   UNL A   1      46.374  26.370  34.990  1.00  0.00     0.135 A 
ATOM     82  F   UNL A   1      47.750  28.846  32.704  1.00  0.00    -0.206 F 
ATOM     83  C   UNL A   1      48.831  27.472  34.271  1.00  0.00     0.059 A 
ATOM     84  C   UNL A   1      47.530  25.938  35.633  1.00  0.00     0.059 A 
ATOM     85  F   UNL A   1      45.204  25.819  35.352  1.00  0.00    -0.206 F 
ATOM     86  C   UNL A   1      48.756  26.484  35.254  1.00  0.00     0.060 A 
BRANCH  86  87
ATOM     87  S   UNL A   1      50.279  25.932  36.049  1.00  0.00     0.124 S 
ATOM     88  O   UNL A   1      50.829  27.191  36.536  1.00  0.00    -0.237 OA
ATOM     89  O   UNL A   1      49.786  25.016  37.074  1.00  0.00    -0.237 OA
ATOM     90  O   UNL A   1      51.020  25.301  34.960  1.00  0.00    -0.744 OA
ENDBRANCH  86  87
ENDBRANCH  54  79
ENDBRANCH  28  29
ENDBRANCH  21  23
ENDBRANCH  20  21
ENDBRANCH  19  20
ENDBRANCH   1  19
TORSDOF 19
ENDMDL
MODEL 3
REMARK VINA RESULT:      -9.5      6.205     13.644
REMARK SMILES C[C@H](O)C[C@@H](Cc1cccc(Br)c1)C(=O)OCCOC(=O)c1ccc(-c2c3nc(c(-c4c(F)cc(S(=O)(=O)[O-])cc4F)c4ccc([nH]4)c(-c4c(F)cc(S(=O)(=O)[O-])cc4F)c4nc(c(-c5c(F)cc(S(=O)(=O)[O-])cc5F)c5ccc2[nH]5)C=C4)C=C3)cc1
REMARK SMILES IDX 17 1 16 2 14 3 15 4 5 5 4 6 2 7 1 8 3 9 6 11 7 12 8 13 13 14
REMARK SMILES IDX 9 15 11 16 10 17 12 18 18 19 19 20 20 21 21 22 22 23 23 24
REMARK SMILES IDX 87 25 24 26 86 27 25 28 26 29 27 30 80 31 28 32 85 33 79 34
REMARK SMILES IDX 81 35 29 36 84 37 78 38 77 39 30 41 64 42 43 43 63 44 44 45
REMARK SMILES IDX 47 46 62 47 82 48 45 49 46 50 61 52 83 53 48 54 31 55 32 56
REMARK SMILES IDX 41 57 33 58 34 59 40 60 42 61 35 62 36 63 37 64 38 65 39 66
REMARK SMILES IDX 65 67 66 68 75 69 67 70 68 71 74 72 76 73 69 74 70 75 71 76
REMARK SMILES IDX 72 77 73 78 49 79 50 80 59 81 51 82 52 83 58 84 60 85 53 86
REMARK SMILES IDX 54 87 55 88 56 89 57 90
REMARK H PARENT 3 10 81 40 47 51
REMARK Flexibility Score: inf
ROOT
ATOM      1  C   UNL A   1      44.268  23.896  25.281  1.00  0.00     0.274 C 
ENDROOT
BRANCH   1   2
ATOM      2  O   UNL A   1      45.022  23.698  26.495  1.00  0.00    -0.462 OA
BRANCH   2   3
ATOM      3  C   UNL A   1      46.109  24.496  26.655  1.00  0.00     0.309 C 
ATOM      4  O   UNL A   1      47.226  24.245  26.217  1.00  0.00    -0.252 OA
BRANCH   3   5
ATOM      5  C   UNL A   1      45.827  25.731  27.494  1.00  0.00     0.106 C 
BRANCH   5   6
ATOM      6  C   UNL A   1      45.901  27.071  26.730  1.00  0.00     0.047 C 
BRANCH   6   7
ATOM      7  C   UNL A   1      45.594  26.946  25.235  1.00  0.00     0.112 C 
ATOM      8  C   UNL A   1      46.544  27.779  24.386  1.00  0.00     0.038 C 
BRANCH   7   9
ATOM      9  O   UNL A   1      44.255  27.360  24.991  1.00  0.00    -0.393 OA
ATOM     10  H   UNL A   1      43.950  26.991  24.147  1.00  0.00     0.210 HD
ENDBRANCH   7   9
ENDBRANCH   6   7
ENDBRANCH   5   6
BRANCH   5  11
ATOM     11  C   UNL A   1      44.598  25.476  28.385  1.00  0.00     0.051 C 
BRANCH  11  12
ATOM     12  C   UNL A   1      44.731  25.033  29.828  1.00  0.00    -0.046 A 
ATOM     13  C   UNL A   1      44.011  23.990  30.418  1.00  0.00     0.004 A 
ATOM     14  C   UNL A   1      45.617  25.760  30.646  1.00  0.00     0.019 A 
ATOM     15  C   UNL A   1      44.169  23.672  31.771  1.00  0.00     0.001 A 
ATOM     16  C   UNL A   1      45.777  25.438  31.994  1.00  0.00     0.018 A 
ATOM     17  C   UNL A   1      45.055  24.395  32.562  1.00  0.00     0.016 A 
ATOM     18  Br  UNL A   1      46.985  26.429  33.059  1.00  0.00    -0.051 Br
ENDBRANCH  11  12
ENDBRANCH   5  11
ENDBRANCH   3   5
ENDBRANCH   2   3
ENDBRANCH   1   2
BRANCH   1  19
ATOM     19  C   UNL A   1      42.761  23.817  25.532  1.00  0.00     0.275 C 
BRANCH  19  20
ATOM     20  O   UNL A   1      42.177  25.124  25.665  1.00  0.00    -0.458 OA
BRANCH  20  21
ATOM     21  C   UNL A   1      40.975  25.141  26.288  1.00  0.00     0.338 C 
ATOM     22  O   UNL A   1      39.997  24.461  26.023  1.00  0.00    -0.246 OA
BRANCH  21  23
ATOM     23  C   UNL A   1      41.037  26.015  27.467  1.00  0.00     0.060 A 
ATOM     24  C   UNL A   1      40.131  25.772  28.501  1.00  0.00     0.016 A 
ATOM     25  C   UNL A   1      41.896  27.114  27.522  1.00  0.00     0.016 A 
ATOM     26  C   UNL A   1      40.046  26.642  29.577  1.00  0.00     0.010 A 
ATOM     27  C   UNL A   1      41.821  27.983  28.616  1.00  0.00     0.010 A 
ATOM     28  C   UNL A   1      40.880  27.762  29.637  1.00  0.00    -0.014 A 
BRANCH  28  29
ATOM     29  C   UNL A   1      40.698  28.722  30.750  1.00  0.00     0.031 A 
ATOM     30  C   UNL A   1      41.594  28.648  31.951  1.00  0.00     0.074 A 
ATOM     31  C   UNL A   1      39.785  29.706  30.635  1.00  0.00     0.049 A 
ATOM     32  N   UNL A   1      41.594  29.388  33.029  1.00  0.00    -0.248 NA
ATOM     33  C   UNL A   1      42.632  27.604  31.938  1.00  0.00     0.031 C 
ATOM     34  C   UNL A   1      38.894  29.898  29.489  1.00  0.00     0.029 A 
ATOM     35  N   UNL A   1      39.465  30.730  31.485  1.00  0.00    -0.354 N 
ATOM     36  C   UNL A   1      42.623  28.901  33.826  1.00  0.00     0.074 A 
ATOM     37  C   UNL A   1      43.210  27.782  33.119  1.00  0.00     0.031 C 
ATOM     38  C   UNL A   1      38.128  30.980  29.709  1.00  0.00     0.029 A 
ATOM     39  C   UNL A   1      38.449  31.532  31.021  1.00  0.00     0.049 A 
ATOM     40  H   UNL A   1      39.918  30.878  32.347  1.00  0.00     0.167 HD
ATOM     41  C   UNL A   1      43.043  29.350  35.032  1.00  0.00     0.037 A 
ATOM     42  C   UNL A   1      37.836  32.581  31.600  1.00  0.00     0.037 A 
ATOM     43  C   UNL A   1      42.453  30.466  35.726  1.00  0.00     0.049 A 
ATOM     44  C   UNL A   1      38.297  33.038  32.956  1.00  0.00     0.074 A 
ATOM     45  C   UNL A   1      42.781  30.982  36.967  1.00  0.00     0.029 A 
ATOM     46  N   UNL A   1      41.414  31.242  35.233  1.00  0.00    -0.354 N 
ATOM     47  N   UNL A   1      39.251  32.546  33.712  1.00  0.00    -0.248 NA
ATOM     48  C   UNL A   1      37.602  34.193  33.539  1.00  0.00     0.031 C 
ATOM     49  C   UNL A   1      41.925  32.056  37.236  1.00  0.00     0.029 A 
ATOM     50  C   UNL A   1      41.087  32.232  36.146  1.00  0.00     0.049 A 
ATOM     51  H   UNL A   1      40.974  31.110  34.363  1.00  0.00     0.167 HD
ATOM     52  C   UNL A   1      39.277  33.338  34.854  1.00  0.00     0.074 A 
ATOM     53  C   UNL A   1      38.259  34.355  34.679  1.00  0.00     0.031 C 
ATOM     54  C   UNL A   1      40.067  33.232  35.951  1.00  0.00     0.037 A 
BRANCH  41  55
ATOM     55  C   UNL A   1      44.184  28.621  35.682  1.00  0.00     0.058 A 
ATOM     56  C   UNL A   1      45.511  29.061  35.545  1.00  0.00     0.135 A 
ATOM     57  C   UNL A   1      43.949  27.480  36.465  1.00  0.00     0.135 A 
ATOM     58  F   UNL A   1      45.792  30.133  34.789  1.00  0.00    -0.206 F 
ATOM     59  C   UNL A   1      46.567  28.382  36.145  1.00  0.00     0.059 A 
ATOM     60  C   UNL A   1      44.987  26.797  37.092  1.00  0.00     0.059 A 
ATOM     61  F   UNL A   1      42.700  27.014  36.622  1.00  0.00    -0.206 F 
ATOM     62  C   UNL A   1      46.295  27.248  36.914  1.00  0.00     0.060 A 
BRANCH  62  63
ATOM     63  S   UNL A   1      47.674  26.375  37.684  1.00  0.00     0.124 S 
ATOM     64  O   UNL A   1      48.459  25.986  36.517  1.00  0.00    -0.237 OA
ATOM     65  O   UNL A   1      48.266  27.406  38.530  1.00  0.00    -0.237 OA
ATOM     66  O   UNL A   1      47.027  25.279  38.399  1.00  0.00    -0.744 OA
ENDBRANCH  62  63
ENDBRANCH  41  55
BRANCH  42  67
ATOM     67  C   UNL A   1      36.703  33.251  30.911  1.00  0.00     0.058 A 
ATOM     68  C   UNL A   1      36.919  34.182  29.885  1.00  0.00     0.135 A 
ATOM     69  C   UNL A   1      35.375  32.966  31.267  1.00  0.00     0.135 A 
ATOM     70  F   UNL A   1      38.170  34.492  29.514  1.00  0.00    -0.206 F 
ATOM     71  C   UNL A   1      35.860  34.822  29.249  1.00  0.00     0.059 A 
ATOM     72  C   UNL A   1      34.299  33.575  30.629  1.00  0.00     0.059 A 
ATOM     73  F   UNL A   1      35.115  32.071  32.233  1.00  0.00    -0.206 F 
ATOM     74  C   UNL A   1      34.553  34.512  29.629  1.00  0.00     0.060 A 
BRANCH  74  75
ATOM     75  S   UNL A   1      33.180  35.318  28.776  1.00  0.00     0.124 S 
ATOM     76  O   UNL A   1      32.474  35.945  29.886  1.00  0.00    -0.237 OA
ATOM     77  O   UNL A   1      33.869  36.223  27.863  1.00  0.00    -0.237 OA
ATOM     78  O   UNL A   1      32.488  34.203  28.134  1.00  0.00    -0.744 OA
ENDBRANCH  74  75
ENDBRANCH  42  67
BRANCH  54  79
ATOM     79  C   UNL A   1      39.868  34.254  37.034  1.00  0.00     0.058 A 
ATOM     80  C   UNL A   1      40.489  35.511  36.978  1.00  0.00     0.135 A 
ATOM     81  C   UNL A   1      39.035  33.979  38.129  1.00  0.00     0.135 A 
ATOM     82  F   UNL A   1      41.300  35.820  35.954  1.00  0.00    -0.206 F 
ATOM     83  C   UNL A   1      40.317  36.450  37.990  1.00  0.00     0.059 A 
ATOM     84  C   UNL A   1      38.830  34.912  39.141  1.00  0.00     0.059 A 
ATOM     85  F   UNL A   1      38.409  32.795  38.222  1.00  0.00    -0.206 F 
ATOM     86  C   UNL A   1      39.490  36.139  39.070  1.00  0.00     0.060 A 
BRANCH  86  87
ATOM     87  S   UNL A   1      39.267  37.364  40.376  1.00  0.00     0.124 S 
ATOM     88  O   UNL A   1      40.616  37.901  40.508  1.00  0.00    -0.237 OA
ATOM     89  O   UNL A   1      38.278  38.268  39.797  1.00  0.00    -0.237 OA
ATOM     90  O   UNL A   1      38.792  36.571  41.507  1.00  0.00    -0.744 OA
ENDBRANCH  86  87
ENDBRANCH  54  79
ENDBRANCH  28  29
ENDBRANCH  21  23
ENDBRANCH  20  21
ENDBRANCH  19  20
ENDBRANCH   1  19
TORSDOF 19
ENDMDL
