MODEL 1
REMARK VINA RESULT:     -12.4      0.000      0.000
REMARK SMILES C=CCN1C(=O)/C(=C/c2ccccn2)S/C1=[NH+]\c1ccc(C(=O)OCCOC(=O)c2ccc(-c3c4nc(c(-c5c(F)cc(S(=O)(=O)[O-])cc5F)c5ccc([nH]5)c(-c5c(F)cc(S(=O)(=O)[O-])cc5F)c5nc(c(-c6c(F)cc(S(=O)(=O)[O-])cc6F)c6ccc3[nH]6)C=C5)C=C4)cc2)cc1
REMARK SMILES IDX 25 1 24 2 22 3 23 4 21 5 18 6 19 7 97 8 20 9 96 10 17 11
REMARK SMILES IDX 4 12 5 13 16 14 6 15 7 16 15 17 8 18 3 20 2 21 1 22 9 23
REMARK SMILES IDX 10 24 14 25 11 26 13 27 12 28 26 29 27 30 28 31 29 32 30 33
REMARK SMILES IDX 31 34 95 35 32 36 94 37 33 38 34 39 35 40 88 41 36 42 93 43
REMARK SMILES IDX 87 44 89 45 37 46 92 47 86 48 85 49 38 51 72 52 51 53 71 54
REMARK SMILES IDX 52 55 55 56 70 57 90 58 53 59 54 60 69 62 91 63 56 64 39 65
REMARK SMILES IDX 40 66 49 67 41 68 42 69 48 70 50 71 43 72 44 73 45 74 46 75
REMARK SMILES IDX 47 76 73 77 74 78 83 79 75 80 76 81 82 82 84 83 77 84 78 85
REMARK SMILES IDX 79 86 80 87 81 88 57 89 58 90 67 91 59 92 60 93 66 94 68 95
REMARK SMILES IDX 61 96 62 97 63 98 64 99 65 100
REMARK H PARENT 17 19 89 50 55 61
REMARK Flexibility Score: inf
ROOT
ATOM      1  C   UNL A   1      42.720  21.990  26.222  1.00  0.00     0.275 C 
ENDROOT
BRANCH   1   2
ATOM      2  O   UNL A   1      41.548  21.280  25.772  1.00  0.00    -0.458 OA
BRANCH   2   3
ATOM      3  C   UNL A   1      40.547  21.167  26.684  1.00  0.00     0.338 C 
ATOM      4  O   UNL A   1      40.624  20.661  27.783  1.00  0.00    -0.246 OA
BRANCH   3   5
ATOM      5  C   UNL A   1      39.319  21.847  26.195  1.00  0.00     0.060 A 
ATOM      6  C   UNL A   1      37.010  23.052  25.151  1.00  0.00     0.125 A 
ATOM      7  C   UNL A   1      37.342  21.748  24.792  1.00  0.00     0.052 A 
ATOM      8  C   UNL A   1      37.815  23.738  26.072  1.00  0.00     0.052 A 
ATOM      9  C   UNL A   1      38.508  21.162  25.280  1.00  0.00     0.020 A 
ATOM     10  C   UNL A   1      38.969  23.139  26.593  1.00  0.00     0.020 A 
BRANCH   6  11
ATOM     11  N   UNL A   1      35.897  23.649  24.541  1.00  0.00    -0.234 N 
ATOM     12  N   UNL A   1      33.648  23.474  23.897  1.00  0.00    -0.182 N 
ATOM     13  C   UNL A   1      32.610  22.586  23.695  1.00  0.00     0.349 C 
ATOM     14  C   UNL A   1      34.813  22.956  24.404  1.00  0.00     0.324 C 
ATOM     15  O   UNL A   1      31.486  22.849  23.289  1.00  0.00    -0.240 OA
ATOM     16  C   UNL A   1      33.041  21.212  24.071  1.00  0.00     0.111 C 
ATOM     17  S   UNL A   1      34.584  21.272  24.820  1.00  0.00     0.007 SA
ATOM     18  C   UNL A   1      32.327  20.115  23.794  1.00  0.00     0.052 C 
ATOM     19  H   UNL A   1      35.939  24.579  24.224  1.00  0.00     0.313 HD
BRANCH  12  20
ATOM     20  C   UNL A   1      33.469  24.894  23.668  1.00  0.00     0.275 C 
BRANCH  20  21
ATOM     21  C   UNL A   1      32.955  25.547  24.916  1.00  0.00     0.011 C 
ATOM     22  C   UNL A   1      33.676  26.392  25.667  1.00  0.00     0.008 C 
ENDBRANCH  20  21
ENDBRANCH  12  20
BRANCH  18  23
ATOM     23  C   UNL A   1      32.762  18.759  24.127  1.00  0.00     0.064 A 
ATOM     24  C   UNL A   1      33.473  17.984  23.215  1.00  0.00     0.028 A 
ATOM     25  N   UNL A   1      32.394  18.314  25.348  1.00  0.00    -0.257 NA
ATOM     26  C   UNL A   1      33.789  16.673  23.558  1.00  0.00     0.004 A 
ATOM     27  C   UNL A   1      32.707  17.034  25.649  1.00  0.00     0.111 A 
ATOM     28  C   UNL A   1      33.392  16.183  24.795  1.00  0.00     0.020 A 
ENDBRANCH  18  23
ENDBRANCH   6  11
ENDBRANCH   3   5
ENDBRANCH   2   3
ENDBRANCH   1   2
BRANCH   1  29
ATOM     29  C   UNL A   1      42.754  23.404  25.645  1.00  0.00     0.275 C 
BRANCH  29  30
ATOM     30  O   UNL A   1      42.358  24.358  26.647  1.00  0.00    -0.458 OA
BRANCH  30  31
ATOM     31  C   UNL A   1      41.929  25.554  26.181  1.00  0.00     0.338 C 
ATOM     32  O   UNL A   1      41.837  25.911  25.019  1.00  0.00    -0.246 OA
BRANCH  31  33
ATOM     33  C   UNL A   1      41.530  26.404  27.313  1.00  0.00     0.060 A 
ATOM     34  C   UNL A   1      42.212  27.598  27.526  1.00  0.00     0.016 A 
ATOM     35  C   UNL A   1      40.575  25.972  28.230  1.00  0.00     0.016 A 
ATOM     36  C   UNL A   1      42.013  28.324  28.697  1.00  0.00     0.010 A 
ATOM     37  C   UNL A   1      40.296  26.760  29.354  1.00  0.00     0.010 A 
ATOM     38  C   UNL A   1      41.030  27.933  29.618  1.00  0.00    -0.014 A 
BRANCH  38  39
ATOM     39  C   UNL A   1      40.774  28.742  30.845  1.00  0.00     0.031 A 
ATOM     40  C   UNL A   1      39.680  29.779  30.860  1.00  0.00     0.074 A 
ATOM     41  C   UNL A   1      41.526  28.557  31.950  1.00  0.00     0.049 A 
ATOM     42  N   UNL A   1      39.434  30.711  31.746  1.00  0.00    -0.248 NA
ATOM     43  C   UNL A   1      38.745  29.777  29.723  1.00  0.00     0.031 C 
ATOM     44  C   UNL A   1      42.593  27.562  32.096  1.00  0.00     0.029 A 
ATOM     45  N   UNL A   1      41.514  29.199  33.166  1.00  0.00    -0.354 N 
ATOM     46  C   UNL A   1      38.359  31.441  31.248  1.00  0.00     0.074 A 
ATOM     47  C   UNL A   1      37.998  30.842  29.980  1.00  0.00     0.031 C 
ATOM     48  C   UNL A   1      43.106  27.638  33.331  1.00  0.00     0.029 A 
ATOM     49  C   UNL A   1      42.483  28.752  34.035  1.00  0.00     0.049 A 
ATOM     50  H   UNL A   1      40.874  29.912  33.393  1.00  0.00     0.167 HD
ATOM     51  C   UNL A   1      37.735  32.512  31.798  1.00  0.00     0.037 A 
ATOM     52  C   UNL A   1      42.872  29.214  35.239  1.00  0.00     0.037 A 
ATOM     53  C   UNL A   1      38.068  33.065  33.086  1.00  0.00     0.049 A 
ATOM     54  C   UNL A   1      42.198  30.429  35.809  1.00  0.00     0.074 A 
ATOM     55  C   UNL A   1      37.474  34.129  33.744  1.00  0.00     0.029 A 
ATOM     56  N   UNL A   1      39.076  32.597  33.916  1.00  0.00    -0.354 N 
ATOM     57  N   UNL A   1      41.210  31.132  35.308  1.00  0.00    -0.248 NA
ATOM     58  C   UNL A   1      42.704  30.932  37.093  1.00  0.00     0.031 C 
ATOM     59  C   UNL A   1      38.151  34.330  34.952  1.00  0.00     0.029 A 
ATOM     60  C   UNL A   1      39.137  33.364  35.068  1.00  0.00     0.049 A 
ATOM     61  H   UNL A   1      39.663  31.832  33.715  1.00  0.00     0.167 HD
ATOM     62  C   UNL A   1      40.974  32.155  36.217  1.00  0.00     0.074 A 
ATOM     63  C   UNL A   1      41.906  31.968  37.310  1.00  0.00     0.031 C 
ATOM     64  C   UNL A   1      40.070  33.164  36.148  1.00  0.00     0.037 A 
BRANCH  51  65
ATOM     65  C   UNL A   1      36.649  33.182  31.000  1.00  0.00     0.058 A 
ATOM     66  C   UNL A   1      36.929  34.002  29.896  1.00  0.00     0.135 A 
ATOM     67  C   UNL A   1      35.299  32.956  31.319  1.00  0.00     0.135 A 
ATOM     68  F   UNL A   1      38.201  34.264  29.553  1.00  0.00    -0.206 F 
ATOM     69  C   UNL A   1      35.911  34.594  29.153  1.00  0.00     0.059 A 
ATOM     70  C   UNL A   1      34.265  33.517  30.575  1.00  0.00     0.059 A 
ATOM     71  F   UNL A   1      34.973  32.178  32.363  1.00  0.00    -0.206 F 
ATOM     72  C   UNL A   1      34.582  34.346  29.501  1.00  0.00     0.060 A 
BRANCH  72  73
ATOM     73  S   UNL A   1      33.272  35.114  28.522  1.00  0.00     0.124 S 
ATOM     74  O   UNL A   1      34.047  35.900  27.566  1.00  0.00    -0.237 OA
ATOM     75  O   UNL A   1      32.574  33.958  27.971  1.00  0.00    -0.237 OA
ATOM     76  O   UNL A   1      32.521  35.888  29.505  1.00  0.00    -0.744 OA
ENDBRANCH  72  73
ENDBRANCH  51  65
BRANCH  52  77
ATOM     77  C   UNL A   1      44.002  28.558  35.954  1.00  0.00     0.058 A 
ATOM     78  C   UNL A   1      43.785  27.467  36.806  1.00  0.00     0.135 A 
ATOM     79  C   UNL A   1      45.325  28.995  35.775  1.00  0.00     0.135 A 
ATOM     80  F   UNL A   1      42.538  27.021  37.020  1.00  0.00    -0.206 F 
ATOM     81  C   UNL A   1      44.838  26.832  37.458  1.00  0.00     0.059 A 
ATOM     82  C   UNL A   1      46.397  28.358  36.392  1.00  0.00     0.059 A 
ATOM     83  F   UNL A   1      45.589  30.030  34.962  1.00  0.00    -0.206 F 
ATOM     84  C   UNL A   1      46.141  27.281  37.239  1.00  0.00     0.060 A 
BRANCH  84  85
ATOM     85  S   UNL A   1      47.507  26.410  38.039  1.00  0.00     0.124 S 
ATOM     86  O   UNL A   1      46.945  26.126  39.354  1.00  0.00    -0.237 OA
ATOM     87  O   UNL A   1      47.696  25.260  37.161  1.00  0.00    -0.237 OA
ATOM     88  O   UNL A   1      48.589  27.391  38.013  1.00  0.00    -0.744 OA
ENDBRANCH  84  85
ENDBRANCH  52  77
BRANCH  64  89
ATOM     89  C   UNL A   1      40.031  34.133  37.295  1.00  0.00     0.058 A 
ATOM     90  C   UNL A   1      40.780  35.319  37.278  1.00  0.00     0.135 A 
ATOM     91  C   UNL A   1      39.189  33.900  38.395  1.00  0.00     0.135 A 
ATOM     92  F   UNL A   1      41.608  35.581  36.255  1.00  0.00    -0.206 F 
ATOM     93  C   UNL A   1      40.705  36.238  38.320  1.00  0.00     0.059 A 
ATOM     94  C   UNL A   1      39.081  34.817  39.435  1.00  0.00     0.059 A 
ATOM     95  F   UNL A   1      38.449  32.782  38.455  1.00  0.00    -0.206 F 
ATOM     96  C   UNL A   1      39.848  35.980  39.391  1.00  0.00     0.060 A 
BRANCH  96  97
ATOM     97  S   UNL A   1      39.722  37.206  40.712  1.00  0.00     0.124 S 
ATOM     98  O   UNL A   1      38.925  36.490  41.702  1.00  0.00    -0.237 OA
ATOM     99  O   UNL A   1      41.120  37.430  41.064  1.00  0.00    -0.237 OA
ATOM    100  O   UNL A   1      39.055  38.333  40.066  1.00  0.00    -0.744 OA
ENDBRANCH  96  97
ENDBRANCH  64  89
ENDBRANCH  38  39
ENDBRANCH  31  33
ENDBRANCH  30  31
ENDBRANCH  29  30
ENDBRANCH   1  29
TORSDOF 18
ENDMDL
MODEL 2
REMARK VINA RESULT:     -12.4      0.359      1.499
REMARK SMILES C=CCN1C(=O)/C(=C/c2ccccn2)S/C1=[NH+]\c1ccc(C(=O)OCCOC(=O)c2ccc(-c3c4nc(c(-c5c(F)cc(S(=O)(=O)[O-])cc5F)c5ccc([nH]5)c(-c5c(F)cc(S(=O)(=O)[O-])cc5F)c5nc(c(-c6c(F)cc(S(=O)(=O)[O-])cc6F)c6ccc3[nH]6)C=C5)C=C4)cc2)cc1
REMARK SMILES IDX 25 1 24 2 22 3 23 4 21 5 18 6 19 7 97 8 20 9 96 10 17 11
REMARK SMILES IDX 4 12 5 13 16 14 6 15 7 16 15 17 8 18 3 20 2 21 1 22 9 23
REMARK SMILES IDX 10 24 14 25 11 26 13 27 12 28 26 29 27 30 28 31 29 32 30 33
REMARK SMILES IDX 31 34 95 35 32 36 94 37 33 38 34 39 35 40 88 41 36 42 93 43
REMARK SMILES IDX 87 44 89 45 37 46 92 47 86 48 85 49 38 51 72 52 51 53 71 54
REMARK SMILES IDX 52 55 55 56 70 57 90 58 53 59 54 60 69 62 91 63 56 64 39 65
REMARK SMILES IDX 40 66 49 67 41 68 42 69 48 70 50 71 43 72 44 73 45 74 46 75
REMARK SMILES IDX 47 76 73 77 74 78 83 79 75 80 76 81 82 82 84 83 77 84 78 85
REMARK SMILES IDX 79 86 80 87 81 88 57 89 58 90 67 91 59 92 60 93 66 94 68 95
REMARK SMILES IDX 61 96 62 97 63 98 64 99 65 100
REMARK H PARENT 17 19 89 50 55 61
REMARK Flexibility Score: inf
ROOT
ATOM      1  C   UNL A   1      42.755  22.110  26.111  1.00  0.00     0.275 C 
ENDROOT
BRANCH   1   2
ATOM      2  O   UNL A   1      41.565  21.415  25.690  1.00  0.00    -0.458 OA
BRANCH   2   3
ATOM      3  C   UNL A   1      40.601  21.277  26.639  1.00  0.00     0.338 C 
ATOM      4  O   UNL A   1      40.731  20.770  27.733  1.00  0.00    -0.246 OA
BRANCH   3   5
ATOM      5  C   UNL A   1      39.341  21.929  26.198  1.00  0.00     0.060 A 
ATOM      6  C   UNL A   1      36.966  23.082  25.248  1.00  0.00     0.125 A 
ATOM      7  C   UNL A   1      37.298  21.775  24.899  1.00  0.00     0.052 A 
ATOM      8  C   UNL A   1      37.807  23.798  26.111  1.00  0.00     0.052 A 
ATOM      9  C   UNL A   1      38.494  21.214  25.340  1.00  0.00     0.020 A 
ATOM     10  C   UNL A   1      38.994  23.226  26.585  1.00  0.00     0.020 A 
BRANCH   6  11
ATOM     11  N   UNL A   1      35.815  23.650  24.683  1.00  0.00    -0.234 N 
ATOM     12  N   UNL A   1      33.553  23.413  24.110  1.00  0.00    -0.182 N 
ATOM     13  C   UNL A   1      32.536  22.496  23.930  1.00  0.00     0.349 C 
ATOM     14  C   UNL A   1      34.749  22.926  24.571  1.00  0.00     0.324 C 
ATOM     15  O   UNL A   1      31.392  22.727  23.565  1.00  0.00    -0.240 OA
ATOM     16  C   UNL A   1      33.022  21.131  24.273  1.00  0.00     0.111 C 
ATOM     17  S   UNL A   1      34.586  21.230  24.972  1.00  0.00     0.007 SA
ATOM     18  C   UNL A   1      32.334  20.015  24.005  1.00  0.00     0.052 C 
ATOM     19  H   UNL A   1      35.818  24.586  24.376  1.00  0.00     0.313 HD
BRANCH  12  20
ATOM     20  C   UNL A   1      33.322  24.829  23.906  1.00  0.00     0.275 C 
BRANCH  20  21
ATOM     21  C   UNL A   1      33.625  25.191  22.482  1.00  0.00     0.011 C 
ATOM     22  C   UNL A   1      32.719  25.686  21.629  1.00  0.00     0.008 C 
ENDBRANCH  20  21
ENDBRANCH  12  20
BRANCH  18  23
ATOM     23  C   UNL A   1      32.822  18.670  24.306  1.00  0.00     0.064 A 
ATOM     24  C   UNL A   1      33.662  17.993  23.426  1.00  0.00     0.028 A 
ATOM     25  N   UNL A   1      32.371  18.133  25.460  1.00  0.00    -0.257 NA
ATOM     26  C   UNL A   1      34.027  16.684  23.728  1.00  0.00     0.004 A 
ATOM     27  C   UNL A   1      32.737  16.857  25.721  1.00  0.00     0.111 A 
ATOM     28  C   UNL A   1      33.550  16.100  24.893  1.00  0.00     0.020 A 
ENDBRANCH  18  23
ENDBRANCH   6  11
ENDBRANCH   3   5
ENDBRANCH   2   3
ENDBRANCH   1   2
BRANCH   1  29
ATOM     29  C   UNL A   1      42.756  23.548  25.594  1.00  0.00     0.275 C 
BRANCH  29  30
ATOM     30  O   UNL A   1      42.241  24.437  26.600  1.00  0.00    -0.458 OA
BRANCH  30  31
ATOM     31  C   UNL A   1      41.867  25.663  26.165  1.00  0.00     0.338 C 
ATOM     32  O   UNL A   1      41.823  26.062  25.014  1.00  0.00    -0.246 OA
BRANCH  31  33
ATOM     33  C   UNL A   1      41.463  26.487  27.315  1.00  0.00     0.060 A 
ATOM     34  C   UNL A   1      42.092  27.713  27.512  1.00  0.00     0.016 A 
ATOM     35  C   UNL A   1      40.561  26.004  28.258  1.00  0.00     0.016 A 
ATOM     36  C   UNL A   1      41.894  28.422  28.694  1.00  0.00     0.010 A 
ATOM     37  C   UNL A   1      40.279  26.772  29.395  1.00  0.00     0.010 A 
ATOM     38  C   UNL A   1      40.962  27.979  29.643  1.00  0.00    -0.014 A 
BRANCH  38  39
ATOM     39  C   UNL A   1      40.705  28.769  30.882  1.00  0.00     0.031 A 
ATOM     40  C   UNL A   1      39.598  29.791  30.920  1.00  0.00     0.074 A 
ATOM     41  C   UNL A   1      41.469  28.580  31.979  1.00  0.00     0.049 A 
ATOM     42  N   UNL A   1      39.348  30.709  31.820  1.00  0.00    -0.248 NA
ATOM     43  C   UNL A   1      38.653  29.791  29.791  1.00  0.00     0.031 C 
ATOM     44  C   UNL A   1      42.550  27.598  32.102  1.00  0.00     0.029 A 
ATOM     45  N   UNL A   1      41.460  29.206  33.203  1.00  0.00    -0.354 N 
ATOM     46  C   UNL A   1      38.258  31.430  31.340  1.00  0.00     0.074 A 
ATOM     47  C   UNL A   1      37.895  30.843  30.068  1.00  0.00     0.031 C 
ATOM     48  C   UNL A   1      43.074  27.665  33.335  1.00  0.00     0.029 A 
ATOM     49  C   UNL A   1      42.441  28.761  34.058  1.00  0.00     0.049 A 
ATOM     50  H   UNL A   1      40.812  29.908  33.444  1.00  0.00     0.167 HD
ATOM     51  C   UNL A   1      37.625  32.485  31.909  1.00  0.00     0.037 A 
ATOM     52  C   UNL A   1      42.835  29.214  35.265  1.00  0.00     0.037 A 
ATOM     53  C   UNL A   1      37.961  33.027  33.201  1.00  0.00     0.049 A 
ATOM     54  C   UNL A   1      42.149  30.412  35.855  1.00  0.00     0.074 A 
ATOM     55  C   UNL A   1      37.359  34.074  33.878  1.00  0.00     0.029 A 
ATOM     56  N   UNL A   1      38.983  32.562  34.017  1.00  0.00    -0.354 N 
ATOM     57  N   UNL A   1      41.148  31.107  35.371  1.00  0.00    -0.248 NA
ATOM     58  C   UNL A   1      42.660  30.905  37.142  1.00  0.00     0.031 C 
ATOM     59  C   UNL A   1      38.043  34.268  35.083  1.00  0.00     0.029 A 
ATOM     60  C   UNL A   1      39.043  33.314  35.178  1.00  0.00     0.049 A 
ATOM     61  H   UNL A   1      39.578  31.807  33.801  1.00  0.00     0.167 HD
ATOM     62  C   UNL A   1      40.906  32.116  36.296  1.00  0.00     0.074 A 
ATOM     63  C   UNL A   1      41.850  31.927  37.379  1.00  0.00     0.031 C 
ATOM     64  C   UNL A   1      39.988  33.113  36.248  1.00  0.00     0.037 A 
BRANCH  51  65
ATOM     65  C   UNL A   1      36.523  33.151  31.129  1.00  0.00     0.058 A 
ATOM     66  C   UNL A   1      35.178  33.077  31.520  1.00  0.00     0.135 A 
ATOM     67  C   UNL A   1      36.831  33.922  29.994  1.00  0.00     0.135 A 
ATOM     68  F   UNL A   1      34.825  32.344  32.589  1.00  0.00    -0.206 F 
ATOM     69  C   UNL A   1      34.174  33.721  30.802  1.00  0.00     0.059 A 
ATOM     70  C   UNL A   1      35.846  34.595  29.276  1.00  0.00     0.059 A 
ATOM     71  F   UNL A   1      38.101  34.030  29.575  1.00  0.00    -0.206 F 
ATOM     72  C   UNL A   1      34.518  34.477  29.680  1.00  0.00     0.060 A 
BRANCH  72  73
ATOM     73  S   UNL A   1      33.206  35.314  28.763  1.00  0.00     0.124 S 
ATOM     74  O   UNL A   1      32.714  34.234  27.912  1.00  0.00    -0.237 OA
ATOM     75  O   UNL A   1      32.305  35.743  29.827  1.00  0.00    -0.237 OA
ATOM     76  O   UNL A   1      33.908  36.388  28.068  1.00  0.00    -0.744 OA
ENDBRANCH  72  73
ENDBRANCH  51  65
BRANCH  52  77
ATOM     77  C   UNL A   1      43.979  28.563  35.961  1.00  0.00     0.058 A 
ATOM     78  C   UNL A   1      45.293  29.014  35.774  1.00  0.00     0.135 A 
ATOM     79  C   UNL A   1      43.776  27.495  36.850  1.00  0.00     0.135 A 
ATOM     80  F   UNL A   1      45.541  30.023  34.925  1.00  0.00    -0.206 F 
ATOM     81  C   UNL A   1      46.366  28.429  36.439  1.00  0.00     0.059 A 
ATOM     82  C   UNL A   1      44.828  26.912  37.550  1.00  0.00     0.059 A 
ATOM     83  F   UNL A   1      42.536  27.031  37.073  1.00  0.00    -0.206 F 
ATOM     84  C   UNL A   1      46.122  27.383  37.331  1.00  0.00     0.060 A 
BRANCH  84  85
ATOM     85  S   UNL A   1      47.511  26.671  38.239  1.00  0.00     0.124 S 
ATOM     86  O   UNL A   1      48.183  25.906  37.196  1.00  0.00    -0.237 OA
ATOM     87  O   UNL A   1      48.212  27.861  38.712  1.00  0.00    -0.237 OA
ATOM     88  O   UNL A   1      46.860  25.882  39.282  1.00  0.00    -0.744 OA
ENDBRANCH  84  85
ENDBRANCH  52  77
BRANCH  64  89
ATOM     89  C   UNL A   1      39.945  34.067  37.407  1.00  0.00     0.058 A 
ATOM     90  C   UNL A   1      40.703  35.248  37.413  1.00  0.00     0.135 A 
ATOM     91  C   UNL A   1      39.092  33.825  38.497  1.00  0.00     0.135 A 
ATOM     92  F   UNL A   1      41.542  35.518  36.400  1.00  0.00    -0.206 F 
ATOM     93  C   UNL A   1      40.626  36.153  38.466  1.00  0.00     0.059 A 
ATOM     94  C   UNL A   1      38.982  34.729  39.548  1.00  0.00     0.059 A 
ATOM     95  F   UNL A   1      38.344  32.712  38.535  1.00  0.00    -0.206 F 
ATOM     96  C   UNL A   1      39.757  35.887  39.526  1.00  0.00     0.060 A 
BRANCH  96  97
ATOM     97  S   UNL A   1      39.628  37.096  40.862  1.00  0.00     0.124 S 
ATOM     98  O   UNL A   1      38.734  38.088  40.275  1.00  0.00    -0.237 OA
ATOM     99  O   UNL A   1      39.067  36.301  41.950  1.00  0.00    -0.237 OA
ATOM    100  O   UNL A   1      41.007  37.532  41.059  1.00  0.00    -0.744 OA
ENDBRANCH  96  97
ENDBRANCH  64  89
ENDBRANCH  38  39
ENDBRANCH  31  33
ENDBRANCH  30  31
ENDBRANCH  29  30
ENDBRANCH   1  29
TORSDOF 18
ENDMDL
MODEL 3
REMARK VINA RESULT:     -12.3      0.778      8.054
REMARK SMILES C=CCN1C(=O)/C(=C/c2ccccn2)S/C1=[NH+]\c1ccc(C(=O)OCCOC(=O)c2ccc(-c3c4nc(c(-c5c(F)cc(S(=O)(=O)[O-])cc5F)c5ccc([nH]5)c(-c5c(F)cc(S(=O)(=O)[O-])cc5F)c5nc(c(-c6c(F)cc(S(=O)(=O)[O-])cc6F)c6ccc3[nH]6)C=C5)C=C4)cc2)cc1
REMARK SMILES IDX 25 1 24 2 22 3 23 4 21 5 18 6 19 7 97 8 20 9 96 10 17 11
REMARK SMILES IDX 4 12 5 13 16 14 6 15 7 16 15 17 8 18 3 20 2 21 1 22 9 23
REMARK SMILES IDX 10 24 14 25 11 26 13 27 12 28 26 29 27 30 28 31 29 32 30 33
REMARK SMILES IDX 31 34 95 35 32 36 94 37 33 38 34 39 35 40 88 41 36 42 93 43
REMARK SMILES IDX 87 44 89 45 37 46 92 47 86 48 85 49 38 51 72 52 51 53 71 54
REMARK SMILES IDX 52 55 55 56 70 57 90 58 53 59 54 60 69 62 91 63 56 64 39 65
REMARK SMILES IDX 40 66 49 67 41 68 42 69 48 70 50 71 43 72 44 73 45 74 46 75
REMARK SMILES IDX 47 76 73 77 74 78 83 79 75 80 76 81 82 82 84 83 77 84 78 85
REMARK SMILES IDX 79 86 80 87 81 88 57 89 58 90 67 91 59 92 60 93 66 94 68 95
REMARK SMILES IDX 61 96 62 97 63 98 64 99 65 100
REMARK H PARENT 17 19 89 50 55 61
REMARK Flexibility Score: inf
ROOT
ATOM      1  C   UNL A   1      42.781  21.503  25.970  1.00  0.00     0.275 C 
ENDROOT
BRANCH   1   2
ATOM      2  O   UNL A   1      41.468  20.941  25.773  1.00  0.00    -0.458 OA
BRANCH   2   3
ATOM      3  C   UNL A   1      40.573  21.185  26.768  1.00  0.00     0.338 C 
ATOM      4  O   UNL A   1      40.736  20.983  27.952  1.00  0.00    -0.246 OA
BRANCH   3   5
ATOM      5  C   UNL A   1      39.356  21.840  26.222  1.00  0.00     0.060 A 
ATOM      6  C   UNL A   1      37.071  22.996  25.076  1.00  0.00     0.125 A 
ATOM      7  C   UNL A   1      37.421  21.684  24.767  1.00  0.00     0.052 A 
ATOM      8  C   UNL A   1      37.846  23.716  25.997  1.00  0.00     0.052 A 
ATOM      9  C   UNL A   1      38.576  21.121  25.306  1.00  0.00     0.020 A 
ATOM     10  C   UNL A   1      38.988  23.142  26.569  1.00  0.00     0.020 A 
BRANCH   6  11
ATOM     11  N   UNL A   1      35.973  23.566  24.416  1.00  0.00    -0.234 N 
ATOM     12  N   UNL A   1      33.736  23.367  23.737  1.00  0.00    -0.182 N 
ATOM     13  C   UNL A   1      32.698  22.474  23.557  1.00  0.00     0.349 C 
ATOM     14  C   UNL A   1      34.889  22.870  24.291  1.00  0.00     0.324 C 
ATOM     15  O   UNL A   1      31.583  22.719  23.118  1.00  0.00    -0.240 OA
ATOM     16  C   UNL A   1      33.117  21.118  24.008  1.00  0.00     0.111 C 
ATOM     17  S   UNL A   1      34.644  21.210  24.784  1.00  0.00     0.007 SA
ATOM     18  C   UNL A   1      32.403  20.010  23.771  1.00  0.00     0.052 C 
ATOM     19  H   UNL A   1      36.025  24.480  24.054  1.00  0.00     0.313 HD
BRANCH  12  20
ATOM     20  C   UNL A   1      33.567  24.774  23.435  1.00  0.00     0.275 C 
BRANCH  20  21
ATOM     21  C   UNL A   1      33.184  25.517  24.681  1.00  0.00     0.011 C 
ATOM     22  C   UNL A   1      33.677  26.717  25.016  1.00  0.00     0.008 C 
ENDBRANCH  20  21
ENDBRANCH  12  20
BRANCH  18  23
ATOM     23  C   UNL A   1      32.827  18.672  24.178  1.00  0.00     0.064 A 
ATOM     24  C   UNL A   1      33.586  17.866  23.335  1.00  0.00     0.028 A 
ATOM     25  N   UNL A   1      32.398  18.271  25.395  1.00  0.00    -0.257 NA
ATOM     26  C   UNL A   1      33.889  16.571  23.744  1.00  0.00     0.004 A 
ATOM     27  C   UNL A   1      32.701  17.005  25.761  1.00  0.00     0.111 A 
ATOM     28  C   UNL A   1      33.432  16.126  24.977  1.00  0.00     0.020 A 
ENDBRANCH  18  23
ENDBRANCH   6  11
ENDBRANCH   3   5
ENDBRANCH   2   3
ENDBRANCH   1   2
BRANCH   1  29
ATOM     29  C   UNL A   1      42.853  22.924  25.414  1.00  0.00     0.275 C 
BRANCH  29  30
ATOM     30  O   UNL A   1      42.657  23.880  26.470  1.00  0.00    -0.458 OA
BRANCH  30  31
ATOM     31  C   UNL A   1      42.177  25.086  26.089  1.00  0.00     0.338 C 
ATOM     32  O   UNL A   1      41.803  25.421  24.978  1.00  0.00    -0.246 OA
BRANCH  31  33
ATOM     33  C   UNL A   1      42.123  25.982  27.255  1.00  0.00     0.060 A 
ATOM     34  C   UNL A   1      41.204  25.711  28.264  1.00  0.00     0.016 A 
ATOM     35  C   UNL A   1      42.886  27.146  27.298  1.00  0.00     0.016 A 
ATOM     36  C   UNL A   1      40.974  26.641  29.274  1.00  0.00     0.010 A 
ATOM     37  C   UNL A   1      42.731  28.029  28.375  1.00  0.00     0.010 A 
ATOM     38  C   UNL A   1      41.753  27.802  29.364  1.00  0.00    -0.014 A 
BRANCH  38  39
ATOM     39  C   UNL A   1      41.549  28.772  30.480  1.00  0.00     0.031 A 
ATOM     40  C   UNL A   1      42.440  28.735  31.695  1.00  0.00     0.074 A 
ATOM     41  C   UNL A   1      40.557  29.685  30.412  1.00  0.00     0.049 A 
ATOM     42  N   UNL A   1      42.300  29.349  32.843  1.00  0.00    -0.248 NA
ATOM     43  C   UNL A   1      43.640  27.888  31.615  1.00  0.00     0.031 C 
ATOM     44  C   UNL A   1      39.642  29.864  29.281  1.00  0.00     0.029 A 
ATOM     45  N   UNL A   1      40.145  30.636  31.316  1.00  0.00    -0.354 N 
ATOM     46  C   UNL A   1      43.356  28.919  33.640  1.00  0.00     0.074 A 
ATOM     47  C   UNL A   1      44.131  27.990  32.843  1.00  0.00     0.031 C 
ATOM     48  C   UNL A   1      38.804  30.878  29.543  1.00  0.00     0.029 A 
ATOM     49  C   UNL A   1      39.049  31.355  30.898  1.00  0.00     0.049 A 
ATOM     50  H   UNL A   1      40.592  30.788  32.181  1.00  0.00     0.167 HD
ATOM     51  C   UNL A   1      43.649  29.265  34.917  1.00  0.00     0.037 A 
ATOM     52  C   UNL A   1      38.284  32.256  31.545  1.00  0.00     0.037 A 
ATOM     53  C   UNL A   1      42.902  30.231  35.682  1.00  0.00     0.049 A 
ATOM     54  C   UNL A   1      38.599  32.591  32.975  1.00  0.00     0.074 A 
ATOM     55  C   UNL A   1      43.138  30.673  36.973  1.00  0.00     0.029 A 
ATOM     56  N   UNL A   1      41.782  30.911  35.227  1.00  0.00    -0.354 N 
ATOM     57  N   UNL A   1      39.577  32.146  33.727  1.00  0.00    -0.248 NA
ATOM     58  C   UNL A   1      37.695  33.530  33.654  1.00  0.00     0.031 C 
ATOM     59  C   UNL A   1      42.136  31.589  37.313  1.00  0.00     0.029 A 
ATOM     60  C   UNL A   1      41.301  31.751  36.218  1.00  0.00     0.049 A 
ATOM     61  H   UNL A   1      41.387  30.811  34.331  1.00  0.00     0.167 HD
ATOM     62  C   UNL A   1      39.409  32.753  34.965  1.00  0.00     0.074 A 
ATOM     63  C   UNL A   1      38.250  33.615  34.855  1.00  0.00     0.031 C 
ATOM     64  C   UNL A   1      40.147  32.604  36.093  1.00  0.00     0.037 A 
BRANCH  51  65
ATOM     65  C   UNL A   1      44.806  28.574  35.588  1.00  0.00     0.058 A 
ATOM     66  C   UNL A   1      46.108  29.098  35.561  1.00  0.00     0.135 A 
ATOM     67  C   UNL A   1      44.594  27.390  36.316  1.00  0.00     0.135 A 
ATOM     68  F   UNL A   1      46.371  30.219  34.871  1.00  0.00    -0.206 F 
ATOM     69  C   UNL A   1      47.162  28.460  36.210  1.00  0.00     0.059 A 
ATOM     70  C   UNL A   1      45.628  26.750  36.992  1.00  0.00     0.059 A 
ATOM     71  F   UNL A   1      43.369  26.846  36.378  1.00  0.00    -0.206 F 
ATOM     72  C   UNL A   1      46.913  27.286  36.922  1.00  0.00     0.060 A 
BRANCH  72  73
ATOM     73  S   UNL A   1      48.289  26.474  37.764  1.00  0.00     0.124 S 
ATOM     74  O   UNL A   1      48.223  27.090  39.087  1.00  0.00    -0.237 OA
ATOM     75  O   UNL A   1      47.908  25.067  37.702  1.00  0.00    -0.237 OA
ATOM     76  O   UNL A   1      49.448  26.844  36.959  1.00  0.00    -0.744 OA
ENDBRANCH  72  73
ENDBRANCH  51  65
BRANCH  52  77
ATOM     77  C   UNL A   1      37.106  32.855  30.859  1.00  0.00     0.058 A 
ATOM     78  C   UNL A   1      35.806  32.404  31.124  1.00  0.00     0.135 A 
ATOM     79  C   UNL A   1      37.258  33.910  29.943  1.00  0.00     0.135 A 
ATOM     80  F   UNL A   1      35.609  31.390  31.980  1.00  0.00    -0.206 F 
ATOM     81  C   UNL A   1      34.697  32.975  30.506  1.00  0.00     0.059 A 
ATOM     82  C   UNL A   1      36.163  34.516  29.335  1.00  0.00     0.059 A 
ATOM     83  F   UNL A   1      38.481  34.386  29.661  1.00  0.00    -0.206 F 
ATOM     84  C   UNL A   1      34.886  34.035  29.618  1.00  0.00     0.060 A 
BRANCH  84  85
ATOM     85  S   UNL A   1      33.438  34.812  28.869  1.00  0.00     0.124 S 
ATOM     86  O   UNL A   1      34.010  36.038  28.324  1.00  0.00    -0.237 OA
ATOM     87  O   UNL A   1      33.021  33.811  27.891  1.00  0.00    -0.237 OA
ATOM     88  O   UNL A   1      32.530  34.987  30.000  1.00  0.00    -0.744 OA
ENDBRANCH  84  85
ENDBRANCH  52  77
BRANCH  64  89
ATOM     89  C   UNL A   1      39.734  33.404  37.296  1.00  0.00     0.058 A 
ATOM     90  C   UNL A   1      38.733  32.952  38.169  1.00  0.00     0.135 A 
ATOM     91  C   UNL A   1      40.390  34.606  37.611  1.00  0.00     0.135 A 
ATOM     92  F   UNL A   1      38.069  31.815  37.905  1.00  0.00    -0.206 F 
ATOM     93  C   UNL A   1      38.386  33.670  39.308  1.00  0.00     0.059 A 
ATOM     94  C   UNL A   1      40.075  35.327  38.758  1.00  0.00     0.059 A 
ATOM     95  F   UNL A   1      41.358  35.077  36.810  1.00  0.00    -0.206 F 
ATOM     96  C   UNL A   1      39.067  34.854  39.597  1.00  0.00     0.060 A 
BRANCH  96  97
ATOM     97  S   UNL A   1      38.643  35.750  41.106  1.00  0.00     0.124 S 
ATOM     98  O   UNL A   1      39.827  35.521  41.927  1.00  0.00    -0.237 OA
ATOM     99  O   UNL A   1      38.462  37.114  40.619  1.00  0.00    -0.237 OA
ATOM    100  O   UNL A   1      37.425  35.088  41.563  1.00  0.00    -0.744 OA
ENDBRANCH  96  97
ENDBRANCH  64  89
ENDBRANCH  38  39
ENDBRANCH  31  33
ENDBRANCH  30  31
ENDBRANCH  29  30
ENDBRANCH   1  29
TORSDOF 18
ENDMDL
