MODEL 1
REMARK VINA RESULT:      -9.9      0.000      0.000
REMARK SMILES CCCCCC(=O)N1CCC[C@H](C(=O)OCCOC(=O)c2ccc(-c3c4nc(c(-c5c(F)cc(S(=O)(=O)[O-])cc5F)c5ccc([nH]5)c(-c5c(F)cc(S(=O)(=O)[O-])cc5F)c5nc(c(-c6c(F)cc(S(=O)(=O)[O-])cc6F)c6ccc3[nH]6)C=C5)C=C4)cc2)C1
REMARK SMILES IDX 16 1 15 2 13 3 14 4 12 5 8 6 9 7 87 8 10 9 11 10 6 11 7 12
REMARK SMILES IDX 5 13 4 14 3 15 2 16 1 17 17 18 18 19 19 20 20 21 21 22 22 23
REMARK SMILES IDX 86 24 23 25 85 26 24 27 25 28 26 29 79 30 27 31 84 32 78 33
REMARK SMILES IDX 80 34 28 35 83 36 77 37 76 38 29 40 63 41 42 42 62 43 43 44
REMARK SMILES IDX 46 45 61 46 81 47 44 48 45 49 60 51 82 52 47 53 30 54 31 55
REMARK SMILES IDX 40 56 32 57 33 58 39 59 41 60 34 61 35 62 36 63 37 64 38 65
REMARK SMILES IDX 64 66 65 67 74 68 66 69 67 70 73 71 75 72 68 73 69 74 70 75
REMARK SMILES IDX 71 76 72 77 48 78 49 79 58 80 50 81 51 82 57 83 59 84 52 85
REMARK SMILES IDX 53 86 54 87 55 88 56 89
REMARK H PARENT 80 39 46 50
REMARK Flexibility Score: inf
ROOT
ATOM      1  C   UNL A   1      32.947  30.086  27.137  1.00  0.00     0.274 C 
ENDROOT
BRANCH   1   2
ATOM      2  O   UNL A   1      33.457  28.879  26.545  1.00  0.00    -0.462 OA
BRANCH   2   3
ATOM      3  C   UNL A   1      32.707  27.760  26.677  1.00  0.00     0.310 C 
ATOM      4  O   UNL A   1      31.609  27.717  27.222  1.00  0.00    -0.252 OA
BRANCH   3   5
ATOM      5  C   UNL A   1      33.363  26.520  26.082  1.00  0.00     0.119 C 
ATOM      6  N   UNL A   1      32.431  26.770  23.834  1.00  0.00    -0.342 N 
ATOM      7  C   UNL A   1      31.691  25.516  23.898  1.00  0.00     0.119 C 
ATOM      8  C   UNL A   1      33.662  26.775  24.605  1.00  0.00     0.134 C 
ATOM      9  C   UNL A   1      31.373  25.100  25.331  1.00  0.00     0.022 C 
ATOM     10  C   UNL A   1      32.591  25.206  26.254  1.00  0.00     0.019 C 
BRANCH   6  11
ATOM     11  C   UNL A   1      31.773  27.948  23.505  1.00  0.00     0.222 C 
ATOM     12  O   UNL A   1      32.381  28.939  23.096  1.00  0.00    -0.275 OA
BRANCH  11  13
ATOM     13  C   UNL A   1      30.292  28.039  23.872  1.00  0.00     0.100 C 
BRANCH  13  14
ATOM     14  C   UNL A   1      29.250  28.225  22.766  1.00  0.00     0.010 C 
BRANCH  14  15
ATOM     15  C   UNL A   1      28.017  29.108  23.038  1.00  0.00     0.000 C 
BRANCH  15  16
ATOM     16  C   UNL A   1      28.026  30.536  22.483  1.00  0.00    -0.003 C 
ATOM     17  C   UNL A   1      27.649  31.586  23.512  1.00  0.00     0.004 C 
ENDBRANCH  15  16
ENDBRANCH  14  15
ENDBRANCH  13  14
ENDBRANCH  11  13
ENDBRANCH   6  11
ENDBRANCH   3   5
ENDBRANCH   2   3
ENDBRANCH   1   2
BRANCH   1  18
ATOM     18  C   UNL A   1      34.082  30.910  27.744  1.00  0.00     0.275 C 
BRANCH  18  19
ATOM     19  O   UNL A   1      35.210  30.081  28.081  1.00  0.00    -0.458 OA
BRANCH  19  20
ATOM     20  C   UNL A   1      36.094  30.638  28.942  1.00  0.00     0.338 C 
ATOM     21  O   UNL A   1      35.867  31.448  29.823  1.00  0.00    -0.246 OA
BRANCH  20  22
ATOM     22  C   UNL A   1      37.412  30.026  28.743  1.00  0.00     0.060 A 
ATOM     23  C   UNL A   1      38.205  29.777  29.865  1.00  0.00     0.016 A 
ATOM     24  C   UNL A   1      37.903  29.800  27.458  1.00  0.00     0.016 A 
ATOM     25  C   UNL A   1      39.509  29.321  29.710  1.00  0.00     0.010 A 
ATOM     26  C   UNL A   1      39.207  29.323  27.303  1.00  0.00     0.010 A 
ATOM     27  C   UNL A   1      40.022  29.097  28.427  1.00  0.00    -0.014 A 
BRANCH  27  28
ATOM     28  C   UNL A   1      41.432  28.675  28.261  1.00  0.00     0.031 A 
ATOM     29  C   UNL A   1      42.527  29.699  28.347  1.00  0.00     0.074 A 
ATOM     30  C   UNL A   1      41.721  27.377  28.051  1.00  0.00     0.049 A 
ATOM     31  N   UNL A   1      43.801  29.568  28.089  1.00  0.00    -0.248 NA
ATOM     32  C   UNL A   1      42.135  31.052  28.775  1.00  0.00     0.031 C 
ATOM     33  C   UNL A   1      40.742  26.288  28.004  1.00  0.00     0.029 A 
ATOM     34  N   UNL A   1      42.923  26.754  27.830  1.00  0.00    -0.354 N 
ATOM     35  C   UNL A   1      44.362  30.821  28.302  1.00  0.00     0.074 A 
ATOM     36  C   UNL A   1      43.287  31.706  28.698  1.00  0.00     0.031 C 
ATOM     37  C   UNL A   1      41.383  25.133  27.760  1.00  0.00     0.029 A 
ATOM     38  C   UNL A   1      42.805  25.407  27.582  1.00  0.00     0.049 A 
ATOM     39  H   UNL A   1      43.787  27.227  27.847  1.00  0.00     0.167 HD
ATOM     40  C   UNL A   1      45.657  31.195  28.180  1.00  0.00     0.037 A 
ATOM     41  C   UNL A   1      43.734  24.506  27.212  1.00  0.00     0.037 A 
ATOM     42  C   UNL A   1      46.720  30.300  27.801  1.00  0.00     0.049 A 
ATOM     43  C   UNL A   1      45.157  24.960  27.030  1.00  0.00     0.074 A 
ATOM     44  C   UNL A   1      48.063  30.582  27.626  1.00  0.00     0.029 A 
ATOM     45  N   UNL A   1      46.560  28.945  27.552  1.00  0.00    -0.354 N 
ATOM     46  N   UNL A   1      45.667  26.157  27.192  1.00  0.00    -0.248 NA
ATOM     47  C   UNL A   1      46.131  23.943  26.607  1.00  0.00     0.031 C 
ATOM     48  C   UNL A   1      48.712  29.403  27.246  1.00  0.00     0.029 A 
ATOM     49  C   UNL A   1      47.779  28.378  27.221  1.00  0.00     0.049 A 
ATOM     50  H   UNL A   1      45.706  28.458  27.601  1.00  0.00     0.167 HD
ATOM     51  C   UNL A   1      47.023  26.034  26.911  1.00  0.00     0.074 A 
ATOM     52  C   UNL A   1      47.256  24.643  26.583  1.00  0.00     0.031 C 
ATOM     53  C   UNL A   1      47.988  26.986  26.917  1.00  0.00     0.037 A 
BRANCH  40  54
ATOM     54  C   UNL A   1      46.001  32.633  28.445  1.00  0.00     0.058 A 
ATOM     55  C   UNL A   1      46.405  33.070  29.715  1.00  0.00     0.135 A 
ATOM     56  C   UNL A   1      45.980  33.573  27.403  1.00  0.00     0.135 A 
ATOM     57  F   UNL A   1      46.421  32.215  30.751  1.00  0.00    -0.206 F 
ATOM     58  C   UNL A   1      46.769  34.393  29.946  1.00  0.00     0.059 A 
ATOM     59  C   UNL A   1      46.360  34.897  27.606  1.00  0.00     0.059 A 
ATOM     60  F   UNL A   1      45.594  33.208  26.170  1.00  0.00    -0.206 F 
ATOM     61  C   UNL A   1      46.746  35.298  28.885  1.00  0.00     0.060 A 
BRANCH  61  62
ATOM     62  S   UNL A   1      47.251  37.005  29.193  1.00  0.00     0.124 S 
ATOM     63  O   UNL A   1      48.352  37.157  28.246  1.00  0.00    -0.237 OA
ATOM     64  O   UNL A   1      46.037  37.752  28.877  1.00  0.00    -0.237 OA
ATOM     65  O   UNL A   1      47.630  36.999  30.602  1.00  0.00    -0.744 OA
ENDBRANCH  61  62
ENDBRANCH  40  54
BRANCH  41  66
ATOM     66  C   UNL A   1      43.346  23.096  26.942  1.00  0.00     0.058 A 
ATOM     67  C   UNL A   1      43.031  22.218  27.989  1.00  0.00     0.135 A 
ATOM     68  C   UNL A   1      43.305  22.594  25.632  1.00  0.00     0.135 A 
ATOM     69  F   UNL A   1      43.062  22.650  29.260  1.00  0.00    -0.206 F 
ATOM     70  C   UNL A   1      42.716  20.884  27.750  1.00  0.00     0.059 A 
ATOM     71  C   UNL A   1      42.968  21.272  25.366  1.00  0.00     0.059 A 
ATOM     72  F   UNL A   1      43.584  23.398  24.594  1.00  0.00    -0.206 F 
ATOM     73  C   UNL A   1      42.693  20.419  26.434  1.00  0.00     0.060 A 
BRANCH  73  74
ATOM     74  S   UNL A   1      42.270  18.691  26.126  1.00  0.00     0.124 S 
ATOM     75  O   UNL A   1      40.865  18.797  25.751  1.00  0.00    -0.237 OA
ATOM     76  O   UNL A   1      43.193  18.331  25.054  1.00  0.00    -0.237 OA
ATOM     77  O   UNL A   1      42.536  18.050  27.412  1.00  0.00    -0.744 OA
ENDBRANCH  73  74
ENDBRANCH  41  66
BRANCH  53  78
ATOM     78  C   UNL A   1      49.387  26.545  26.599  1.00  0.00     0.058 A 
ATOM     79  C   UNL A   1      49.929  26.686  25.313  1.00  0.00     0.135 A 
ATOM     80  C   UNL A   1      50.209  26.014  27.606  1.00  0.00     0.135 A 
ATOM     81  F   UNL A   1      49.179  27.180  24.314  1.00  0.00    -0.206 F 
ATOM     82  C   UNL A   1      51.233  26.296  25.029  1.00  0.00     0.059 A 
ATOM     83  C   UNL A   1      51.523  25.639  27.350  1.00  0.00     0.059 A 
ATOM     84  F   UNL A   1      49.739  25.869  28.855  1.00  0.00    -0.206 F 
ATOM     85  C   UNL A   1      52.022  25.772  26.055  1.00  0.00     0.060 A 
BRANCH  85  86
ATOM     86  S   UNL A   1      53.724  25.298  25.686  1.00  0.00     0.124 S 
ATOM     87  O   UNL A   1      53.561  23.902  25.295  1.00  0.00    -0.237 OA
ATOM     88  O   UNL A   1      54.082  26.219  24.611  1.00  0.00    -0.237 OA
ATOM     89  O   UNL A   1      54.420  25.520  26.949  1.00  0.00    -0.744 OA
ENDBRANCH  85  86
ENDBRANCH  53  78
ENDBRANCH  27  28
ENDBRANCH  20  22
ENDBRANCH  19  20
ENDBRANCH  18  19
ENDBRANCH   1  18
TORSDOF 19
ENDMDL
MODEL 2
REMARK VINA RESULT:      -9.9      2.350      3.224
REMARK SMILES CCCCCC(=O)N1CCC[C@H](C(=O)OCCOC(=O)c2ccc(-c3c4nc(c(-c5c(F)cc(S(=O)(=O)[O-])cc5F)c5ccc([nH]5)c(-c5c(F)cc(S(=O)(=O)[O-])cc5F)c5nc(c(-c6c(F)cc(S(=O)(=O)[O-])cc6F)c6ccc3[nH]6)C=C5)C=C4)cc2)C1
REMARK SMILES IDX 16 1 15 2 13 3 14 4 12 5 8 6 9 7 87 8 10 9 11 10 6 11 7 12
REMARK SMILES IDX 5 13 4 14 3 15 2 16 1 17 17 18 18 19 19 20 20 21 21 22 22 23
REMARK SMILES IDX 86 24 23 25 85 26 24 27 25 28 26 29 79 30 27 31 84 32 78 33
REMARK SMILES IDX 80 34 28 35 83 36 77 37 76 38 29 40 63 41 42 42 62 43 43 44
REMARK SMILES IDX 46 45 61 46 81 47 44 48 45 49 60 51 82 52 47 53 30 54 31 55
REMARK SMILES IDX 40 56 32 57 33 58 39 59 41 60 34 61 35 62 36 63 37 64 38 65
REMARK SMILES IDX 64 66 65 67 74 68 66 69 67 70 73 71 75 72 68 73 69 74 70 75
REMARK SMILES IDX 71 76 72 77 48 78 49 79 58 80 50 81 51 82 57 83 59 84 52 85
REMARK SMILES IDX 53 86 54 87 55 88 56 89
REMARK H PARENT 80 39 46 50
REMARK Flexibility Score: inf
ROOT
ATOM      1  C   UNL A   1      33.272  29.201  25.237  1.00  0.00     0.274 C 
ENDROOT
BRANCH   1   2
ATOM      2  O   UNL A   1      32.858  27.832  25.386  1.00  0.00    -0.462 OA
BRANCH   2   3
ATOM      3  C   UNL A   1      33.151  26.984  24.372  1.00  0.00     0.310 C 
ATOM      4  O   UNL A   1      33.876  27.257  23.422  1.00  0.00    -0.252 OA
BRANCH   3   5
ATOM      5  C   UNL A   1      32.479  25.623  24.510  1.00  0.00     0.119 C 
ATOM      6  N   UNL A   1      30.383  26.240  23.411  1.00  0.00    -0.342 N 
ATOM      7  C   UNL A   1      29.577  26.002  24.603  1.00  0.00     0.119 C 
ATOM      8  C   UNL A   1      31.560  25.397  23.310  1.00  0.00     0.134 C 
ATOM      9  C   UNL A   1      30.387  26.135  25.889  1.00  0.00     0.022 C 
ATOM     10  C   UNL A   1      31.719  25.382  25.821  1.00  0.00     0.019 C 
BRANCH   6  11
ATOM     11  C   UNL A   1      30.302  27.461  22.751  1.00  0.00     0.222 C 
ATOM     12  O   UNL A   1      30.968  27.698  21.743  1.00  0.00    -0.275 OA
BRANCH  11  13
ATOM     13  C   UNL A   1      29.517  28.572  23.446  1.00  0.00     0.100 C 
BRANCH  13  14
ATOM     14  C   UNL A   1      28.179  29.031  22.861  1.00  0.00     0.010 C 
BRANCH  14  15
ATOM     15  C   UNL A   1      27.647  30.434  23.211  1.00  0.00     0.000 C 
BRANCH  15  16
ATOM     16  C   UNL A   1      28.658  31.477  23.702  1.00  0.00    -0.003 C 
ATOM     17  C   UNL A   1      28.683  32.737  22.856  1.00  0.00     0.004 C 
ENDBRANCH  15  16
ENDBRANCH  14  15
ENDBRANCH  13  14
ENDBRANCH  11  13
ENDBRANCH   6  11
ENDBRANCH   3   5
ENDBRANCH   2   3
ENDBRANCH   1   2
BRANCH   1  18
ATOM     18  C   UNL A   1      32.860  30.024  26.458  1.00  0.00     0.275 C 
BRANCH  18  19
ATOM     19  O   UNL A   1      33.604  29.633  27.627  1.00  0.00    -0.458 OA
BRANCH  19  20
ATOM     20  C   UNL A   1      34.364  30.610  28.176  1.00  0.00     0.338 C 
ATOM     21  O   UNL A   1      34.000  31.703  28.573  1.00  0.00    -0.246 OA
BRANCH  20  22
ATOM     22  C   UNL A   1      35.736  30.118  28.343  1.00  0.00     0.060 A 
ATOM     23  C   UNL A   1      36.161  29.761  29.624  1.00  0.00     0.016 A 
ATOM     24  C   UNL A   1      36.623  30.111  27.268  1.00  0.00     0.016 A 
ATOM     25  C   UNL A   1      37.489  29.416  29.846  1.00  0.00     0.010 A 
ATOM     26  C   UNL A   1      37.953  29.744  27.488  1.00  0.00     0.010 A 
ATOM     27  C   UNL A   1      38.397  29.411  28.781  1.00  0.00    -0.014 A 
BRANCH  27  28
ATOM     28  C   UNL A   1      39.825  29.108  29.030  1.00  0.00     0.031 A 
ATOM     29  C   UNL A   1      40.725  30.177  29.580  1.00  0.00     0.074 A 
ATOM     30  C   UNL A   1      40.300  27.874  28.778  1.00  0.00     0.049 A 
ATOM     31  N   UNL A   1      42.022  30.165  29.733  1.00  0.00    -0.248 NA
ATOM     32  C   UNL A   1      40.078  31.428  30.010  1.00  0.00     0.031 C 
ATOM     33  C   UNL A   1      39.505  26.743  28.294  1.00  0.00     0.029 A 
ATOM     34  N   UNL A   1      41.570  27.366  28.886  1.00  0.00    -0.354 N 
ATOM     35  C   UNL A   1      42.354  31.409  30.256  1.00  0.00     0.074 A 
ATOM     36  C   UNL A   1      41.121  32.158  30.383  1.00  0.00     0.031 C 
ATOM     37  C   UNL A   1      40.308  25.677  28.140  1.00  0.00     0.029 A 
ATOM     38  C   UNL A   1      41.677  26.063  28.461  1.00  0.00     0.049 A 
ATOM     39  H   UNL A   1      42.331  27.886  29.234  1.00  0.00     0.167 HD
ATOM     40  C   UNL A   1      43.576  31.878  30.601  1.00  0.00     0.037 A 
ATOM     41  C   UNL A   1      42.765  25.285  28.310  1.00  0.00     0.037 A 
ATOM     42  C   UNL A   1      44.792  31.115  30.485  1.00  0.00     0.049 A 
ATOM     43  C   UNL A   1      44.118  25.849  28.649  1.00  0.00     0.074 A 
ATOM     44  C   UNL A   1      46.085  31.504  30.785  1.00  0.00     0.029 A 
ATOM     45  N   UNL A   1      44.861  29.802  30.045  1.00  0.00    -0.354 N 
ATOM     46  N   UNL A   1      44.424  27.042  29.102  1.00  0.00    -0.248 NA
ATOM     47  C   UNL A   1      45.276  24.967  28.449  1.00  0.00     0.031 C 
ATOM     48  C   UNL A   1      46.941  30.434  30.503  1.00  0.00     0.029 A 
ATOM     49  C   UNL A   1      46.175  29.366  30.062  1.00  0.00     0.049 A 
ATOM     50  H   UNL A   1      44.090  29.260  29.761  1.00  0.00     0.167 HD
ATOM     51  C   UNL A   1      45.804  27.046  29.260  1.00  0.00     0.074 A 
ATOM     52  C   UNL A   1      46.273  25.733  28.868  1.00  0.00     0.031 C 
ATOM     53  C   UNL A   1      46.614  28.047  29.684  1.00  0.00     0.037 A 
BRANCH  40  54
ATOM     54  C   UNL A   1      43.666  33.283  31.125  1.00  0.00     0.058 A 
ATOM     55  C   UNL A   1      43.496  33.572  32.487  1.00  0.00     0.135 A 
ATOM     56  C   UNL A   1      43.982  34.345  30.263  1.00  0.00     0.135 A 
ATOM     57  F   UNL A   1      43.171  32.596  33.349  1.00  0.00    -0.206 F 
ATOM     58  C   UNL A   1      43.629  34.868  32.976  1.00  0.00     0.059 A 
ATOM     59  C   UNL A   1      44.140  35.645  30.733  1.00  0.00     0.059 A 
ATOM     60  F   UNL A   1      44.149  34.123  28.949  1.00  0.00    -0.206 F 
ATOM     61  C   UNL A   1      43.954  35.897  32.092  1.00  0.00     0.060 A 
BRANCH  61  62
ATOM     62  S   UNL A   1      44.153  37.569  32.746  1.00  0.00     0.124 S 
ATOM     63  O   UNL A   1      43.107  37.608  33.764  1.00  0.00    -0.237 OA
ATOM     64  O   UNL A   1      45.523  37.547  33.247  1.00  0.00    -0.237 OA
ATOM     65  O   UNL A   1      43.928  38.419  31.582  1.00  0.00    -0.744 OA
ENDBRANCH  61  62
ENDBRANCH  40  54
BRANCH  41  66
ATOM     66  C   UNL A   1      42.631  23.905  27.771  1.00  0.00     0.058 A 
ATOM     67  C   UNL A   1      42.519  23.672  26.393  1.00  0.00     0.135 A 
ATOM     68  C   UNL A   1      42.588  22.795  28.628  1.00  0.00     0.135 A 
ATOM     69  F   UNL A   1      42.548  24.704  25.534  1.00  0.00    -0.206 F 
ATOM     70  C   UNL A   1      42.342  22.390  25.884  1.00  0.00     0.059 A 
ATOM     71  C   UNL A   1      42.438  21.500  28.141  1.00  0.00     0.059 A 
ATOM     72  F   UNL A   1      42.706  22.962  29.955  1.00  0.00    -0.206 F 
ATOM     73  C   UNL A   1      42.297  21.310  26.768  1.00  0.00     0.060 A 
BRANCH  73  74
ATOM     74  S   UNL A   1      42.082  19.646  26.102  1.00  0.00     0.124 S 
ATOM     75  O   UNL A   1      40.671  19.661  25.731  1.00  0.00    -0.237 OA
ATOM     76  O   UNL A   1      43.033  19.628  24.995  1.00  0.00    -0.237 OA
ATOM     77  O   UNL A   1      42.431  18.789  27.232  1.00  0.00    -0.744 OA
ENDBRANCH  73  74
ENDBRANCH  41  66
BRANCH  53  78
ATOM     78  C   UNL A   1      48.081  27.745  29.786  1.00  0.00     0.058 A 
ATOM     79  C   UNL A   1      48.649  27.247  30.968  1.00  0.00     0.135 A 
ATOM     80  C   UNL A   1      48.919  27.917  28.673  1.00  0.00     0.135 A 
ATOM     81  F   UNL A   1      47.890  27.074  32.062  1.00  0.00    -0.206 F 
ATOM     82  C   UNL A   1      50.004  26.948  31.051  1.00  0.00     0.059 A 
ATOM     83  C   UNL A   1      50.272  27.603  28.726  1.00  0.00     0.059 A 
ATOM     84  F   UNL A   1      48.420  28.381  27.517  1.00  0.00    -0.206 F 
ATOM     85  C   UNL A   1      50.808  27.130  29.923  1.00  0.00     0.060 A 
BRANCH  85  86
ATOM     86  S   UNL A   1      52.560  26.709  30.029  1.00  0.00     0.124 S 
ATOM     87  O   UNL A   1      53.152  28.001  30.364  1.00  0.00    -0.237 OA
ATOM     88  O   UNL A   1      52.580  25.708  31.091  1.00  0.00    -0.237 OA
ATOM     89  O   UNL A   1      52.868  26.204  28.695  1.00  0.00    -0.744 OA
ENDBRANCH  85  86
ENDBRANCH  53  78
ENDBRANCH  27  28
ENDBRANCH  20  22
ENDBRANCH  19  20
ENDBRANCH  18  19
ENDBRANCH   1  18
TORSDOF 19
ENDMDL
MODEL 3
REMARK VINA RESULT:      -9.8      6.934     12.170
REMARK SMILES CCCCCC(=O)N1CCC[C@H](C(=O)OCCOC(=O)c2ccc(-c3c4nc(c(-c5c(F)cc(S(=O)(=O)[O-])cc5F)c5ccc([nH]5)c(-c5c(F)cc(S(=O)(=O)[O-])cc5F)c5nc(c(-c6c(F)cc(S(=O)(=O)[O-])cc6F)c6ccc3[nH]6)C=C5)C=C4)cc2)C1
REMARK SMILES IDX 16 1 15 2 13 3 14 4 12 5 8 6 9 7 87 8 10 9 11 10 6 11 7 12
REMARK SMILES IDX 5 13 4 14 3 15 2 16 1 17 17 18 18 19 19 20 20 21 21 22 22 23
REMARK SMILES IDX 86 24 23 25 85 26 24 27 25 28 26 29 79 30 27 31 84 32 78 33
REMARK SMILES IDX 80 34 28 35 83 36 77 37 76 38 29 40 63 41 42 42 62 43 43 44
REMARK SMILES IDX 46 45 61 46 81 47 44 48 45 49 60 51 82 52 47 53 30 54 31 55
REMARK SMILES IDX 40 56 32 57 33 58 39 59 41 60 34 61 35 62 36 63 37 64 38 65
REMARK SMILES IDX 64 66 65 67 74 68 66 69 67 70 73 71 75 72 68 73 69 74 70 75
REMARK SMILES IDX 71 76 72 77 48 78 49 79 58 80 50 81 51 82 57 83 59 84 52 85
REMARK SMILES IDX 53 86 54 87 55 88 56 89
REMARK H PARENT 80 39 46 50
REMARK Flexibility Score: inf
ROOT
ATOM      1  C   UNL A   1      36.606  23.451  26.085  1.00  0.00     0.274 C 
ENDROOT
BRANCH   1   2
ATOM      2  O   UNL A   1      36.039  23.948  24.861  1.00  0.00    -0.462 OA
BRANCH   2   3
ATOM      3  C   UNL A   1      34.694  23.873  24.727  1.00  0.00     0.310 C 
ATOM      4  O   UNL A   1      33.900  23.873  25.661  1.00  0.00    -0.252 OA
BRANCH   3   5
ATOM      5  C   UNL A   1      34.236  23.779  23.277  1.00  0.00     0.119 C 
ATOM      6  N   UNL A   1      32.559  25.556  23.403  1.00  0.00    -0.342 N 
ATOM      7  C   UNL A   1      31.449  24.660  23.101  1.00  0.00     0.119 C 
ATOM      8  C   UNL A   1      33.819  25.169  22.795  1.00  0.00     0.134 C 
ATOM      9  C   UNL A   1      31.751  23.213  23.476  1.00  0.00     0.022 C 
ATOM     10  C   UNL A   1      33.129  22.757  22.989  1.00  0.00     0.019 C 
BRANCH   6  11
ATOM     11  C   UNL A   1      32.514  26.359  24.536  1.00  0.00     0.222 C 
ATOM     12  O   UNL A   1      31.558  26.330  25.314  1.00  0.00    -0.275 OA
BRANCH  11  13
ATOM     13  C   UNL A   1      33.593  27.433  24.667  1.00  0.00     0.100 C 
BRANCH  13  14
ATOM     14  C   UNL A   1      34.103  27.826  26.055  1.00  0.00     0.010 C 
BRANCH  14  15
ATOM     15  C   UNL A   1      33.812  29.242  26.590  1.00  0.00     0.000 C 
BRANCH  15  16
ATOM     16  C   UNL A   1      34.768  29.816  27.642  1.00  0.00    -0.003 C 
ATOM     17  C   UNL A   1      34.655  31.322  27.799  1.00  0.00     0.004 C 
ENDBRANCH  15  16
ENDBRANCH  14  15
ENDBRANCH  13  14
ENDBRANCH  11  13
ENDBRANCH   6  11
ENDBRANCH   3   5
ENDBRANCH   2   3
ENDBRANCH   1   2
BRANCH   1  18
ATOM     18  C   UNL A   1      38.128  23.348  25.971  1.00  0.00     0.275 C 
BRANCH  18  19
ATOM     19  O   UNL A   1      38.758  24.620  26.208  1.00  0.00    -0.458 OA
BRANCH  19  20
ATOM     20  C   UNL A   1      40.020  24.553  26.693  1.00  0.00     0.338 C 
ATOM     21  O   UNL A   1      40.945  23.878  26.275  1.00  0.00    -0.246 OA
BRANCH  20  22
ATOM     22  C   UNL A   1      40.174  25.531  27.775  1.00  0.00     0.060 A 
ATOM     23  C   UNL A   1      39.264  25.500  28.833  1.00  0.00     0.016 A 
ATOM     24  C   UNL A   1      41.140  26.533  27.692  1.00  0.00     0.016 A 
ATOM     25  C   UNL A   1      39.295  26.490  29.809  1.00  0.00     0.010 A 
ATOM     26  C   UNL A   1      41.184  27.516  28.685  1.00  0.00     0.010 A 
ATOM     27  C   UNL A   1      40.252  27.509  29.738  1.00  0.00    -0.014 A 
BRANCH  27  28
ATOM     28  C   UNL A   1      40.243  28.599  30.741  1.00  0.00     0.031 A 
ATOM     29  C   UNL A   1      41.190  28.543  31.904  1.00  0.00     0.074 A 
ATOM     30  C   UNL A   1      39.398  29.637  30.593  1.00  0.00     0.049 A 
ATOM     31  N   UNL A   1      41.246  29.310  32.961  1.00  0.00    -0.248 NA
ATOM     32  C   UNL A   1      42.209  27.480  31.877  1.00  0.00     0.031 C 
ATOM     33  C   UNL A   1      38.472  29.822  29.474  1.00  0.00     0.029 A 
ATOM     34  N   UNL A   1      39.175  30.728  31.394  1.00  0.00    -0.354 N 
ATOM     35  C   UNL A   1      42.287  28.814  33.736  1.00  0.00     0.074 A 
ATOM     36  C   UNL A   1      42.830  27.670  33.034  1.00  0.00     0.031 C 
ATOM     37  C   UNL A   1      37.776  30.955  29.663  1.00  0.00     0.029 A 
ATOM     38  C   UNL A   1      38.167  31.545  30.939  1.00  0.00     0.049 A 
ATOM     39  H   UNL A   1      39.688  30.909  32.215  1.00  0.00     0.167 HD
ATOM     40  C   UNL A   1      42.747  29.275  34.922  1.00  0.00     0.037 A 
ATOM     41  C   UNL A   1      37.597  32.622  31.510  1.00  0.00     0.037 A 
ATOM     42  C   UNL A   1      42.208  30.425  35.601  1.00  0.00     0.049 A 
ATOM     43  C   UNL A   1      38.091  33.082  32.855  1.00  0.00     0.074 A 
ATOM     44  C   UNL A   1      42.586  30.963  36.819  1.00  0.00     0.029 A 
ATOM     45  N   UNL A   1      41.184  31.222  35.113  1.00  0.00    -0.354 N 
ATOM     46  N   UNL A   1      39.047  32.578  33.598  1.00  0.00    -0.248 NA
ATOM     47  C   UNL A   1      37.424  34.252  33.444  1.00  0.00     0.031 C 
ATOM     48  C   UNL A   1      41.773  32.072  37.079  1.00  0.00     0.029 A 
ATOM     49  C   UNL A   1      40.914  32.246  36.005  1.00  0.00     0.049 A 
ATOM     50  H   UNL A   1      40.716  31.080  34.258  1.00  0.00     0.167 HD
ATOM     51  C   UNL A   1      39.110  33.379  34.732  1.00  0.00     0.074 A 
ATOM     52  C   UNL A   1      38.105  34.410  34.570  1.00  0.00     0.031 C 
ATOM     53  C   UNL A   1      39.921  33.270  35.812  1.00  0.00     0.037 A 
BRANCH  40  54
ATOM     54  C   UNL A   1      43.880  28.534  35.572  1.00  0.00     0.058 A 
ATOM     55  C   UNL A   1      45.218  28.890  35.345  1.00  0.00     0.135 A 
ATOM     56  C   UNL A   1      43.623  27.491  36.476  1.00  0.00     0.135 A 
ATOM     57  F   UNL A   1      45.519  29.865  34.473  1.00  0.00    -0.206 F 
ATOM     58  C   UNL A   1      46.263  28.232  35.987  1.00  0.00     0.059 A 
ATOM     59  C   UNL A   1      44.651  26.833  37.145  1.00  0.00     0.059 A 
ATOM     60  F   UNL A   1      42.360  27.107  36.723  1.00  0.00    -0.206 F 
ATOM     61  C   UNL A   1      45.969  27.207  36.887  1.00  0.00     0.060 A 
BRANCH  61  62
ATOM     62  S   UNL A   1      47.335  26.383  37.735  1.00  0.00     0.124 S 
ATOM     63  O   UNL A   1      47.219  26.939  39.080  1.00  0.00    -0.237 OA
ATOM     64  O   UNL A   1      46.981  24.973  37.600  1.00  0.00    -0.237 OA
ATOM     65  O   UNL A   1      48.509  26.807  36.979  1.00  0.00    -0.744 OA
ENDBRANCH  61  62
ENDBRANCH  40  54
BRANCH  41  66
ATOM     66  C   UNL A   1      36.465  33.316  30.838  1.00  0.00     0.058 A 
ATOM     67  C   UNL A   1      36.680  34.155  29.736  1.00  0.00     0.135 A 
ATOM     68  C   UNL A   1      35.149  33.170  31.303  1.00  0.00     0.135 A 
ATOM     69  F   UNL A   1      37.923  34.332  29.260  1.00  0.00    -0.206 F 
ATOM     70  C   UNL A   1      35.634  34.848  29.134  1.00  0.00     0.059 A 
ATOM     71  C   UNL A   1      34.083  33.830  30.701  1.00  0.00     0.059 A 
ATOM     72  F   UNL A   1      34.888  32.366  32.346  1.00  0.00    -0.206 F 
ATOM     73  C   UNL A   1      34.340  34.682  29.628  1.00  0.00     0.060 A 
BRANCH  73  74
ATOM     74  S   UNL A   1      32.983  35.572  28.835  1.00  0.00     0.124 S 
ATOM     75  O   UNL A   1      32.232  36.049  29.991  1.00  0.00    -0.237 OA
ATOM     76  O   UNL A   1      33.688  36.591  28.065  1.00  0.00    -0.237 OA
ATOM     77  O   UNL A   1      32.329  34.537  28.038  1.00  0.00    -0.744 OA
ENDBRANCH  73  74
ENDBRANCH  41  66
BRANCH  53  78
ATOM     78  C   UNL A   1      39.781  34.315  36.882  1.00  0.00     0.058 A 
ATOM     79  C   UNL A   1      39.026  34.085  38.041  1.00  0.00     0.135 A 
ATOM     80  C   UNL A   1      40.447  35.545  36.762  1.00  0.00     0.135 A 
ATOM     81  F   UNL A   1      38.363  32.927  38.197  1.00  0.00    -0.206 F 
ATOM     82  C   UNL A   1      38.917  35.047  39.039  1.00  0.00     0.059 A 
ATOM     83  C   UNL A   1      40.372  36.513  37.757  1.00  0.00     0.059 A 
ATOM     84  F   UNL A   1      41.190  35.808  35.675  1.00  0.00    -0.206 F 
ATOM     85  C   UNL A   1      39.594  36.259  38.886  1.00  0.00     0.060 A 
BRANCH  85  86
ATOM     86  S   UNL A   1      39.475  37.491  40.201  1.00  0.00     0.124 S 
ATOM     87  O   UNL A   1      40.868  37.902  40.344  1.00  0.00    -0.237 OA
ATOM     88  O   UNL A   1      38.577  38.485  39.620  1.00  0.00    -0.237 OA
ATOM     89  O   UNL A   1      38.923  36.737  41.322  1.00  0.00    -0.744 OA
ENDBRANCH  85  86
ENDBRANCH  53  78
ENDBRANCH  27  28
ENDBRANCH  20  22
ENDBRANCH  19  20
ENDBRANCH  18  19
ENDBRANCH   1  18
TORSDOF 19
ENDMDL
