MODEL 1
REMARK VINA RESULT:     -11.2      0.000      0.000
REMARK SMILES COc1cc([C@@H]2[NH2+][C@H](C(=O)OCCOC(=O)c3ccc(-c4c5nc(c(-c6c(F)cc(S(=O)(=O)[O-])cc6F)c6ccc([nH]6)c(-c6c(F)cc(S(=O)(=O)[O-])cc6F)c6nc(c(-c7c(F)cc(S(=O)(=O)[O-])cc7F)c7ccc4[nH]7)C=C6)C=C5)cc3)CS2)ccc1OCc1ccc(Cl)cc1
REMARK SMILES IDX 12 1 11 2 9 3 10 4 8 5 6 6 7 7 84 8 83 11 5 12 3 13 4 14
REMARK SMILES IDX 87 15 86 16 85 17 2 18 1 19 88 20 89 21 90 22 91 23 96 24
REMARK SMILES IDX 92 25 95 26 93 27 94 28 13 29 14 30 15 31 16 32 17 33 18 34
REMARK SMILES IDX 82 35 19 36 81 37 20 38 21 39 22 40 75 41 23 42 80 43 74 44
REMARK SMILES IDX 76 45 24 46 79 47 73 48 72 49 25 51 59 52 38 53 58 54 39 55
REMARK SMILES IDX 42 56 57 57 77 58 40 59 41 60 56 62 78 63 43 64 26 65 27 66
REMARK SMILES IDX 36 67 28 68 29 69 35 70 37 71 30 72 31 73 32 74 33 75 34 76
REMARK SMILES IDX 60 77 61 78 70 79 62 80 63 81 69 82 71 83 64 84 65 85 66 86
REMARK SMILES IDX 67 87 68 88 44 89 45 90 54 91 46 92 47 93 53 94 55 95 48 96
REMARK SMILES IDX 49 97 50 98 51 99 52 100
REMARK H PARENT 7 9 7 10 76 50 42 61
REMARK Flexibility Score: inf
ROOT
ATOM      1  C   UNL A   1      34.288  31.121  27.669  1.00  0.00     0.274 C 
ENDROOT
BRANCH   1   2
ATOM      2  O   UNL A   1      34.334  29.814  27.063  1.00  0.00    -0.458 OA
BRANCH   2   3
ATOM      3  C   UNL A   1      33.198  29.272  26.568  1.00  0.00     0.365 C 
ATOM      4  O   UNL A   1      32.623  28.311  27.067  1.00  0.00    -0.245 OA
BRANCH   3   5
ATOM      5  C   UNL A   1      32.725  29.918  25.252  1.00  0.00     0.304 C 
ATOM      6  C   UNL A   1      32.401  28.632  23.209  1.00  0.00     0.274 C 
ATOM      7  N   UNL A   1      33.359  29.351  24.044  1.00  0.00    -0.319 N 
ATOM      8  S   UNL A   1      30.735  29.168  23.609  1.00  0.00    -0.087 SA
ATOM      9  H   UNL A   1      33.767  30.110  23.500  1.00  0.00     0.348 HD
ATOM     10  H   UNL A   1      34.073  28.687  24.346  1.00  0.00     0.348 HD
ATOM     11  C   UNL A   1      31.206  29.920  25.181  1.00  0.00     0.153 C 
BRANCH   6  12
ATOM     12  C   UNL A   1      32.667  27.143  23.311  1.00  0.00     0.024 A 
ATOM     13  C   UNL A   1      31.894  25.021  24.202  1.00  0.00     0.161 A 
ATOM     14  C   UNL A   1      31.961  26.408  24.277  1.00  0.00     0.061 A 
ATOM     15  C   UNL A   1      32.484  24.343  23.131  1.00  0.00     0.161 A 
ATOM     16  C   UNL A   1      33.239  25.053  22.198  1.00  0.00     0.051 A 
ATOM     17  C   UNL A   1      33.387  26.437  22.334  1.00  0.00     0.015 A 
BRANCH  13  18
ATOM     18  O   UNL A   1      31.159  24.394  25.175  1.00  0.00    -0.493 OA
ATOM     19  C   UNL A   1      31.611  24.737  26.484  1.00  0.00     0.278 C 
ENDBRANCH  13  18
BRANCH  15  20
ATOM     20  O   UNL A   1      32.237  23.009  23.037  1.00  0.00    -0.485 OA
BRANCH  20  21
ATOM     21  C   UNL A   1      33.278  22.086  23.348  1.00  0.00     0.265 C 
BRANCH  21  22
ATOM     22  C   UNL A   1      34.513  22.584  24.092  1.00  0.00    -0.011 A 
ATOM     23  C   UNL A   1      34.446  22.725  25.486  1.00  0.00     0.009 A 
ATOM     24  C   UNL A   1      35.746  22.853  23.474  1.00  0.00     0.009 A 
ATOM     25  C   UNL A   1      35.548  23.177  26.218  1.00  0.00     0.021 A 
ATOM     26  C   UNL A   1      36.840  23.331  24.194  1.00  0.00     0.021 A 
ATOM     27  C   UNL A   1      36.735  23.498  25.565  1.00  0.00     0.041 A 
ATOM     28  Cl  UNL A   1      38.079  24.096  26.455  1.00  0.00    -0.084 Cl
ENDBRANCH  21  22
ENDBRANCH  20  21
ENDBRANCH  15  20
ENDBRANCH   6  12
ENDBRANCH   3   5
ENDBRANCH   2   3
ENDBRANCH   1   2
BRANCH   1  29
ATOM     29  C   UNL A   1      35.212  31.179  28.886  1.00  0.00     0.275 C 
BRANCH  29  30
ATOM     30  O   UNL A   1      35.917  29.937  29.012  1.00  0.00    -0.458 OA
BRANCH  30  31
ATOM     31  C   UNL A   1      36.653  29.813  30.143  1.00  0.00     0.338 C 
ATOM     32  O   UNL A   1      36.265  29.757  31.291  1.00  0.00    -0.246 OA
BRANCH  31  33
ATOM     33  C   UNL A   1      38.043  29.581  29.736  1.00  0.00     0.060 A 
ATOM     34  C   UNL A   1      38.336  29.577  28.371  1.00  0.00     0.016 A 
ATOM     35  C   UNL A   1      39.038  29.372  30.689  1.00  0.00     0.016 A 
ATOM     36  C   UNL A   1      39.640  29.369  27.945  1.00  0.00     0.010 A 
ATOM     37  C   UNL A   1      40.348  29.164  30.261  1.00  0.00     0.010 A 
ATOM     38  C   UNL A   1      40.651  29.155  28.888  1.00  0.00    -0.014 A 
BRANCH  38  39
ATOM     39  C   UNL A   1      42.024  28.856  28.431  1.00  0.00     0.031 A 
ATOM     40  C   UNL A   1      42.368  27.460  28.010  1.00  0.00     0.074 A 
ATOM     41  C   UNL A   1      42.939  29.843  28.390  1.00  0.00     0.049 A 
ATOM     42  N   UNL A   1      43.520  26.970  27.638  1.00  0.00    -0.248 NA
ATOM     43  C   UNL A   1      41.267  26.483  28.012  1.00  0.00     0.031 C 
ATOM     44  C   UNL A   1      42.689  31.240  28.747  1.00  0.00     0.029 A 
ATOM     45  N   UNL A   1      44.261  29.819  28.033  1.00  0.00    -0.354 N 
ATOM     46  C   UNL A   1      43.290  25.624  27.380  1.00  0.00     0.074 A 
ATOM     47  C   UNL A   1      41.895  25.369  27.666  1.00  0.00     0.031 C 
ATOM     48  C   UNL A   1      43.823  31.941  28.588  1.00  0.00     0.029 A 
ATOM     49  C   UNL A   1      44.887  31.036  28.166  1.00  0.00     0.049 A 
ATOM     50  H   UNL A   1      44.720  29.008  27.712  1.00  0.00     0.167 HD
ATOM     51  C   UNL A   1      44.168  24.692  26.939  1.00  0.00     0.037 A 
ATOM     52  C   UNL A   1      46.180  31.370  27.991  1.00  0.00     0.037 A 
ATOM     53  C   UNL A   1      45.553  24.971  26.661  1.00  0.00     0.049 A 
ATOM     54  C   UNL A   1      47.149  30.303  27.555  1.00  0.00     0.074 A 
ATOM     55  C   UNL A   1      46.529  24.109  26.198  1.00  0.00     0.029 A 
ATOM     56  N   UNL A   1      46.160  26.210  26.829  1.00  0.00    -0.354 N 
ATOM     57  N   UNL A   1      46.919  29.036  27.301  1.00  0.00    -0.248 NA
ATOM     58  C   UNL A   1      48.549  30.709  27.382  1.00  0.00     0.031 C 
ATOM     59  C   UNL A   1      47.738  24.811  26.139  1.00  0.00     0.029 A 
ATOM     60  C   UNL A   1      47.503  26.129  26.503  1.00  0.00     0.049 A 
ATOM     61  H   UNL A   1      45.701  27.026  27.135  1.00  0.00     0.167 HD
ATOM     62  C   UNL A   1      48.141  28.498  26.911  1.00  0.00     0.074 A 
ATOM     63  C   UNL A   1      49.102  29.582  26.952  1.00  0.00     0.031 C 
ATOM     64  C   UNL A   1      48.440  27.225  26.549  1.00  0.00     0.037 A 
BRANCH  51  65
ATOM     65  C   UNL A   1      43.662  23.285  26.769  1.00  0.00     0.058 A 
ATOM     66  C   UNL A   1      43.347  22.469  27.868  1.00  0.00     0.135 A 
ATOM     67  C   UNL A   1      43.479  22.746  25.485  1.00  0.00     0.135 A 
ATOM     68  F   UNL A   1      43.519  22.924  29.120  1.00  0.00    -0.206 F 
ATOM     69  C   UNL A   1      42.903  21.161  27.701  1.00  0.00     0.059 A 
ATOM     70  C   UNL A   1      43.007  21.451  25.293  1.00  0.00     0.059 A 
ATOM     71  F   UNL A   1      43.767  23.479  24.398  1.00  0.00    -0.206 F 
ATOM     72  C   UNL A   1      42.737  20.661  26.408  1.00  0.00     0.060 A 
BRANCH  72  73
ATOM     73  S   UNL A   1      42.166  18.959  26.209  1.00  0.00     0.124 S 
ATOM     74  O   UNL A   1      43.145  18.432  25.262  1.00  0.00    -0.237 OA
ATOM     75  O   UNL A   1      42.257  18.438  27.569  1.00  0.00    -0.237 OA
ATOM     76  O   UNL A   1      40.811  19.113  25.688  1.00  0.00    -0.744 OA
ENDBRANCH  72  73
ENDBRANCH  51  65
BRANCH  52  77
ATOM     77  C   UNL A   1      46.623  32.769  28.231  1.00  0.00     0.058 A 
ATOM     78  C   UNL A   1      46.608  33.721  27.202  1.00  0.00     0.135 A 
ATOM     79  C   UNL A   1      47.046  33.190  29.503  1.00  0.00     0.135 A 
ATOM     80  F   UNL A   1      46.220  33.369  25.967  1.00  0.00    -0.206 F 
ATOM     81  C   UNL A   1      47.006  35.037  27.419  1.00  0.00     0.059 A 
ATOM     82  C   UNL A   1      47.422  34.507  29.751  1.00  0.00     0.059 A 
ATOM     83  F   UNL A   1      47.068  32.322  30.526  1.00  0.00    -0.206 F 
ATOM     84  C   UNL A   1      47.405  35.422  28.701  1.00  0.00     0.060 A 
BRANCH  84  85
ATOM     85  S   UNL A   1      47.865  37.146  28.982  1.00  0.00     0.124 S 
ATOM     86  O   UNL A   1      48.925  37.009  29.975  1.00  0.00    -0.237 OA
ATOM     87  O   UNL A   1      48.287  37.570  27.651  1.00  0.00    -0.237 OA
ATOM     88  O   UNL A   1      46.626  37.751  29.462  1.00  0.00    -0.744 OA
ENDBRANCH  84  85
ENDBRANCH  52  77
BRANCH  64  89
ATOM     89  C   UNL A   1      49.857  26.944  26.130  1.00  0.00     0.058 A 
ATOM     90  C   UNL A   1      50.800  26.402  27.016  1.00  0.00     0.135 A 
ATOM     91  C   UNL A   1      50.259  27.169  24.802  1.00  0.00     0.135 A 
ATOM     92  F   UNL A   1      50.470  26.174  28.297  1.00  0.00    -0.206 F 
ATOM     93  C   UNL A   1      52.099  26.116  26.608  1.00  0.00     0.059 A 
ATOM     94  C   UNL A   1      51.543  26.861  24.365  1.00  0.00     0.059 A 
ATOM     95  F   UNL A   1      49.394  27.677  23.910  1.00  0.00    -0.206 F 
ATOM     96  C   UNL A   1      52.460  26.345  25.279  1.00  0.00     0.060 A 
BRANCH  96  97
ATOM     97  S   UNL A   1      54.137  25.936  24.756  1.00  0.00     0.124 S 
ATOM     98  O   UNL A   1      54.094  26.270  23.337  1.00  0.00    -0.237 OA
ATOM     99  O   UNL A   1      54.948  26.816  25.591  1.00  0.00    -0.237 OA
ATOM    100  O   UNL A   1      54.252  24.513  25.062  1.00  0.00    -0.744 OA
ENDBRANCH  96  97
ENDBRANCH  64  89
ENDBRANCH  38  39
ENDBRANCH  31  33
ENDBRANCH  30  31
ENDBRANCH  29  30
ENDBRANCH   1  29
TORSDOF 19
ENDMDL
MODEL 2
REMARK VINA RESULT:     -11.2      1.119      8.284
REMARK SMILES COc1cc([C@@H]2[NH2+][C@H](C(=O)OCCOC(=O)c3ccc(-c4c5nc(c(-c6c(F)cc(S(=O)(=O)[O-])cc6F)c6ccc([nH]6)c(-c6c(F)cc(S(=O)(=O)[O-])cc6F)c6nc(c(-c7c(F)cc(S(=O)(=O)[O-])cc7F)c7ccc4[nH]7)C=C6)C=C5)cc3)CS2)ccc1OCc1ccc(Cl)cc1
REMARK SMILES IDX 12 1 11 2 9 3 10 4 8 5 6 6 7 7 84 8 83 11 5 12 3 13 4 14
REMARK SMILES IDX 87 15 86 16 85 17 2 18 1 19 88 20 89 21 90 22 91 23 96 24
REMARK SMILES IDX 92 25 95 26 93 27 94 28 13 29 14 30 15 31 16 32 17 33 18 34
REMARK SMILES IDX 82 35 19 36 81 37 20 38 21 39 22 40 75 41 23 42 80 43 74 44
REMARK SMILES IDX 76 45 24 46 79 47 73 48 72 49 25 51 59 52 38 53 58 54 39 55
REMARK SMILES IDX 42 56 57 57 77 58 40 59 41 60 56 62 78 63 43 64 26 65 27 66
REMARK SMILES IDX 36 67 28 68 29 69 35 70 37 71 30 72 31 73 32 74 33 75 34 76
REMARK SMILES IDX 60 77 61 78 70 79 62 80 63 81 69 82 71 83 64 84 65 85 66 86
REMARK SMILES IDX 67 87 68 88 44 89 45 90 54 91 46 92 47 93 53 94 55 95 48 96
REMARK SMILES IDX 49 97 50 98 51 99 52 100
REMARK H PARENT 7 9 7 10 76 50 42 61
REMARK Flexibility Score: inf
ROOT
ATOM      1  C   UNL A   1      33.283  29.800  27.055  1.00  0.00     0.274 C 
ENDROOT
BRANCH   1   2
ATOM      2  O   UNL A   1      33.479  29.676  25.632  1.00  0.00    -0.458 OA
BRANCH   2   3
ATOM      3  C   UNL A   1      33.114  28.532  25.010  1.00  0.00     0.365 C 
ATOM      4  O   UNL A   1      33.440  27.412  25.388  1.00  0.00    -0.245 OA
BRANCH   3   5
ATOM      5  C   UNL A   1      32.313  28.759  23.714  1.00  0.00     0.304 C 
ATOM      6  C   UNL A   1      30.677  27.153  22.892  1.00  0.00     0.274 C 
ATOM      7  N   UNL A   1      32.087  27.531  22.926  1.00  0.00    -0.319 N 
ATOM      8  S   UNL A   1      29.663  28.577  23.300  1.00  0.00    -0.087 SA
ATOM      9  H   UNL A   1      32.408  27.689  21.971  1.00  0.00     0.348 HD
ATOM     10  H   UNL A   1      32.605  26.773  23.369  1.00  0.00     0.348 HD
ATOM     11  C   UNL A   1      31.029  29.517  24.015  1.00  0.00     0.153 C 
BRANCH   6  12
ATOM     12  C   UNL A   1      30.469  25.918  23.746  1.00  0.00     0.024 A 
ATOM     13  C   UNL A   1      31.138  23.619  24.149  1.00  0.00     0.161 A 
ATOM     14  C   UNL A   1      30.987  24.698  23.284  1.00  0.00     0.061 A 
ATOM     15  C   UNL A   1      30.825  23.753  25.506  1.00  0.00     0.161 A 
ATOM     16  C   UNL A   1      30.253  24.938  25.967  1.00  0.00     0.051 A 
ATOM     17  C   UNL A   1      30.011  25.986  25.071  1.00  0.00     0.015 A 
BRANCH  13  18
ATOM     18  O   UNL A   1      31.678  22.479  23.612  1.00  0.00    -0.493 OA
ATOM     19  C   UNL A   1      32.881  22.748  22.895  1.00  0.00     0.278 C 
ENDBRANCH  13  18
BRANCH  15  20
ATOM     20  O   UNL A   1      31.152  22.713  26.317  1.00  0.00    -0.485 OA
BRANCH  20  21
ATOM     21  C   UNL A   1      32.299  22.822  27.158  1.00  0.00     0.265 C 
BRANCH  21  22
ATOM     22  C   UNL A   1      33.683  22.591  26.559  1.00  0.00    -0.011 A 
ATOM     23  C   UNL A   1      34.036  21.291  26.167  1.00  0.00     0.009 A 
ATOM     24  C   UNL A   1      34.613  23.614  26.313  1.00  0.00     0.009 A 
ATOM     25  C   UNL A   1      35.291  21.022  25.612  1.00  0.00     0.021 A 
ATOM     26  C   UNL A   1      35.876  23.349  25.787  1.00  0.00     0.021 A 
ATOM     27  C   UNL A   1      36.214  22.050  25.443  1.00  0.00     0.041 A 
ATOM     28  Cl  UNL A   1      37.774  21.718  24.803  1.00  0.00    -0.084 Cl
ENDBRANCH  21  22
ENDBRANCH  20  21
ENDBRANCH  15  20
ENDBRANCH   6  12
ENDBRANCH   3   5
ENDBRANCH   2   3
ENDBRANCH   1   2
BRANCH   1  29
ATOM     29  C   UNL A   1      34.366  30.689  27.668  1.00  0.00     0.275 C 
BRANCH  29  30
ATOM     30  O   UNL A   1      35.366  29.870  28.286  1.00  0.00    -0.458 OA
BRANCH  30  31
ATOM     31  C   UNL A   1      36.184  30.522  29.147  1.00  0.00     0.338 C 
ATOM     32  O   UNL A   1      35.880  31.267  30.055  1.00  0.00    -0.246 OA
BRANCH  31  33
ATOM     33  C   UNL A   1      37.547  30.039  28.906  1.00  0.00     0.060 A 
ATOM     34  C   UNL A   1      38.378  29.837  30.010  1.00  0.00     0.016 A 
ATOM     35  C   UNL A   1      37.995  29.789  27.610  1.00  0.00     0.016 A 
ATOM     36  C   UNL A   1      39.673  29.373  29.824  1.00  0.00     0.010 A 
ATOM     37  C   UNL A   1      39.295  29.323  27.424  1.00  0.00     0.010 A 
ATOM     38  C   UNL A   1      40.139  29.120  28.530  1.00  0.00    -0.014 A 
BRANCH  38  39
ATOM     39  C   UNL A   1      41.542  28.700  28.328  1.00  0.00     0.031 A 
ATOM     40  C   UNL A   1      42.632  29.724  28.422  1.00  0.00     0.074 A 
ATOM     41  C   UNL A   1      41.818  27.408  28.076  1.00  0.00     0.049 A 
ATOM     42  N   UNL A   1      43.915  29.585  28.218  1.00  0.00    -0.248 NA
ATOM     43  C   UNL A   1      42.223  31.089  28.789  1.00  0.00     0.031 C 
ATOM     44  C   UNL A   1      40.827  26.333  28.001  1.00  0.00     0.029 A 
ATOM     45  N   UNL A   1      43.012  26.781  27.834  1.00  0.00    -0.354 N 
ATOM     46  C   UNL A   1      44.465  30.846  28.413  1.00  0.00     0.074 A 
ATOM     47  C   UNL A   1      43.374  31.742  28.722  1.00  0.00     0.031 C 
ATOM     48  C   UNL A   1      41.456  25.177  27.733  1.00  0.00     0.029 A 
ATOM     49  C   UNL A   1      42.883  25.438  27.571  1.00  0.00     0.049 A 
ATOM     50  H   UNL A   1      43.880  27.247  27.847  1.00  0.00     0.167 HD
ATOM     51  C   UNL A   1      45.767  31.213  28.344  1.00  0.00     0.037 A 
ATOM     52  C   UNL A   1      43.812  24.530  27.214  1.00  0.00     0.037 A 
ATOM     53  C   UNL A   1      46.837  30.300  28.034  1.00  0.00     0.049 A 
ATOM     54  C   UNL A   1      45.244  24.976  27.087  1.00  0.00     0.074 A 
ATOM     55  C   UNL A   1      48.192  30.558  27.950  1.00  0.00     0.029 A 
ATOM     56  N   UNL A   1      46.668  28.950  27.750  1.00  0.00    -0.354 N 
ATOM     57  N   UNL A   1      45.757  26.168  27.286  1.00  0.00    -0.248 NA
ATOM     58  C   UNL A   1      46.223  23.957  26.690  1.00  0.00     0.031 C 
ATOM     59  C   UNL A   1      48.837  29.379  27.561  1.00  0.00     0.029 A 
ATOM     60  C   UNL A   1      47.892  28.368  27.465  1.00  0.00     0.049 A 
ATOM     61  H   UNL A   1      45.804  28.477  27.751  1.00  0.00     0.167 HD
ATOM     62  C   UNL A   1      47.124  26.036  27.065  1.00  0.00     0.074 A 
ATOM     63  C   UNL A   1      47.357  24.646  26.729  1.00  0.00     0.031 C 
ATOM     64  C   UNL A   1      48.098  26.978  27.136  1.00  0.00     0.037 A 
BRANCH  51  65
ATOM     65  C   UNL A   1      46.093  32.664  28.571  1.00  0.00     0.058 A 
ATOM     66  C   UNL A   1      46.119  33.595  27.519  1.00  0.00     0.135 A 
ATOM     67  C   UNL A   1      46.375  33.136  29.863  1.00  0.00     0.135 A 
ATOM     68  F   UNL A   1      45.875  33.199  26.258  1.00  0.00    -0.206 F 
ATOM     69  C   UNL A   1      46.445  34.930  27.735  1.00  0.00     0.059 A 
ATOM     70  C   UNL A   1      46.674  34.473  30.107  1.00  0.00     0.059 A 
ATOM     71  F   UNL A   1      46.368  32.291  30.906  1.00  0.00    -0.206 F 
ATOM     72  C   UNL A   1      46.723  35.359  29.034  1.00  0.00     0.060 A 
BRANCH  72  73
ATOM     73  S   UNL A   1      47.151  37.093  29.296  1.00  0.00     0.124 S 
ATOM     74  O   UNL A   1      46.219  37.764  28.395  1.00  0.00    -0.237 OA
ATOM     75  O   UNL A   1      46.890  37.267  30.722  1.00  0.00    -0.237 OA
ATOM     76  O   UNL A   1      48.556  37.160  28.907  1.00  0.00    -0.744 OA
ENDBRANCH  72  73
ENDBRANCH  51  65
BRANCH  52  77
ATOM     77  C   UNL A   1      43.411  23.123  26.950  1.00  0.00     0.058 A 
ATOM     78  C   UNL A   1      43.388  22.608  25.646  1.00  0.00     0.135 A 
ATOM     79  C   UNL A   1      43.067  22.255  27.999  1.00  0.00     0.135 A 
ATOM     80  F   UNL A   1      43.700  23.398  24.606  1.00  0.00    -0.206 F 
ATOM     81  C   UNL A   1      43.028  21.289  25.388  1.00  0.00     0.059 A 
ATOM     82  C   UNL A   1      42.732  20.925  27.769  1.00  0.00     0.059 A 
ATOM     83  F   UNL A   1      43.084  22.693  29.267  1.00  0.00    -0.206 F 
ATOM     84  C   UNL A   1      42.708  20.452  26.459  1.00  0.00     0.060 A 
BRANCH  84  85
ATOM     85  S   UNL A   1      42.298  18.727  26.116  1.00  0.00     0.124 S 
ATOM     86  O   UNL A   1      43.238  18.408  25.047  1.00  0.00    -0.237 OA
ATOM     87  O   UNL A   1      42.556  18.090  27.403  1.00  0.00    -0.237 OA
ATOM     88  O   UNL A   1      40.893  18.786  25.724  1.00  0.00    -0.744 OA
ENDBRANCH  84  85
ENDBRANCH  52  77
BRANCH  64  89
ATOM     89  C   UNL A   1      49.511  26.528  26.884  1.00  0.00     0.058 A 
ATOM     90  C   UNL A   1      50.045  26.447  25.589  1.00  0.00     0.135 A 
ATOM     91  C   UNL A   1      50.360  26.228  27.963  1.00  0.00     0.135 A 
ATOM     92  F   UNL A   1      49.274  26.716  24.523  1.00  0.00    -0.206 F 
ATOM     93  C   UNL A   1      51.363  26.060  25.370  1.00  0.00     0.059 A 
ATOM     94  C   UNL A   1      51.690  25.870  27.769  1.00  0.00     0.059 A 
ATOM     95  F   UNL A   1      49.903  26.299  29.223  1.00  0.00    -0.206 F 
ATOM     96  C   UNL A   1      52.179  25.777  26.467  1.00  0.00     0.060 A 
BRANCH  96  97
ATOM     97  S   UNL A   1      53.896  25.312  26.169  1.00  0.00     0.124 S 
ATOM     98  O   UNL A   1      54.464  25.405  27.509  1.00  0.00    -0.237 OA
ATOM     99  O   UNL A   1      53.765  23.963  25.627  1.00  0.00    -0.237 OA
ATOM    100  O   UNL A   1      54.362  26.319  25.220  1.00  0.00    -0.744 OA
ENDBRANCH  96  97
ENDBRANCH  64  89
ENDBRANCH  38  39
ENDBRANCH  31  33
ENDBRANCH  30  31
ENDBRANCH  29  30
ENDBRANCH   1  29
TORSDOF 19
ENDMDL
MODEL 3
REMARK VINA RESULT:     -11.1      1.447      8.253
REMARK SMILES COc1cc([C@@H]2[NH2+][C@H](C(=O)OCCOC(=O)c3ccc(-c4c5nc(c(-c6c(F)cc(S(=O)(=O)[O-])cc6F)c6ccc([nH]6)c(-c6c(F)cc(S(=O)(=O)[O-])cc6F)c6nc(c(-c7c(F)cc(S(=O)(=O)[O-])cc7F)c7ccc4[nH]7)C=C6)C=C5)cc3)CS2)ccc1OCc1ccc(Cl)cc1
REMARK SMILES IDX 12 1 11 2 9 3 10 4 8 5 6 6 7 7 84 8 83 11 5 12 3 13 4 14
REMARK SMILES IDX 87 15 86 16 85 17 2 18 1 19 88 20 89 21 90 22 91 23 96 24
REMARK SMILES IDX 92 25 95 26 93 27 94 28 13 29 14 30 15 31 16 32 17 33 18 34
REMARK SMILES IDX 82 35 19 36 81 37 20 38 21 39 22 40 75 41 23 42 80 43 74 44
REMARK SMILES IDX 76 45 24 46 79 47 73 48 72 49 25 51 59 52 38 53 58 54 39 55
REMARK SMILES IDX 42 56 57 57 77 58 40 59 41 60 56 62 78 63 43 64 26 65 27 66
REMARK SMILES IDX 36 67 28 68 29 69 35 70 37 71 30 72 31 73 32 74 33 75 34 76
REMARK SMILES IDX 60 77 61 78 70 79 62 80 63 81 69 82 71 83 64 84 65 85 66 86
REMARK SMILES IDX 67 87 68 88 44 89 45 90 54 91 46 92 47 93 53 94 55 95 48 96
REMARK SMILES IDX 49 97 50 98 51 99 52 100
REMARK H PARENT 7 9 7 10 76 50 42 61
REMARK Flexibility Score: inf
ROOT
ATOM      1  C   UNL A   1      33.665  31.675  27.749  1.00  0.00     0.274 C 
ENDROOT
BRANCH   1   2
ATOM      2  O   UNL A   1      33.664  30.246  27.555  1.00  0.00    -0.458 OA
BRANCH   2   3
ATOM      3  C   UNL A   1      32.629  29.667  26.903  1.00  0.00     0.365 C 
ATOM      4  O   UNL A   1      31.891  28.824  27.402  1.00  0.00    -0.245 OA
BRANCH   3   5
ATOM      5  C   UNL A   1      32.507  30.096  25.429  1.00  0.00     0.304 C 
ATOM      6  C   UNL A   1      32.619  28.501  23.592  1.00  0.00     0.274 C 
ATOM      7  N   UNL A   1      33.383  29.341  24.510  1.00  0.00    -0.319 N 
ATOM      8  S   UNL A   1      30.929  29.100  23.494  1.00  0.00    -0.087 SA
ATOM      9  H   UNL A   1      33.938  30.003  23.968  1.00  0.00     0.348 HD
ATOM     10  H   UNL A   1      33.978  28.733  25.072  1.00  0.00     0.348 HD
ATOM     11  C   UNL A   1      31.048  30.091  24.998  1.00  0.00     0.153 C 
BRANCH   6  12
ATOM     12  C   UNL A   1      32.792  27.048  23.982  1.00  0.00     0.024 A 
ATOM     13  C   UNL A   1      31.678  25.017  24.709  1.00  0.00     0.161 A 
ATOM     14  C   UNL A   1      31.728  26.405  24.633  1.00  0.00     0.061 A 
ATOM     15  C   UNL A   1      32.663  24.240  24.091  1.00  0.00     0.161 A 
ATOM     16  C   UNL A   1      33.758  24.864  23.494  1.00  0.00     0.051 A 
ATOM     17  C   UNL A   1      33.853  26.260  23.507  1.00  0.00     0.015 A 
BRANCH  13  18
ATOM     18  O   UNL A   1      30.585  24.480  25.340  1.00  0.00    -0.493 OA
ATOM     19  C   UNL A   1      29.840  25.472  26.044  1.00  0.00     0.278 C 
ENDBRANCH  13  18
BRANCH  15  20
ATOM     20  O   UNL A   1      32.461  22.896  24.066  1.00  0.00    -0.485 OA
BRANCH  20  21
ATOM     21  C   UNL A   1      33.199  22.066  24.960  1.00  0.00     0.265 C 
BRANCH  21  22
ATOM     22  C   UNL A   1      33.436  20.605  24.591  1.00  0.00    -0.011 A 
ATOM     23  C   UNL A   1      32.451  19.930  23.854  1.00  0.00     0.009 A 
ATOM     24  C   UNL A   1      34.614  19.901  24.890  1.00  0.00     0.009 A 
ATOM     25  C   UNL A   1      32.616  18.590  23.489  1.00  0.00     0.021 A 
ATOM     26  C   UNL A   1      34.773  18.558  24.554  1.00  0.00     0.021 A 
ATOM     27  C   UNL A   1      33.769  17.904  23.858  1.00  0.00     0.041 A 
ATOM     28  Cl  UNL A   1      33.957  16.245  23.450  1.00  0.00    -0.084 Cl
ENDBRANCH  21  22
ENDBRANCH  20  21
ENDBRANCH  15  20
ENDBRANCH   6  12
ENDBRANCH   3   5
ENDBRANCH   2   3
ENDBRANCH   1   2
BRANCH   1  29
ATOM     29  C   UNL A   1      34.845  32.093  28.628  1.00  0.00     0.275 C 
BRANCH  29  30
ATOM     30  O   UNL A   1      35.762  30.998  28.752  1.00  0.00    -0.458 OA
BRANCH  30  31
ATOM     31  C   UNL A   1      36.501  31.001  29.887  1.00  0.00     0.338 C 
ATOM     32  O   UNL A   1      36.140  31.242  31.020  1.00  0.00    -0.246 OA
BRANCH  31  33
ATOM     33  C   UNL A   1      37.831  30.485  29.544  1.00  0.00     0.060 A 
ATOM     34  C   UNL A   1      38.767  30.344  30.571  1.00  0.00     0.016 A 
ATOM     35  C   UNL A   1      38.145  30.145  28.229  1.00  0.00     0.016 A 
ATOM     36  C   UNL A   1      40.033  29.852  30.289  1.00  0.00     0.010 A 
ATOM     37  C   UNL A   1      39.417  29.651  27.946  1.00  0.00     0.010 A 
ATOM     38  C   UNL A   1      40.366  29.510  28.974  1.00  0.00    -0.014 A 
BRANCH  38  39
ATOM     39  C   UNL A   1      41.738  29.059  28.662  1.00  0.00     0.031 A 
ATOM     40  C   UNL A   1      42.863  30.049  28.713  1.00  0.00     0.074 A 
ATOM     41  C   UNL A   1      41.959  27.769  28.349  1.00  0.00     0.049 A 
ATOM     42  N   UNL A   1      44.123  29.883  28.416  1.00  0.00    -0.248 NA
ATOM     43  C   UNL A   1      42.519  31.411  29.152  1.00  0.00     0.031 C 
ATOM     44  C   UNL A   1      40.934  26.725  28.307  1.00  0.00     0.029 A 
ATOM     45  N   UNL A   1      43.114  27.119  28.005  1.00  0.00    -0.354 N 
ATOM     46  C   UNL A   1      44.722  31.121  28.614  1.00  0.00     0.074 A 
ATOM     47  C   UNL A   1      43.682  32.035  29.027  1.00  0.00     0.031 C 
ATOM     48  C   UNL A   1      41.509  25.562  27.959  1.00  0.00     0.029 A 
ATOM     49  C   UNL A   1      42.928  25.790  27.707  1.00  0.00     0.049 A 
ATOM     50  H   UNL A   1      43.994  27.561  27.972  1.00  0.00     0.167 HD
ATOM     51  C   UNL A   1      46.027  31.455  28.467  1.00  0.00     0.037 A 
ATOM     52  C   UNL A   1      43.804  24.871  27.256  1.00  0.00     0.037 A 
ATOM     53  C   UNL A   1      47.045  30.524  28.054  1.00  0.00     0.049 A 
ATOM     54  C   UNL A   1      45.236  25.282  27.046  1.00  0.00     0.074 A 
ATOM     55  C   UNL A   1      48.399  30.748  27.885  1.00  0.00     0.029 A 
ATOM     56  N   UNL A   1      46.818  29.191  27.738  1.00  0.00    -0.354 N 
ATOM     57  N   UNL A   1      45.797  26.452  27.248  1.00  0.00    -0.248 NA
ATOM     58  C   UNL A   1      46.156  24.251  26.549  1.00  0.00     0.031 C 
ATOM     59  C   UNL A   1      48.981  29.567  27.413  1.00  0.00     0.029 A 
ATOM     60  C   UNL A   1      48.002  28.586  27.350  1.00  0.00     0.049 A 
ATOM     61  H   UNL A   1      45.943  28.741  27.784  1.00  0.00     0.167 HD
ATOM     62  C   UNL A   1      47.141  26.291  26.928  1.00  0.00     0.074 A 
ATOM     63  C   UNL A   1      47.309  24.907  26.532  1.00  0.00     0.031 C 
ATOM     64  C   UNL A   1      48.145  27.203  26.963  1.00  0.00     0.037 A 
BRANCH  51  65
ATOM     65  C   UNL A   1      46.410  32.888  28.718  1.00  0.00     0.058 A 
ATOM     66  C   UNL A   1      46.403  33.851  27.695  1.00  0.00     0.135 A 
ATOM     67  C   UNL A   1      46.782  33.309  30.005  1.00  0.00     0.135 A 
ATOM     68  F   UNL A   1      46.074  33.503  26.440  1.00  0.00    -0.206 F 
ATOM     69  C   UNL A   1      46.782  35.169  27.932  1.00  0.00     0.059 A 
ATOM     70  C   UNL A   1      47.136  34.628  30.272  1.00  0.00     0.059 A 
ATOM     71  F   UNL A   1      46.810  32.432  31.021  1.00  0.00    -0.206 F 
ATOM     72  C   UNL A   1      47.149  35.547  29.225  1.00  0.00     0.060 A 
BRANCH  72  73
ATOM     73  S   UNL A   1      47.645  37.259  29.514  1.00  0.00     0.124 S 
ATOM     74  O   UNL A   1      48.093  37.662  28.184  1.00  0.00    -0.237 OA
ATOM     75  O   UNL A   1      46.402  37.870  29.976  1.00  0.00    -0.237 OA
ATOM     76  O   UNL A   1      48.695  37.144  30.521  1.00  0.00    -0.744 OA
ENDBRANCH  72  73
ENDBRANCH  51  65
BRANCH  52  77
ATOM     77  C   UNL A   1      43.344  23.485  26.975  1.00  0.00     0.058 A 
ATOM     78  C   UNL A   1      43.269  22.999  25.662  1.00  0.00     0.135 A 
ATOM     79  C   UNL A   1      42.995  22.609  28.015  1.00  0.00     0.135 A 
ATOM     80  F   UNL A   1      43.585  23.798  24.631  1.00  0.00    -0.206 F 
ATOM     81  C   UNL A   1      42.855  21.699  25.388  1.00  0.00     0.059 A 
ATOM     82  C   UNL A   1      42.605  21.296  27.768  1.00  0.00     0.059 A 
ATOM     83  F   UNL A   1      43.060  23.019  29.291  1.00  0.00    -0.206 F 
ATOM     84  C   UNL A   1      42.531  20.852  26.449  1.00  0.00     0.060 A 
BRANCH  84  85
ATOM     85  S   UNL A   1      42.049  19.150  26.083  1.00  0.00     0.124 S 
ATOM     86  O   UNL A   1      40.600  19.273  25.970  1.00  0.00    -0.237 OA
ATOM     87  O   UNL A   1      42.768  18.891  24.840  1.00  0.00    -0.237 OA
ATOM     88  O   UNL A   1      42.530  18.407  27.244  1.00  0.00    -0.744 OA
ENDBRANCH  84  85
ENDBRANCH  52  77
BRANCH  64  89
ATOM     89  C   UNL A   1      49.523  26.724  26.598  1.00  0.00     0.058 A 
ATOM     90  C   UNL A   1      50.393  26.171  27.551  1.00  0.00     0.135 A 
ATOM     91  C   UNL A   1      49.956  26.768  25.262  1.00  0.00     0.135 A 
ATOM     92  F   UNL A   1      50.031  26.112  28.842  1.00  0.00    -0.206 F 
ATOM     93  C   UNL A   1      51.653  25.701  27.196  1.00  0.00     0.059 A 
ATOM     94  C   UNL A   1      51.199  26.274  24.880  1.00  0.00     0.059 A 
ATOM     95  F   UNL A   1      49.159  27.277  24.309  1.00  0.00    -0.206 F 
ATOM     96  C   UNL A   1      52.046  25.754  25.857  1.00  0.00     0.060 A 
BRANCH  96  97
ATOM     97  S   UNL A   1      53.669  25.108  25.407  1.00  0.00     0.124 S 
ATOM     98  O   UNL A   1      53.909  25.775  24.132  1.00  0.00    -0.237 OA
ATOM     99  O   UNL A   1      54.501  25.551  26.521  1.00  0.00    -0.237 OA
ATOM    100  O   UNL A   1      53.453  23.666  25.330  1.00  0.00    -0.744 OA
ENDBRANCH  96  97
ENDBRANCH  64  89
ENDBRANCH  38  39
ENDBRANCH  31  33
ENDBRANCH  30  31
ENDBRANCH  29  30
ENDBRANCH   1  29
TORSDOF 19
ENDMDL
