MODEL 1
REMARK VINA RESULT:     -10.3      0.000      0.000
REMARK SMILES COC(=O)[C@@H]1[C@@H](NC(=O)COCC(=O)OCCOC(=O)c2ccc(-c3c4nc(c(-c5c(F)cc(S(=O)(=O)[O-])cc5F)c5ccc([nH]5)c(-c5c(F)cc(S(=O)(=O)[O-])cc5F)c5nc(c(-c6c(F)cc(S(=O)(=O)[O-])cc6F)c6ccc3[nH]6)C=C5)C=C4)cc2)CCN1C(C)=O
REMARK SMILES IDX 15 1 13 2 14 3 12 4 11 5 10 6 8 7 7 8 9 10 6 11 5 12 89 13
REMARK SMILES IDX 87 14 88 15 3 16 4 17 2 18 1 19 90 20 91 21 92 22 16 23
REMARK SMILES IDX 17 24 18 25 19 26 20 27 21 28 22 29 86 30 23 31 85 32 24 33
REMARK SMILES IDX 25 34 26 35 79 36 27 37 84 38 78 39 80 40 28 41 83 42 77 43
REMARK SMILES IDX 76 44 29 46 63 47 42 48 62 49 43 50 46 51 61 52 81 53 44 54
REMARK SMILES IDX 45 55 60 57 82 58 47 59 30 60 31 61 40 62 32 63 33 64 39 65
REMARK SMILES IDX 41 66 34 67 35 68 36 69 37 70 38 71 64 72 65 73 74 74 66 75
REMARK SMILES IDX 67 76 73 77 75 78 68 79 69 80 70 81 71 82 72 83 48 84 49 85
REMARK SMILES IDX 58 86 50 87 51 88 57 89 59 90 52 91 53 92 54 93 55 94 56 95
REMARK H PARENT 7 9 80 45 46 56
REMARK Flexibility Score: inf
ROOT
ATOM      1  O   UNL A   1      31.158  28.529  25.459  1.00  0.00    -0.460 OA
ENDROOT
BRANCH   1   2
ATOM      2  C   UNL A   1      31.586  27.372  24.892  1.00  0.00     0.332 C 
ATOM      3  O   UNL A   1      31.551  27.122  23.690  1.00  0.00    -0.250 OA
BRANCH   2   4
ATOM      4  C   UNL A   1      32.121  26.361  25.904  1.00  0.00     0.283 C 
BRANCH   4   5
ATOM      5  O   UNL A   1      31.309  25.615  26.795  1.00  0.00    -0.360 OA
BRANCH   5   6
ATOM      6  C   UNL A   1      30.507  24.620  26.193  1.00  0.00     0.260 C 
BRANCH   6   7
ATOM      7  C   UNL A   1      30.472  23.176  26.721  1.00  0.00     0.246 C 
ATOM      8  N   UNL A   1      31.248  22.181  26.228  1.00  0.00    -0.349 N 
ATOM      9  H   UNL A   1      31.190  21.356  26.763  1.00  0.00     0.163 HD
ATOM     10  O   UNL A   1      29.683  22.861  27.614  1.00  0.00    -0.272 OA
BRANCH   8  11
ATOM     11  C   UNL A   1      32.153  22.048  25.089  1.00  0.00     0.118 C 
ATOM     12  C   UNL A   1      33.660  22.132  25.363  1.00  0.00     0.217 C 
ATOM     13  N   UNL A   1      34.195  23.030  24.344  1.00  0.00    -0.327 N 
ATOM     14  C   UNL A   1      31.853  23.021  23.947  1.00  0.00     0.049 C 
ATOM     15  C   UNL A   1      33.148  23.757  23.663  1.00  0.00     0.122 C 
BRANCH  12  16
ATOM     16  C   UNL A   1      34.244  20.717  25.358  1.00  0.00     0.330 C 
ATOM     17  O   UNL A   1      35.434  20.437  25.352  1.00  0.00    -0.250 OA
BRANCH  16  18
ATOM     18  O   UNL A   1      33.213  19.823  25.258  1.00  0.00    -0.467 OA
ATOM     19  C   UNL A   1      33.541  18.554  24.692  1.00  0.00     0.282 C 
ENDBRANCH  16  18
ENDBRANCH  12  16
BRANCH  13  20
ATOM     20  C   UNL A   1      35.524  23.390  24.375  1.00  0.00     0.220 C 
ATOM     21  C   UNL A   1      36.328  23.109  23.130  1.00  0.00     0.114 C 
ATOM     22  O   UNL A   1      36.049  23.880  25.373  1.00  0.00    -0.275 OA
ENDBRANCH  13  20
ENDBRANCH   8  11
ENDBRANCH   6   7
ENDBRANCH   5   6
ENDBRANCH   4   5
ENDBRANCH   2   4
ENDBRANCH   1   2
BRANCH   1  23
ATOM     23  C   UNL A   1      32.145  29.578  25.487  1.00  0.00     0.274 C 
BRANCH  23  24
ATOM     24  C   UNL A   1      32.384  30.069  26.912  1.00  0.00     0.275 C 
BRANCH  24  25
ATOM     25  O   UNL A   1      33.668  29.628  27.388  1.00  0.00    -0.458 OA
BRANCH  25  26
ATOM     26  C   UNL A   1      34.367  30.550  28.095  1.00  0.00     0.338 C 
ATOM     27  O   UNL A   1      33.975  31.650  28.446  1.00  0.00    -0.246 OA
BRANCH  26  28
ATOM     28  C   UNL A   1      35.734  30.056  28.345  1.00  0.00     0.060 A 
ATOM     29  C   UNL A   1      36.133  29.660  29.624  1.00  0.00     0.016 A 
ATOM     30  C   UNL A   1      36.660  30.108  27.302  1.00  0.00     0.016 A 
ATOM     31  C   UNL A   1      37.479  29.390  29.877  1.00  0.00     0.010 A 
ATOM     32  C   UNL A   1      37.989  29.756  27.540  1.00  0.00     0.010 A 
ATOM     33  C   UNL A   1      38.420  29.422  28.835  1.00  0.00    -0.014 A 
BRANCH  33  34
ATOM     34  C   UNL A   1      39.852  29.099  29.075  1.00  0.00     0.031 A 
ATOM     35  C   UNL A   1      40.804  30.157  29.567  1.00  0.00     0.074 A 
ATOM     36  C   UNL A   1      40.313  27.864  28.795  1.00  0.00     0.049 A 
ATOM     37  N   UNL A   1      42.110  30.123  29.642  1.00  0.00    -0.248 NA
ATOM     38  C   UNL A   1      40.210  31.424  30.024  1.00  0.00     0.031 C 
ATOM     39  C   UNL A   1      39.495  26.741  28.330  1.00  0.00     0.029 A 
ATOM     40  N   UNL A   1      41.585  27.352  28.841  1.00  0.00    -0.354 N 
ATOM     41  C   UNL A   1      42.500  31.371  30.112  1.00  0.00     0.074 A 
ATOM     42  C   UNL A   1      41.289  32.142  30.306  1.00  0.00     0.031 C 
ATOM     43  C   UNL A   1      40.284  25.673  28.138  1.00  0.00     0.029 A 
ATOM     44  C   UNL A   1      41.669  26.053  28.398  1.00  0.00     0.049 A 
ATOM     45  H   UNL A   1      42.363  27.865  29.159  1.00  0.00     0.167 HD
ATOM     46  C   UNL A   1      43.751  31.832  30.354  1.00  0.00     0.037 A 
ATOM     47  C   UNL A   1      42.739  25.265  28.179  1.00  0.00     0.037 A 
ATOM     48  C   UNL A   1      44.952  31.051  30.190  1.00  0.00     0.049 A 
ATOM     49  C   UNL A   1      44.117  25.804  28.431  1.00  0.00     0.074 A 
ATOM     50  C   UNL A   1      46.263  31.421  30.439  1.00  0.00     0.029 A 
ATOM     51  N   UNL A   1      44.989  29.739  29.739  1.00  0.00    -0.354 N 
ATOM     52  N   UNL A   1      44.469  26.995  28.851  1.00  0.00    -0.248 NA
ATOM     53  C   UNL A   1      45.241  24.898  28.165  1.00  0.00     0.031 C 
ATOM     54  C   UNL A   1      47.094  30.343  30.113  1.00  0.00     0.029 A 
ATOM     55  C   UNL A   1      46.299  29.290  29.692  1.00  0.00     0.049 A 
ATOM     56  H   UNL A   1      44.200  29.206  29.489  1.00  0.00     0.167 HD
ATOM     57  C   UNL A   1      45.858  26.979  28.909  1.00  0.00     0.074 A 
ATOM     58  C   UNL A   1      46.279  25.656  28.494  1.00  0.00     0.031 C 
ATOM     59  C   UNL A   1      46.705  27.972  29.273  1.00  0.00     0.037 A 
BRANCH  46  60
ATOM     60  C   UNL A   1      43.896  33.260  30.802  1.00  0.00     0.058 A 
ATOM     61  C   UNL A   1      44.016  34.315  29.884  1.00  0.00     0.135 A 
ATOM     62  C   UNL A   1      43.870  33.581  32.169  1.00  0.00     0.135 A 
ATOM     63  F   UNL A   1      44.059  34.062  28.567  1.00  0.00    -0.206 F 
ATOM     64  C   UNL A   1      44.128  35.637  30.306  1.00  0.00     0.059 A 
ATOM     65  C   UNL A   1      43.961  34.897  32.614  1.00  0.00     0.059 A 
ATOM     66  F   UNL A   1      43.755  32.610  33.089  1.00  0.00    -0.206 F 
ATOM     67  C   UNL A   1      44.104  35.918  31.674  1.00  0.00     0.060 A 
BRANCH  67  68
ATOM     68  S   UNL A   1      44.247  37.636  32.210  1.00  0.00     0.124 S 
ATOM     69  O   UNL A   1      43.839  38.351  31.005  1.00  0.00    -0.237 OA
ATOM     70  O   UNL A   1      43.312  37.698  33.329  1.00  0.00    -0.237 OA
ATOM     71  O   UNL A   1      45.657  37.763  32.570  1.00  0.00    -0.744 OA
ENDBRANCH  67  68
ENDBRANCH  46  60
BRANCH  47  72
ATOM     72  C   UNL A   1      42.535  23.887  27.667  1.00  0.00     0.058 A 
ATOM     73  C   UNL A   1      42.457  23.637  26.291  1.00  0.00     0.135 A 
ATOM     74  C   UNL A   1      42.470  22.791  28.541  1.00  0.00     0.135 A 
ATOM     75  F   UNL A   1      42.507  24.657  25.420  1.00  0.00    -0.206 F 
ATOM     76  C   UNL A   1      42.324  22.345  25.794  1.00  0.00     0.059 A 
ATOM     77  C   UNL A   1      42.358  21.488  28.068  1.00  0.00     0.059 A 
ATOM     78  F   UNL A   1      42.555  22.982  29.866  1.00  0.00    -0.206 F 
ATOM     79  C   UNL A   1      42.281  21.276  26.691  1.00  0.00     0.060 A 
BRANCH  79  80
ATOM     80  S   UNL A   1      42.197  19.594  26.038  1.00  0.00     0.124 S 
ATOM     81  O   UNL A   1      42.648  18.813  27.184  1.00  0.00    -0.237 OA
ATOM     82  O   UNL A   1      40.785  19.465  25.694  1.00  0.00    -0.237 OA
ATOM     83  O   UNL A   1      43.110  19.634  24.899  1.00  0.00    -0.744 OA
ENDBRANCH  79  80
ENDBRANCH  47  72
BRANCH  59  84
ATOM     84  C   UNL A   1      48.173  27.656  29.258  1.00  0.00     0.058 A 
ATOM     85  C   UNL A   1      48.826  27.158  30.396  1.00  0.00     0.135 A 
ATOM     86  C   UNL A   1      48.927  27.829  28.087  1.00  0.00     0.135 A 
ATOM     87  F   UNL A   1      48.149  26.985  31.542  1.00  0.00    -0.206 F 
ATOM     88  C   UNL A   1      50.184  26.860  30.379  1.00  0.00     0.059 A 
ATOM     89  C   UNL A   1      50.283  27.521  28.043  1.00  0.00     0.059 A 
ATOM     90  F   UNL A   1      48.346  28.297  26.972  1.00  0.00    -0.206 F 
ATOM     91  C   UNL A   1      50.906  27.048  29.198  1.00  0.00     0.060 A 
BRANCH  91  92
ATOM     92  S   UNL A   1      52.665  26.640  29.177  1.00  0.00     0.124 S 
ATOM     93  O   UNL A   1      53.274  27.966  29.178  1.00  0.00    -0.237 OA
ATOM     94  O   UNL A   1      52.825  25.867  30.405  1.00  0.00    -0.237 OA
ATOM     95  O   UNL A   1      52.819  25.878  27.940  1.00  0.00    -0.744 OA
ENDBRANCH  91  92
ENDBRANCH  59  84
ENDBRANCH  33  34
ENDBRANCH  26  28
ENDBRANCH  25  26
ENDBRANCH  24  25
ENDBRANCH  23  24
ENDBRANCH   1  23
TORSDOF 21
ENDMDL
MODEL 2
REMARK VINA RESULT:      -9.9      2.086      2.806
REMARK SMILES COC(=O)[C@@H]1[C@@H](NC(=O)COCC(=O)OCCOC(=O)c2ccc(-c3c4nc(c(-c5c(F)cc(S(=O)(=O)[O-])cc5F)c5ccc([nH]5)c(-c5c(F)cc(S(=O)(=O)[O-])cc5F)c5nc(c(-c6c(F)cc(S(=O)(=O)[O-])cc6F)c6ccc3[nH]6)C=C5)C=C4)cc2)CCN1C(C)=O
REMARK SMILES IDX 15 1 13 2 14 3 12 4 11 5 10 6 8 7 7 8 9 10 6 11 5 12 89 13
REMARK SMILES IDX 87 14 88 15 3 16 4 17 2 18 1 19 90 20 91 21 92 22 16 23
REMARK SMILES IDX 17 24 18 25 19 26 20 27 21 28 22 29 86 30 23 31 85 32 24 33
REMARK SMILES IDX 25 34 26 35 79 36 27 37 84 38 78 39 80 40 28 41 83 42 77 43
REMARK SMILES IDX 76 44 29 46 63 47 42 48 62 49 43 50 46 51 61 52 81 53 44 54
REMARK SMILES IDX 45 55 60 57 82 58 47 59 30 60 31 61 40 62 32 63 33 64 39 65
REMARK SMILES IDX 41 66 34 67 35 68 36 69 37 70 38 71 64 72 65 73 74 74 66 75
REMARK SMILES IDX 67 76 73 77 75 78 68 79 69 80 70 81 71 82 72 83 48 84 49 85
REMARK SMILES IDX 58 86 50 87 51 88 57 89 59 90 52 91 53 92 54 93 55 94 56 95
REMARK H PARENT 7 9 80 45 46 56
REMARK Flexibility Score: inf
ROOT
ATOM      1  O   UNL A   1      32.994  30.217  27.350  1.00  0.00    -0.460 OA
ENDROOT
BRANCH   1   2
ATOM      2  C   UNL A   1      32.800  29.211  26.458  1.00  0.00     0.332 C 
ATOM      3  O   UNL A   1      33.143  29.240  25.280  1.00  0.00    -0.250 OA
BRANCH   2   4
ATOM      4  C   UNL A   1      32.082  28.001  27.053  1.00  0.00     0.283 C 
BRANCH   4   5
ATOM      5  O   UNL A   1      31.036  27.295  26.408  1.00  0.00    -0.360 OA
BRANCH   5   6
ATOM      6  C   UNL A   1      31.308  25.938  26.125  1.00  0.00     0.260 C 
BRANCH   6   7
ATOM      7  C   UNL A   1      30.235  24.846  26.278  1.00  0.00     0.246 C 
ATOM      8  N   UNL A   1      30.354  23.602  25.754  1.00  0.00    -0.349 N 
ATOM      9  H   UNL A   1      29.639  22.996  26.053  1.00  0.00     0.163 HD
ATOM     10  O   UNL A   1      29.183  25.089  26.872  1.00  0.00    -0.272 OA
BRANCH   8  11
ATOM     11  C   UNL A   1      31.299  22.952  24.849  1.00  0.00     0.118 C 
ATOM     12  C   UNL A   1      32.721  22.703  25.363  1.00  0.00     0.217 C 
ATOM     13  N   UNL A   1      33.610  23.140  24.291  1.00  0.00    -0.327 N 
ATOM     14  C   UNL A   1      31.431  23.648  23.492  1.00  0.00     0.049 C 
ATOM     15  C   UNL A   1      32.910  23.920  23.297  1.00  0.00     0.122 C 
BRANCH  12  16
ATOM     16  C   UNL A   1      32.854  21.231  25.761  1.00  0.00     0.330 C 
ATOM     17  O   UNL A   1      33.702  20.768  26.511  1.00  0.00    -0.250 OA
BRANCH  16  18
ATOM     18  O   UNL A   1      31.930  20.507  25.058  1.00  0.00    -0.467 OA
ATOM     19  C   UNL A   1      32.430  19.785  23.932  1.00  0.00     0.282 C 
ENDBRANCH  16  18
ENDBRANCH  12  16
BRANCH  13  20
ATOM     20  C   UNL A   1      34.974  23.133  24.482  1.00  0.00     0.220 C 
ATOM     21  C   UNL A   1      35.528  24.174  25.422  1.00  0.00     0.114 C 
ATOM     22  O   UNL A   1      35.716  22.351  23.891  1.00  0.00    -0.275 OA
ENDBRANCH  13  20
ENDBRANCH   8  11
ENDBRANCH   6   7
ENDBRANCH   5   6
ENDBRANCH   4   5
ENDBRANCH   2   4
ENDBRANCH   1   2
BRANCH   1  23
ATOM     23  C   UNL A   1      34.313  30.795  27.316  1.00  0.00     0.274 C 
BRANCH  23  24
ATOM     24  C   UNL A   1      34.506  31.792  28.455  1.00  0.00     0.275 C 
BRANCH  24  25
ATOM     25  O   UNL A   1      35.899  31.906  28.795  1.00  0.00    -0.458 OA
BRANCH  25  26
ATOM     26  C   UNL A   1      36.270  31.260  29.927  1.00  0.00     0.338 C 
ATOM     27  O   UNL A   1      35.654  31.220  30.978  1.00  0.00    -0.246 OA
BRANCH  26  28
ATOM     28  C   UNL A   1      37.591  30.634  29.735  1.00  0.00     0.060 A 
ATOM     29  C   UNL A   1      38.443  30.405  30.818  1.00  0.00     0.016 A 
ATOM     30  C   UNL A   1      38.025  30.386  28.432  1.00  0.00     0.016 A 
ATOM     31  C   UNL A   1      39.760  30.002  30.591  1.00  0.00     0.010 A 
ATOM     32  C   UNL A   1      39.316  29.901  28.215  1.00  0.00     0.010 A 
ATOM     33  C   UNL A   1      40.208  29.733  29.287  1.00  0.00    -0.014 A 
BRANCH  33  34
ATOM     34  C   UNL A   1      41.594  29.262  29.026  1.00  0.00     0.031 A 
ATOM     35  C   UNL A   1      42.748  30.230  29.052  1.00  0.00     0.074 A 
ATOM     36  C   UNL A   1      41.812  27.972  28.708  1.00  0.00     0.049 A 
ATOM     37  N   UNL A   1      43.984  30.053  28.658  1.00  0.00    -0.248 NA
ATOM     38  C   UNL A   1      42.474  31.576  29.580  1.00  0.00     0.031 C 
ATOM     39  C   UNL A   1      40.787  26.926  28.666  1.00  0.00     0.029 A 
ATOM     40  N   UNL A   1      42.964  27.323  28.340  1.00  0.00    -0.354 N 
ATOM     41  C   UNL A   1      44.624  31.271  28.847  1.00  0.00     0.074 A 
ATOM     42  C   UNL A   1      43.640  32.182  29.394  1.00  0.00     0.031 C 
ATOM     43  C   UNL A   1      41.355  25.768  28.297  1.00  0.00     0.029 A 
ATOM     44  C   UNL A   1      42.767  26.002  28.011  1.00  0.00     0.049 A 
ATOM     45  H   UNL A   1      43.846  27.760  28.313  1.00  0.00     0.167 HD
ATOM     46  C   UNL A   1      45.913  31.600  28.586  1.00  0.00     0.037 A 
ATOM     47  C   UNL A   1      43.611  25.089  27.494  1.00  0.00     0.037 A 
ATOM     48  C   UNL A   1      46.898  30.681  28.072  1.00  0.00     0.049 A 
ATOM     49  C   UNL A   1      45.027  25.481  27.188  1.00  0.00     0.074 A 
ATOM     50  C   UNL A   1      48.237  30.914  27.802  1.00  0.00     0.029 A 
ATOM     51  N   UNL A   1      46.654  29.353  27.752  1.00  0.00    -0.354 N 
ATOM     52  N   UNL A   1      45.611  26.644  27.350  1.00  0.00    -0.248 NA
ATOM     53  C   UNL A   1      45.894  24.443  26.618  1.00  0.00     0.031 C 
ATOM     54  C   UNL A   1      48.795  29.734  27.295  1.00  0.00     0.029 A 
ATOM     55  C   UNL A   1      47.813  28.758  27.279  1.00  0.00     0.049 A 
ATOM     56  H   UNL A   1      45.786  28.900  27.848  1.00  0.00     0.167 HD
ATOM     57  C   UNL A   1      46.918  26.476  26.909  1.00  0.00     0.074 A 
ATOM     58  C   UNL A   1      47.042  25.095  26.487  1.00  0.00     0.031 C 
ATOM     59  C   UNL A   1      47.922  27.384  26.858  1.00  0.00     0.037 A 
BRANCH  46  60
ATOM     60  C   UNL A   1      46.335  33.023  28.827  1.00  0.00     0.058 A 
ATOM     61  C   UNL A   1      46.210  34.009  27.837  1.00  0.00     0.135 A 
ATOM     62  C   UNL A   1      46.830  33.412  30.082  1.00  0.00     0.135 A 
ATOM     63  F   UNL A   1      45.754  33.687  26.616  1.00  0.00    -0.206 F 
ATOM     64  C   UNL A   1      46.582  35.329  28.075  1.00  0.00     0.059 A 
ATOM     65  C   UNL A   1      47.191  34.731  30.349  1.00  0.00     0.059 A 
ATOM     66  F   UNL A   1      46.968  32.509  31.065  1.00  0.00    -0.206 F 
ATOM     67  C   UNL A   1      47.076  35.680  29.334  1.00  0.00     0.060 A 
BRANCH  67  68
ATOM     68  S   UNL A   1      47.554  37.395  29.632  1.00  0.00     0.124 S 
ATOM     69  O   UNL A   1      46.260  38.070  29.583  1.00  0.00    -0.237 OA
ATOM     70  O   UNL A   1      48.180  37.325  30.948  1.00  0.00    -0.237 OA
ATOM     71  O   UNL A   1      48.460  37.693  28.526  1.00  0.00    -0.744 OA
ENDBRANCH  67  68
ENDBRANCH  46  60
BRANCH  47  72
ATOM     72  C   UNL A   1      43.116  23.719  27.209  1.00  0.00     0.058 A 
ATOM     73  C   UNL A   1      42.773  23.336  25.906  1.00  0.00     0.135 A 
ATOM     74  C   UNL A   1      43.029  22.754  28.224  1.00  0.00     0.135 A 
ATOM     75  F   UNL A   1      42.833  24.229  24.907  1.00  0.00    -0.206 F 
ATOM     76  C   UNL A   1      42.362  22.040  25.615  1.00  0.00     0.059 A 
ATOM     77  C   UNL A   1      42.641  21.446  27.954  1.00  0.00     0.059 A 
ATOM     78  F   UNL A   1      43.361  23.072  29.485  1.00  0.00    -0.206 F 
ATOM     79  C   UNL A   1      42.305  21.100  26.646  1.00  0.00     0.060 A 
BRANCH  79  80
ATOM     80  S   UNL A   1      41.856  19.397  26.248  1.00  0.00     0.124 S 
ATOM     81  O   UNL A   1      40.409  19.505  26.092  1.00  0.00    -0.237 OA
ATOM     82  O   UNL A   1      42.613  19.153  25.024  1.00  0.00    -0.237 OA
ATOM     83  O   UNL A   1      42.313  18.651  27.416  1.00  0.00    -0.744 OA
ENDBRANCH  79  80
ENDBRANCH  47  72
BRANCH  59  84
ATOM     84  C   UNL A   1      49.250  26.905  26.348  1.00  0.00     0.058 A 
ATOM     85  C   UNL A   1      49.605  27.032  24.996  1.00  0.00     0.135 A 
ATOM     86  C   UNL A   1      50.187  26.337  27.225  1.00  0.00     0.135 A 
ATOM     87  F   UNL A   1      48.738  27.560  24.117  1.00  0.00    -0.206 F 
ATOM     88  C   UNL A   1      50.838  26.593  24.526  1.00  0.00     0.059 A 
ATOM     89  C   UNL A   1      51.433  25.908  26.780  1.00  0.00     0.059 A 
ATOM     90  F   UNL A   1      49.897  26.200  28.528  1.00  0.00    -0.206 F 
ATOM     91  C   UNL A   1      51.745  26.029  25.426  1.00  0.00     0.060 A 
BRANCH  91  92
ATOM     92  S   UNL A   1      53.353  25.479  24.813  1.00  0.00     0.124 S 
ATOM     93  O   UNL A   1      54.264  26.304  25.599  1.00  0.00    -0.237 OA
ATOM     94  O   UNL A   1      53.345  24.056  25.136  1.00  0.00    -0.237 OA
ATOM     95  O   UNL A   1      53.293  25.791  23.388  1.00  0.00    -0.744 OA
ENDBRANCH  91  92
ENDBRANCH  59  84
ENDBRANCH  33  34
ENDBRANCH  26  28
ENDBRANCH  25  26
ENDBRANCH  24  25
ENDBRANCH  23  24
ENDBRANCH   1  23
TORSDOF 21
ENDMDL
MODEL 3
REMARK VINA RESULT:      -9.9      2.261      3.219
REMARK SMILES COC(=O)[C@@H]1[C@@H](NC(=O)COCC(=O)OCCOC(=O)c2ccc(-c3c4nc(c(-c5c(F)cc(S(=O)(=O)[O-])cc5F)c5ccc([nH]5)c(-c5c(F)cc(S(=O)(=O)[O-])cc5F)c5nc(c(-c6c(F)cc(S(=O)(=O)[O-])cc6F)c6ccc3[nH]6)C=C5)C=C4)cc2)CCN1C(C)=O
REMARK SMILES IDX 15 1 13 2 14 3 12 4 11 5 10 6 8 7 7 8 9 10 6 11 5 12 89 13
REMARK SMILES IDX 87 14 88 15 3 16 4 17 2 18 1 19 90 20 91 21 92 22 16 23
REMARK SMILES IDX 17 24 18 25 19 26 20 27 21 28 22 29 86 30 23 31 85 32 24 33
REMARK SMILES IDX 25 34 26 35 79 36 27 37 84 38 78 39 80 40 28 41 83 42 77 43
REMARK SMILES IDX 76 44 29 46 63 47 42 48 62 49 43 50 46 51 61 52 81 53 44 54
REMARK SMILES IDX 45 55 60 57 82 58 47 59 30 60 31 61 40 62 32 63 33 64 39 65
REMARK SMILES IDX 41 66 34 67 35 68 36 69 37 70 38 71 64 72 65 73 74 74 66 75
REMARK SMILES IDX 67 76 73 77 75 78 68 79 69 80 70 81 71 82 72 83 48 84 49 85
REMARK SMILES IDX 58 86 50 87 51 88 57 89 59 90 52 91 53 92 54 93 55 94 56 95
REMARK H PARENT 7 9 80 45 46 56
REMARK Flexibility Score: inf
ROOT
ATOM      1  O   UNL A   1      33.059  30.125  25.774  1.00  0.00    -0.460 OA
ENDROOT
BRANCH   1   2
ATOM      2  C   UNL A   1      32.475  29.318  24.850  1.00  0.00     0.332 C 
ATOM      3  O   UNL A   1      31.268  29.244  24.644  1.00  0.00    -0.250 OA
BRANCH   2   4
ATOM      4  C   UNL A   1      33.475  28.466  24.070  1.00  0.00     0.283 C 
BRANCH   4   5
ATOM      5  O   UNL A   1      33.137  27.283  23.364  1.00  0.00    -0.360 OA
BRANCH   5   6
ATOM      6  C   UNL A   1      33.401  26.076  24.048  1.00  0.00     0.260 C 
BRANCH   6   7
ATOM      7  C   UNL A   1      32.395  25.469  25.041  1.00  0.00     0.246 C 
ATOM      8  N   UNL A   1      32.664  24.385  25.809  1.00  0.00    -0.349 N 
ATOM      9  H   UNL A   1      31.960  24.209  26.475  1.00  0.00     0.163 HD
ATOM     10  O   UNL A   1      31.263  25.944  25.147  1.00  0.00    -0.272 OA
BRANCH   8  11
ATOM     11  C   UNL A   1      33.756  23.417  25.878  1.00  0.00     0.118 C 
ATOM     12  C   UNL A   1      33.822  22.339  24.789  1.00  0.00     0.217 C 
ATOM     13  N   UNL A   1      34.061  21.083  25.492  1.00  0.00    -0.327 N 
ATOM     14  C   UNL A   1      33.856  22.696  27.224  1.00  0.00     0.049 C 
ATOM     15  C   UNL A   1      33.839  21.211  26.914  1.00  0.00     0.122 C 
BRANCH  12  16
ATOM     16  C   UNL A   1      34.895  22.731  23.770  1.00  0.00     0.330 C 
ATOM     17  O   UNL A   1      36.102  22.714  23.963  1.00  0.00    -0.250 OA
BRANCH  16  18
ATOM     18  O   UNL A   1      34.273  23.200  22.644  1.00  0.00    -0.467 OA
ATOM     19  C   UNL A   1      32.987  22.646  22.366  1.00  0.00     0.282 C 
ENDBRANCH  16  18
ENDBRANCH  12  16
BRANCH  13  20
ATOM     20  C   UNL A   1      34.078  19.896  24.793  1.00  0.00     0.220 C 
ATOM     21  C   UNL A   1      32.756  19.414  24.251  1.00  0.00     0.114 C 
ATOM     22  O   UNL A   1      35.104  19.234  24.647  1.00  0.00    -0.275 OA
ENDBRANCH  13  20
ENDBRANCH   8  11
ENDBRANCH   6   7
ENDBRANCH   5   6
ENDBRANCH   4   5
ENDBRANCH   2   4
ENDBRANCH   1   2
BRANCH   1  23
ATOM     23  C   UNL A   1      33.831  29.427  26.770  1.00  0.00     0.274 C 
BRANCH  23  24
ATOM     24  C   UNL A   1      34.212  30.355  27.920  1.00  0.00     0.275 C 
BRANCH  24  25
ATOM     25  O   UNL A   1      35.590  30.751  27.813  1.00  0.00    -0.458 OA
BRANCH  25  26
ATOM     26  C   UNL A   1      36.262  30.822  28.988  1.00  0.00     0.338 C 
ATOM     27  O   UNL A   1      35.807  31.161  30.068  1.00  0.00    -0.246 OA
BRANCH  26  28
ATOM     28  C   UNL A   1      37.680  30.479  28.775  1.00  0.00     0.060 A 
ATOM     29  C   UNL A   1      38.120  29.967  27.552  1.00  0.00     0.016 A 
ATOM     30  C   UNL A   1      38.553  30.561  29.860  1.00  0.00     0.016 A 
ATOM     31  C   UNL A   1      39.417  29.462  27.439  1.00  0.00     0.010 A 
ATOM     32  C   UNL A   1      39.874  30.133  29.718  1.00  0.00     0.010 A 
ATOM     33  C   UNL A   1      40.313  29.552  28.516  1.00  0.00    -0.014 A 
BRANCH  33  34
ATOM     34  C   UNL A   1      41.711  29.058  28.404  1.00  0.00     0.031 A 
ATOM     35  C   UNL A   1      42.870  30.017  28.486  1.00  0.00     0.074 A 
ATOM     36  C   UNL A   1      41.941  27.752  28.171  1.00  0.00     0.049 A 
ATOM     37  N   UNL A   1      44.134  29.811  28.215  1.00  0.00    -0.248 NA
ATOM     38  C   UNL A   1      42.566  31.390  28.921  1.00  0.00     0.031 C 
ATOM     39  C   UNL A   1      40.911  26.713  28.087  1.00  0.00     0.029 A 
ATOM     40  N   UNL A   1      43.113  27.076  27.940  1.00  0.00    -0.354 N 
ATOM     41  C   UNL A   1      44.770  31.032  28.401  1.00  0.00     0.074 A 
ATOM     42  C   UNL A   1      43.751  31.977  28.811  1.00  0.00     0.031 C 
ATOM     43  C   UNL A   1      41.496  25.533  27.829  1.00  0.00     0.029 A 
ATOM     44  C   UNL A   1      42.931  25.742  27.660  1.00  0.00     0.049 A 
ATOM     45  H   UNL A   1      43.999  27.505  27.971  1.00  0.00     0.167 HD
ATOM     46  C   UNL A   1      46.081  31.337  28.240  1.00  0.00     0.037 A 
ATOM     47  C   UNL A   1      43.806  24.798  27.266  1.00  0.00     0.037 A 
ATOM     48  C   UNL A   1      47.097  30.387  27.862  1.00  0.00     0.049 A 
ATOM     49  C   UNL A   1      45.248  25.164  27.070  1.00  0.00     0.074 A 
ATOM     50  C   UNL A   1      48.457  30.595  27.704  1.00  0.00     0.029 A 
ATOM     51  N   UNL A   1      46.866  29.046  27.588  1.00  0.00    -0.354 N 
ATOM     52  N   UNL A   1      45.830  26.329  27.227  1.00  0.00    -0.248 NA
ATOM     53  C   UNL A   1      46.151  24.092  26.631  1.00  0.00     0.031 C 
ATOM     54  C   UNL A   1      49.044  29.388  27.307  1.00  0.00     0.029 A 
ATOM     55  C   UNL A   1      48.055  28.419  27.250  1.00  0.00     0.049 A 
ATOM     56  H   UNL A   1      45.987  28.605  27.627  1.00  0.00     0.167 HD
ATOM     57  C   UNL A   1      47.169  26.128  26.913  1.00  0.00     0.074 A 
ATOM     58  C   UNL A   1      47.314  24.727  26.573  1.00  0.00     0.031 C 
ATOM     59  C   UNL A   1      48.185  27.025  26.909  1.00  0.00     0.037 A 
BRANCH  46  60
ATOM     60  C   UNL A   1      46.496  32.767  28.448  1.00  0.00     0.058 A 
ATOM     61  C   UNL A   1      46.830  33.264  29.717  1.00  0.00     0.135 A 
ATOM     62  C   UNL A   1      46.602  33.641  27.353  1.00  0.00     0.135 A 
ATOM     63  F   UNL A   1      46.733  32.475  30.798  1.00  0.00    -0.206 F 
ATOM     64  C   UNL A   1      47.234  34.584  29.898  1.00  0.00     0.059 A 
ATOM     65  C   UNL A   1      47.023  34.960  27.508  1.00  0.00     0.059 A 
ATOM     66  F   UNL A   1      46.296  33.217  26.117  1.00  0.00    -0.206 F 
ATOM     67  C   UNL A   1      47.323  35.426  28.787  1.00  0.00     0.060 A 
BRANCH  67  68
ATOM     68  S   UNL A   1      47.851  37.135  29.033  1.00  0.00     0.124 S 
ATOM     69  O   UNL A   1      46.918  37.854  28.171  1.00  0.00    -0.237 OA
ATOM     70  O   UNL A   1      47.658  37.322  30.468  1.00  0.00    -0.237 OA
ATOM     71  O   UNL A   1      49.242  37.128  28.588  1.00  0.00    -0.744 OA
ENDBRANCH  67  68
ENDBRANCH  46  60
BRANCH  47  72
ATOM     72  C   UNL A   1      43.322  23.420  27.006  1.00  0.00     0.058 A 
ATOM     73  C   UNL A   1      43.186  22.942  25.695  1.00  0.00     0.135 A 
ATOM     74  C   UNL A   1      43.038  22.539  28.061  1.00  0.00     0.135 A 
ATOM     75  F   UNL A   1      43.439  23.752  24.656  1.00  0.00    -0.206 F 
ATOM     76  C   UNL A   1      42.788  21.635  25.437  1.00  0.00     0.059 A 
ATOM     77  C   UNL A   1      42.660  21.221  27.828  1.00  0.00     0.059 A 
ATOM     78  F   UNL A   1      43.168  22.949  29.332  1.00  0.00    -0.206 F 
ATOM     79  C   UNL A   1      42.533  20.780  26.511  1.00  0.00     0.060 A 
BRANCH  79  80
ATOM     80  S   UNL A   1      42.102  19.059  26.171  1.00  0.00     0.124 S 
ATOM     81  O   UNL A   1      42.383  18.429  27.456  1.00  0.00    -0.237 OA
ATOM     82  O   UNL A   1      40.694  19.158  25.803  1.00  0.00    -0.237 OA
ATOM     83  O   UNL A   1      43.003  18.701  25.079  1.00  0.00    -0.744 OA
ENDBRANCH  79  80
ENDBRANCH  47  72
BRANCH  59  84
ATOM     84  C   UNL A   1      49.547  26.511  26.544  1.00  0.00     0.058 A 
ATOM     85  C   UNL A   1      50.418  25.991  27.514  1.00  0.00     0.135 A 
ATOM     86  C   UNL A   1      49.974  26.513  25.207  1.00  0.00     0.135 A 
ATOM     87  F   UNL A   1      50.057  25.977  28.807  1.00  0.00    -0.206 F 
ATOM     88  C   UNL A   1      51.677  25.510  27.174  1.00  0.00     0.059 A 
ATOM     89  C   UNL A   1      51.223  26.020  24.842  1.00  0.00     0.059 A 
ATOM     90  F   UNL A   1      49.175  26.995  24.243  1.00  0.00    -0.206 F 
ATOM     91  C   UNL A   1      52.073  25.532  25.834  1.00  0.00     0.060 A 
BRANCH  91  92
ATOM     92  S   UNL A   1      53.702  24.886  25.396  1.00  0.00     0.124 S 
ATOM     93  O   UNL A   1      54.060  25.736  24.266  1.00  0.00    -0.237 OA
ATOM     94  O   UNL A   1      54.467  25.101  26.620  1.00  0.00    -0.237 OA
ATOM     95  O   UNL A   1      53.432  23.488  25.070  1.00  0.00    -0.744 OA
ENDBRANCH  91  92
ENDBRANCH  59  84
ENDBRANCH  33  34
ENDBRANCH  26  28
ENDBRANCH  25  26
ENDBRANCH  24  25
ENDBRANCH  23  24
ENDBRANCH   1  23
TORSDOF 21
ENDMDL
