MODEL 1
REMARK VINA RESULT:     -13.4      0.000      0.000
REMARK SMILES O=C(OCCOC(=O)c1ccc([C@@H]2CC(O)=Nc3c2ncn3-c2cccc(Cl)c2)cc1)c1ccc(-c2c3nc(c(-c4c(F)cc(S(=O)(=O)[O-])cc4F)c4ccc([nH]4)c(-c4c(F)cc(S(=O)(=O)[O-])cc4F)c4nc(c(-c5c(F)cc(S(=O)(=O)[O-])cc5F)c5ccc2[nH]5)C=C4)C=C3)cc1
REMARK SMILES IDX 4 1 3 2 2 3 1 4 32 5 33 6 97 7 34 8 96 9 35 10 36 11 37 12
REMARK SMILES IDX 90 13 38 14 95 15 89 16 91 17 39 18 94 19 88 20 87 21 40 23
REMARK SMILES IDX 74 24 53 25 73 26 54 27 57 28 72 29 92 30 55 31 56 32 71 34
REMARK SMILES IDX 93 35 58 36 41 37 42 38 51 39 43 40 44 41 50 42 52 43 45 44
REMARK SMILES IDX 46 45 47 46 48 47 49 48 75 49 76 50 85 51 77 52 78 53 84 54
REMARK SMILES IDX 86 55 79 56 80 57 81 58 82 59 83 60 59 61 60 62 69 63 61 64
REMARK SMILES IDX 62 65 68 66 70 67 63 68 64 69 65 70 66 71 67 72 5 73 6 74
REMARK SMILES IDX 7 75 8 76 9 77 10 78 31 79 11 80 30 81 12 82 13 83 14 84
REMARK SMILES IDX 19 85 15 86 18 87 20 88 17 89 22 90 21 91 16 92 23 94 24 95
REMARK SMILES IDX 29 96 25 97 27 98 26 99 28 100
REMARK H PARENT 91 22 57 33 16 93
REMARK Flexibility Score: inf
ROOT
ATOM      1  C   UNL A   1      32.482  30.552  26.830  1.00  0.00     0.275 C 
ENDROOT
BRANCH   1   2
ATOM      2  O   UNL A   1      33.615  30.330  27.693  1.00  0.00    -0.458 OA
BRANCH   2   3
ATOM      3  C   UNL A   1      34.415  31.368  28.022  1.00  0.00     0.338 C 
ATOM      4  O   UNL A   1      34.001  32.487  28.286  1.00  0.00    -0.246 OA
BRANCH   3   5
ATOM      5  C   UNL A   1      35.801  30.947  28.332  1.00  0.00     0.060 A 
ATOM      6  C   UNL A   1      36.755  31.811  28.879  1.00  0.00     0.016 A 
ATOM      7  C   UNL A   1      36.134  29.612  28.074  1.00  0.00     0.016 A 
ATOM      8  C   UNL A   1      38.056  31.370  29.080  1.00  0.00     0.010 A 
ATOM      9  C   UNL A   1      37.428  29.164  28.301  1.00  0.00     0.010 A 
ATOM     10  C   UNL A   1      38.401  30.056  28.759  1.00  0.00    -0.014 A 
BRANCH  10  11
ATOM     11  C   UNL A   1      39.772  29.615  29.010  1.00  0.00     0.031 A 
ATOM     12  C   UNL A   1      40.151  29.400  30.445  1.00  0.00     0.074 A 
ATOM     13  C   UNL A   1      40.597  29.202  28.027  1.00  0.00     0.049 A 
ATOM     14  N   UNL A   1      41.136  29.905  31.119  1.00  0.00    -0.248 NA
ATOM     15  C   UNL A   1      39.271  28.531  31.239  1.00  0.00     0.031 C 
ATOM     16  C   UNL A   1      40.308  29.008  26.604  1.00  0.00     0.029 A 
ATOM     17  N   UNL A   1      41.869  28.736  28.142  1.00  0.00    -0.354 N 
ATOM     18  C   UNL A   1      41.102  29.297  32.378  1.00  0.00     0.074 A 
ATOM     19  C   UNL A   1      39.883  28.535  32.422  1.00  0.00     0.031 C 
ATOM     20  C   UNL A   1      41.277  28.241  26.055  1.00  0.00     0.029 A 
ATOM     21  C   UNL A   1      42.319  28.022  27.043  1.00  0.00     0.049 A 
ATOM     22  H   UNL A   1      42.424  28.893  28.940  1.00  0.00     0.167 HD
ATOM     23  C   UNL A   1      42.142  29.340  33.260  1.00  0.00     0.037 A 
ATOM     24  C   UNL A   1      43.432  27.247  26.990  1.00  0.00     0.037 A 
ATOM     25  C   UNL A   1      43.071  30.391  32.945  1.00  0.00     0.049 A 
ATOM     26  C   UNL A   1      44.317  27.671  28.108  1.00  0.00     0.074 A 
ATOM     27  C   UNL A   1      42.968  31.766  32.830  1.00  0.00     0.029 A 
ATOM     28  N   UNL A   1      44.252  30.069  32.321  1.00  0.00    -0.354 N 
ATOM     29  N   UNL A   1      44.890  28.843  28.182  1.00  0.00    -0.248 NA
ATOM     30  C   UNL A   1      44.194  26.956  29.371  1.00  0.00     0.031 C 
ATOM     31  C   UNL A   1      43.758  32.092  31.688  1.00  0.00     0.029 A 
ATOM     32  C   UNL A   1      44.334  30.904  31.234  1.00  0.00     0.049 A 
ATOM     33  H   UNL A   1      44.902  29.382  32.595  1.00  0.00     0.167 HD
ATOM     34  C   UNL A   1      44.831  29.188  29.524  1.00  0.00     0.074 A 
ATOM     35  C   UNL A   1      44.455  27.956  30.216  1.00  0.00     0.031 C 
ATOM     36  C   UNL A   1      44.823  30.490  29.939  1.00  0.00     0.037 A 
BRANCH  23  37
ATOM     37  C   UNL A   1      42.453  28.259  34.271  1.00  0.00     0.058 A 
ATOM     38  C   UNL A   1      42.452  28.551  35.652  1.00  0.00     0.135 A 
ATOM     39  C   UNL A   1      43.009  27.009  33.917  1.00  0.00     0.135 A 
ATOM     40  F   UNL A   1      41.968  29.718  36.104  1.00  0.00    -0.206 F 
ATOM     41  C   UNL A   1      43.005  27.688  36.601  1.00  0.00     0.059 A 
ATOM     42  C   UNL A   1      43.515  26.111  34.851  1.00  0.00     0.059 A 
ATOM     43  F   UNL A   1      43.176  26.646  32.638  1.00  0.00    -0.206 F 
ATOM     44  C   UNL A   1      43.548  26.476  36.188  1.00  0.00     0.060 A 
BRANCH  44  45
ATOM     45  S   UNL A   1      44.360  25.406  37.391  1.00  0.00     0.124 S 
ATOM     46  O   UNL A   1      43.609  25.711  38.604  1.00  0.00    -0.237 OA
ATOM     47  O   UNL A   1      44.142  24.081  36.820  1.00  0.00    -0.237 OA
ATOM     48  O   UNL A   1      45.744  25.871  37.372  1.00  0.00    -0.744 OA
ENDBRANCH  44  45
ENDBRANCH  23  37
BRANCH  24  49
ATOM     49  C   UNL A   1      43.592  25.947  26.287  1.00  0.00     0.058 A 
ATOM     50  C   UNL A   1      44.678  25.709  25.428  1.00  0.00     0.135 A 
ATOM     51  C   UNL A   1      42.832  24.818  26.654  1.00  0.00     0.135 A 
ATOM     52  F   UNL A   1      45.474  26.722  25.053  1.00  0.00    -0.206 F 
ATOM     53  C   UNL A   1      45.013  24.424  24.987  1.00  0.00     0.059 A 
ATOM     54  C   UNL A   1      43.139  23.529  26.220  1.00  0.00     0.059 A 
ATOM     55  F   UNL A   1      41.817  24.919  27.527  1.00  0.00    -0.206 F 
ATOM     56  C   UNL A   1      44.245  23.336  25.403  1.00  0.00     0.060 A 
BRANCH  56  57
ATOM     57  S   UNL A   1      44.766  21.658  24.970  1.00  0.00     0.124 S 
ATOM     58  O   UNL A   1      46.101  21.598  25.554  1.00  0.00    -0.237 OA
ATOM     59  O   UNL A   1      43.748  20.841  25.621  1.00  0.00    -0.237 OA
ATOM     60  O   UNL A   1      44.723  21.656  23.510  1.00  0.00    -0.744 OA
ENDBRANCH  56  57
ENDBRANCH  24  49
BRANCH  36  61
ATOM     61  C   UNL A   1      45.082  31.580  28.931  1.00  0.00     0.058 A 
ATOM     62  C   UNL A   1      46.365  32.003  28.536  1.00  0.00     0.135 A 
ATOM     63  C   UNL A   1      43.996  32.093  28.204  1.00  0.00     0.135 A 
ATOM     64  F   UNL A   1      47.465  31.481  29.093  1.00  0.00    -0.206 F 
ATOM     65  C   UNL A   1      46.557  32.921  27.502  1.00  0.00     0.059 A 
ATOM     66  C   UNL A   1      44.165  32.986  27.148  1.00  0.00     0.059 A 
ATOM     67  F   UNL A   1      42.748  31.680  28.482  1.00  0.00    -0.206 F 
ATOM     68  C   UNL A   1      45.450  33.406  26.810  1.00  0.00     0.060 A 
BRANCH  68  69
ATOM     69  S   UNL A   1      45.706  34.529  25.419  1.00  0.00     0.124 S 
ATOM     70  O   UNL A   1      47.149  34.448  25.222  1.00  0.00    -0.237 OA
ATOM     71  O   UNL A   1      44.888  33.928  24.370  1.00  0.00    -0.237 OA
ATOM     72  O   UNL A   1      45.215  35.811  25.920  1.00  0.00    -0.744 OA
ENDBRANCH  68  69
ENDBRANCH  36  61
ENDBRANCH  10  11
ENDBRANCH   3   5
ENDBRANCH   2   3
ENDBRANCH   1   2
BRANCH   1  73
ATOM     73  C   UNL A   1      32.616  30.080  25.383  1.00  0.00     0.275 C 
BRANCH  73  74
ATOM     74  O   UNL A   1      31.411  29.429  24.948  1.00  0.00    -0.458 OA
BRANCH  74  75
ATOM     75  C   UNL A   1      31.557  28.514  23.961  1.00  0.00     0.338 C 
ATOM     76  O   UNL A   1      31.164  28.581  22.804  1.00  0.00    -0.246 OA
BRANCH  75  77
ATOM     77  C   UNL A   1      32.255  27.354  24.521  1.00  0.00     0.060 A 
ATOM     78  C   UNL A   1      31.901  26.849  25.772  1.00  0.00     0.016 A 
ATOM     79  C   UNL A   1      33.297  26.786  23.788  1.00  0.00     0.016 A 
ATOM     80  C   UNL A   1      32.574  25.734  26.276  1.00  0.00     0.005 A 
ATOM     81  C   UNL A   1      33.988  25.695  24.310  1.00  0.00     0.005 A 
ATOM     82  C   UNL A   1      33.623  25.137  25.550  1.00  0.00    -0.038 A 
BRANCH  82  83
ATOM     83  C   UNL A   1      34.364  23.956  26.164  1.00  0.00     0.081 C 
ATOM     84  C   UNL A   1      35.823  23.888  25.670  1.00  0.00     0.111 C 
ATOM     85  C   UNL A   1      33.617  22.722  25.816  1.00  0.00     0.093 A 
ATOM     86  C   UNL A   1      36.154  22.695  24.786  1.00  0.00     0.188 C 
ATOM     87  C   UNL A   1      34.198  21.688  25.114  1.00  0.00     0.164 A 
ATOM     88  N   UNL A   1      32.294  22.492  26.053  1.00  0.00    -0.238 NA
ATOM     89  N   UNL A   1      35.433  21.645  24.556  1.00  0.00    -0.198 NA
ATOM     90  N   UNL A   1      33.190  20.753  24.949  1.00  0.00    -0.283 N 
ATOM     91  C   UNL A   1      32.061  21.317  25.509  1.00  0.00     0.206 A 
BRANCH  86  92
ATOM     92  O   UNL A   1      37.374  22.771  24.213  1.00  0.00    -0.496 OA
ATOM     93  H   UNL A   1      37.499  23.292  23.444  1.00  0.00     0.294 HD
ENDBRANCH  86  92
BRANCH  90  94
ATOM     94  C   UNL A   1      33.264  19.486  24.320  1.00  0.00     0.050 A 
ATOM     95  C   UNL A   1      32.488  19.228  23.182  1.00  0.00     0.027 A 
ATOM     96  C   UNL A   1      34.091  18.487  24.851  1.00  0.00     0.047 A 
ATOM     97  C   UNL A   1      32.558  17.980  22.561  1.00  0.00     0.004 A 
ATOM     98  C   UNL A   1      34.117  17.231  24.246  1.00  0.00     0.043 A 
ATOM     99  C   UNL A   1      33.364  16.976  23.100  1.00  0.00     0.020 A 
ATOM    100  Cl  UNL A   1      35.078  15.972  24.923  1.00  0.00    -0.084 Cl
ENDBRANCH  90  94
ENDBRANCH  82  83
ENDBRANCH  75  77
ENDBRANCH  74  75
ENDBRANCH  73  74
ENDBRANCH   1  73
TORSDOF 17
ENDMDL
MODEL 2
REMARK VINA RESULT:     -13.3      3.091      9.568
REMARK SMILES O=C(OCCOC(=O)c1ccc([C@@H]2CC(O)=Nc3c2ncn3-c2cccc(Cl)c2)cc1)c1ccc(-c2c3nc(c(-c4c(F)cc(S(=O)(=O)[O-])cc4F)c4ccc([nH]4)c(-c4c(F)cc(S(=O)(=O)[O-])cc4F)c4nc(c(-c5c(F)cc(S(=O)(=O)[O-])cc5F)c5ccc2[nH]5)C=C4)C=C3)cc1
REMARK SMILES IDX 4 1 3 2 2 3 1 4 32 5 33 6 97 7 34 8 96 9 35 10 36 11 37 12
REMARK SMILES IDX 90 13 38 14 95 15 89 16 91 17 39 18 94 19 88 20 87 21 40 23
REMARK SMILES IDX 74 24 53 25 73 26 54 27 57 28 72 29 92 30 55 31 56 32 71 34
REMARK SMILES IDX 93 35 58 36 41 37 42 38 51 39 43 40 44 41 50 42 52 43 45 44
REMARK SMILES IDX 46 45 47 46 48 47 49 48 75 49 76 50 85 51 77 52 78 53 84 54
REMARK SMILES IDX 86 55 79 56 80 57 81 58 82 59 83 60 59 61 60 62 69 63 61 64
REMARK SMILES IDX 62 65 68 66 70 67 63 68 64 69 65 70 66 71 67 72 5 73 6 74
REMARK SMILES IDX 7 75 8 76 9 77 10 78 31 79 11 80 30 81 12 82 13 83 14 84
REMARK SMILES IDX 19 85 15 86 18 87 20 88 17 89 22 90 21 91 16 92 23 94 24 95
REMARK SMILES IDX 29 96 25 97 27 98 26 99 28 100
REMARK H PARENT 91 22 57 33 16 93
REMARK Flexibility Score: inf
ROOT
ATOM      1  C   UNL A   1      40.970  22.380  26.492  1.00  0.00     0.275 C 
ENDROOT
BRANCH   1   2
ATOM      2  O   UNL A   1      41.915  22.180  25.422  1.00  0.00    -0.458 OA
BRANCH   2   3
ATOM      3  C   UNL A   1      42.871  23.107  25.196  1.00  0.00     0.338 C 
ATOM      4  O   UNL A   1      43.645  23.068  24.251  1.00  0.00    -0.246 OA
BRANCH   3   5
ATOM      5  C   UNL A   1      42.693  24.326  26.019  1.00  0.00     0.060 A 
ATOM      6  C   UNL A   1      43.296  24.495  27.269  1.00  0.00     0.016 A 
ATOM      7  C   UNL A   1      41.897  25.345  25.484  1.00  0.00     0.016 A 
ATOM      8  C   UNL A   1      43.032  25.633  28.019  1.00  0.00     0.010 A 
ATOM      9  C   UNL A   1      41.654  26.494  26.222  1.00  0.00     0.010 A 
ATOM     10  C   UNL A   1      42.183  26.618  27.509  1.00  0.00    -0.014 A 
BRANCH  10  11
ATOM     11  C   UNL A   1      41.948  27.817  28.312  1.00  0.00     0.031 A 
ATOM     12  C   UNL A   1      42.978  28.901  28.208  1.00  0.00     0.074 A 
ATOM     13  C   UNL A   1      40.778  28.057  28.939  1.00  0.00     0.049 A 
ATOM     14  N   UNL A   1      43.652  29.487  29.147  1.00  0.00    -0.248 NA
ATOM     15  C   UNL A   1      43.327  29.355  26.854  1.00  0.00     0.031 C 
ATOM     16  C   UNL A   1      39.530  27.292  28.884  1.00  0.00     0.029 A 
ATOM     17  N   UNL A   1      40.432  29.146  29.676  1.00  0.00    -0.354 N 
ATOM     18  C   UNL A   1      44.395  30.496  28.526  1.00  0.00     0.074 A 
ATOM     19  C   UNL A   1      44.224  30.306  27.110  1.00  0.00     0.031 C 
ATOM     20  C   UNL A   1      38.517  28.063  29.341  1.00  0.00     0.029 A 
ATOM     21  C   UNL A   1      39.067  29.305  29.856  1.00  0.00     0.049 A 
ATOM     22  H   UNL A   1      41.096  29.770  30.049  1.00  0.00     0.167 HD
ATOM     23  C   UNL A   1      44.993  31.516  29.207  1.00  0.00     0.037 A 
ATOM     24  C   UNL A   1      38.443  30.416  30.324  1.00  0.00     0.037 A 
ATOM     25  C   UNL A   1      45.133  31.216  30.607  1.00  0.00     0.049 A 
ATOM     26  C   UNL A   1      39.463  31.221  31.048  1.00  0.00     0.074 A 
ATOM     27  C   UNL A   1      45.772  30.218  31.320  1.00  0.00     0.029 A 
ATOM     28  N   UNL A   1      44.257  31.786  31.499  1.00  0.00    -0.354 N 
ATOM     29  N   UNL A   1      40.048  30.837  32.152  1.00  0.00    -0.248 NA
ATOM     30  C   UNL A   1      40.166  32.249  30.295  1.00  0.00     0.031 C 
ATOM     31  C   UNL A   1      44.862  29.883  32.366  1.00  0.00     0.029 A 
ATOM     32  C   UNL A   1      43.770  30.745  32.252  1.00  0.00     0.049 A 
ATOM     33  H   UNL A   1      44.025  32.739  31.579  1.00  0.00     0.167 HD
ATOM     34  C   UNL A   1      41.361  31.263  32.029  1.00  0.00     0.074 A 
ATOM     35  C   UNL A   1      41.357  32.188  30.897  1.00  0.00     0.031 C 
ATOM     36  C   UNL A   1      42.391  30.635  32.671  1.00  0.00     0.037 A 
BRANCH  23  37
ATOM     37  C   UNL A   1      45.226  32.901  28.647  1.00  0.00     0.058 A 
ATOM     38  C   UNL A   1      46.526  33.448  28.615  1.00  0.00     0.135 A 
ATOM     39  C   UNL A   1      44.178  33.811  28.382  1.00  0.00     0.135 A 
ATOM     40  F   UNL A   1      47.598  32.683  28.872  1.00  0.00    -0.206 F 
ATOM     41  C   UNL A   1      46.762  34.807  28.385  1.00  0.00     0.059 A 
ATOM     42  C   UNL A   1      44.395  35.155  28.095  1.00  0.00     0.059 A 
ATOM     43  F   UNL A   1      42.890  33.457  28.485  1.00  0.00    -0.206 F 
ATOM     44  C   UNL A   1      45.687  35.655  28.141  1.00  0.00     0.060 A 
BRANCH  44  45
ATOM     45  S   UNL A   1      45.974  37.425  27.951  1.00  0.00     0.124 S 
ATOM     46  O   UNL A   1      45.630  37.919  29.279  1.00  0.00    -0.237 OA
ATOM     47  O   UNL A   1      47.389  37.470  27.598  1.00  0.00    -0.237 OA
ATOM     48  O   UNL A   1      45.055  37.799  26.880  1.00  0.00    -0.744 OA
ENDBRANCH  44  45
ENDBRANCH  23  37
BRANCH  24  49
ATOM     49  C   UNL A   1      37.149  30.984  29.863  1.00  0.00     0.058 A 
ATOM     50  C   UNL A   1      36.257  31.593  30.761  1.00  0.00     0.135 A 
ATOM     51  C   UNL A   1      36.884  31.184  28.493  1.00  0.00     0.135 A 
ATOM     52  F   UNL A   1      36.451  31.481  32.084  1.00  0.00    -0.206 F 
ATOM     53  C   UNL A   1      35.186  32.383  30.328  1.00  0.00     0.059 A 
ATOM     54  C   UNL A   1      35.818  31.957  28.037  1.00  0.00     0.059 A 
ATOM     55  F   UNL A   1      37.713  30.708  27.550  1.00  0.00    -0.206 F 
ATOM     56  C   UNL A   1      34.984  32.573  28.961  1.00  0.00     0.060 A 
BRANCH  56  57
ATOM     57  S   UNL A   1      33.704  33.721  28.399  1.00  0.00     0.124 S 
ATOM     58  O   UNL A   1      33.165  34.213  29.661  1.00  0.00    -0.237 OA
ATOM     59  O   UNL A   1      34.473  34.681  27.615  1.00  0.00    -0.237 OA
ATOM     60  O   UNL A   1      32.802  32.871  27.626  1.00  0.00    -0.744 OA
ENDBRANCH  56  57
ENDBRANCH  24  49
BRANCH  36  61
ATOM     61  C   UNL A   1      42.076  29.573  33.694  1.00  0.00     0.058 A 
ATOM     62  C   UNL A   1      41.796  28.231  33.378  1.00  0.00     0.135 A 
ATOM     63  C   UNL A   1      42.240  29.882  35.053  1.00  0.00     0.135 A 
ATOM     64  F   UNL A   1      41.737  27.820  32.105  1.00  0.00    -0.206 F 
ATOM     65  C   UNL A   1      41.643  27.254  34.364  1.00  0.00     0.059 A 
ATOM     66  C   UNL A   1      42.124  28.918  36.053  1.00  0.00     0.059 A 
ATOM     67  F   UNL A   1      42.577  31.130  35.422  1.00  0.00    -0.206 F 
ATOM     68  C   UNL A   1      41.812  27.607  35.701  1.00  0.00     0.060 A 
BRANCH  68  69
ATOM     69  S   UNL A   1      41.696  26.325  36.968  1.00  0.00     0.124 S 
ATOM     70  O   UNL A   1      40.404  26.613  37.578  1.00  0.00    -0.237 OA
ATOM     71  O   UNL A   1      41.768  25.095  36.185  1.00  0.00    -0.237 OA
ATOM     72  O   UNL A   1      42.858  26.579  37.817  1.00  0.00    -0.744 OA
ENDBRANCH  68  69
ENDBRANCH  36  61
ENDBRANCH  10  11
ENDBRANCH   3   5
ENDBRANCH   2   3
ENDBRANCH   1   2
BRANCH   1  73
ATOM     73  C   UNL A   1      39.778  21.427  26.546  1.00  0.00     0.275 C 
BRANCH  73  74
ATOM     74  O   UNL A   1      38.805  21.773  25.548  1.00  0.00    -0.458 OA
BRANCH  74  75
ATOM     75  C   UNL A   1      38.038  20.756  25.090  1.00  0.00     0.338 C 
ATOM     76  O   UNL A   1      38.330  19.570  25.002  1.00  0.00    -0.246 OA
BRANCH  75  77
ATOM     77  C   UNL A   1      36.756  21.315  24.657  1.00  0.00     0.060 A 
ATOM     78  C   UNL A   1      36.710  22.512  23.941  1.00  0.00     0.016 A 
ATOM     79  C   UNL A   1      35.585  20.641  25.000  1.00  0.00     0.016 A 
ATOM     80  C   UNL A   1      35.475  23.017  23.529  1.00  0.00     0.005 A 
ATOM     81  C   UNL A   1      34.353  21.166  24.616  1.00  0.00     0.005 A 
ATOM     82  C   UNL A   1      34.279  22.348  23.855  1.00  0.00    -0.038 A 
BRANCH  82  83
ATOM     83  C   UNL A   1      32.952  22.964  23.430  1.00  0.00     0.081 C 
ATOM     84  C   UNL A   1      32.994  23.437  21.964  1.00  0.00     0.111 C 
ATOM     85  C   UNL A   1      32.657  24.087  24.353  1.00  0.00     0.093 A 
ATOM     86  C   UNL A   1      32.918  24.945  21.766  1.00  0.00     0.188 C 
ATOM     87  C   UNL A   1      32.480  25.378  23.903  1.00  0.00     0.164 A 
ATOM     88  N   UNL A   1      32.614  24.016  25.715  1.00  0.00    -0.238 NA
ATOM     89  N   UNL A   1      32.634  25.854  22.642  1.00  0.00    -0.198 NA
ATOM     90  N   UNL A   1      32.272  26.134  25.045  1.00  0.00    -0.283 N 
ATOM     91  C   UNL A   1      32.400  25.256  26.103  1.00  0.00     0.206 A 
BRANCH  86  92
ATOM     92  O   UNL A   1      33.157  25.333  20.495  1.00  0.00    -0.496 OA
ATOM     93  H   UNL A   1      32.802  24.842  19.780  1.00  0.00     0.294 HD
ENDBRANCH  86  92
BRANCH  90  94
ATOM     94  C   UNL A   1      32.007  27.521  25.142  1.00  0.00     0.050 A 
ATOM     95  C   UNL A   1      32.701  28.298  26.080  1.00  0.00     0.027 A 
ATOM     96  C   UNL A   1      31.036  28.109  24.320  1.00  0.00     0.047 A 
ATOM     97  C   UNL A   1      32.441  29.666  26.178  1.00  0.00     0.004 A 
ATOM     98  C   UNL A   1      30.756  29.468  24.459  1.00  0.00     0.043 A 
ATOM     99  C   UNL A   1      31.460  30.250  25.376  1.00  0.00     0.020 A 
ATOM    100  Cl  UNL A   1      29.521  30.192  23.503  1.00  0.00    -0.084 Cl
ENDBRANCH  90  94
ENDBRANCH  82  83
ENDBRANCH  75  77
ENDBRANCH  74  75
ENDBRANCH  73  74
ENDBRANCH   1  73
TORSDOF 17
ENDMDL
MODEL 3
REMARK VINA RESULT:     -13.0      3.196      9.571
REMARK SMILES O=C(OCCOC(=O)c1ccc([C@@H]2CC(O)=Nc3c2ncn3-c2cccc(Cl)c2)cc1)c1ccc(-c2c3nc(c(-c4c(F)cc(S(=O)(=O)[O-])cc4F)c4ccc([nH]4)c(-c4c(F)cc(S(=O)(=O)[O-])cc4F)c4nc(c(-c5c(F)cc(S(=O)(=O)[O-])cc5F)c5ccc2[nH]5)C=C4)C=C3)cc1
REMARK SMILES IDX 4 1 3 2 2 3 1 4 32 5 33 6 97 7 34 8 96 9 35 10 36 11 37 12
REMARK SMILES IDX 90 13 38 14 95 15 89 16 91 17 39 18 94 19 88 20 87 21 40 23
REMARK SMILES IDX 74 24 53 25 73 26 54 27 57 28 72 29 92 30 55 31 56 32 71 34
REMARK SMILES IDX 93 35 58 36 41 37 42 38 51 39 43 40 44 41 50 42 52 43 45 44
REMARK SMILES IDX 46 45 47 46 48 47 49 48 75 49 76 50 85 51 77 52 78 53 84 54
REMARK SMILES IDX 86 55 79 56 80 57 81 58 82 59 83 60 59 61 60 62 69 63 61 64
REMARK SMILES IDX 62 65 68 66 70 67 63 68 64 69 65 70 66 71 67 72 5 73 6 74
REMARK SMILES IDX 7 75 8 76 9 77 10 78 31 79 11 80 30 81 12 82 13 83 14 84
REMARK SMILES IDX 19 85 15 86 18 87 20 88 17 89 22 90 21 91 16 92 23 94 24 95
REMARK SMILES IDX 29 96 25 97 27 98 26 99 28 100
REMARK H PARENT 91 22 57 33 16 93
REMARK Flexibility Score: inf
ROOT
ATOM      1  C   UNL A   1      37.253  21.467  25.225  1.00  0.00     0.275 C 
ENDROOT
BRANCH   1   2
ATOM      2  O   UNL A   1      37.845  22.591  25.905  1.00  0.00    -0.458 OA
BRANCH   2   3
ATOM      3  C   UNL A   1      39.119  22.506  26.347  1.00  0.00     0.338 C 
ATOM      4  O   UNL A   1      39.908  21.645  25.986  1.00  0.00    -0.246 OA
BRANCH   3   5
ATOM      5  C   UNL A   1      39.558  23.725  27.065  1.00  0.00     0.060 A 
ATOM      6  C   UNL A   1      38.830  24.919  27.055  1.00  0.00     0.016 A 
ATOM      7  C   UNL A   1      40.750  23.640  27.794  1.00  0.00     0.016 A 
ATOM      8  C   UNL A   1      39.334  26.045  27.692  1.00  0.00     0.010 A 
ATOM      9  C   UNL A   1      41.240  24.759  28.453  1.00  0.00     0.010 A 
ATOM     10  C   UNL A   1      40.556  25.974  28.363  1.00  0.00    -0.014 A 
BRANCH  10  11
ATOM     11  C   UNL A   1      41.044  27.169  29.048  1.00  0.00     0.031 A 
ATOM     12  C   UNL A   1      42.233  27.849  28.438  1.00  0.00     0.074 A 
ATOM     13  C   UNL A   1      40.355  27.777  30.036  1.00  0.00     0.049 A 
ATOM     14  N   UNL A   1      43.368  28.161  28.979  1.00  0.00    -0.248 NA
ATOM     15  C   UNL A   1      42.144  28.182  27.009  1.00  0.00     0.031 C 
ATOM     16  C   UNL A   1      39.015  27.473  30.544  1.00  0.00     0.029 A 
ATOM     17  N   UNL A   1      40.686  28.907  30.715  1.00  0.00    -0.354 N 
ATOM     18  C   UNL A   1      44.082  28.874  28.010  1.00  0.00     0.074 A 
ATOM     19  C   UNL A   1      43.318  28.774  26.795  1.00  0.00     0.031 C 
ATOM     20  C   UNL A   1      38.560  28.531  31.254  1.00  0.00     0.029 A 
ATOM     21  C   UNL A   1      39.627  29.510  31.375  1.00  0.00     0.049 A 
ATOM     22  H   UNL A   1      41.602  29.268  30.735  1.00  0.00     0.167 HD
ATOM     23  C   UNL A   1      45.186  29.624  28.292  1.00  0.00     0.037 A 
ATOM     24  C   UNL A   1      39.619  30.757  31.909  1.00  0.00     0.037 A 
ATOM     25  C   UNL A   1      45.764  29.273  29.561  1.00  0.00     0.049 A 
ATOM     26  C   UNL A   1      41.038  31.164  32.096  1.00  0.00     0.074 A 
ATOM     27  C   UNL A   1      46.284  28.107  30.094  1.00  0.00     0.029 A 
ATOM     28  N   UNL A   1      45.535  30.088  30.643  1.00  0.00    -0.354 N 
ATOM     29  N   UNL A   1      41.857  30.589  32.936  1.00  0.00    -0.248 NA
ATOM     30  C   UNL A   1      41.671  31.910  31.019  1.00  0.00     0.031 C 
ATOM     31  C   UNL A   1      45.804  28.079  31.437  1.00  0.00     0.029 A 
ATOM     32  C   UNL A   1      45.085  29.258  31.641  1.00  0.00     0.049 A 
ATOM     33  H   UNL A   1      45.665  31.062  30.692  1.00  0.00     0.167 HD
ATOM     34  C   UNL A   1      43.078  30.554  32.280  1.00  0.00     0.074 A 
ATOM     35  C   UNL A   1      42.917  31.446  31.132  1.00  0.00     0.031 C 
ATOM     36  C   UNL A   1      44.024  29.608  32.557  1.00  0.00     0.037 A 
BRANCH  23  37
ATOM     37  C   UNL A   1      45.601  30.861  27.527  1.00  0.00     0.058 A 
ATOM     38  C   UNL A   1      46.932  31.014  27.084  1.00  0.00     0.135 A 
ATOM     39  C   UNL A   1      44.796  32.019  27.440  1.00  0.00     0.135 A 
ATOM     40  F   UNL A   1      47.794  29.986  27.138  1.00  0.00    -0.206 F 
ATOM     41  C   UNL A   1      47.437  32.237  26.637  1.00  0.00     0.059 A 
ATOM     42  C   UNL A   1      45.264  33.233  26.946  1.00  0.00     0.059 A 
ATOM     43  F   UNL A   1      43.548  32.052  27.924  1.00  0.00    -0.206 F 
ATOM     44  C   UNL A   1      46.598  33.345  26.587  1.00  0.00     0.060 A 
BRANCH  44  45
ATOM     45  S   UNL A   1      47.269  34.951  26.114  1.00  0.00     0.124 S 
ATOM     46  O   UNL A   1      48.114  34.590  24.981  1.00  0.00    -0.237 OA
ATOM     47  O   UNL A   1      46.062  35.707  25.797  1.00  0.00    -0.237 OA
ATOM     48  O   UNL A   1      47.976  35.385  27.316  1.00  0.00    -0.744 OA
ENDBRANCH  44  45
ENDBRANCH  23  37
BRANCH  24  49
ATOM     49  C   UNL A   1      38.497  31.732  31.904  1.00  0.00     0.058 A 
ATOM     50  C   UNL A   1      37.993  32.261  30.704  1.00  0.00     0.135 A 
ATOM     51  C   UNL A   1      37.717  31.956  33.057  1.00  0.00     0.135 A 
ATOM     52  F   UNL A   1      38.654  32.068  29.553  1.00  0.00    -0.206 F 
ATOM     53  C   UNL A   1      36.771  32.941  30.644  1.00  0.00     0.059 A 
ATOM     54  C   UNL A   1      36.503  32.640  33.024  1.00  0.00     0.059 A 
ATOM     55  F   UNL A   1      38.067  31.434  34.243  1.00  0.00    -0.206 F 
ATOM     56  C   UNL A   1      36.024  33.112  31.809  1.00  0.00     0.060 A 
BRANCH  56  57
ATOM     57  S   UNL A   1      34.373  33.845  31.712  1.00  0.00     0.124 S 
ATOM     58  O   UNL A   1      34.649  35.247  32.003  1.00  0.00    -0.237 OA
ATOM     59  O   UNL A   1      33.982  33.543  30.339  1.00  0.00    -0.237 OA
ATOM     60  O   UNL A   1      33.624  33.130  32.742  1.00  0.00    -0.744 OA
ENDBRANCH  56  57
ENDBRANCH  24  49
BRANCH  36  61
ATOM     61  C   UNL A   1      43.822  28.696  33.741  1.00  0.00     0.058 A 
ATOM     62  C   UNL A   1      44.176  29.026  35.062  1.00  0.00     0.135 A 
ATOM     63  C   UNL A   1      43.079  27.519  33.560  1.00  0.00     0.135 A 
ATOM     64  F   UNL A   1      44.785  30.185  35.344  1.00  0.00    -0.206 F 
ATOM     65  C   UNL A   1      43.848  28.207  36.144  1.00  0.00     0.059 A 
ATOM     66  C   UNL A   1      42.712  26.702  34.628  1.00  0.00     0.059 A 
ATOM     67  F   UNL A   1      42.647  27.179  32.334  1.00  0.00    -0.206 F 
ATOM     68  C   UNL A   1      43.112  27.046  35.917  1.00  0.00     0.060 A 
BRANCH  68  69
ATOM     69  S   UNL A   1      42.616  26.032  37.327  1.00  0.00     0.124 S 
ATOM     70  O   UNL A   1      41.242  26.465  37.548  1.00  0.00    -0.237 OA
ATOM     71  O   UNL A   1      42.779  24.674  36.816  1.00  0.00    -0.237 OA
ATOM     72  O   UNL A   1      43.566  26.411  38.371  1.00  0.00    -0.744 OA
ENDBRANCH  68  69
ENDBRANCH  36  61
ENDBRANCH  10  11
ENDBRANCH   3   5
ENDBRANCH   2   3
ENDBRANCH   1   2
BRANCH   1  73
ATOM     73  C   UNL A   1      35.852  21.052  25.670  1.00  0.00     0.275 C 
BRANCH  73  74
ATOM     74  O   UNL A   1      35.184  20.323  24.628  1.00  0.00    -0.458 OA
BRANCH  74  75
ATOM     75  C   UNL A   1      33.837  20.235  24.739  1.00  0.00     0.338 C 
ATOM     76  O   UNL A   1      33.162  19.248  25.003  1.00  0.00    -0.246 OA
BRANCH  75  77
ATOM     77  C   UNL A   1      33.273  21.553  24.440  1.00  0.00     0.060 A 
ATOM     78  C   UNL A   1      32.040  21.933  24.972  1.00  0.00     0.016 A 
ATOM     79  C   UNL A   1      33.980  22.404  23.592  1.00  0.00     0.016 A 
ATOM     80  C   UNL A   1      31.530  23.201  24.681  1.00  0.00     0.005 A 
ATOM     81  C   UNL A   1      33.451  23.654  23.278  1.00  0.00     0.005 A 
ATOM     82  C   UNL A   1      32.231  24.082  23.835  1.00  0.00    -0.038 A 
BRANCH  82  83
ATOM     83  C   UNL A   1      31.611  25.434  23.503  1.00  0.00     0.081 C 
ATOM     84  C   UNL A   1      32.300  26.086  22.289  1.00  0.00     0.111 C 
ATOM     85  C   UNL A   1      31.717  26.289  24.710  1.00  0.00     0.093 A 
ATOM     86  C   UNL A   1      33.094  27.349  22.594  1.00  0.00     0.188 C 
ATOM     87  C   UNL A   1      32.384  27.496  24.696  1.00  0.00     0.164 A 
ATOM     88  N   UNL A   1      31.269  25.973  25.960  1.00  0.00    -0.238 NA
ATOM     89  N   UNL A   1      33.107  28.041  23.687  1.00  0.00    -0.198 NA
ATOM     90  N   UNL A   1      32.304  27.968  25.996  1.00  0.00    -0.283 N 
ATOM     91  C   UNL A   1      31.649  26.985  26.711  1.00  0.00     0.206 A 
BRANCH  86  92
ATOM     92  O   UNL A   1      33.841  27.779  21.555  1.00  0.00    -0.496 OA
ATOM     93  H   UNL A   1      33.683  28.624  21.182  1.00  0.00     0.294 HD
ENDBRANCH  86  92
BRANCH  90  94
ATOM     94  C   UNL A   1      32.801  29.186  26.518  1.00  0.00     0.050 A 
ATOM     95  C   UNL A   1      31.964  30.309  26.584  1.00  0.00     0.027 A 
ATOM     96  C   UNL A   1      34.133  29.275  26.945  1.00  0.00     0.047 A 
ATOM     97  C   UNL A   1      32.453  31.511  27.097  1.00  0.00     0.004 A 
ATOM     98  C   UNL A   1      34.620  30.493  27.415  1.00  0.00     0.043 A 
ATOM     99  C   UNL A   1      33.785  31.608  27.503  1.00  0.00     0.020 A 
ATOM    100  Cl  UNL A   1      36.271  30.636  27.882  1.00  0.00    -0.084 Cl
ENDBRANCH  90  94
ENDBRANCH  82  83
ENDBRANCH  75  77
ENDBRANCH  74  75
ENDBRANCH  73  74
ENDBRANCH   1  73
TORSDOF 17
ENDMDL
