MODEL 1
REMARK VINA RESULT:      -9.8      0.000      0.000
REMARK SMILES CNC(=O)CNC(=O)NC[C@H](CC(C)C)C(=O)OCCOC(=O)c1ccc(-c2c3nc(c(-c4c(F)cc(S(=O)(=O)[O-])cc4F)c4ccc([nH]4)c(-c4c(F)cc(S(=O)(=O)[O-])cc4F)c4nc(c(-c5c(F)cc(S(=O)(=O)[O-])cc5F)c5ccc2[nH]5)C=C4)C=C3)cc1
REMARK SMILES IDX 19 1 18 2 16 3 17 4 11 5 10 6 9 7 6 8 7 9 8 11 5 13 3 14
REMARK SMILES IDX 1 15 2 16 4 18 12 19 13 20 14 21 15 22 20 23 21 24 22 25
REMARK SMILES IDX 23 26 24 27 25 28 89 29 26 30 88 31 27 32 28 33 29 34 82 35
REMARK SMILES IDX 30 36 87 37 81 38 83 39 31 40 86 41 80 42 79 43 32 45 66 46
REMARK SMILES IDX 45 47 65 48 46 49 49 50 64 51 84 52 47 53 48 54 63 56 85 57
REMARK SMILES IDX 50 58 33 59 34 60 43 61 35 62 36 63 42 64 44 65 37 66 38 67
REMARK SMILES IDX 39 68 40 69 41 70 67 71 68 72 77 73 69 74 70 75 76 76 78 77
REMARK SMILES IDX 71 78 72 79 73 80 74 81 75 82 51 83 52 84 61 85 53 86 54 87
REMARK SMILES IDX 60 88 62 89 55 90 56 91 57 92 58 93 59 94
REMARK H PARENT 6 10 9 12 2 17 83 44 49 55
REMARK Flexibility Score: inf
ROOT
ATOM      1  C   UNL A   1      32.795  29.404  25.298  1.00  0.00     0.274 C 
ENDROOT
BRANCH   1   2
ATOM      2  O   UNL A   1      31.579  29.437  24.523  1.00  0.00    -0.462 OA
BRANCH   2   3
ATOM      3  C   UNL A   1      30.868  28.282  24.501  1.00  0.00     0.310 C 
ATOM      4  O   UNL A   1      30.870  27.451  25.404  1.00  0.00    -0.252 OA
BRANCH   3   5
ATOM      5  C   UNL A   1      30.076  28.066  23.218  1.00  0.00     0.119 C 
BRANCH   5   6
ATOM      6  C   UNL A   1      30.937  27.218  22.285  1.00  0.00     0.133 C 
BRANCH   6   7
ATOM      7  N   UNL A   1      32.232  27.834  22.027  1.00  0.00    -0.337 N 
ATOM      8  N   UNL A   1      33.903  26.376  22.833  1.00  0.00    -0.329 N 
ATOM      9  C   UNL A   1      33.506  27.451  22.148  1.00  0.00     0.315 C 
ATOM     10  H   UNL A   1      34.827  26.104  22.628  1.00  0.00     0.165 HD
ATOM     11  O   UNL A   1      34.371  28.120  21.582  1.00  0.00    -0.249 OA
ATOM     12  H   UNL A   1      32.148  28.752  21.681  1.00  0.00     0.165 HD
BRANCH   8  13
ATOM     13  C   UNL A   1      33.262  25.526  23.813  1.00  0.00     0.217 C 
BRANCH  13  14
ATOM     14  C   UNL A   1      32.740  24.160  23.353  1.00  0.00     0.239 C 
ATOM     15  C   UNL A   1      32.193  23.174  25.646  1.00  0.00     0.142 C 
ATOM     16  N   UNL A   1      32.317  23.192  24.209  1.00  0.00    -0.358 N 
ATOM     17  H   UNL A   1      32.046  22.354  23.768  1.00  0.00     0.163 HD
ATOM     18  O   UNL A   1      32.814  23.848  22.158  1.00  0.00    -0.273 OA
ENDBRANCH  13  14
ENDBRANCH   8  13
ENDBRANCH   6   7
ENDBRANCH   5   6
BRANCH   5  19
ATOM     19  C   UNL A   1      29.523  29.364  22.594  1.00  0.00     0.020 C 
BRANCH  19  20
ATOM     20  C   UNL A   1      28.201  29.894  23.191  1.00  0.00    -0.017 C 
ATOM     21  C   UNL A   1      27.702  31.170  22.509  1.00  0.00     0.007 C 
ATOM     22  C   UNL A   1      27.116  28.816  23.110  1.00  0.00     0.007 C 
ENDBRANCH  19  20
ENDBRANCH   5  19
ENDBRANCH   3   5
ENDBRANCH   2   3
ENDBRANCH   1   2
BRANCH   1  23
ATOM     23  C   UNL A   1      32.703  30.268  26.559  1.00  0.00     0.275 C 
BRANCH  23  24
ATOM     24  O   UNL A   1      33.563  29.790  27.608  1.00  0.00    -0.458 OA
BRANCH  24  25
ATOM     25  C   UNL A   1      34.390  30.722  28.134  1.00  0.00     0.338 C 
ATOM     26  O   UNL A   1      34.081  31.825  28.563  1.00  0.00    -0.246 OA
BRANCH  25  27
ATOM     27  C   UNL A   1      35.748  30.178  28.264  1.00  0.00     0.060 A 
ATOM     28  C   UNL A   1      36.144  29.722  29.521  1.00  0.00     0.016 A 
ATOM     29  C   UNL A   1      36.661  30.224  27.210  1.00  0.00     0.016 A 
ATOM     30  C   UNL A   1      37.452  29.310  29.744  1.00  0.00     0.010 A 
ATOM     31  C   UNL A   1      37.980  29.811  27.433  1.00  0.00     0.010 A 
ATOM     32  C   UNL A   1      38.386  29.366  28.705  1.00  0.00    -0.014 A 
BRANCH  32  33
ATOM     33  C   UNL A   1      39.804  29.042  28.990  1.00  0.00     0.031 A 
ATOM     34  C   UNL A   1      40.671  30.055  29.683  1.00  0.00     0.074 A 
ATOM     35  C   UNL A   1      40.294  27.826  28.683  1.00  0.00     0.049 A 
ATOM     36  N   UNL A   1      41.951  30.006  29.946  1.00  0.00    -0.248 NA
ATOM     37  C   UNL A   1      40.007  31.284  30.140  1.00  0.00     0.031 C 
ATOM     38  C   UNL A   1      39.529  26.737  28.076  1.00  0.00     0.029 A 
ATOM     39  N   UNL A   1      41.552  27.304  28.844  1.00  0.00    -0.354 N 
ATOM     40  C   UNL A   1      42.254  31.210  30.570  1.00  0.00     0.074 A 
ATOM     41  C   UNL A   1      41.025  31.970  30.642  1.00  0.00     0.031 C 
ATOM     42  C   UNL A   1      40.332  25.670  27.925  1.00  0.00     0.029 A 
ATOM     43  C   UNL A   1      41.677  26.018  28.374  1.00  0.00     0.049 A 
ATOM     44  H   UNL A   1      42.294  27.801  29.257  1.00  0.00     0.167 HD
ATOM     45  C   UNL A   1      43.451  31.640  31.039  1.00  0.00     0.037 A 
ATOM     46  C   UNL A   1      42.761  25.222  28.288  1.00  0.00     0.037 A 
ATOM     47  C   UNL A   1      44.664  30.866  30.984  1.00  0.00     0.049 A 
ATOM     48  C   UNL A   1      44.089  25.740  28.766  1.00  0.00     0.074 A 
ATOM     49  C   UNL A   1      45.929  31.214  31.423  1.00  0.00     0.029 A 
ATOM     50  N   UNL A   1      44.759  29.584  30.463  1.00  0.00    -0.354 N 
ATOM     51  N   UNL A   1      44.373  26.900  29.310  1.00  0.00    -0.248 NA
ATOM     52  C   UNL A   1      45.247  24.850  28.607  1.00  0.00     0.031 C 
ATOM     53  C   UNL A   1      46.797  30.153  31.139  1.00  0.00     0.029 A 
ATOM     54  C   UNL A   1      46.065  29.131  30.556  1.00  0.00     0.049 A 
ATOM     55  H   UNL A   1      44.010  29.072  30.082  1.00  0.00     0.167 HD
ATOM     56  C   UNL A   1      45.740  26.874  29.569  1.00  0.00     0.074 A 
ATOM     57  C   UNL A   1      46.222  25.578  29.133  1.00  0.00     0.031 C 
ATOM     58  C   UNL A   1      46.524  27.836  30.115  1.00  0.00     0.037 A 
BRANCH  45  59
ATOM     59  C   UNL A   1      43.505  33.028  31.612  1.00  0.00     0.058 A 
ATOM     60  C   UNL A   1      43.668  34.160  30.798  1.00  0.00     0.135 A 
ATOM     61  C   UNL A   1      43.400  33.226  32.997  1.00  0.00     0.135 A 
ATOM     62  F   UNL A   1      43.793  34.025  29.469  1.00  0.00    -0.206 F 
ATOM     63  C   UNL A   1      43.757  35.438  31.342  1.00  0.00     0.059 A 
ATOM     64  C   UNL A   1      43.464  34.496  33.561  1.00  0.00     0.059 A 
ATOM     65  F   UNL A   1      43.247  32.176  33.820  1.00  0.00    -0.206 F 
ATOM     66  C   UNL A   1      43.663  35.595  32.726  1.00  0.00     0.060 A 
BRANCH  66  67
ATOM     67  S   UNL A   1      43.809  37.254  33.425  1.00  0.00     0.124 S 
ATOM     68  O   UNL A   1      42.500  37.420  34.049  1.00  0.00    -0.237 OA
ATOM     69  O   UNL A   1      44.935  37.114  34.342  1.00  0.00    -0.237 OA
ATOM     70  O   UNL A   1      44.057  38.093  32.257  1.00  0.00    -0.744 OA
ENDBRANCH  66  67
ENDBRANCH  45  59
BRANCH  46  71
ATOM     71  C   UNL A   1      42.633  23.863  27.701  1.00  0.00     0.058 A 
ATOM     72  C   UNL A   1      42.691  23.666  26.315  1.00  0.00     0.135 A 
ATOM     73  C   UNL A   1      42.478  22.732  28.518  1.00  0.00     0.135 A 
ATOM     74  F   UNL A   1      42.826  24.719  25.493  1.00  0.00    -0.206 F 
ATOM     75  C   UNL A   1      42.605  22.395  25.756  1.00  0.00     0.059 A 
ATOM     76  C   UNL A   1      42.412  21.450  27.984  1.00  0.00     0.059 A 
ATOM     77  F   UNL A   1      42.425  22.868  29.852  1.00  0.00    -0.206 F 
ATOM     78  C   UNL A   1      42.471  21.291  26.601  1.00  0.00     0.060 A 
BRANCH  78  79
ATOM     79  S   UNL A   1      42.431  19.638  25.875  1.00  0.00     0.124 S 
ATOM     80  O   UNL A   1      41.045  19.542  25.437  1.00  0.00    -0.237 OA
ATOM     81  O   UNL A   1      43.431  19.742  24.815  1.00  0.00    -0.237 OA
ATOM     82  O   UNL A   1      42.804  18.775  26.992  1.00  0.00    -0.744 OA
ENDBRANCH  78  79
ENDBRANCH  46  71
BRANCH  58  83
ATOM     83  C   UNL A   1      47.980  27.516  30.291  1.00  0.00     0.058 A 
ATOM     84  C   UNL A   1      48.464  26.922  31.466  1.00  0.00     0.135 A 
ATOM     85  C   UNL A   1      48.894  27.766  29.255  1.00  0.00     0.135 A 
ATOM     86  F   UNL A   1      47.631  26.670  32.488  1.00  0.00    -0.206 F 
ATOM     87  C   UNL A   1      49.809  26.600  31.615  1.00  0.00     0.059 A 
ATOM     88  C   UNL A   1      50.240  27.435  29.375  1.00  0.00     0.059 A 
ATOM     89  F   UNL A   1      48.478  28.326  28.107  1.00  0.00    -0.206 F 
ATOM     90  C   UNL A   1      50.690  26.861  30.563  1.00  0.00     0.060 A 
BRANCH  90  91
ATOM     91  S   UNL A   1      52.428  26.411  30.753  1.00  0.00     0.124 S 
ATOM     92  O   UNL A   1      52.839  26.233  29.364  1.00  0.00    -0.237 OA
ATOM     93  O   UNL A   1      52.983  27.578  31.433  1.00  0.00    -0.237 OA
ATOM     94  O   UNL A   1      52.376  25.193  31.555  1.00  0.00    -0.744 OA
ENDBRANCH  90  91
ENDBRANCH  58  83
ENDBRANCH  32  33
ENDBRANCH  25  27
ENDBRANCH  24  25
ENDBRANCH  23  24
ENDBRANCH   1  23
TORSDOF 20
ENDMDL
MODEL 2
REMARK VINA RESULT:      -9.8      5.467     10.089
REMARK SMILES CNC(=O)CNC(=O)NC[C@H](CC(C)C)C(=O)OCCOC(=O)c1ccc(-c2c3nc(c(-c4c(F)cc(S(=O)(=O)[O-])cc4F)c4ccc([nH]4)c(-c4c(F)cc(S(=O)(=O)[O-])cc4F)c4nc(c(-c5c(F)cc(S(=O)(=O)[O-])cc5F)c5ccc2[nH]5)C=C4)C=C3)cc1
REMARK SMILES IDX 19 1 18 2 16 3 17 4 11 5 10 6 9 7 6 8 7 9 8 11 5 13 3 14
REMARK SMILES IDX 1 15 2 16 4 18 12 19 13 20 14 21 15 22 20 23 21 24 22 25
REMARK SMILES IDX 23 26 24 27 25 28 89 29 26 30 88 31 27 32 28 33 29 34 82 35
REMARK SMILES IDX 30 36 87 37 81 38 83 39 31 40 86 41 80 42 79 43 32 45 66 46
REMARK SMILES IDX 45 47 65 48 46 49 49 50 64 51 84 52 47 53 48 54 63 56 85 57
REMARK SMILES IDX 50 58 33 59 34 60 43 61 35 62 36 63 42 64 44 65 37 66 38 67
REMARK SMILES IDX 39 68 40 69 41 70 67 71 68 72 77 73 69 74 70 75 76 76 78 77
REMARK SMILES IDX 71 78 72 79 73 80 74 81 75 82 51 83 52 84 61 85 53 86 54 87
REMARK SMILES IDX 60 88 62 89 55 90 56 91 57 92 58 93 59 94
REMARK H PARENT 6 10 9 12 2 17 83 44 49 55
REMARK Flexibility Score: inf
ROOT
ATOM      1  C   UNL A   1      38.157  22.352  25.733  1.00  0.00     0.274 C 
ENDROOT
BRANCH   1   2
ATOM      2  O   UNL A   1      37.091  23.231  25.319  1.00  0.00    -0.462 OA
BRANCH   2   3
ATOM      3  C   UNL A   1      36.318  22.775  24.301  1.00  0.00     0.310 C 
ATOM      4  O   UNL A   1      36.735  22.522  23.175  1.00  0.00    -0.252 OA
BRANCH   3   5
ATOM      5  C   UNL A   1      34.845  22.635  24.658  1.00  0.00     0.119 C 
BRANCH   5   6
ATOM      6  C   UNL A   1      34.512  21.144  24.659  1.00  0.00     0.133 C 
BRANCH   6   7
ATOM      7  N   UNL A   1      35.658  20.330  25.044  1.00  0.00    -0.337 N 
ATOM      8  N   UNL A   1      35.212  18.102  24.407  1.00  0.00    -0.329 N 
ATOM      9  C   UNL A   1      36.029  19.061  24.850  1.00  0.00     0.315 C 
ATOM     10  H   UNL A   1      35.690  17.298  24.097  1.00  0.00     0.165 HD
ATOM     11  O   UNL A   1      37.199  18.755  25.081  1.00  0.00    -0.249 OA
ATOM     12  H   UNL A   1      36.316  20.836  25.573  1.00  0.00     0.165 HD
BRANCH   8  13
ATOM     13  C   UNL A   1      33.775  17.994  24.285  1.00  0.00     0.217 C 
BRANCH  13  14
ATOM     14  C   UNL A   1      32.959  17.729  25.555  1.00  0.00     0.239 C 
ATOM     15  C   UNL A   1      32.863  15.179  25.416  1.00  0.00     0.142 C 
ATOM     16  N   UNL A   1      32.588  16.486  25.963  1.00  0.00    -0.358 N 
ATOM     17  H   UNL A   1      32.033  16.477  26.776  1.00  0.00     0.163 HD
ATOM     18  O   UNL A   1      32.493  18.682  26.192  1.00  0.00    -0.273 OA
ENDBRANCH  13  14
ENDBRANCH   8  13
ENDBRANCH   6   7
ENDBRANCH   5   6
BRANCH   5  19
ATOM     19  C   UNL A   1      33.904  23.510  23.805  1.00  0.00     0.020 C 
BRANCH  19  20
ATOM     20  C   UNL A   1      34.067  25.038  23.966  1.00  0.00    -0.017 C 
ATOM     21  C   UNL A   1      33.045  25.841  23.159  1.00  0.00     0.007 C 
ATOM     22  C   UNL A   1      33.967  25.426  25.444  1.00  0.00     0.007 C 
ENDBRANCH  19  20
ENDBRANCH   5  19
ENDBRANCH   3   5
ENDBRANCH   2   3
ENDBRANCH   1   2
BRANCH   1  23
ATOM     23  C   UNL A   1      39.263  23.097  26.487  1.00  0.00     0.275 C 
BRANCH  23  24
ATOM     24  O   UNL A   1      39.004  24.509  26.573  1.00  0.00    -0.458 OA
BRANCH  24  25
ATOM     25  C   UNL A   1      40.099  25.295  26.459  1.00  0.00     0.338 C 
ATOM     26  O   UNL A   1      40.798  25.445  25.467  1.00  0.00    -0.246 OA
BRANCH  25  27
ATOM     27  C   UNL A   1      40.280  26.092  27.679  1.00  0.00     0.060 A 
ATOM     28  C   UNL A   1      39.327  25.952  28.688  1.00  0.00     0.016 A 
ATOM     29  C   UNL A   1      41.290  27.047  27.789  1.00  0.00     0.016 A 
ATOM     30  C   UNL A   1      39.368  26.764  29.815  1.00  0.00     0.010 A 
ATOM     31  C   UNL A   1      41.330  27.868  28.923  1.00  0.00     0.010 A 
ATOM     32  C   UNL A   1      40.361  27.740  29.935  1.00  0.00    -0.014 A 
BRANCH  32  33
ATOM     33  C   UNL A   1      40.317  28.680  31.081  1.00  0.00     0.031 A 
ATOM     34  C   UNL A   1      39.315  29.799  31.084  1.00  0.00     0.074 A 
ATOM     35  C   UNL A   1      41.130  28.494  32.138  1.00  0.00     0.049 A 
ATOM     36  N   UNL A   1      39.168  30.775  31.941  1.00  0.00    -0.248 NA
ATOM     37  C   UNL A   1      38.350  29.819  29.974  1.00  0.00     0.031 C 
ATOM     38  C   UNL A   1      42.091  27.401  32.281  1.00  0.00     0.029 A 
ATOM     39  N   UNL A   1      41.272  29.220  33.293  1.00  0.00    -0.354 N 
ATOM     40  C   UNL A   1      38.117  31.546  31.459  1.00  0.00     0.074 A 
ATOM     41  C   UNL A   1      37.666  30.926  30.231  1.00  0.00     0.031 C 
ATOM     42  C   UNL A   1      42.718  27.522  33.463  1.00  0.00     0.029 A 
ATOM     43  C   UNL A   1      42.241  28.728  34.135  1.00  0.00     0.049 A 
ATOM     44  H   UNL A   1      40.731  30.016  33.501  1.00  0.00     0.167 HD
ATOM     45  C   UNL A   1      37.579  32.669  31.993  1.00  0.00     0.037 A 
ATOM     46  C   UNL A   1      42.711  29.212  35.301  1.00  0.00     0.037 A 
ATOM     47  C   UNL A   1      38.020  33.266  33.227  1.00  0.00     0.049 A 
ATOM     48  C   UNL A   1      42.136  30.489  35.849  1.00  0.00     0.074 A 
ATOM     49  C   UNL A   1      37.547  34.408  33.850  1.00  0.00     0.029 A 
ATOM     50  N   UNL A   1      39.033  32.762  34.031  1.00  0.00    -0.354 N 
ATOM     51  N   UNL A   1      41.175  31.236  35.359  1.00  0.00    -0.248 NA
ATOM     52  C   UNL A   1      42.717  30.998  37.098  1.00  0.00     0.031 C 
ATOM     53  C   UNL A   1      38.296  34.612  35.016  1.00  0.00     0.029 A 
ATOM     54  C   UNL A   1      39.210  33.577  35.137  1.00  0.00     0.049 A 
ATOM     55  H   UNL A   1      39.549  31.946  33.842  1.00  0.00     0.167 HD
ATOM     56  C   UNL A   1      41.027  32.297  36.246  1.00  0.00     0.074 A 
ATOM     57  C   UNL A   1      41.990  32.087  37.310  1.00  0.00     0.031 C 
ATOM     58  C   UNL A   1      40.175  33.349  36.184  1.00  0.00     0.037 A 
BRANCH  45  59
ATOM     59  C   UNL A   1      36.484  33.344  31.216  1.00  0.00     0.058 A 
ATOM     60  C   UNL A   1      36.738  34.021  30.013  1.00  0.00     0.135 A 
ATOM     61  C   UNL A   1      35.163  33.317  31.688  1.00  0.00     0.135 A 
ATOM     62  F   UNL A   1      37.987  34.094  29.527  1.00  0.00    -0.206 F 
ATOM     63  C   UNL A   1      35.723  34.676  29.321  1.00  0.00     0.059 A 
ATOM     64  C   UNL A   1      34.129  33.946  31.002  1.00  0.00     0.059 A 
ATOM     65  F   UNL A   1      34.868  32.686  32.835  1.00  0.00    -0.206 F 
ATOM     66  C   UNL A   1      34.423  34.641  29.829  1.00  0.00     0.060 A 
BRANCH  66  67
ATOM     67  S   UNL A   1      33.118  35.517  28.940  1.00  0.00     0.124 S 
ATOM     68  O   UNL A   1      32.578  34.455  28.097  1.00  0.00    -0.237 OA
ATOM     69  O   UNL A   1      32.250  35.973  30.020  1.00  0.00    -0.237 OA
ATOM     70  O   UNL A   1      33.839  36.572  28.234  1.00  0.00    -0.744 OA
ENDBRANCH  66  67
ENDBRANCH  45  59
BRANCH  46  71
ATOM     71  C   UNL A   1      43.803  28.496  36.010  1.00  0.00     0.058 A 
ATOM     72  C   UNL A   1      43.526  27.412  36.855  1.00  0.00     0.135 A 
ATOM     73  C   UNL A   1      45.146  28.863  35.833  1.00  0.00     0.135 A 
ATOM     74  F   UNL A   1      42.257  27.032  37.065  1.00  0.00    -0.206 F 
ATOM     75  C   UNL A   1      44.543  26.713  37.498  1.00  0.00     0.059 A 
ATOM     76  C   UNL A   1      46.181  28.166  36.447  1.00  0.00     0.059 A 
ATOM     77  F   UNL A   1      45.462  29.889  35.027  1.00  0.00    -0.206 F 
ATOM     78  C   UNL A   1      45.869  27.095  37.283  1.00  0.00     0.060 A 
BRANCH  78  79
ATOM     79  S   UNL A   1      47.189  26.140  38.062  1.00  0.00     0.124 S 
ATOM     80  O   UNL A   1      48.318  27.055  37.954  1.00  0.00    -0.237 OA
ATOM     81  O   UNL A   1      46.664  25.929  39.409  1.00  0.00    -0.237 OA
ATOM     82  O   UNL A   1      47.265  24.940  37.234  1.00  0.00    -0.744 OA
ENDBRANCH  78  79
ENDBRANCH  46  71
BRANCH  58  83
ATOM     83  C   UNL A   1      40.231  34.344  37.308  1.00  0.00     0.058 A 
ATOM     84  C   UNL A   1      39.416  34.214  38.443  1.00  0.00     0.135 A 
ATOM     85  C   UNL A   1      41.141  35.412  37.269  1.00  0.00     0.135 A 
ATOM     86  F   UNL A   1      38.524  33.214  38.524  1.00  0.00    -0.206 F 
ATOM     87  C   UNL A   1      39.489  35.121  39.496  1.00  0.00     0.059 A 
ATOM     88  C   UNL A   1      41.245  36.319  38.319  1.00  0.00     0.059 A 
ATOM     89  F   UNL A   1      41.948  35.574  36.209  1.00  0.00    -0.206 F 
ATOM     90  C   UNL A   1      40.407  36.171  39.424  1.00  0.00     0.060 A 
BRANCH  90  91
ATOM     91  S   UNL A   1      40.519  37.324  40.809  1.00  0.00     0.124 S 
ATOM     92  O   UNL A   1      40.448  38.611  40.126  1.00  0.00    -0.237 OA
ATOM     93  O   UNL A   1      39.352  36.967  41.611  1.00  0.00    -0.237 OA
ATOM     94  O   UNL A   1      41.808  37.002  41.413  1.00  0.00    -0.744 OA
ENDBRANCH  90  91
ENDBRANCH  58  83
ENDBRANCH  32  33
ENDBRANCH  25  27
ENDBRANCH  24  25
ENDBRANCH  23  24
ENDBRANCH   1  23
TORSDOF 20
ENDMDL
MODEL 3
REMARK VINA RESULT:      -9.7      3.124      9.327
REMARK SMILES CNC(=O)CNC(=O)NC[C@H](CC(C)C)C(=O)OCCOC(=O)c1ccc(-c2c3nc(c(-c4c(F)cc(S(=O)(=O)[O-])cc4F)c4ccc([nH]4)c(-c4c(F)cc(S(=O)(=O)[O-])cc4F)c4nc(c(-c5c(F)cc(S(=O)(=O)[O-])cc5F)c5ccc2[nH]5)C=C4)C=C3)cc1
REMARK SMILES IDX 19 1 18 2 16 3 17 4 11 5 10 6 9 7 6 8 7 9 8 11 5 13 3 14
REMARK SMILES IDX 1 15 2 16 4 18 12 19 13 20 14 21 15 22 20 23 21 24 22 25
REMARK SMILES IDX 23 26 24 27 25 28 89 29 26 30 88 31 27 32 28 33 29 34 82 35
REMARK SMILES IDX 30 36 87 37 81 38 83 39 31 40 86 41 80 42 79 43 32 45 66 46
REMARK SMILES IDX 45 47 65 48 46 49 49 50 64 51 84 52 47 53 48 54 63 56 85 57
REMARK SMILES IDX 50 58 33 59 34 60 43 61 35 62 36 63 42 64 44 65 37 66 38 67
REMARK SMILES IDX 39 68 40 69 41 70 67 71 68 72 77 73 69 74 70 75 76 76 78 77
REMARK SMILES IDX 71 78 72 79 73 80 74 81 75 82 51 83 52 84 61 85 53 86 54 87
REMARK SMILES IDX 60 88 62 89 55 90 56 91 57 92 58 93 59 94
REMARK H PARENT 6 10 9 12 2 17 83 44 49 55
REMARK Flexibility Score: inf
ROOT
ATOM      1  C   UNL A   1      35.209  23.677  24.255  1.00  0.00     0.274 C 
ENDROOT
BRANCH   1   2
ATOM      2  O   UNL A   1      34.809  24.868  24.964  1.00  0.00    -0.462 OA
BRANCH   2   3
ATOM      3  C   UNL A   1      33.583  24.820  25.542  1.00  0.00     0.310 C 
ATOM      4  O   UNL A   1      33.016  23.785  25.878  1.00  0.00    -0.252 OA
BRANCH   3   5
ATOM      5  C   UNL A   1      32.925  26.182  25.711  1.00  0.00     0.119 C 
BRANCH   5   6
ATOM      6  C   UNL A   1      31.900  26.339  24.589  1.00  0.00     0.133 C 
BRANCH   6   7
ATOM      7  N   UNL A   1      32.401  25.832  23.318  1.00  0.00    -0.337 N 
ATOM      8  N   UNL A   1      33.346  27.641  22.136  1.00  0.00    -0.329 N 
ATOM      9  C   UNL A   1      33.115  26.338  22.310  1.00  0.00     0.315 C 
ATOM     10  H   UNL A   1      34.074  27.825  21.497  1.00  0.00     0.165 HD
ATOM     11  O   UNL A   1      33.605  25.556  21.494  1.00  0.00    -0.249 OA
ATOM     12  H   UNL A   1      32.152  24.891  23.167  1.00  0.00     0.165 HD
BRANCH   8  13
ATOM     13  C   UNL A   1      32.755  28.841  22.688  1.00  0.00     0.217 C 
BRANCH  13  14
ATOM     14  C   UNL A   1      31.226  28.935  22.740  1.00  0.00     0.239 C 
ATOM     15  C   UNL A   1      31.006  30.321  24.876  1.00  0.00     0.142 C 
ATOM     16  N   UNL A   1      30.547  29.574  23.730  1.00  0.00    -0.358 N 
ATOM     17  H   UNL A   1      29.568  29.517  23.649  1.00  0.00     0.163 HD
ATOM     18  O   UNL A   1      30.547  28.300  21.925  1.00  0.00    -0.273 OA
ENDBRANCH  13  14
ENDBRANCH   8  13
ENDBRANCH   6   7
ENDBRANCH   5   6
BRANCH   5  19
ATOM     19  C   UNL A   1      33.922  27.351  25.850  1.00  0.00     0.020 C 
BRANCH  19  20
ATOM     20  C   UNL A   1      33.734  28.260  27.085  1.00  0.00    -0.017 C 
ATOM     21  C   UNL A   1      34.175  29.704  26.841  1.00  0.00     0.007 C 
ATOM     22  C   UNL A   1      32.270  28.243  27.535  1.00  0.00     0.007 C 
ENDBRANCH  19  20
ENDBRANCH   5  19
ENDBRANCH   3   5
ENDBRANCH   2   3
ENDBRANCH   1   2
BRANCH   1  23
ATOM     23  C   UNL A   1      36.458  23.032  24.863  1.00  0.00     0.275 C 
BRANCH  23  24
ATOM     24  O   UNL A   1      37.403  24.012  25.328  1.00  0.00    -0.458 OA
BRANCH  24  25
ATOM     25  C   UNL A   1      38.496  23.501  25.941  1.00  0.00     0.338 C 
ATOM     26  O   UNL A   1      38.989  22.395  25.768  1.00  0.00    -0.246 OA
BRANCH  25  27
ATOM     27  C   UNL A   1      39.132  24.527  26.777  1.00  0.00     0.060 A 
ATOM     28  C   UNL A   1      38.746  24.601  28.115  1.00  0.00     0.016 A 
ATOM     29  C   UNL A   1      39.997  25.480  26.238  1.00  0.00     0.016 A 
ATOM     30  C   UNL A   1      39.215  25.625  28.930  1.00  0.00     0.010 A 
ATOM     31  C   UNL A   1      40.468  26.513  27.057  1.00  0.00     0.010 A 
ATOM     32  C   UNL A   1      40.068  26.599  28.403  1.00  0.00    -0.014 A 
BRANCH  32  33
ATOM     33  C   UNL A   1      40.459  27.752  29.250  1.00  0.00     0.031 A 
ATOM     34  C   UNL A   1      41.798  27.751  29.930  1.00  0.00     0.074 A 
ATOM     35  C   UNL A   1      39.642  28.816  29.360  1.00  0.00     0.049 A 
ATOM     36  N   UNL A   1      42.295  28.614  30.778  1.00  0.00    -0.248 NA
ATOM     37  C   UNL A   1      42.696  26.630  29.612  1.00  0.00     0.031 C 
ATOM     38  C   UNL A   1      38.351  28.962  28.688  1.00  0.00     0.029 A 
ATOM     39  N   UNL A   1      39.782  29.979  30.075  1.00  0.00    -0.354 N 
ATOM     40  C   UNL A   1      43.551  28.125  31.120  1.00  0.00     0.074 A 
ATOM     41  C   UNL A   1      43.736  26.888  30.393  1.00  0.00     0.031 C 
ATOM     42  C   UNL A   1      37.821  30.153  29.014  1.00  0.00     0.029 A 
ATOM     43  C   UNL A   1      38.707  30.828  29.958  1.00  0.00     0.049 A 
ATOM     44  H   UNL A   1      40.576  30.186  30.618  1.00  0.00     0.167 HD
ATOM     45  C   UNL A   1      44.463  28.662  31.966  1.00  0.00     0.037 A 
ATOM     46  C   UNL A   1      38.454  32.003  30.566  1.00  0.00     0.037 A 
ATOM     47  C   UNL A   1      44.279  29.906  32.668  1.00  0.00     0.049 A 
ATOM     48  C   UNL A   1      39.457  32.553  31.542  1.00  0.00     0.074 A 
ATOM     49  C   UNL A   1      45.138  30.532  33.554  1.00  0.00     0.029 A 
ATOM     50  N   UNL A   1      43.159  30.717  32.556  1.00  0.00    -0.354 N 
ATOM     51  N   UNL A   1      40.620  32.058  31.895  1.00  0.00    -0.248 NA
ATOM     52  C   UNL A   1      39.111  33.813  32.212  1.00  0.00     0.031 C 
ATOM     53  C   UNL A   1      44.523  31.707  34.002  1.00  0.00     0.029 A 
ATOM     54  C   UNL A   1      43.297  31.831  33.367  1.00  0.00     0.049 A 
ATOM     55  H   UNL A   1      42.380  30.528  31.985  1.00  0.00     0.167 HD
ATOM     56  C   UNL A   1      41.149  32.951  32.821  1.00  0.00     0.074 A 
ATOM     57  C   UNL A   1      40.185  34.025  32.962  1.00  0.00     0.031 C 
ATOM     58  C   UNL A   1      42.324  32.888  33.493  1.00  0.00     0.037 A 
BRANCH  45  59
ATOM     59  C   UNL A   1      45.722  27.877  32.207  1.00  0.00     0.058 A 
ATOM     60  C   UNL A   1      45.809  26.906  33.217  1.00  0.00     0.135 A 
ATOM     61  C   UNL A   1      46.860  28.107  31.418  1.00  0.00     0.135 A 
ATOM     62  F   UNL A   1      44.756  26.661  34.012  1.00  0.00    -0.206 F 
ATOM     63  C   UNL A   1      46.991  26.213  33.457  1.00  0.00     0.059 A 
ATOM     64  C   UNL A   1      48.046  27.410  31.626  1.00  0.00     0.059 A 
ATOM     65  F   UNL A   1      46.831  29.028  30.441  1.00  0.00    -0.206 F 
ATOM     66  C   UNL A   1      48.108  26.479  32.662  1.00  0.00     0.060 A 
BRANCH  66  67
ATOM     67  S   UNL A   1      49.646  25.595  32.999  1.00  0.00     0.124 S 
ATOM     68  O   UNL A   1      50.521  26.686  33.416  1.00  0.00    -0.237 OA
ATOM     69  O   UNL A   1      49.252  24.662  34.050  1.00  0.00    -0.237 OA
ATOM     70  O   UNL A   1      49.974  24.984  31.715  1.00  0.00    -0.744 OA
ENDBRANCH  66  67
ENDBRANCH  45  59
BRANCH  46  71
ATOM     71  C   UNL A   1      37.183  32.719  30.286  1.00  0.00     0.058 A 
ATOM     72  C   UNL A   1      36.075  32.583  31.134  1.00  0.00     0.135 A 
ATOM     73  C   UNL A   1      37.061  33.575  29.180  1.00  0.00     0.135 A 
ATOM     74  F   UNL A   1      36.139  31.767  32.197  1.00  0.00    -0.206 F 
ATOM     75  C   UNL A   1      34.890  33.274  30.900  1.00  0.00     0.059 A 
ATOM     76  C   UNL A   1      35.895  34.293  28.937  1.00  0.00     0.059 A 
ATOM     77  F   UNL A   1      38.097  33.744  28.344  1.00  0.00    -0.206 F 
ATOM     78  C   UNL A   1      34.812  34.132  29.800  1.00  0.00     0.060 A 
BRANCH  78  79
ATOM     79  S   UNL A   1      33.298  35.081  29.541  1.00  0.00     0.124 S 
ATOM     80  O   UNL A   1      32.669  34.995  30.853  1.00  0.00    -0.237 OA
ATOM     81  O   UNL A   1      33.815  36.393  29.164  1.00  0.00    -0.237 OA
ATOM     82  O   UNL A   1      32.627  34.351  28.469  1.00  0.00    -0.744 OA
ENDBRANCH  78  79
ENDBRANCH  46  71
BRANCH  58  83
ATOM     83  C   UNL A   1      42.642  34.020  34.428  1.00  0.00     0.058 A 
ATOM     84  C   UNL A   1      42.273  33.978  35.781  1.00  0.00     0.135 A 
ATOM     85  C   UNL A   1      43.360  35.137  33.975  1.00  0.00     0.135 A 
ATOM     86  F   UNL A   1      41.577  32.934  36.260  1.00  0.00    -0.206 F 
ATOM     87  C   UNL A   1      42.592  35.015  36.652  1.00  0.00     0.059 A 
ATOM     88  C   UNL A   1      43.708  36.176  34.833  1.00  0.00     0.059 A 
ATOM     89  F   UNL A   1      43.743  35.220  32.691  1.00  0.00    -0.206 F 
ATOM     90  C   UNL A   1      43.310  36.111  36.167  1.00  0.00     0.060 A 
BRANCH  90  91
ATOM     91  S   UNL A   1      43.748  37.437  37.311  1.00  0.00     0.124 S 
ATOM     92  O   UNL A   1      44.000  38.544  36.395  1.00  0.00    -0.237 OA
ATOM     93  O   UNL A   1      42.546  37.556  38.132  1.00  0.00    -0.237 OA
ATOM     94  O   UNL A   1      44.921  36.913  38.003  1.00  0.00    -0.744 OA
ENDBRANCH  90  91
ENDBRANCH  58  83
ENDBRANCH  32  33
ENDBRANCH  25  27
ENDBRANCH  24  25
ENDBRANCH  23  24
ENDBRANCH   1  23
TORSDOF 20
ENDMDL
