MODEL 1
REMARK VINA RESULT:     -13.1      0.000      0.000
REMARK SMILES O=C(OCCOC(=O)c1ccc(-n2cc(CSc3nc4ccccc4c(=O)n3-c3ccccc3)nn2)cc1)c1ccc(-c2c3nc(c(-c4c(F)cc(S(=O)(=O)[O-])cc4F)c4ccc([nH]4)c(-c4c(F)cc(S(=O)(=O)[O-])cc4F)c4nc(c(-c5c(F)cc(S(=O)(=O)[O-])cc5F)c5ccc2[nH]5)C=C4)C=C3)cc1
REMARK SMILES IDX 5 1 4 2 3 3 2 4 1 5 39 6 40 7 104 8 41 9 103 10 42 11 43 12
REMARK SMILES IDX 44 13 97 14 45 15 102 16 96 17 98 18 46 19 101 20 95 21
REMARK SMILES IDX 94 22 47 24 81 25 60 26 80 27 61 28 64 29 79 30 99 31 62 32
REMARK SMILES IDX 63 33 78 35 100 36 65 37 48 38 49 39 58 40 50 41 51 42 57 43
REMARK SMILES IDX 59 44 52 45 53 46 54 47 55 48 56 49 82 50 83 51 92 52 84 53
REMARK SMILES IDX 85 54 91 55 93 56 86 57 87 58 88 59 89 60 90 61 66 62 67 63
REMARK SMILES IDX 76 64 68 65 69 66 75 67 77 68 70 69 71 70 72 71 73 72 74 73
REMARK SMILES IDX 6 74 7 75 8 76 9 77 10 78 38 79 11 80 37 81 12 82 13 83
REMARK SMILES IDX 14 84 36 85 15 86 35 87 16 88 17 89 18 90 19 91 28 92 20 93
REMARK SMILES IDX 26 94 21 95 25 96 27 97 22 98 24 99 23 100 29 101 30 102
REMARK SMILES IDX 34 103 31 104 33 105 32 106
REMARK H PARENT 98 23 64 34
REMARK Flexibility Score: inf
ROOT
ATOM      1  C   UNL A   1      33.969  34.311  28.121  1.00  0.00     0.275 C 
ENDROOT
BRANCH   1   2
ATOM      2  C   UNL A   1      34.053  34.902  29.531  1.00  0.00     0.275 C 
BRANCH   2   3
ATOM      3  O   UNL A   1      33.779  34.017  30.633  1.00  0.00    -0.458 OA
BRANCH   3   4
ATOM      4  C   UNL A   1      34.659  33.920  31.651  1.00  0.00     0.338 C 
ATOM      5  O   UNL A   1      34.425  34.334  32.778  1.00  0.00    -0.246 OA
BRANCH   4   6
ATOM      6  C   UNL A   1      35.821  33.045  31.362  1.00  0.00     0.060 A 
ATOM      7  C   UNL A   1      35.753  31.647  31.305  1.00  0.00     0.016 A 
ATOM      8  C   UNL A   1      37.041  33.692  31.134  1.00  0.00     0.016 A 
ATOM      9  C   UNL A   1      36.909  30.901  31.145  1.00  0.00     0.010 A 
ATOM     10  C   UNL A   1      38.184  32.953  30.908  1.00  0.00     0.010 A 
ATOM     11  C   UNL A   1      38.126  31.565  31.013  1.00  0.00    -0.014 A 
BRANCH  11  12
ATOM     12  C   UNL A   1      39.357  30.792  30.987  1.00  0.00     0.031 A 
ATOM     13  C   UNL A   1      40.010  30.595  32.311  1.00  0.00     0.074 A 
ATOM     14  C   UNL A   1      39.737  30.174  29.849  1.00  0.00     0.049 A 
ATOM     15  N   UNL A   1      41.164  31.014  32.720  1.00  0.00    -0.248 NA
ATOM     16  C   UNL A   1      39.201  29.980  33.371  1.00  0.00     0.031 C 
ATOM     17  C   UNL A   1      39.027  30.116  28.564  1.00  0.00     0.029 A 
ATOM     18  N   UNL A   1      40.801  29.359  29.631  1.00  0.00    -0.354 N 
ATOM     19  C   UNL A   1      41.323  30.488  34.004  1.00  0.00     0.074 A 
ATOM     20  C   UNL A   1      40.020  30.049  34.422  1.00  0.00     0.031 C 
ATOM     21  C   UNL A   1      39.536  29.119  27.808  1.00  0.00     0.029 A 
ATOM     22  C   UNL A   1      40.705  28.586  28.478  1.00  0.00     0.049 A 
ATOM     23  H   UNL A   1      41.575  29.319  30.239  1.00  0.00     0.167 HD
ATOM     24  C   UNL A   1      42.556  30.212  34.517  1.00  0.00     0.037 A 
ATOM     25  C   UNL A   1      41.504  27.538  28.151  1.00  0.00     0.037 A 
ATOM     26  C   UNL A   1      43.588  30.897  33.781  1.00  0.00     0.049 A 
ATOM     27  C   UNL A   1      42.754  27.701  28.944  1.00  0.00     0.074 A 
ATOM     28  C   UNL A   1      43.879  32.222  33.522  1.00  0.00     0.029 A 
ATOM     29  N   UNL A   1      44.291  30.174  32.846  1.00  0.00    -0.354 N 
ATOM     30  N   UNL A   1      43.575  28.709  28.785  1.00  0.00    -0.248 NA
ATOM     31  C   UNL A   1      42.814  27.051  30.245  1.00  0.00     0.031 C 
ATOM     32  C   UNL A   1      44.306  32.243  32.162  1.00  0.00     0.029 A 
ATOM     33  C   UNL A   1      44.332  30.926  31.699  1.00  0.00     0.049 A 
ATOM     34  H   UNL A   1      44.688  29.283  32.974  1.00  0.00     0.167 HD
ATOM     35  C   UNL A   1      43.945  29.080  30.071  1.00  0.00     0.074 A 
ATOM     36  C   UNL A   1      43.484  27.985  30.926  1.00  0.00     0.031 C 
ATOM     37  C   UNL A   1      44.321  30.362  30.365  1.00  0.00     0.037 A 
BRANCH  24  38
ATOM     38  C   UNL A   1      42.863  29.035  35.422  1.00  0.00     0.058 A 
ATOM     39  C   UNL A   1      43.684  29.228  36.553  1.00  0.00     0.135 A 
ATOM     40  C   UNL A   1      42.634  27.687  35.065  1.00  0.00     0.135 A 
ATOM     41  F   UNL A   1      43.970  30.466  36.987  1.00  0.00    -0.206 F 
ATOM     42  C   UNL A   1      44.299  28.167  37.222  1.00  0.00     0.059 A 
ATOM     43  C   UNL A   1      43.192  26.613  35.752  1.00  0.00     0.059 A 
ATOM     44  F   UNL A   1      41.947  27.342  33.973  1.00  0.00    -0.206 F 
ATOM     45  C   UNL A   1      44.061  26.863  36.799  1.00  0.00     0.060 A 
BRANCH  45  46
ATOM     46  S   UNL A   1      44.946  25.503  37.582  1.00  0.00     0.124 S 
ATOM     47  O   UNL A   1      44.427  24.356  36.846  1.00  0.00    -0.237 OA
ATOM     48  O   UNL A   1      46.338  25.856  37.317  1.00  0.00    -0.237 OA
ATOM     49  O   UNL A   1      44.540  25.595  38.981  1.00  0.00    -0.744 OA
ENDBRANCH  45  46
ENDBRANCH  24  38
BRANCH  25  50
ATOM     50  C   UNL A   1      41.062  26.239  27.566  1.00  0.00     0.058 A 
ATOM     51  C   UNL A   1      41.794  25.597  26.553  1.00  0.00     0.135 A 
ATOM     52  C   UNL A   1      40.048  25.469  28.176  1.00  0.00     0.135 A 
ATOM     53  F   UNL A   1      42.795  26.243  25.934  1.00  0.00    -0.206 F 
ATOM     54  C   UNL A   1      41.558  24.264  26.188  1.00  0.00     0.059 A 
ATOM     55  C   UNL A   1      39.790  24.144  27.827  1.00  0.00     0.059 A 
ATOM     56  F   UNL A   1      39.327  25.957  29.197  1.00  0.00    -0.206 F 
ATOM     57  C   UNL A   1      40.562  23.539  26.845  1.00  0.00     0.060 A 
BRANCH  57  58
ATOM     58  S   UNL A   1      40.351  21.776  26.490  1.00  0.00     0.124 S 
ATOM     59  O   UNL A   1      39.005  21.740  25.927  1.00  0.00    -0.237 OA
ATOM     60  O   UNL A   1      41.440  21.516  25.553  1.00  0.00    -0.237 OA
ATOM     61  O   UNL A   1      40.494  21.144  27.799  1.00  0.00    -0.744 OA
ENDBRANCH  57  58
ENDBRANCH  25  50
BRANCH  37  62
ATOM     62  C   UNL A   1      44.528  31.330  29.224  1.00  0.00     0.058 A 
ATOM     63  C   UNL A   1      45.680  31.372  28.414  1.00  0.00     0.135 A 
ATOM     64  C   UNL A   1      43.446  32.124  28.819  1.00  0.00     0.135 A 
ATOM     65  F   UNL A   1      46.719  30.565  28.659  1.00  0.00    -0.206 F 
ATOM     66  C   UNL A   1      45.769  32.192  27.287  1.00  0.00     0.059 A 
ATOM     67  C   UNL A   1      43.499  32.928  27.682  1.00  0.00     0.059 A 
ATOM     68  F   UNL A   1      42.290  32.079  29.502  1.00  0.00    -0.206 F 
ATOM     69  C   UNL A   1      44.668  32.968  26.927  1.00  0.00     0.060 A 
BRANCH  69  70
ATOM     70  S   UNL A   1      44.754  33.975  25.430  1.00  0.00     0.124 S 
ATOM     71  O   UNL A   1      44.217  33.072  24.419  1.00  0.00    -0.237 OA
ATOM     72  O   UNL A   1      43.913  35.121  25.768  1.00  0.00    -0.237 OA
ATOM     73  O   UNL A   1      46.178  34.277  25.303  1.00  0.00    -0.744 OA
ENDBRANCH  69  70
ENDBRANCH  37  62
ENDBRANCH  11  12
ENDBRANCH   4   6
ENDBRANCH   3   4
ENDBRANCH   2   3
ENDBRANCH   1   2
BRANCH   1  74
ATOM     74  O   UNL A   1      33.666  32.904  28.152  1.00  0.00    -0.458 OA
BRANCH  74  75
ATOM     75  C   UNL A   1      34.664  32.070  27.768  1.00  0.00     0.338 C 
ATOM     76  O   UNL A   1      35.869  32.280  27.805  1.00  0.00    -0.246 OA
BRANCH  75  77
ATOM     77  C   UNL A   1      34.071  30.798  27.330  1.00  0.00     0.060 A 
ATOM     78  C   UNL A   1      32.701  30.744  27.055  1.00  0.00     0.018 A 
ATOM     79  C   UNL A   1      34.864  29.651  27.223  1.00  0.00     0.018 A 
ATOM     80  C   UNL A   1      32.129  29.566  26.576  1.00  0.00     0.029 A 
ATOM     81  C   UNL A   1      34.281  28.447  26.818  1.00  0.00     0.029 A 
ATOM     82  C   UNL A   1      32.925  28.427  26.457  1.00  0.00     0.066 A 
BRANCH  82  83
ATOM     83  N   UNL A   1      32.280  27.201  26.243  1.00  0.00    -0.220 N 
ATOM     84  C   UNL A   1      32.448  26.098  27.026  1.00  0.00     0.141 A 
ATOM     85  N   UNL A   1      31.324  26.974  25.335  1.00  0.00    -0.062 NA
ATOM     86  C   UNL A   1      31.564  25.159  26.561  1.00  0.00     0.093 A 
ATOM     87  N   UNL A   1      30.909  25.718  25.485  1.00  0.00    -0.134 NA
BRANCH  86  88
ATOM     88  C   UNL A   1      31.466  23.703  26.838  1.00  0.00     0.138 C 
BRANCH  88  89
ATOM     89  S   UNL A   1      30.895  22.455  25.685  1.00  0.00    -0.081 SA
BRANCH  89  90
ATOM     90  C   UNL A   1      32.146  21.464  24.989  1.00  0.00     0.176 A 
ATOM     91  N   UNL A   1      31.842  20.198  25.010  1.00  0.00    -0.223 NA
ATOM     92  N   UNL A   1      33.341  21.900  24.444  1.00  0.00    -0.255 N 
ATOM     93  C   UNL A   1      32.820  19.270  24.636  1.00  0.00     0.079 A 
ATOM     94  C   UNL A   1      34.430  21.071  24.744  1.00  0.00     0.266 A 
ATOM     95  C   UNL A   1      32.494  17.949  24.332  1.00  0.00     0.029 A 
ATOM     96  C   UNL A   1      34.159  19.627  24.687  1.00  0.00     0.066 A 
ATOM     97  O   UNL A   1      35.565  21.443  25.037  1.00  0.00    -0.268 OA
ATOM     98  C   UNL A   1      33.506  16.995  24.160  1.00  0.00     0.002 A 
ATOM     99  C   UNL A   1      35.181  18.680  24.585  1.00  0.00     0.016 A 
ATOM    100  C   UNL A   1      34.845  17.351  24.330  1.00  0.00     0.001 A 
BRANCH  92 101
ATOM    101  C   UNL A   1      33.575  23.101  23.667  1.00  0.00     0.051 A 
ATOM    102  C   UNL A   1      34.176  24.224  24.275  1.00  0.00     0.027 A 
ATOM    103  C   UNL A   1      33.191  23.265  22.331  1.00  0.00     0.027 A 
ATOM    104  C   UNL A   1      34.143  25.492  23.686  1.00  0.00     0.002 A 
ATOM    105  C   UNL A   1      33.088  24.543  21.762  1.00  0.00     0.002 A 
ATOM    106  C   UNL A   1      33.528  25.662  22.457  1.00  0.00     0.000 A 
ENDBRANCH  92 101
ENDBRANCH  89  90
ENDBRANCH  88  89
ENDBRANCH  86  88
ENDBRANCH  82  83
ENDBRANCH  75  77
ENDBRANCH  74  75
ENDBRANCH   1  74
TORSDOF 19
ENDMDL
MODEL 2
REMARK VINA RESULT:     -12.7      3.189      9.905
REMARK SMILES O=C(OCCOC(=O)c1ccc(-n2cc(CSc3nc4ccccc4c(=O)n3-c3ccccc3)nn2)cc1)c1ccc(-c2c3nc(c(-c4c(F)cc(S(=O)(=O)[O-])cc4F)c4ccc([nH]4)c(-c4c(F)cc(S(=O)(=O)[O-])cc4F)c4nc(c(-c5c(F)cc(S(=O)(=O)[O-])cc5F)c5ccc2[nH]5)C=C4)C=C3)cc1
REMARK SMILES IDX 5 1 4 2 3 3 2 4 1 5 39 6 40 7 104 8 41 9 103 10 42 11 43 12
REMARK SMILES IDX 44 13 97 14 45 15 102 16 96 17 98 18 46 19 101 20 95 21
REMARK SMILES IDX 94 22 47 24 81 25 60 26 80 27 61 28 64 29 79 30 99 31 62 32
REMARK SMILES IDX 63 33 78 35 100 36 65 37 48 38 49 39 58 40 50 41 51 42 57 43
REMARK SMILES IDX 59 44 52 45 53 46 54 47 55 48 56 49 82 50 83 51 92 52 84 53
REMARK SMILES IDX 85 54 91 55 93 56 86 57 87 58 88 59 89 60 90 61 66 62 67 63
REMARK SMILES IDX 76 64 68 65 69 66 75 67 77 68 70 69 71 70 72 71 73 72 74 73
REMARK SMILES IDX 6 74 7 75 8 76 9 77 10 78 38 79 11 80 37 81 12 82 13 83
REMARK SMILES IDX 14 84 36 85 15 86 35 87 16 88 17 89 18 90 19 91 28 92 20 93
REMARK SMILES IDX 26 94 21 95 25 96 27 97 22 98 24 99 23 100 29 101 30 102
REMARK SMILES IDX 34 103 31 104 33 105 32 106
REMARK H PARENT 98 23 64 34
REMARK Flexibility Score: inf
ROOT
ATOM      1  C   UNL A   1      44.755  18.783  24.727  1.00  0.00     0.275 C 
ENDROOT
BRANCH   1   2
ATOM      2  C   UNL A   1      44.760  19.775  23.562  1.00  0.00     0.275 C 
BRANCH   2   3
ATOM      3  O   UNL A   1      44.568  21.167  23.880  1.00  0.00    -0.458 OA
BRANCH   3   4
ATOM      4  C   UNL A   1      45.505  21.829  24.590  1.00  0.00     0.338 C 
ATOM      5  O   UNL A   1      46.706  21.653  24.436  1.00  0.00    -0.246 OA
BRANCH   4   6
ATOM      6  C   UNL A   1      44.973  22.965  25.380  1.00  0.00     0.060 A 
ATOM      7  C   UNL A   1      44.076  23.916  24.877  1.00  0.00     0.016 A 
ATOM      8  C   UNL A   1      45.412  23.056  26.706  1.00  0.00     0.016 A 
ATOM      9  C   UNL A   1      43.721  25.011  25.648  1.00  0.00     0.010 A 
ATOM     10  C   UNL A   1      45.007  24.109  27.498  1.00  0.00     0.010 A 
ATOM     11  C   UNL A   1      44.245  25.129  26.932  1.00  0.00    -0.014 A 
BRANCH  11  12
ATOM     12  C   UNL A   1      43.991  26.342  27.693  1.00  0.00     0.031 A 
ATOM     13  C   UNL A   1      44.977  27.439  27.486  1.00  0.00     0.074 A 
ATOM     14  C   UNL A   1      42.838  26.471  28.383  1.00  0.00     0.049 A 
ATOM     15  N   UNL A   1      45.794  27.971  28.336  1.00  0.00    -0.248 NA
ATOM     16  C   UNL A   1      45.187  27.897  26.106  1.00  0.00     0.031 C 
ATOM     17  C   UNL A   1      41.705  25.539  28.445  1.00  0.00     0.029 A 
ATOM     18  N   UNL A   1      42.381  27.534  29.094  1.00  0.00    -0.354 N 
ATOM     19  C   UNL A   1      46.433  29.006  27.649  1.00  0.00     0.074 A 
ATOM     20  C   UNL A   1      46.178  28.776  26.253  1.00  0.00     0.031 C 
ATOM     21  C   UNL A   1      40.617  26.178  28.927  1.00  0.00     0.029 A 
ATOM     22  C   UNL A   1      41.015  27.501  29.360  1.00  0.00     0.049 A 
ATOM     23  H   UNL A   1      42.967  28.266  29.395  1.00  0.00     0.167 HD
ATOM     24  C   UNL A   1      46.895  30.115  28.293  1.00  0.00     0.037 A 
ATOM     25  C   UNL A   1      40.271  28.530  29.841  1.00  0.00     0.037 A 
ATOM     26  C   UNL A   1      47.016  29.878  29.710  1.00  0.00     0.049 A 
ATOM     27  C   UNL A   1      41.226  29.468  30.494  1.00  0.00     0.074 A 
ATOM     28  C   UNL A   1      47.740  28.997  30.488  1.00  0.00     0.029 A 
ATOM     29  N   UNL A   1      46.013  30.352  30.523  1.00  0.00    -0.354 N 
ATOM     30  N   UNL A   1      41.933  29.148  31.549  1.00  0.00    -0.248 NA
ATOM     31  C   UNL A   1      41.776  30.542  29.680  1.00  0.00     0.031 C 
ATOM     32  C   UNL A   1      46.846  28.606  31.527  1.00  0.00     0.029 A 
ATOM     33  C   UNL A   1      45.663  29.332  31.372  1.00  0.00     0.049 A 
ATOM     34  H   UNL A   1      45.619  31.253  30.499  1.00  0.00     0.167 HD
ATOM     35  C   UNL A   1      43.196  29.674  31.310  1.00  0.00     0.074 A 
ATOM     36  C   UNL A   1      43.021  30.568  30.165  1.00  0.00     0.031 C 
ATOM     37  C   UNL A   1      44.318  29.120  31.864  1.00  0.00     0.037 A 
BRANCH  24  38
ATOM     38  C   UNL A   1      46.868  31.515  27.715  1.00  0.00     0.058 A 
ATOM     39  C   UNL A   1      48.035  32.306  27.763  1.00  0.00     0.135 A 
ATOM     40  C   UNL A   1      45.682  32.210  27.390  1.00  0.00     0.135 A 
ATOM     41  F   UNL A   1      49.223  31.755  28.059  1.00  0.00    -0.206 F 
ATOM     42  C   UNL A   1      48.009  33.692  27.588  1.00  0.00     0.059 A 
ATOM     43  C   UNL A   1      45.642  33.582  27.157  1.00  0.00     0.059 A 
ATOM     44  F   UNL A   1      44.483  31.619  27.385  1.00  0.00    -0.206 F 
ATOM     45  C   UNL A   1      46.801  34.322  27.305  1.00  0.00     0.060 A 
BRANCH  45  46
ATOM     46  S   UNL A   1      46.743  36.119  27.199  1.00  0.00     0.124 S 
ATOM     47  O   UNL A   1      47.831  36.392  26.267  1.00  0.00    -0.237 OA
ATOM     48  O   UNL A   1      45.394  36.349  26.691  1.00  0.00    -0.237 OA
ATOM     49  O   UNL A   1      46.967  36.547  28.577  1.00  0.00    -0.744 OA
ENDBRANCH  45  46
ENDBRANCH  24  38
BRANCH  25  50
ATOM     50  C   UNL A   1      38.911  28.929  29.377  1.00  0.00     0.058 A 
ATOM     51  C   UNL A   1      37.840  29.086  30.274  1.00  0.00     0.135 A 
ATOM     52  C   UNL A   1      38.698  29.420  28.071  1.00  0.00     0.135 A 
ATOM     53  F   UNL A   1      37.961  28.671  31.545  1.00  0.00    -0.206 F 
ATOM     54  C   UNL A   1      36.644  29.720  29.908  1.00  0.00     0.059 A 
ATOM     55  C   UNL A   1      37.515  30.049  27.682  1.00  0.00     0.059 A 
ATOM     56  F   UNL A   1      39.672  29.381  27.149  1.00  0.00    -0.206 F 
ATOM     57  C   UNL A   1      36.498  30.214  28.612  1.00  0.00     0.060 A 
BRANCH  57  58
ATOM     58  S   UNL A   1      35.022  31.167  28.174  1.00  0.00     0.124 S 
ATOM     59  O   UNL A   1      34.527  31.578  29.484  1.00  0.00    -0.237 OA
ATOM     60  O   UNL A   1      35.574  32.229  27.340  1.00  0.00    -0.237 OA
ATOM     61  O   UNL A   1      34.185  30.198  27.470  1.00  0.00    -0.744 OA
ENDBRANCH  57  58
ENDBRANCH  25  50
BRANCH  37  62
ATOM     62  C   UNL A   1      44.146  28.043  32.910  1.00  0.00     0.058 A 
ATOM     63  C   UNL A   1      43.815  28.289  34.257  1.00  0.00     0.135 A 
ATOM     64  C   UNL A   1      44.140  26.705  32.495  1.00  0.00     0.135 A 
ATOM     65  F   UNL A   1      43.687  29.540  34.715  1.00  0.00    -0.206 F 
ATOM     66  C   UNL A   1      43.534  27.257  35.155  1.00  0.00     0.059 A 
ATOM     67  C   UNL A   1      43.833  25.659  33.364  1.00  0.00     0.059 A 
ATOM     68  F   UNL A   1      44.375  26.402  31.208  1.00  0.00    -0.206 F 
ATOM     69  C   UNL A   1      43.545  25.940  34.697  1.00  0.00     0.060 A 
BRANCH  69  70
ATOM     70  S   UNL A   1      43.112  24.608  35.837  1.00  0.00     0.124 S 
ATOM     71  O   UNL A   1      42.372  25.318  36.874  1.00  0.00    -0.237 OA
ATOM     72  O   UNL A   1      42.324  23.711  34.996  1.00  0.00    -0.237 OA
ATOM     73  O   UNL A   1      44.410  24.078  36.250  1.00  0.00    -0.744 OA
ENDBRANCH  69  70
ENDBRANCH  37  62
ENDBRANCH  11  12
ENDBRANCH   4   6
ENDBRANCH   3   4
ENDBRANCH   2   3
ENDBRANCH   1   2
BRANCH   1  74
ATOM     74  O   UNL A   1      43.443  18.237  24.955  1.00  0.00    -0.458 OA
BRANCH  74  75
ATOM     75  C   UNL A   1      42.973  18.322  26.224  1.00  0.00     0.338 C 
ATOM     76  O   UNL A   1      43.319  17.661  27.195  1.00  0.00    -0.246 OA
BRANCH  75  77
ATOM     77  C   UNL A   1      41.982  19.408  26.287  1.00  0.00     0.060 A 
ATOM     78  C   UNL A   1      40.659  19.143  25.922  1.00  0.00     0.018 A 
ATOM     79  C   UNL A   1      42.371  20.694  26.675  1.00  0.00     0.018 A 
ATOM     80  C   UNL A   1      39.689  20.139  26.035  1.00  0.00     0.029 A 
ATOM     81  C   UNL A   1      41.419  21.716  26.715  1.00  0.00     0.029 A 
ATOM     82  C   UNL A   1      40.076  21.418  26.435  1.00  0.00     0.066 A 
BRANCH  82  83
ATOM     83  N   UNL A   1      39.151  22.458  26.276  1.00  0.00    -0.220 N 
ATOM     84  C   UNL A   1      37.858  22.281  25.882  1.00  0.00     0.141 A 
ATOM     85  N   UNL A   1      39.357  23.739  26.603  1.00  0.00    -0.062 NA
ATOM     86  C   UNL A   1      37.260  23.513  25.964  1.00  0.00     0.093 A 
ATOM     87  N   UNL A   1      38.226  24.405  26.375  1.00  0.00    -0.134 NA
BRANCH  86  88
ATOM     88  C   UNL A   1      35.960  23.992  25.431  1.00  0.00     0.138 C 
BRANCH  88  89
ATOM     89  S   UNL A   1      35.212  23.481  23.883  1.00  0.00    -0.081 SA
BRANCH  89  90
ATOM     90  C   UNL A   1      33.554  23.966  23.667  1.00  0.00     0.176 A 
ATOM     91  N   UNL A   1      33.451  25.169  23.178  1.00  0.00    -0.223 NA
ATOM     92  N   UNL A   1      32.428  23.212  23.945  1.00  0.00    -0.255 N 
ATOM     93  C   UNL A   1      32.182  25.755  23.106  1.00  0.00     0.079 A 
ATOM     94  C   UNL A   1      31.380  23.954  24.508  1.00  0.00     0.266 A 
ATOM     95  C   UNL A   1      31.944  26.885  22.326  1.00  0.00     0.029 A 
ATOM     96  C   UNL A   1      31.164  25.285  23.922  1.00  0.00     0.066 A 
ATOM     97  O   UNL A   1      30.644  23.590  25.422  1.00  0.00    -0.268 OA
ATOM     98  C   UNL A   1      30.725  27.568  22.429  1.00  0.00     0.002 A 
ATOM     99  C   UNL A   1      29.968  25.988  24.089  1.00  0.00     0.016 A 
ATOM    100  C   UNL A   1      29.756  27.145  23.341  1.00  0.00     0.001 A 
BRANCH  92 101
ATOM    101  C   UNL A   1      32.249  21.786  23.762  1.00  0.00     0.051 A 
ATOM    102  C   UNL A   1      32.439  20.909  24.851  1.00  0.00     0.027 A 
ATOM    103  C   UNL A   1      31.947  21.178  22.537  1.00  0.00     0.027 A 
ATOM    104  C   UNL A   1      32.590  19.530  24.676  1.00  0.00     0.002 A 
ATOM    105  C   UNL A   1      32.167  19.807  22.340  1.00  0.00     0.002 A 
ATOM    106  C   UNL A   1      32.528  18.989  23.403  1.00  0.00     0.000 A 
ENDBRANCH  92 101
ENDBRANCH  89  90
ENDBRANCH  88  89
ENDBRANCH  86  88
ENDBRANCH  82  83
ENDBRANCH  75  77
ENDBRANCH  74  75
ENDBRANCH   1  74
TORSDOF 19
ENDMDL
MODEL 3
REMARK VINA RESULT:     -12.5      2.750      9.660
REMARK SMILES O=C(OCCOC(=O)c1ccc(-n2cc(CSc3nc4ccccc4c(=O)n3-c3ccccc3)nn2)cc1)c1ccc(-c2c3nc(c(-c4c(F)cc(S(=O)(=O)[O-])cc4F)c4ccc([nH]4)c(-c4c(F)cc(S(=O)(=O)[O-])cc4F)c4nc(c(-c5c(F)cc(S(=O)(=O)[O-])cc5F)c5ccc2[nH]5)C=C4)C=C3)cc1
REMARK SMILES IDX 5 1 4 2 3 3 2 4 1 5 39 6 40 7 104 8 41 9 103 10 42 11 43 12
REMARK SMILES IDX 44 13 97 14 45 15 102 16 96 17 98 18 46 19 101 20 95 21
REMARK SMILES IDX 94 22 47 24 81 25 60 26 80 27 61 28 64 29 79 30 99 31 62 32
REMARK SMILES IDX 63 33 78 35 100 36 65 37 48 38 49 39 58 40 50 41 51 42 57 43
REMARK SMILES IDX 59 44 52 45 53 46 54 47 55 48 56 49 82 50 83 51 92 52 84 53
REMARK SMILES IDX 85 54 91 55 93 56 86 57 87 58 88 59 89 60 90 61 66 62 67 63
REMARK SMILES IDX 76 64 68 65 69 66 75 67 77 68 70 69 71 70 72 71 73 72 74 73
REMARK SMILES IDX 6 74 7 75 8 76 9 77 10 78 38 79 11 80 37 81 12 82 13 83
REMARK SMILES IDX 14 84 36 85 15 86 35 87 16 88 17 89 18 90 19 91 28 92 20 93
REMARK SMILES IDX 26 94 21 95 25 96 27 97 22 98 24 99 23 100 29 101 30 102
REMARK SMILES IDX 34 103 31 104 33 105 32 106
REMARK H PARENT 98 23 64 34
REMARK Flexibility Score: inf
ROOT
ATOM      1  C   UNL A   1      41.148  20.300  27.014  1.00  0.00     0.275 C 
ENDROOT
BRANCH   1   2
ATOM      2  C   UNL A   1      42.237  21.020  26.215  1.00  0.00     0.275 C 
BRANCH   2   3
ATOM      3  O   UNL A   1      41.937  22.346  25.739  1.00  0.00    -0.458 OA
BRANCH   3   4
ATOM      4  C   UNL A   1      42.942  23.183  25.409  1.00  0.00     0.338 C 
ATOM      5  O   UNL A   1      43.630  23.037  24.408  1.00  0.00    -0.246 OA
BRANCH   4   6
ATOM      6  C   UNL A   1      42.975  24.431  26.209  1.00  0.00     0.060 A 
ATOM      7  C   UNL A   1      43.741  24.595  27.371  1.00  0.00     0.016 A 
ATOM      8  C   UNL A   1      42.186  25.487  25.741  1.00  0.00     0.016 A 
ATOM      9  C   UNL A   1      43.623  25.754  28.122  1.00  0.00     0.010 A 
ATOM     10  C   UNL A   1      42.119  26.668  26.452  1.00  0.00     0.010 A 
ATOM     11  C   UNL A   1      42.759  26.754  27.686  1.00  0.00    -0.014 A 
BRANCH  11  12
ATOM     12  C   UNL A   1      42.523  27.909  28.538  1.00  0.00     0.031 A 
ATOM     13  C   UNL A   1      43.599  28.939  28.522  1.00  0.00     0.074 A 
ATOM     14  C   UNL A   1      41.324  28.065  29.137  1.00  0.00     0.049 A 
ATOM     15  N   UNL A   1      44.370  29.325  29.486  1.00  0.00    -0.248 NA
ATOM     16  C   UNL A   1      43.965  29.503  27.216  1.00  0.00     0.031 C 
ATOM     17  C   UNL A   1      40.128  27.223  29.014  1.00  0.00     0.029 A 
ATOM     18  N   UNL A   1      40.881  29.091  29.908  1.00  0.00    -0.354 N 
ATOM     19  C   UNL A   1      45.141  30.365  28.959  1.00  0.00     0.074 A 
ATOM     20  C   UNL A   1      44.998  30.285  27.531  1.00  0.00     0.031 C 
ATOM     21  C   UNL A   1      39.048  27.898  29.463  1.00  0.00     0.029 A 
ATOM     22  C   UNL A   1      39.497  29.142  30.055  1.00  0.00     0.049 A 
ATOM     23  H   UNL A   1      41.487  29.744  30.328  1.00  0.00     0.167 HD
ATOM     24  C   UNL A   1      45.620  31.371  29.745  1.00  0.00     0.037 A 
ATOM     25  C   UNL A   1      38.787  30.178  30.570  1.00  0.00     0.037 A 
ATOM     26  C   UNL A   1      45.594  30.997  31.137  1.00  0.00     0.049 A 
ATOM     27  C   UNL A   1      39.742  30.974  31.390  1.00  0.00     0.074 A 
ATOM     28  C   UNL A   1      46.181  29.994  31.883  1.00  0.00     0.029 A 
ATOM     29  N   UNL A   1      44.558  31.472  31.906  1.00  0.00    -0.354 N 
ATOM     30  N   UNL A   1      40.326  30.504  32.464  1.00  0.00    -0.248 NA
ATOM     31  C   UNL A   1      40.439  32.070  30.734  1.00  0.00     0.031 C 
ATOM     32  C   UNL A   1      45.171  29.582  32.800  1.00  0.00     0.029 A 
ATOM     33  C   UNL A   1      44.061  30.409  32.619  1.00  0.00     0.049 A 
ATOM     34  H   UNL A   1      44.232  32.400  31.937  1.00  0.00     0.167 HD
ATOM     35  C   UNL A   1      41.640  30.949  32.384  1.00  0.00     0.074 A 
ATOM     36  C   UNL A   1      41.633  31.954  31.321  1.00  0.00     0.031 C 
ATOM     37  C   UNL A   1      42.665  30.259  32.973  1.00  0.00     0.037 A 
BRANCH  24  38
ATOM     38  C   UNL A   1      45.744  32.816  29.306  1.00  0.00     0.058 A 
ATOM     39  C   UNL A   1      44.624  33.468  28.749  1.00  0.00     0.135 A 
ATOM     40  C   UNL A   1      46.977  33.484  29.135  1.00  0.00     0.135 A 
ATOM     41  F   UNL A   1      43.398  32.929  28.850  1.00  0.00    -0.206 F 
ATOM     42  C   UNL A   1      44.735  34.647  28.006  1.00  0.00     0.059 A 
ATOM     43  C   UNL A   1      47.102  34.687  28.447  1.00  0.00     0.059 A 
ATOM     44  F   UNL A   1      48.139  32.956  29.532  1.00  0.00    -0.206 F 
ATOM     45  C   UNL A   1      45.984  35.237  27.845  1.00  0.00     0.060 A 
BRANCH  45  46
ATOM     46  S   UNL A   1      46.149  36.686  26.789  1.00  0.00     0.124 S 
ATOM     47  O   UNL A   1      44.817  37.271  26.886  1.00  0.00    -0.237 OA
ATOM     48  O   UNL A   1      47.220  37.424  27.454  1.00  0.00    -0.237 OA
ATOM     49  O   UNL A   1      46.502  36.121  25.490  1.00  0.00    -0.744 OA
ENDBRANCH  45  46
ENDBRANCH  24  38
BRANCH  25  50
ATOM     50  C   UNL A   1      37.506  30.722  30.036  1.00  0.00     0.058 A 
ATOM     51  C   UNL A   1      36.529  31.279  30.879  1.00  0.00     0.135 A 
ATOM     52  C   UNL A   1      37.326  30.947  28.654  1.00  0.00     0.135 A 
ATOM     53  F   UNL A   1      36.632  31.138  32.211  1.00  0.00    -0.206 F 
ATOM     54  C   UNL A   1      35.459  32.039  30.387  1.00  0.00     0.059 A 
ATOM     55  C   UNL A   1      36.267  31.694  28.139  1.00  0.00     0.059 A 
ATOM     56  F   UNL A   1      38.229  30.517  27.759  1.00  0.00    -0.206 F 
ATOM     57  C   UNL A   1      35.346  32.255  29.013  1.00  0.00     0.060 A 
BRANCH  57  58
ATOM     58  S   UNL A   1      34.057  33.358  28.379  1.00  0.00     0.124 S 
ATOM     59  O   UNL A   1      33.491  33.900  29.610  1.00  0.00    -0.237 OA
ATOM     60  O   UNL A   1      34.824  34.294  27.564  1.00  0.00    -0.237 OA
ATOM     61  O   UNL A   1      33.177  32.462  27.634  1.00  0.00    -0.744 OA
ENDBRANCH  57  58
ENDBRANCH  25  50
BRANCH  37  62
ATOM     62  C   UNL A   1      42.324  29.109  33.891  1.00  0.00     0.058 A 
ATOM     63  C   UNL A   1      42.245  27.763  33.483  1.00  0.00     0.135 A 
ATOM     64  C   UNL A   1      42.252  29.354  35.269  1.00  0.00     0.135 A 
ATOM     65  F   UNL A   1      42.416  27.424  32.200  1.00  0.00    -0.206 F 
ATOM     66  C   UNL A   1      42.060  26.719  34.393  1.00  0.00     0.059 A 
ATOM     67  C   UNL A   1      42.098  28.328  36.198  1.00  0.00     0.059 A 
ATOM     68  F   UNL A   1      42.392  30.606  35.734  1.00  0.00    -0.206 F 
ATOM     69  C   UNL A   1      41.988  27.013  35.753  1.00  0.00     0.060 A 
BRANCH  69  70
ATOM     70  S   UNL A   1      41.821  25.659  36.938  1.00  0.00     0.124 S 
ATOM     71  O   UNL A   1      40.374  25.556  37.086  1.00  0.00    -0.237 OA
ATOM     72  O   UNL A   1      42.469  24.548  36.246  1.00  0.00    -0.237 OA
ATOM     73  O   UNL A   1      42.535  26.148  38.116  1.00  0.00    -0.744 OA
ENDBRANCH  69  70
ENDBRANCH  37  62
ENDBRANCH  11  12
ENDBRANCH   4   6
ENDBRANCH   3   4
ENDBRANCH   2   3
ENDBRANCH   1   2
BRANCH   1  74
ATOM     74  O   UNL A   1      39.839  20.821  26.717  1.00  0.00    -0.458 OA
BRANCH  74  75
ATOM     75  C   UNL A   1      39.118  20.134  25.797  1.00  0.00     0.338 C 
ATOM     76  O   UNL A   1      39.321  19.000  25.383  1.00  0.00    -0.246 OA
BRANCH  75  77
ATOM     77  C   UNL A   1      37.974  20.962  25.383  1.00  0.00     0.060 A 
ATOM     78  C   UNL A   1      36.789  20.335  24.985  1.00  0.00     0.018 A 
ATOM     79  C   UNL A   1      38.086  22.355  25.358  1.00  0.00     0.018 A 
ATOM     80  C   UNL A   1      35.671  21.099  24.651  1.00  0.00     0.029 A 
ATOM     81  C   UNL A   1      36.993  23.125  24.949  1.00  0.00     0.029 A 
ATOM     82  C   UNL A   1      35.781  22.489  24.640  1.00  0.00     0.066 A 
BRANCH  82  83
ATOM     83  N   UNL A   1      34.745  23.219  24.041  1.00  0.00    -0.220 N 
ATOM     84  C   UNL A   1      34.926  24.371  23.335  1.00  0.00     0.141 A 
ATOM     85  N   UNL A   1      33.466  22.833  23.965  1.00  0.00    -0.062 NA
ATOM     86  C   UNL A   1      33.699  24.703  22.821  1.00  0.00     0.093 A 
ATOM     87  N   UNL A   1      32.805  23.751  23.262  1.00  0.00    -0.134 NA
BRANCH  86  88
ATOM     88  C   UNL A   1      33.222  25.962  22.195  1.00  0.00     0.138 C 
BRANCH  88  89
ATOM     89  S   UNL A   1      31.533  26.313  21.707  1.00  0.00    -0.081 SA
BRANCH  89  90
ATOM     90  C   UNL A   1      30.726  27.528  22.657  1.00  0.00     0.176 A 
ATOM     91  N   UNL A   1      29.903  28.245  21.946  1.00  0.00    -0.223 NA
ATOM     92  N   UNL A   1      30.878  27.754  24.014  1.00  0.00    -0.255 N 
ATOM     93  C   UNL A   1      29.308  29.364  22.540  1.00  0.00     0.079 A 
ATOM     94  C   UNL A   1      30.882  29.113  24.359  1.00  0.00     0.266 A 
ATOM     95  C   UNL A   1      28.201  29.990  21.969  1.00  0.00     0.029 A 
ATOM     96  C   UNL A   1      29.902  29.947  23.650  1.00  0.00     0.066 A 
ATOM     97  O   UNL A   1      31.615  29.647  25.189  1.00  0.00    -0.268 OA
ATOM     98  C   UNL A   1      27.753  31.221  22.468  1.00  0.00     0.002 A 
ATOM     99  C   UNL A   1      29.512  31.204  24.120  1.00  0.00     0.016 A 
ATOM    100  C   UNL A   1      28.435  31.847  23.513  1.00  0.00     0.001 A 
BRANCH  92 101
ATOM    101  C   UNL A   1      31.071  26.771  25.060  1.00  0.00     0.051 A 
ATOM    102  C   UNL A   1      32.344  26.612  25.648  1.00  0.00     0.027 A 
ATOM    103  C   UNL A   1      30.078  25.896  25.515  1.00  0.00     0.027 A 
ATOM    104  C   UNL A   1      32.670  25.493  26.420  1.00  0.00     0.002 A 
ATOM    105  C   UNL A   1      30.412  24.734  26.228  1.00  0.00     0.002 A 
ATOM    106  C   UNL A   1      31.717  24.514  26.647  1.00  0.00     0.000 A 
ENDBRANCH  92 101
ENDBRANCH  89  90
ENDBRANCH  88  89
ENDBRANCH  86  88
ENDBRANCH  82  83
ENDBRANCH  75  77
ENDBRANCH  74  75
ENDBRANCH   1  74
TORSDOF 19
ENDMDL
