MODEL 1
REMARK VINA RESULT:     -11.3      0.000      0.000
REMARK SMILES Nc1nonc1C(=O)N1[C@@H]2CC[C@H]1C[C@H](CC(=O)OCCOC(=O)c1ccc(-c3c4nc(c(-c5c(F)cc(S(=O)(=O)[O-])cc5F)c5ccc([nH]5)c(-c5c(F)cc(S(=O)(=O)[O-])cc5F)c5nc(c(-c6c(F)cc(S(=O)(=O)[O-])cc6F)c6ccc3[nH]6)C=C5)C=C4)cc1)C2
REMARK SMILES IDX 20 1 19 2 17 3 18 4 16 5 15 6 9 7 10 8 13 9 11 10 91 11
REMARK SMILES IDX 12 12 14 13 7 14 8 15 6 16 2 17 3 18 4 19 5 20 1 21 21 24
REMARK SMILES IDX 22 25 23 26 24 27 25 28 26 29 90 30 27 31 89 32 28 33 29 34
REMARK SMILES IDX 30 35 83 36 31 37 88 38 82 39 84 40 32 41 87 42 81 43 80 44
REMARK SMILES IDX 33 46 67 47 46 48 66 49 47 50 50 51 65 52 85 53 48 54 49 55
REMARK SMILES IDX 64 57 86 58 51 59 34 60 35 61 44 62 36 63 37 64 43 65 45 66
REMARK SMILES IDX 38 67 39 68 40 69 41 70 42 71 68 72 69 73 78 74 70 75 71 76
REMARK SMILES IDX 77 77 79 78 72 79 73 80 74 81 75 82 76 83 52 84 53 85 62 86
REMARK SMILES IDX 54 87 55 88 61 89 63 90 56 91 57 92 58 93 59 94 60 95
REMARK H PARENT 1 22 1 23 84 45 50 56
REMARK Flexibility Score: inf
ROOT
ATOM      1  C   UNL A   1      38.242  20.560  25.135  1.00  0.00     0.274 C 
ENDROOT
BRANCH   1   2
ATOM      2  O   UNL A   1      38.544  21.776  25.842  1.00  0.00    -0.462 OA
BRANCH   2   3
ATOM      3  C   UNL A   1      37.701  22.815  25.634  1.00  0.00     0.306 C 
ATOM      4  O   UNL A   1      37.704  23.861  26.271  1.00  0.00    -0.252 OA
BRANCH   3   5
ATOM      5  C   UNL A   1      36.671  22.523  24.568  1.00  0.00     0.126 C 
BRANCH   5   6
ATOM      6  C   UNL A   1      35.180  22.595  24.972  1.00  0.00     0.004 C 
ATOM      7  N   UNL A   1      33.543  20.304  25.276  1.00  0.00    -0.331 N 
ATOM      8  C   UNL A   1      33.669  21.117  26.473  1.00  0.00     0.086 C 
ATOM      9  C   UNL A   1      33.074  21.220  24.250  1.00  0.00     0.086 C 
ATOM     10  C   UNL A   1      32.470  22.072  26.432  1.00  0.00     0.027 C 
ATOM     11  C   UNL A   1      35.002  21.848  26.328  1.00  0.00     0.029 C 
ATOM     12  C   UNL A   1      32.001  22.039  24.977  1.00  0.00     0.027 C 
ATOM     13  C   UNL A   1      34.246  22.113  23.822  1.00  0.00     0.029 C 
BRANCH   7  14
ATOM     14  C   UNL A   1      33.036  19.010  25.371  1.00  0.00     0.280 C 
ATOM     15  O   UNL A   1      32.433  18.641  26.379  1.00  0.00    -0.267 OA
BRANCH  14  16
ATOM     16  C   UNL A   1      33.342  18.109  24.256  1.00  0.00     0.216 A 
ATOM     17  C   UNL A   1      34.196  16.977  24.166  1.00  0.00     0.201 A 
ATOM     18  N   UNL A   1      34.120  16.448  22.948  1.00  0.00    -0.032 NA
ATOM     19  O   UNL A   1      33.186  17.218  22.277  1.00  0.00    -0.242 OA
ATOM     20  N   UNL A   1      32.715  18.247  23.076  1.00  0.00    -0.042 NA
BRANCH  17  21
ATOM     21  N   UNL A   1      34.958  16.461  25.142  1.00  0.00    -0.379 N 
ATOM     22  H   UNL A   1      35.699  16.989  25.519  1.00  0.00     0.158 HD
ATOM     23  H   UNL A   1      34.775  15.556  25.482  1.00  0.00     0.158 HD
ENDBRANCH  17  21
ENDBRANCH  14  16
ENDBRANCH   7  14
ENDBRANCH   5   6
ENDBRANCH   3   5
ENDBRANCH   2   3
ENDBRANCH   1   2
BRANCH   1  24
ATOM     24  C   UNL A   1      39.297  19.493  25.427  1.00  0.00     0.275 C 
BRANCH  24  25
ATOM     25  O   UNL A   1      40.188  19.918  26.473  1.00  0.00    -0.458 OA
BRANCH  25  26
ATOM     26  C   UNL A   1      41.509  19.840  26.188  1.00  0.00     0.338 C 
ATOM     27  O   UNL A   1      42.100  18.914  25.662  1.00  0.00    -0.246 OA
BRANCH  26  28
ATOM     28  C   UNL A   1      42.139  21.132  26.503  1.00  0.00     0.060 A 
ATOM     29  C   UNL A   1      42.440  21.430  27.834  1.00  0.00     0.016 A 
ATOM     30  C   UNL A   1      42.391  22.058  25.492  1.00  0.00     0.016 A 
ATOM     31  C   UNL A   1      43.018  22.653  28.164  1.00  0.00     0.010 A 
ATOM     32  C   UNL A   1      42.975  23.283  25.824  1.00  0.00     0.010 A 
ATOM     33  C   UNL A   1      43.292  23.588  27.160  1.00  0.00    -0.014 A 
BRANCH  33  34
ATOM     34  C   UNL A   1      43.901  24.894  27.501  1.00  0.00     0.031 A 
ATOM     35  C   UNL A   1      43.030  26.022  27.969  1.00  0.00     0.074 A 
ATOM     36  C   UNL A   1      45.229  25.068  27.367  1.00  0.00     0.049 A 
ATOM     37  N   UNL A   1      43.339  27.275  28.174  1.00  0.00    -0.248 NA
ATOM     38  C   UNL A   1      41.621  25.694  28.239  1.00  0.00     0.031 C 
ATOM     39  C   UNL A   1      46.179  24.030  26.960  1.00  0.00     0.029 A 
ATOM     40  N   UNL A   1      46.007  26.184  27.538  1.00  0.00    -0.354 N 
ATOM     41  C   UNL A   1      42.163  27.894  28.575  1.00  0.00     0.074 A 
ATOM     42  C   UNL A   1      41.129  26.880  28.571  1.00  0.00     0.031 C 
ATOM     43  C   UNL A   1      47.409  24.564  26.896  1.00  0.00     0.029 A 
ATOM     44  C   UNL A   1      47.326  25.988  27.207  1.00  0.00     0.049 A 
ATOM     45  H   UNL A   1      45.655  27.043  27.867  1.00  0.00     0.167 HD
ATOM     46  C   UNL A   1      41.966  29.190  28.912  1.00  0.00     0.037 A 
ATOM     47  C   UNL A   1      48.344  26.867  27.123  1.00  0.00     0.037 A 
ATOM     48  C   UNL A   1      43.005  30.188  28.915  1.00  0.00     0.049 A 
ATOM     49  C   UNL A   1      48.090  28.315  27.440  1.00  0.00     0.074 A 
ATOM     50  C   UNL A   1      42.912  31.527  29.250  1.00  0.00     0.029 A 
ATOM     51  N   UNL A   1      44.326  29.956  28.559  1.00  0.00    -0.354 N 
ATOM     52  N   UNL A   1      46.971  28.891  27.812  1.00  0.00    -0.248 NA
ATOM     53  C   UNL A   1      49.230  29.234  27.319  1.00  0.00     0.031 C 
ATOM     54  C   UNL A   1      44.170  32.113  29.060  1.00  0.00     0.029 A 
ATOM     55  C   UNL A   1      45.055  31.130  28.647  1.00  0.00     0.049 A 
ATOM     56  H   UNL A   1      44.692  29.083  28.285  1.00  0.00     0.167 HD
ATOM     57  C   UNL A   1      47.275  30.237  27.982  1.00  0.00     0.074 A 
ATOM     58  C   UNL A   1      48.686  30.387  27.686  1.00  0.00     0.031 C 
ATOM     59  C   UNL A   1      46.460  31.257  28.349  1.00  0.00     0.037 A 
BRANCH  46  60
ATOM     60  C   UNL A   1      40.568  29.607  29.275  1.00  0.00     0.058 A 
ATOM     61  C   UNL A   1      39.558  29.726  28.309  1.00  0.00     0.135 A 
ATOM     62  C   UNL A   1      40.233  29.878  30.611  1.00  0.00     0.135 A 
ATOM     63  F   UNL A   1      39.830  29.496  27.015  1.00  0.00    -0.206 F 
ATOM     64  C   UNL A   1      38.270  30.127  28.649  1.00  0.00     0.059 A 
ATOM     65  C   UNL A   1      38.945  30.258  30.979  1.00  0.00     0.059 A 
ATOM     66  F   UNL A   1      41.163  29.782  31.575  1.00  0.00    -0.206 F 
ATOM     67  C   UNL A   1      37.976  30.396  29.988  1.00  0.00     0.060 A 
BRANCH  67  68
ATOM     68  S   UNL A   1      36.305  30.932  30.414  1.00  0.00     0.124 S 
ATOM     69  O   UNL A   1      35.602  30.718  29.153  1.00  0.00    -0.237 OA
ATOM     70  O   UNL A   1      35.950  30.021  31.498  1.00  0.00    -0.237 OA
ATOM     71  O   UNL A   1      36.484  32.327  30.804  1.00  0.00    -0.744 OA
ENDBRANCH  67  68
ENDBRANCH  46  60
BRANCH  47  72
ATOM     72  C   UNL A   1      49.685  26.401  26.682  1.00  0.00     0.058 A 
ATOM     73  C   UNL A   1      50.637  25.952  27.608  1.00  0.00     0.135 A 
ATOM     74  C   UNL A   1      50.030  26.372  25.321  1.00  0.00     0.135 A 
ATOM     75  F   UNL A   1      50.357  25.972  28.920  1.00  0.00    -0.206 F 
ATOM     76  C   UNL A   1      51.886  25.494  27.203  1.00  0.00     0.059 A 
ATOM     77  C   UNL A   1      51.264  25.895  24.890  1.00  0.00     0.059 A 
ATOM     78  F   UNL A   1      49.150  26.781  24.395  1.00  0.00    -0.206 F 
ATOM     79  C   UNL A   1      52.189  25.465  25.840  1.00  0.00     0.060 A 
BRANCH  79  80
ATOM     80  S   UNL A   1      53.789  24.809  25.318  1.00  0.00     0.124 S 
ATOM     81  O   UNL A   1      53.453  23.423  25.016  1.00  0.00    -0.237 OA
ATOM     82  O   UNL A   1      54.108  25.653  24.171  1.00  0.00    -0.237 OA
ATOM     83  O   UNL A   1      54.634  25.014  26.491  1.00  0.00    -0.744 OA
ENDBRANCH  79  80
ENDBRANCH  47  72
BRANCH  59  84
ATOM     84  C   UNL A   1      47.076  32.622  28.473  1.00  0.00     0.058 A 
ATOM     85  C   UNL A   1      47.060  33.533  27.406  1.00  0.00     0.135 A 
ATOM     86  C   UNL A   1      47.630  33.044  29.691  1.00  0.00     0.135 A 
ATOM     87  F   UNL A   1      46.550  33.174  26.217  1.00  0.00    -0.206 F 
ATOM     88  C   UNL A   1      47.585  34.814  27.540  1.00  0.00     0.059 A 
ATOM     89  C   UNL A   1      48.139  34.329  29.854  1.00  0.00     0.059 A 
ATOM     90  F   UNL A   1      47.661  32.212  30.744  1.00  0.00    -0.206 F 
ATOM     91  C   UNL A   1      48.120  35.205  28.770  1.00  0.00     0.060 A 
BRANCH  91  92
ATOM     92  S   UNL A   1      48.752  36.887  28.946  1.00  0.00     0.124 S 
ATOM     93  O   UNL A   1      48.964  36.972  30.387  1.00  0.00    -0.237 OA
ATOM     94  O   UNL A   1      49.961  36.854  28.129  1.00  0.00    -0.237 OA
ATOM     95  O   UNL A   1      47.670  37.712  28.419  1.00  0.00    -0.744 OA
ENDBRANCH  91  92
ENDBRANCH  59  84
ENDBRANCH  33  34
ENDBRANCH  26  28
ENDBRANCH  25  26
ENDBRANCH  24  25
ENDBRANCH   1  24
TORSDOF 18
ENDMDL
MODEL 2
REMARK VINA RESULT:     -11.2      4.070      9.384
REMARK SMILES Nc1nonc1C(=O)N1[C@@H]2CC[C@H]1C[C@H](CC(=O)OCCOC(=O)c1ccc(-c3c4nc(c(-c5c(F)cc(S(=O)(=O)[O-])cc5F)c5ccc([nH]5)c(-c5c(F)cc(S(=O)(=O)[O-])cc5F)c5nc(c(-c6c(F)cc(S(=O)(=O)[O-])cc6F)c6ccc3[nH]6)C=C5)C=C4)cc1)C2
REMARK SMILES IDX 20 1 19 2 17 3 18 4 16 5 15 6 9 7 10 8 13 9 11 10 91 11
REMARK SMILES IDX 12 12 14 13 7 14 8 15 6 16 2 17 3 18 4 19 5 20 1 21 21 24
REMARK SMILES IDX 22 25 23 26 24 27 25 28 26 29 90 30 27 31 89 32 28 33 29 34
REMARK SMILES IDX 30 35 83 36 31 37 88 38 82 39 84 40 32 41 87 42 81 43 80 44
REMARK SMILES IDX 33 46 67 47 46 48 66 49 47 50 50 51 65 52 85 53 48 54 49 55
REMARK SMILES IDX 64 57 86 58 51 59 34 60 35 61 44 62 36 63 37 64 43 65 45 66
REMARK SMILES IDX 38 67 39 68 40 69 41 70 42 71 68 72 69 73 78 74 70 75 71 76
REMARK SMILES IDX 77 77 79 78 72 79 73 80 74 81 75 82 76 83 52 84 53 85 62 86
REMARK SMILES IDX 54 87 55 88 61 89 63 90 56 91 57 92 58 93 59 94 60 95
REMARK H PARENT 1 22 1 23 84 45 50 56
REMARK Flexibility Score: inf
ROOT
ATOM      1  C   UNL A   1      34.535  30.772  28.036  1.00  0.00     0.274 C 
ENDROOT
BRANCH   1   2
ATOM      2  O   UNL A   1      33.771  31.192  26.892  1.00  0.00    -0.462 OA
BRANCH   2   3
ATOM      3  C   UNL A   1      32.476  30.796  26.858  1.00  0.00     0.306 C 
ATOM      4  O   UNL A   1      31.531  31.508  26.544  1.00  0.00    -0.252 OA
BRANCH   3   5
ATOM      5  C   UNL A   1      32.292  29.375  27.339  1.00  0.00     0.126 C 
BRANCH   5   6
ATOM      6  C   UNL A   1      32.507  28.238  26.313  1.00  0.00     0.004 C 
ATOM      7  N   UNL A   1      31.037  28.026  23.902  1.00  0.00    -0.331 N 
ATOM      8  C   UNL A   1      32.473  28.147  23.722  1.00  0.00     0.086 C 
ATOM      9  C   UNL A   1      30.866  26.887  24.787  1.00  0.00     0.086 C 
ATOM     10  C   UNL A   1      32.985  26.704  23.635  1.00  0.00     0.027 C 
ATOM     11  C   UNL A   1      32.978  28.871  24.969  1.00  0.00     0.029 C 
ATOM     12  C   UNL A   1      31.858  25.859  24.230  1.00  0.00     0.027 C 
ATOM     13  C   UNL A   1      31.259  27.311  26.208  1.00  0.00     0.029 C 
BRANCH   7  14
ATOM     14  C   UNL A   1      30.187  28.227  22.816  1.00  0.00     0.280 C 
ATOM     15  O   UNL A   1      30.522  27.891  21.681  1.00  0.00    -0.267 OA
BRANCH  14  16
ATOM     16  C   UNL A   1      28.933  28.935  23.096  1.00  0.00     0.216 A 
ATOM     17  C   UNL A   1      28.644  30.320  23.233  1.00  0.00     0.201 A 
ATOM     18  N   UNL A   1      27.342  30.490  23.447  1.00  0.00    -0.032 NA
ATOM     19  O   UNL A   1      26.798  29.218  23.404  1.00  0.00    -0.242 OA
ATOM     20  N   UNL A   1      27.777  28.260  23.199  1.00  0.00    -0.042 NA
BRANCH  17  21
ATOM     21  N   UNL A   1      29.510  31.339  23.136  1.00  0.00    -0.379 N 
ATOM     22  H   UNL A   1      29.240  32.243  23.418  1.00  0.00     0.158 HD
ATOM     23  H   UNL A   1      30.415  31.183  22.783  1.00  0.00     0.158 HD
ENDBRANCH  17  21
ENDBRANCH  14  16
ENDBRANCH   7  14
ENDBRANCH   5   6
ENDBRANCH   3   5
ENDBRANCH   2   3
ENDBRANCH   1   2
BRANCH   1  24
ATOM     24  C   UNL A   1      34.766  31.946  28.988  1.00  0.00     0.275 C 
BRANCH  24  25
ATOM     25  O   UNL A   1      36.152  32.047  29.359  1.00  0.00    -0.458 OA
BRANCH  25  26
ATOM     26  C   UNL A   1      36.570  31.185  30.315  1.00  0.00     0.338 C 
ATOM     27  O   UNL A   1      35.939  30.782  31.275  1.00  0.00    -0.246 OA
BRANCH  26  28
ATOM     28  C   UNL A   1      37.906  30.688  29.953  1.00  0.00     0.060 A 
ATOM     29  C   UNL A   1      38.859  30.514  30.960  1.00  0.00     0.016 A 
ATOM     30  C   UNL A   1      38.227  30.434  28.620  1.00  0.00     0.016 A 
ATOM     31  C   UNL A   1      40.137  30.063  30.644  1.00  0.00     0.010 A 
ATOM     32  C   UNL A   1      39.509  29.978  28.305  1.00  0.00     0.010 A 
ATOM     33  C   UNL A   1      40.471  29.788  29.313  1.00  0.00    -0.014 A 
BRANCH  33  34
ATOM     34  C   UNL A   1      41.830  29.314  28.966  1.00  0.00     0.031 A 
ATOM     35  C   UNL A   1      42.967  30.291  28.909  1.00  0.00     0.074 A 
ATOM     36  C   UNL A   1      42.031  28.014  28.681  1.00  0.00     0.049 A 
ATOM     37  N   UNL A   1      44.190  30.111  28.486  1.00  0.00    -0.248 NA
ATOM     38  C   UNL A   1      42.687  31.652  29.392  1.00  0.00     0.031 C 
ATOM     39  C   UNL A   1      41.009  26.968  28.744  1.00  0.00     0.029 A 
ATOM     40  N   UNL A   1      43.158  27.355  28.261  1.00  0.00    -0.354 N 
ATOM     41  C   UNL A   1      44.823  31.339  28.627  1.00  0.00     0.074 A 
ATOM     42  C   UNL A   1      43.843  32.261  29.164  1.00  0.00     0.031 C 
ATOM     43  C   UNL A   1      41.552  25.802  28.359  1.00  0.00     0.029 A 
ATOM     44  C   UNL A   1      42.942  26.028  27.975  1.00  0.00     0.049 A 
ATOM     45  H   UNL A   1      44.038  27.790  28.173  1.00  0.00     0.167 HD
ATOM     46  C   UNL A   1      46.104  31.665  28.333  1.00  0.00     0.037 A 
ATOM     47  C   UNL A   1      43.760  25.110  27.424  1.00  0.00     0.037 A 
ATOM     48  C   UNL A   1      47.069  30.737  27.803  1.00  0.00     0.049 A 
ATOM     49  C   UNL A   1      45.160  25.510  27.046  1.00  0.00     0.074 A 
ATOM     50  C   UNL A   1      48.395  30.964  27.480  1.00  0.00     0.029 A 
ATOM     51  N   UNL A   1      46.810  29.404  27.512  1.00  0.00    -0.354 N 
ATOM     52  N   UNL A   1      45.747  26.676  27.177  1.00  0.00    -0.248 NA
ATOM     53  C   UNL A   1      46.006  24.474  26.436  1.00  0.00     0.031 C 
ATOM     54  C   UNL A   1      48.927  29.778  26.959  1.00  0.00     0.029 A 
ATOM     55  C   UNL A   1      47.944  28.802  26.995  1.00  0.00     0.049 A 
ATOM     56  H   UNL A   1      45.946  28.954  27.653  1.00  0.00     0.167 HD
ATOM     57  C   UNL A   1      47.034  26.512  26.680  1.00  0.00     0.074 A 
ATOM     58  C   UNL A   1      47.146  25.130  26.258  1.00  0.00     0.031 C 
ATOM     59  C   UNL A   1      48.034  27.424  26.581  1.00  0.00     0.037 A 
BRANCH  46  60
ATOM     60  C   UNL A   1      46.523  33.092  28.549  1.00  0.00     0.058 A 
ATOM     61  C   UNL A   1      46.405  34.058  27.539  1.00  0.00     0.135 A 
ATOM     62  C   UNL A   1      47.036  33.500  29.791  1.00  0.00     0.135 A 
ATOM     63  F   UNL A   1      45.937  33.716  26.328  1.00  0.00    -0.206 F 
ATOM     64  C   UNL A   1      46.808  35.374  27.741  1.00  0.00     0.059 A 
ATOM     65  C   UNL A   1      47.425  34.817  30.023  1.00  0.00     0.059 A 
ATOM     66  F   UNL A   1      47.173  32.615  30.791  1.00  0.00    -0.206 F 
ATOM     67  C   UNL A   1      47.323  35.741  28.986  1.00  0.00     0.060 A 
BRANCH  67  68
ATOM     68  S   UNL A   1      47.859  37.449  29.230  1.00  0.00     0.124 S 
ATOM     69  O   UNL A   1      46.889  38.175  28.415  1.00  0.00    -0.237 OA
ATOM     70  O   UNL A   1      47.723  37.617  30.674  1.00  0.00    -0.237 OA
ATOM     71  O   UNL A   1      49.228  37.450  28.727  1.00  0.00    -0.744 OA
ENDBRANCH  67  68
ENDBRANCH  46  60
BRANCH  47  72
ATOM     72  C   UNL A   1      43.257  23.736  27.166  1.00  0.00     0.058 A 
ATOM     73  C   UNL A   1      42.846  23.343  25.884  1.00  0.00     0.135 A 
ATOM     74  C   UNL A   1      43.202  22.780  28.194  1.00  0.00     0.135 A 
ATOM     75  F   UNL A   1      42.871  24.224  24.874  1.00  0.00    -0.206 F 
ATOM     76  C   UNL A   1      42.395  22.052  25.629  1.00  0.00     0.059 A 
ATOM     77  C   UNL A   1      42.777  21.477  27.957  1.00  0.00     0.059 A 
ATOM     78  F   UNL A   1      43.594  23.104  29.435  1.00  0.00    -0.206 F 
ATOM     79  C   UNL A   1      42.368  21.124  26.672  1.00  0.00     0.060 A 
BRANCH  79  80
ATOM     80  S   UNL A   1      41.841  19.433  26.318  1.00  0.00     0.124 S 
ATOM     81  O   UNL A   1      42.605  19.134  25.113  1.00  0.00    -0.237 OA
ATOM     82  O   UNL A   1      42.251  18.724  27.527  1.00  0.00    -0.237 OA
ATOM     83  O   UNL A   1      40.399  19.563  26.137  1.00  0.00    -0.744 OA
ENDBRANCH  79  80
ENDBRANCH  47  72
BRANCH  59  84
ATOM     84  C   UNL A   1      49.343  26.952  26.014  1.00  0.00     0.058 A 
ATOM     85  C   UNL A   1      49.636  27.071  24.648  1.00  0.00     0.135 A 
ATOM     86  C   UNL A   1      50.339  26.435  26.858  1.00  0.00     0.135 A 
ATOM     87  F   UNL A   1      48.713  27.551  23.798  1.00  0.00    -0.206 F 
ATOM     88  C   UNL A   1      50.868  26.682  24.134  1.00  0.00     0.059 A 
ATOM     89  C   UNL A   1      51.587  26.061  26.369  1.00  0.00     0.059 A 
ATOM     90  F   UNL A   1      50.110  26.309  28.175  1.00  0.00    -0.206 F 
ATOM     91  C   UNL A   1      51.840  26.181  25.004  1.00  0.00     0.060 A 
BRANCH  91  92
ATOM     92  S   UNL A   1      53.453  25.726  24.333  1.00  0.00     0.124 S 
ATOM     93  O   UNL A   1      53.245  25.930  22.903  1.00  0.00    -0.237 OA
ATOM     94  O   UNL A   1      54.344  26.678  24.986  1.00  0.00    -0.237 OA
ATOM     95  O   UNL A   1      53.615  24.337  24.752  1.00  0.00    -0.744 OA
ENDBRANCH  91  92
ENDBRANCH  59  84
ENDBRANCH  33  34
ENDBRANCH  26  28
ENDBRANCH  25  26
ENDBRANCH  24  25
ENDBRANCH   1  24
TORSDOF 18
ENDMDL
MODEL 3
REMARK VINA RESULT:     -11.2      5.115     10.274
REMARK SMILES Nc1nonc1C(=O)N1[C@@H]2CC[C@H]1C[C@H](CC(=O)OCCOC(=O)c1ccc(-c3c4nc(c(-c5c(F)cc(S(=O)(=O)[O-])cc5F)c5ccc([nH]5)c(-c5c(F)cc(S(=O)(=O)[O-])cc5F)c5nc(c(-c6c(F)cc(S(=O)(=O)[O-])cc6F)c6ccc3[nH]6)C=C5)C=C4)cc1)C2
REMARK SMILES IDX 20 1 19 2 17 3 18 4 16 5 15 6 9 7 10 8 13 9 11 10 91 11
REMARK SMILES IDX 12 12 14 13 7 14 8 15 6 16 2 17 3 18 4 19 5 20 1 21 21 24
REMARK SMILES IDX 22 25 23 26 24 27 25 28 26 29 90 30 27 31 89 32 28 33 29 34
REMARK SMILES IDX 30 35 83 36 31 37 88 38 82 39 84 40 32 41 87 42 81 43 80 44
REMARK SMILES IDX 33 46 67 47 46 48 66 49 47 50 50 51 65 52 85 53 48 54 49 55
REMARK SMILES IDX 64 57 86 58 51 59 34 60 35 61 44 62 36 63 37 64 43 65 45 66
REMARK SMILES IDX 38 67 39 68 40 69 41 70 42 71 68 72 69 73 78 74 70 75 71 76
REMARK SMILES IDX 77 77 79 78 72 79 73 80 74 81 75 82 76 83 52 84 53 85 62 86
REMARK SMILES IDX 54 87 55 88 61 89 63 90 56 91 57 92 58 93 59 94 60 95
REMARK H PARENT 1 22 1 23 84 45 50 56
REMARK Flexibility Score: inf
ROOT
ATOM      1  C   UNL A   1      33.917  33.816  28.266  1.00  0.00     0.274 C 
ENDROOT
BRANCH   1   2
ATOM      2  O   UNL A   1      34.438  34.666  29.302  1.00  0.00    -0.462 OA
BRANCH   2   3
ATOM      3  C   UNL A   1      33.784  34.634  30.488  1.00  0.00     0.306 C 
ATOM      4  O   UNL A   1      32.824  35.335  30.780  1.00  0.00    -0.252 OA
BRANCH   3   5
ATOM      5  C   UNL A   1      34.423  33.686  31.476  1.00  0.00     0.126 C 
BRANCH   5   6
ATOM      6  C   UNL A   1      35.905  33.929  31.847  1.00  0.00     0.004 C 
ATOM      7  N   UNL A   1      37.365  32.238  33.587  1.00  0.00    -0.331 N 
ATOM      8  C   UNL A   1      37.920  32.349  32.250  1.00  0.00     0.086 C 
ATOM      9  C   UNL A   1      37.259  33.607  34.062  1.00  0.00     0.086 C 
ATOM     10  C   UNL A   1      38.954  33.477  32.342  1.00  0.00     0.027 C 
ATOM     11  C   UNL A   1      36.741  32.711  31.349  1.00  0.00     0.029 C 
ATOM     12  C   UNL A   1      38.585  34.235  33.619  1.00  0.00     0.027 C 
ATOM     13  C   UNL A   1      36.074  34.278  33.356  1.00  0.00     0.029 C 
BRANCH   7  14
ATOM     14  C   UNL A   1      37.795  31.215  34.430  1.00  0.00     0.280 C 
ATOM     15  O   UNL A   1      37.895  31.397  35.643  1.00  0.00    -0.267 OA
BRANCH  14  16
ATOM     16  C   UNL A   1      38.201  29.965  33.780  1.00  0.00     0.216 A 
ATOM     17  C   UNL A   1      39.472  29.497  33.350  1.00  0.00     0.201 A 
ATOM     18  N   UNL A   1      39.355  28.272  32.845  1.00  0.00    -0.032 NA
ATOM     19  O   UNL A   1      38.018  27.946  32.992  1.00  0.00    -0.242 OA
ATOM     20  N   UNL A   1      37.305  28.991  33.556  1.00  0.00    -0.042 NA
BRANCH  17  21
ATOM     21  N   UNL A   1      40.645  30.139  33.449  1.00  0.00    -0.379 N 
ATOM     22  H   UNL A   1      41.090  30.219  34.323  1.00  0.00     0.158 HD
ATOM     23  H   UNL A   1      41.060  30.531  32.647  1.00  0.00     0.158 HD
ENDBRANCH  17  21
ENDBRANCH  14  16
ENDBRANCH   7  14
ENDBRANCH   5   6
ENDBRANCH   3   5
ENDBRANCH   2   3
ENDBRANCH   1   2
BRANCH   1  24
ATOM     24  C   UNL A   1      34.870  32.651  27.996  1.00  0.00     0.275 C 
BRANCH  24  25
ATOM     25  O   UNL A   1      34.470  31.475  28.721  1.00  0.00    -0.458 OA
BRANCH  25  26
ATOM     26  C   UNL A   1      34.718  30.294  28.110  1.00  0.00     0.338 C 
ATOM     27  O   UNL A   1      33.962  29.656  27.399  1.00  0.00    -0.246 OA
BRANCH  26  28
ATOM     28  C   UNL A   1      36.126  29.930  28.332  1.00  0.00     0.060 A 
ATOM     29  C   UNL A   1      36.530  29.542  29.612  1.00  0.00     0.016 A 
ATOM     30  C   UNL A   1      37.048  30.013  27.290  1.00  0.00     0.016 A 
ATOM     31  C   UNL A   1      37.860  29.212  29.856  1.00  0.00     0.010 A 
ATOM     32  C   UNL A   1      38.382  29.678  27.535  1.00  0.00     0.010 A 
ATOM     33  C   UNL A   1      38.796  29.274  28.817  1.00  0.00    -0.014 A 
BRANCH  33  34
ATOM     34  C   UNL A   1      40.214  28.931  29.068  1.00  0.00     0.031 A 
ATOM     35  C   UNL A   1      41.154  29.980  29.582  1.00  0.00     0.074 A 
ATOM     36  C   UNL A   1      40.656  27.685  28.811  1.00  0.00     0.049 A 
ATOM     37  N   UNL A   1      42.452  29.928  29.725  1.00  0.00    -0.248 NA
ATOM     38  C   UNL A   1      40.551  31.260  29.986  1.00  0.00     0.031 C 
ATOM     39  C   UNL A   1      39.823  26.574  28.347  1.00  0.00     0.029 A 
ATOM     40  N   UNL A   1      41.917  27.151  28.882  1.00  0.00    -0.354 N 
ATOM     41  C   UNL A   1      42.828  31.172  30.214  1.00  0.00     0.074 A 
ATOM     42  C   UNL A   1      41.621  31.964  30.330  1.00  0.00     0.031 C 
ATOM     43  C   UNL A   1      40.599  25.494  28.160  1.00  0.00     0.029 A 
ATOM     44  C   UNL A   1      41.987  25.852  28.439  1.00  0.00     0.049 A 
ATOM     45  H   UNL A   1      42.696  27.649  29.218  1.00  0.00     0.167 HD
ATOM     46  C   UNL A   1      44.069  31.611  30.533  1.00  0.00     0.037 A 
ATOM     47  C   UNL A   1      43.054  25.054  28.240  1.00  0.00     0.037 A 
ATOM     48  C   UNL A   1      45.261  30.811  30.417  1.00  0.00     0.049 A 
ATOM     49  C   UNL A   1      44.429  25.583  28.541  1.00  0.00     0.074 A 
ATOM     50  C   UNL A   1      46.565  31.158  30.723  1.00  0.00     0.029 A 
ATOM     51  N   UNL A   1      45.295  29.504  29.950  1.00  0.00    -0.354 N 
ATOM     52  N   UNL A   1      44.775  26.764  28.996  1.00  0.00    -0.248 NA
ATOM     53  C   UNL A   1      45.560  24.678  28.293  1.00  0.00     0.031 C 
ATOM     54  C   UNL A   1      47.392  30.074  30.406  1.00  0.00     0.029 A 
ATOM     55  C   UNL A   1      46.598  29.037  29.942  1.00  0.00     0.049 A 
ATOM     56  H   UNL A   1      44.507  28.986  29.668  1.00  0.00     0.167 HD
ATOM     57  C   UNL A   1      46.161  26.740  29.103  1.00  0.00     0.074 A 
ATOM     58  C   UNL A   1      46.589  25.422  28.677  1.00  0.00     0.031 C 
ATOM     59  C   UNL A   1      47.003  27.721  29.515  1.00  0.00     0.037 A 
BRANCH  46  60
ATOM     60  C   UNL A   1      44.200  33.031  31.009  1.00  0.00     0.058 A 
ATOM     61  C   UNL A   1      44.505  34.080  30.129  1.00  0.00     0.135 A 
ATOM     62  C   UNL A   1      44.003  33.346  32.363  1.00  0.00     0.135 A 
ATOM     63  F   UNL A   1      44.721  33.830  28.828  1.00  0.00    -0.206 F 
ATOM     64  C   UNL A   1      44.640  35.390  30.579  1.00  0.00     0.059 A 
ATOM     65  C   UNL A   1      44.110  34.653  32.832  1.00  0.00     0.059 A 
ATOM     66  F   UNL A   1      43.712  32.380  33.248  1.00  0.00    -0.206 F 
ATOM     67  C   UNL A   1      44.446  35.664  31.934  1.00  0.00     0.060 A 
BRANCH  67  68
ATOM     68  S   UNL A   1      44.640  37.366  32.508  1.00  0.00     0.124 S 
ATOM     69  O   UNL A   1      43.645  38.060  31.695  1.00  0.00    -0.237 OA
ATOM     70  O   UNL A   1      44.328  37.255  33.929  1.00  0.00    -0.237 OA
ATOM     71  O   UNL A   1      46.031  37.673  32.194  1.00  0.00    -0.744 OA
ENDBRANCH  67  68
ENDBRANCH  46  60
BRANCH  47  72
ATOM     72  C   UNL A   1      42.860  23.686  27.694  1.00  0.00     0.058 A 
ATOM     73  C   UNL A   1      42.693  22.583  28.543  1.00  0.00     0.135 A 
ATOM     74  C   UNL A   1      42.812  23.460  26.308  1.00  0.00     0.135 A 
ATOM     75  F   UNL A   1      42.742  22.748  29.873  1.00  0.00    -0.206 F 
ATOM     76  C   UNL A   1      42.488  21.302  28.040  1.00  0.00     0.059 A 
ATOM     77  C   UNL A   1      42.585  22.192  25.782  1.00  0.00     0.059 A 
ATOM     78  F   UNL A   1      42.956  24.484  25.454  1.00  0.00    -0.206 F 
ATOM     79  C   UNL A   1      42.431  21.117  26.657  1.00  0.00     0.060 A 
BRANCH  79  80
ATOM     80  S   UNL A   1      42.103  19.462  26.013  1.00  0.00     0.124 S 
ATOM     81  O   UNL A   1      42.567  18.623  27.111  1.00  0.00    -0.237 OA
ATOM     82  O   UNL A   1      40.659  19.496  25.801  1.00  0.00    -0.237 OA
ATOM     83  O   UNL A   1      42.905  19.412  24.795  1.00  0.00    -0.744 OA
ENDBRANCH  79  80
ENDBRANCH  47  72
BRANCH  59  84
ATOM     84  C   UNL A   1      48.471  27.400  29.547  1.00  0.00     0.058 A 
ATOM     85  C   UNL A   1      49.332  27.805  28.516  1.00  0.00     0.135 A 
ATOM     86  C   UNL A   1      49.030  26.738  30.651  1.00  0.00     0.135 A 
ATOM     87  F   UNL A   1      48.844  28.434  27.434  1.00  0.00    -0.206 F 
ATOM     88  C   UNL A   1      50.699  27.552  28.573  1.00  0.00     0.059 A 
ATOM     89  C   UNL A   1      50.398  26.496  30.739  1.00  0.00     0.059 A 
ATOM     90  F   UNL A   1      48.249  26.338  31.666  1.00  0.00    -0.206 F 
ATOM     91  C   UNL A   1      51.223  26.900  29.692  1.00  0.00     0.060 A 
BRANCH  91  92
ATOM     92  S   UNL A   1      53.006  26.623  29.777  1.00  0.00     0.124 S 
ATOM     93  O   UNL A   1      53.113  25.765  30.952  1.00  0.00    -0.237 OA
ATOM     94  O   UNL A   1      53.284  25.981  28.497  1.00  0.00    -0.237 OA
ATOM     95  O   UNL A   1      53.551  27.968  29.928  1.00  0.00    -0.744 OA
ENDBRANCH  91  92
ENDBRANCH  59  84
ENDBRANCH  33  34
ENDBRANCH  26  28
ENDBRANCH  25  26
ENDBRANCH  24  25
ENDBRANCH   1  24
TORSDOF 18
ENDMDL
