MODEL 1
REMARK VINA RESULT:      -9.8      0.000      0.000
REMARK SMILES O=C(OCCOC(=O)[C@@H](CCOCCO)c1cccc(F)c1)c1ccc(-c2c3nc(c(-c4c(F)cc(S(=O)(=O)[O-])cc4F)c4ccc([nH]4)c(-c4c(F)cc(S(=O)(=O)[O-])cc4F)c4nc(c(-c5c(F)cc(S(=O)(=O)[O-])cc5F)c5ccc2[nH]5)C=C4)C=C3)cc1
REMARK SMILES IDX 6 1 5 2 4 3 3 4 2 5 1 6 23 7 24 8 88 9 25 10 87 11 26 12
REMARK SMILES IDX 27 13 28 14 81 15 29 16 86 17 80 18 82 19 30 20 85 21 79 22
REMARK SMILES IDX 78 23 31 25 65 26 44 27 64 28 45 29 48 30 63 31 83 32 46 33
REMARK SMILES IDX 47 34 62 36 84 37 49 38 32 39 33 40 42 41 34 42 35 43 41 44
REMARK SMILES IDX 43 45 36 46 37 47 38 48 39 49 40 50 66 51 67 52 76 53 68 54
REMARK SMILES IDX 69 55 75 56 77 57 70 58 71 59 72 60 73 61 74 62 50 63 51 64
REMARK SMILES IDX 60 65 52 66 53 67 59 68 61 69 54 70 55 71 56 72 57 73 58 74
REMARK SMILES IDX 7 75 8 76 9 77 10 78 11 79 12 80 13 81 14 82 15 83 16 85
REMARK SMILES IDX 17 86 22 87 18 88 20 89 19 90 21 91
REMARK H PARENT 82 24 48 35 15 84
REMARK Flexibility Score: inf
ROOT
ATOM      1  O   UNL A   1      32.447  29.618  24.696  1.00  0.00    -0.462 OA
ENDROOT
BRANCH   1   2
ATOM      2  C   UNL A   1      31.688  29.688  25.907  1.00  0.00     0.274 C 
BRANCH   2   3
ATOM      3  C   UNL A   1      32.141  30.817  26.846  1.00  0.00     0.275 C 
BRANCH   3   4
ATOM      4  O   UNL A   1      33.360  30.570  27.577  1.00  0.00    -0.458 OA
BRANCH   4   5
ATOM      5  C   UNL A   1      34.396  31.405  27.838  1.00  0.00     0.338 C 
ATOM      6  O   UNL A   1      34.188  32.617  27.789  1.00  0.00    -0.246 OA
BRANCH   5   7
ATOM      7  C   UNL A   1      35.790  30.949  28.171  1.00  0.00     0.060 A 
ATOM      8  C   UNL A   1      36.921  31.763  28.284  1.00  0.00     0.016 A 
ATOM      9  C   UNL A   1      35.964  29.571  28.400  1.00  0.00     0.016 A 
ATOM     10  C   UNL A   1      38.119  31.273  28.852  1.00  0.00     0.010 A 
ATOM     11  C   UNL A   1      37.158  29.074  28.953  1.00  0.00     0.010 A 
ATOM     12  C   UNL A   1      38.226  29.941  29.267  1.00  0.00    -0.014 A 
BRANCH  12  13
ATOM     13  C   UNL A   1      39.483  29.395  29.871  1.00  0.00     0.031 A 
ATOM     14  C   UNL A   1      39.966  30.101  31.094  1.00  0.00     0.074 A 
ATOM     15  C   UNL A   1      40.202  28.355  29.383  1.00  0.00     0.049 A 
ATOM     16  N   UNL A   1      41.010  29.844  31.827  1.00  0.00    -0.248 NA
ATOM     17  C   UNL A   1      39.160  31.248  31.553  1.00  0.00     0.031 C 
ATOM     18  C   UNL A   1      39.842  27.561  28.223  1.00  0.00     0.029 A 
ATOM     19  N   UNL A   1      41.395  27.777  29.770  1.00  0.00    -0.354 N 
ATOM     20  C   UNL A   1      40.938  30.748  32.870  1.00  0.00     0.074 A 
ATOM     21  C   UNL A   1      39.856  31.661  32.595  1.00  0.00     0.031 C 
ATOM     22  C   UNL A   1      40.804  26.675  27.919  1.00  0.00     0.029 A 
ATOM     23  C   UNL A   1      41.836  26.759  28.937  1.00  0.00     0.049 A 
ATOM     24  H   UNL A   1      41.891  28.064  30.570  1.00  0.00     0.167 HD
ATOM     25  C   UNL A   1      41.645  30.749  34.016  1.00  0.00     0.037 A 
ATOM     26  C   UNL A   1      42.916  25.948  29.012  1.00  0.00     0.037 A 
ATOM     27  C   UNL A   1      42.722  29.850  34.286  1.00  0.00     0.049 A 
ATOM     28  C   UNL A   1      43.789  26.072  30.230  1.00  0.00     0.074 A 
ATOM     29  C   UNL A   1      43.524  29.788  35.407  1.00  0.00     0.029 A 
ATOM     30  N   UNL A   1      43.155  28.861  33.415  1.00  0.00    -0.354 N 
ATOM     31  N   UNL A   1      43.653  26.890  31.248  1.00  0.00    -0.248 NA
ATOM     32  C   UNL A   1      44.930  25.153  30.343  1.00  0.00     0.031 C 
ATOM     33  C   UNL A   1      44.475  28.787  35.196  1.00  0.00     0.029 A 
ATOM     34  C   UNL A   1      44.232  28.192  33.966  1.00  0.00     0.049 A 
ATOM     35  H   UNL A   1      42.756  28.664  32.537  1.00  0.00     0.167 HD
ATOM     36  C   UNL A   1      44.659  26.555  32.140  1.00  0.00     0.074 A 
ATOM     37  C   UNL A   1      45.400  25.461  31.545  1.00  0.00     0.031 C 
ATOM     38  C   UNL A   1      44.938  27.099  33.349  1.00  0.00     0.037 A 
BRANCH  25  39
ATOM     39  C   UNL A   1      41.202  31.729  35.051  1.00  0.00     0.058 A 
ATOM     40  C   UNL A   1      40.199  31.401  35.968  1.00  0.00     0.135 A 
ATOM     41  C   UNL A   1      41.832  32.982  35.166  1.00  0.00     0.135 A 
ATOM     42  F   UNL A   1      39.603  30.199  35.922  1.00  0.00    -0.206 F 
ATOM     43  C   UNL A   1      39.816  32.294  36.959  1.00  0.00     0.059 A 
ATOM     44  C   UNL A   1      41.484  33.879  36.164  1.00  0.00     0.059 A 
ATOM     45  F   UNL A   1      42.843  33.308  34.344  1.00  0.00    -0.206 F 
ATOM     46  C   UNL A   1      40.463  33.531  37.046  1.00  0.00     0.060 A 
BRANCH  46  47
ATOM     47  S   UNL A   1      39.959  34.668  38.350  1.00  0.00     0.124 S 
ATOM     48  O   UNL A   1      40.764  35.843  38.047  1.00  0.00    -0.237 OA
ATOM     49  O   UNL A   1      38.526  34.791  38.111  1.00  0.00    -0.237 OA
ATOM     50  O   UNL A   1      40.322  33.956  39.577  1.00  0.00    -0.744 OA
ENDBRANCH  46  47
ENDBRANCH  25  39
BRANCH  26  51
ATOM     51  C   UNL A   1      43.209  24.905  27.976  1.00  0.00     0.058 A 
ATOM     52  C   UNL A   1      43.977  25.199  26.839  1.00  0.00     0.135 A 
ATOM     53  C   UNL A   1      42.781  23.574  28.132  1.00  0.00     0.135 A 
ATOM     54  F   UNL A   1      44.430  26.446  26.639  1.00  0.00    -0.206 F 
ATOM     55  C   UNL A   1      44.305  24.222  25.897  1.00  0.00     0.059 A 
ATOM     56  C   UNL A   1      43.114  22.574  27.215  1.00  0.00     0.059 A 
ATOM     57  F   UNL A   1      42.064  23.225  29.210  1.00  0.00    -0.206 F 
ATOM     58  C   UNL A   1      43.870  22.910  26.093  1.00  0.00     0.060 A 
BRANCH  58  59
ATOM     59  S   UNL A   1      44.320  21.654  24.871  1.00  0.00     0.124 S 
ATOM     60  O   UNL A   1      45.676  21.311  25.295  1.00  0.00    -0.237 OA
ATOM     61  O   UNL A   1      43.307  20.629  25.094  1.00  0.00    -0.237 OA
ATOM     62  O   UNL A   1      44.222  22.366  23.600  1.00  0.00    -0.744 OA
ENDBRANCH  58  59
ENDBRANCH  26  51
BRANCH  38  63
ATOM     63  C   UNL A   1      46.071  26.504  34.125  1.00  0.00     0.058 A 
ATOM     64  C   UNL A   1      47.380  26.969  33.923  1.00  0.00     0.135 A 
ATOM     65  C   UNL A   1      45.876  25.413  34.984  1.00  0.00     0.135 A 
ATOM     66  F   UNL A   1      47.612  28.009  33.105  1.00  0.00    -0.206 F 
ATOM     67  C   UNL A   1      48.465  26.348  34.522  1.00  0.00     0.059 A 
ATOM     68  C   UNL A   1      46.946  24.797  35.620  1.00  0.00     0.059 A 
ATOM     69  F   UNL A   1      44.639  24.946  35.215  1.00  0.00    -0.206 F 
ATOM     70  C   UNL A   1      48.238  25.259  35.365  1.00  0.00     0.060 A 
BRANCH  70  71
ATOM     71  S   UNL A   1      49.662  24.460  36.128  1.00  0.00     0.124 S 
ATOM     72  O   UNL A   1      49.621  23.135  35.519  1.00  0.00    -0.237 OA
ATOM     73  O   UNL A   1      50.761  25.322  35.704  1.00  0.00    -0.237 OA
ATOM     74  O   UNL A   1      49.351  24.506  37.553  1.00  0.00    -0.744 OA
ENDBRANCH  70  71
ENDBRANCH  38  63
ENDBRANCH  12  13
ENDBRANCH   5   7
ENDBRANCH   4   5
ENDBRANCH   3   4
ENDBRANCH   2   3
ENDBRANCH   1   2
BRANCH   1  75
ATOM     75  C   UNL A   1      32.212  28.521  23.901  1.00  0.00     0.313 C 
ATOM     76  O   UNL A   1      32.538  28.477  22.721  1.00  0.00    -0.252 OA
BRANCH  75  77
ATOM     77  C   UNL A   1      31.505  27.364  24.667  1.00  0.00     0.131 C 
BRANCH  77  78
ATOM     78  C   UNL A   1      30.540  26.681  23.695  1.00  0.00     0.048 C 
BRANCH  78  79
ATOM     79  C   UNL A   1      29.250  27.477  23.490  1.00  0.00     0.161 C 
BRANCH  79  80
ATOM     80  O   UNL A   1      29.071  28.252  22.303  1.00  0.00    -0.379 OA
BRANCH  80  81
ATOM     81  C   UNL A   1      28.513  29.562  22.478  1.00  0.00     0.188 C 
BRANCH  81  82
ATOM     82  C   UNL A   1      29.315  30.620  21.712  1.00  0.00     0.184 C 
BRANCH  82  83
ATOM     83  O   UNL A   1      30.583  30.109  21.313  1.00  0.00    -0.394 OA
ATOM     84  H   UNL A   1      31.267  30.776  21.478  1.00  0.00     0.210 HD
ENDBRANCH  82  83
ENDBRANCH  81  82
ENDBRANCH  80  81
ENDBRANCH  79  80
ENDBRANCH  78  79
ENDBRANCH  77  78
BRANCH  77  85
ATOM     85  C   UNL A   1      32.405  26.295  25.347  1.00  0.00    -0.031 A 
ATOM     86  C   UNL A   1      33.788  26.233  25.136  1.00  0.00     0.005 A 
ATOM     87  C   UNL A   1      31.840  25.250  26.123  1.00  0.00     0.043 A 
ATOM     88  C   UNL A   1      34.530  25.101  25.513  1.00  0.00     0.003 A 
ATOM     89  C   UNL A   1      32.574  24.112  26.455  1.00  0.00     0.123 A 
ATOM     90  C   UNL A   1      33.913  24.018  26.135  1.00  0.00     0.039 A 
ATOM     91  F   UNL A   1      31.950  23.074  27.028  1.00  0.00    -0.207 F 
ENDBRANCH  77  85
ENDBRANCH  75  77
ENDBRANCH   1  75
TORSDOF 21
ENDMDL
MODEL 2
REMARK VINA RESULT:      -9.6      2.510      3.352
REMARK SMILES O=C(OCCOC(=O)[C@@H](CCOCCO)c1cccc(F)c1)c1ccc(-c2c3nc(c(-c4c(F)cc(S(=O)(=O)[O-])cc4F)c4ccc([nH]4)c(-c4c(F)cc(S(=O)(=O)[O-])cc4F)c4nc(c(-c5c(F)cc(S(=O)(=O)[O-])cc5F)c5ccc2[nH]5)C=C4)C=C3)cc1
REMARK SMILES IDX 6 1 5 2 4 3 3 4 2 5 1 6 23 7 24 8 88 9 25 10 87 11 26 12
REMARK SMILES IDX 27 13 28 14 81 15 29 16 86 17 80 18 82 19 30 20 85 21 79 22
REMARK SMILES IDX 78 23 31 25 65 26 44 27 64 28 45 29 48 30 63 31 83 32 46 33
REMARK SMILES IDX 47 34 62 36 84 37 49 38 32 39 33 40 42 41 34 42 35 43 41 44
REMARK SMILES IDX 43 45 36 46 37 47 38 48 39 49 40 50 66 51 67 52 76 53 68 54
REMARK SMILES IDX 69 55 75 56 77 57 70 58 71 59 72 60 73 61 74 62 50 63 51 64
REMARK SMILES IDX 60 65 52 66 53 67 59 68 61 69 54 70 55 71 56 72 57 73 58 74
REMARK SMILES IDX 7 75 8 76 9 77 10 78 11 79 12 80 13 81 14 82 15 83 16 85
REMARK SMILES IDX 17 86 22 87 18 88 20 89 19 90 21 91
REMARK H PARENT 82 24 48 35 15 84
REMARK Flexibility Score: inf
ROOT
ATOM      1  O   UNL A   1      32.943  27.593  26.259  1.00  0.00    -0.462 OA
ENDROOT
BRANCH   1   2
ATOM      2  C   UNL A   1      32.776  28.375  27.446  1.00  0.00     0.274 C 
BRANCH   2   3
ATOM      3  C   UNL A   1      32.422  29.844  27.163  1.00  0.00     0.275 C 
BRANCH   3   4
ATOM      4  O   UNL A   1      33.530  30.768  27.182  1.00  0.00    -0.458 OA
BRANCH   4   5
ATOM      5  C   UNL A   1      34.448  30.995  28.153  1.00  0.00     0.338 C 
ATOM      6  O   UNL A   1      34.178  31.823  29.023  1.00  0.00    -0.246 OA
BRANCH   5   7
ATOM      7  C   UNL A   1      35.785  30.310  28.233  1.00  0.00     0.060 A 
ATOM      8  C   UNL A   1      36.688  30.132  27.181  1.00  0.00     0.016 A 
ATOM      9  C   UNL A   1      36.163  29.813  29.495  1.00  0.00     0.016 A 
ATOM     10  C   UNL A   1      38.015  29.711  27.421  1.00  0.00     0.010 A 
ATOM     11  C   UNL A   1      37.478  29.380  29.739  1.00  0.00     0.010 A 
ATOM     12  C   UNL A   1      38.450  29.405  28.716  1.00  0.00    -0.014 A 
BRANCH  12  13
ATOM     13  C   UNL A   1      39.850  28.956  29.000  1.00  0.00     0.031 A 
ATOM     14  C   UNL A   1      40.742  29.984  29.610  1.00  0.00     0.074 A 
ATOM     15  C   UNL A   1      40.353  27.727  28.722  1.00  0.00     0.049 A 
ATOM     16  N   UNL A   1      41.988  29.875  29.969  1.00  0.00    -0.248 NA
ATOM     17  C   UNL A   1      40.146  31.311  29.853  1.00  0.00     0.031 C 
ATOM     18  C   UNL A   1      39.599  26.624  28.155  1.00  0.00     0.029 A 
ATOM     19  N   UNL A   1      41.613  27.179  28.854  1.00  0.00    -0.354 N 
ATOM     20  C   UNL A   1      42.295  31.093  30.546  1.00  0.00     0.074 A 
ATOM     21  C   UNL A   1      41.174  31.978  30.344  1.00  0.00     0.031 C 
ATOM     22  C   UNL A   1      40.393  25.574  27.893  1.00  0.00     0.029 A 
ATOM     23  C   UNL A   1      41.729  25.884  28.372  1.00  0.00     0.049 A 
ATOM     24  H   UNL A   1      42.366  27.668  29.258  1.00  0.00     0.167 HD
ATOM     25  C   UNL A   1      43.377  31.414  31.279  1.00  0.00     0.037 A 
ATOM     26  C   UNL A   1      42.772  25.023  28.364  1.00  0.00     0.037 A 
ATOM     27  C   UNL A   1      44.493  30.541  31.474  1.00  0.00     0.049 A 
ATOM     28  C   UNL A   1      44.034  25.462  29.055  1.00  0.00     0.074 A 
ATOM     29  C   UNL A   1      45.654  30.782  32.176  1.00  0.00     0.029 A 
ATOM     30  N   UNL A   1      44.586  29.260  30.950  1.00  0.00    -0.354 N 
ATOM     31  N   UNL A   1      44.273  26.599  29.665  1.00  0.00    -0.248 NA
ATOM     32  C   UNL A   1      45.150  24.507  29.100  1.00  0.00     0.031 C 
ATOM     33  C   UNL A   1      46.475  29.660  32.041  1.00  0.00     0.029 A 
ATOM     34  C   UNL A   1      45.801  28.701  31.298  1.00  0.00     0.049 A 
ATOM     35  H   UNL A   1      43.892  28.815  30.412  1.00  0.00     0.167 HD
ATOM     36  C   UNL A   1      45.544  26.480  30.204  1.00  0.00     0.074 A 
ATOM     37  C   UNL A   1      46.028  25.161  29.849  1.00  0.00     0.031 C 
ATOM     38  C   UNL A   1      46.245  27.380  30.935  1.00  0.00     0.037 A 
BRANCH  25  39
ATOM     39  C   UNL A   1      43.336  32.746  31.951  1.00  0.00     0.058 A 
ATOM     40  C   UNL A   1      42.897  32.871  33.273  1.00  0.00     0.135 A 
ATOM     41  C   UNL A   1      43.800  33.896  31.287  1.00  0.00     0.135 A 
ATOM     42  F   UNL A   1      42.489  31.791  33.957  1.00  0.00    -0.206 F 
ATOM     43  C   UNL A   1      42.899  34.102  33.913  1.00  0.00     0.059 A 
ATOM     44  C   UNL A   1      43.835  35.131  31.916  1.00  0.00     0.059 A 
ATOM     45  F   UNL A   1      44.289  33.806  30.039  1.00  0.00    -0.206 F 
ATOM     46  C   UNL A   1      43.367  35.226  33.224  1.00  0.00     0.060 A 
BRANCH  46  47
ATOM     47  S   UNL A   1      43.374  36.811  34.082  1.00  0.00     0.124 S 
ATOM     48  O   UNL A   1      42.031  36.849  34.644  1.00  0.00    -0.237 OA
ATOM     49  O   UNL A   1      44.464  36.638  35.034  1.00  0.00    -0.237 OA
ATOM     50  O   UNL A   1      43.636  37.774  33.010  1.00  0.00    -0.744 OA
ENDBRANCH  46  47
ENDBRANCH  25  39
BRANCH  26  51
ATOM     51  C   UNL A   1      42.675  23.651  27.769  1.00  0.00     0.058 A 
ATOM     52  C   UNL A   1      42.431  22.522  28.567  1.00  0.00     0.135 A 
ATOM     53  C   UNL A   1      42.761  23.444  26.380  1.00  0.00     0.135 A 
ATOM     54  F   UNL A   1      42.321  22.653  29.897  1.00  0.00    -0.206 F 
ATOM     55  C   UNL A   1      42.281  21.248  28.017  1.00  0.00     0.059 A 
ATOM     56  C   UNL A   1      42.594  22.183  25.804  1.00  0.00     0.059 A 
ATOM     57  F   UNL A   1      42.971  24.487  25.562  1.00  0.00    -0.206 F 
ATOM     58  C   UNL A   1      42.363  21.087  26.633  1.00  0.00     0.060 A 
BRANCH  58  59
ATOM     59  S   UNL A   1      42.149  19.430  25.937  1.00  0.00     0.124 S 
ATOM     60  O   UNL A   1      42.600  18.592  27.045  1.00  0.00    -0.237 OA
ATOM     61  O   UNL A   1      40.718  19.395  25.657  1.00  0.00    -0.237 OA
ATOM     62  O   UNL A   1      43.017  19.438  24.764  1.00  0.00    -0.744 OA
ENDBRANCH  58  59
ENDBRANCH  26  51
BRANCH  38  63
ATOM     63  C   UNL A   1      47.595  26.962  31.428  1.00  0.00     0.058 A 
ATOM     64  C   UNL A   1      47.722  26.335  32.677  1.00  0.00     0.135 A 
ATOM     65  C   UNL A   1      48.762  27.273  30.716  1.00  0.00     0.135 A 
ATOM     66  F   UNL A   1      46.630  26.024  33.394  1.00  0.00    -0.206 F 
ATOM     67  C   UNL A   1      48.968  26.060  33.221  1.00  0.00     0.059 A 
ATOM     68  C   UNL A   1      50.019  26.977  31.227  1.00  0.00     0.059 A 
ATOM     69  F   UNL A   1      48.684  27.861  29.512  1.00  0.00    -0.206 F 
ATOM     70  C   UNL A   1      50.111  26.391  32.491  1.00  0.00     0.060 A 
BRANCH  70  71
ATOM     71  S   UNL A   1      51.720  26.033  33.218  1.00  0.00     0.124 S 
ATOM     72  O   UNL A   1      51.974  27.245  33.989  1.00  0.00    -0.237 OA
ATOM     73  O   UNL A   1      51.445  24.830  33.997  1.00  0.00    -0.237 OA
ATOM     74  O   UNL A   1      52.580  25.837  32.055  1.00  0.00    -0.744 OA
ENDBRANCH  70  71
ENDBRANCH  38  63
ENDBRANCH  12  13
ENDBRANCH   5   7
ENDBRANCH   4   5
ENDBRANCH   3   4
ENDBRANCH   2   3
ENDBRANCH   1   2
BRANCH   1  75
ATOM     75  C   UNL A   1      32.055  26.557  26.092  1.00  0.00     0.313 C 
ATOM     76  O   UNL A   1      31.129  26.349  26.865  1.00  0.00    -0.252 OA
BRANCH  75  77
ATOM     77  C   UNL A   1      32.359  25.704  24.824  1.00  0.00     0.131 C 
BRANCH  77  78
ATOM     78  C   UNL A   1      32.759  26.663  23.700  1.00  0.00     0.048 C 
BRANCH  78  79
ATOM     79  C   UNL A   1      31.625  26.906  22.703  1.00  0.00     0.161 C 
BRANCH  79  80
ATOM     80  O   UNL A   1      30.439  27.583  23.123  1.00  0.00    -0.379 OA
BRANCH  80  81
ATOM     81  C   UNL A   1      30.601  28.943  23.553  1.00  0.00     0.188 C 
BRANCH  81  82
ATOM     82  C   UNL A   1      29.839  29.913  22.644  1.00  0.00     0.184 C 
BRANCH  82  83
ATOM     83  O   UNL A   1      30.302  29.823  21.300  1.00  0.00    -0.394 OA
ATOM     84  H   UNL A   1      29.961  29.011  20.895  1.00  0.00     0.210 HD
ENDBRANCH  82  83
ENDBRANCH  81  82
ENDBRANCH  80  81
ENDBRANCH  79  80
ENDBRANCH  78  79
ENDBRANCH  77  78
BRANCH  77  85
ATOM     85  C   UNL A   1      33.420  24.577  24.953  1.00  0.00    -0.031 A 
ATOM     86  C   UNL A   1      33.081  23.219  24.930  1.00  0.00     0.005 A 
ATOM     87  C   UNL A   1      34.779  24.880  25.224  1.00  0.00     0.043 A 
ATOM     88  C   UNL A   1      33.995  22.234  25.339  1.00  0.00     0.003 A 
ATOM     89  C   UNL A   1      35.668  23.903  25.671  1.00  0.00     0.123 A 
ATOM     90  C   UNL A   1      35.280  22.581  25.753  1.00  0.00     0.039 A 
ATOM     91  F   UNL A   1      36.888  24.268  26.088  1.00  0.00    -0.207 F 
ENDBRANCH  77  85
ENDBRANCH  75  77
ENDBRANCH   1  75
TORSDOF 21
ENDMDL
MODEL 3
REMARK VINA RESULT:      -9.6      5.522     11.821
REMARK SMILES O=C(OCCOC(=O)[C@@H](CCOCCO)c1cccc(F)c1)c1ccc(-c2c3nc(c(-c4c(F)cc(S(=O)(=O)[O-])cc4F)c4ccc([nH]4)c(-c4c(F)cc(S(=O)(=O)[O-])cc4F)c4nc(c(-c5c(F)cc(S(=O)(=O)[O-])cc5F)c5ccc2[nH]5)C=C4)C=C3)cc1
REMARK SMILES IDX 6 1 5 2 4 3 3 4 2 5 1 6 23 7 24 8 88 9 25 10 87 11 26 12
REMARK SMILES IDX 27 13 28 14 81 15 29 16 86 17 80 18 82 19 30 20 85 21 79 22
REMARK SMILES IDX 78 23 31 25 65 26 44 27 64 28 45 29 48 30 63 31 83 32 46 33
REMARK SMILES IDX 47 34 62 36 84 37 49 38 32 39 33 40 42 41 34 42 35 43 41 44
REMARK SMILES IDX 43 45 36 46 37 47 38 48 39 49 40 50 66 51 67 52 76 53 68 54
REMARK SMILES IDX 69 55 75 56 77 57 70 58 71 59 72 60 73 61 74 62 50 63 51 64
REMARK SMILES IDX 60 65 52 66 53 67 59 68 61 69 54 70 55 71 56 72 57 73 58 74
REMARK SMILES IDX 7 75 8 76 9 77 10 78 11 79 12 80 13 81 14 82 15 83 16 85
REMARK SMILES IDX 17 86 22 87 18 88 20 89 19 90 21 91
REMARK H PARENT 82 24 48 35 15 84
REMARK Flexibility Score: inf
ROOT
ATOM      1  O   UNL A   1      41.391  21.458  27.072  1.00  0.00    -0.462 OA
ENDROOT
BRANCH   1   2
ATOM      2  C   UNL A   1      40.722  20.375  26.420  1.00  0.00     0.274 C 
BRANCH   2   3
ATOM      3  C   UNL A   1      39.255  20.681  26.078  1.00  0.00     0.275 C 
BRANCH   3   4
ATOM      4  O   UNL A   1      39.007  21.982  25.504  1.00  0.00    -0.458 OA
BRANCH   4   5
ATOM      5  C   UNL A   1      38.475  23.090  26.075  1.00  0.00     0.338 C 
ATOM      6  O   UNL A   1      37.249  23.162  26.166  1.00  0.00    -0.246 OA
BRANCH   5   7
ATOM      7  C   UNL A   1      39.282  24.247  26.596  1.00  0.00     0.060 A 
ATOM      8  C   UNL A   1      40.124  25.073  25.844  1.00  0.00     0.016 A 
ATOM      9  C   UNL A   1      39.166  24.528  27.970  1.00  0.00     0.016 A 
ATOM     10  C   UNL A   1      40.627  26.281  26.378  1.00  0.00     0.010 A 
ATOM     11  C   UNL A   1      39.676  25.722  28.511  1.00  0.00     0.010 A 
ATOM     12  C   UNL A   1      40.344  26.660  27.695  1.00  0.00    -0.014 A 
BRANCH  12  13
ATOM     13  C   UNL A   1      40.864  27.933  28.287  1.00  0.00     0.031 A 
ATOM     14  C   UNL A   1      42.350  28.046  28.358  1.00  0.00     0.074 A 
ATOM     15  C   UNL A   1      40.101  28.944  28.772  1.00  0.00     0.049 A 
ATOM     16  N   UNL A   1      43.073  29.031  28.808  1.00  0.00    -0.248 NA
ATOM     17  C   UNL A   1      43.123  26.898  27.849  1.00  0.00     0.031 C 
ATOM     18  C   UNL A   1      38.651  28.983  28.745  1.00  0.00     0.029 A 
ATOM     19  N   UNL A   1      40.411  30.133  29.399  1.00  0.00    -0.354 N 
ATOM     20  C   UNL A   1      44.378  28.647  28.565  1.00  0.00     0.074 A 
ATOM     21  C   UNL A   1      44.362  27.286  28.086  1.00  0.00     0.031 C 
ATOM     22  C   UNL A   1      38.179  30.058  29.397  1.00  0.00     0.029 A 
ATOM     23  C   UNL A   1      39.310  30.867  29.817  1.00  0.00     0.049 A 
ATOM     24  H   UNL A   1      41.337  30.436  29.538  1.00  0.00     0.167 HD
ATOM     25  C   UNL A   1      45.490  29.402  28.630  1.00  0.00     0.037 A 
ATOM     26  C   UNL A   1      39.215  32.074  30.417  1.00  0.00     0.037 A 
ATOM     27  C   UNL A   1      45.510  30.748  29.111  1.00  0.00     0.049 A 
ATOM     28  C   UNL A   1      40.492  32.842  30.627  1.00  0.00     0.074 A 
ATOM     29  C   UNL A   1      46.592  31.592  29.246  1.00  0.00     0.029 A 
ATOM     30  N   UNL A   1      44.390  31.440  29.549  1.00  0.00    -0.354 N 
ATOM     31  N   UNL A   1      41.716  32.485  30.314  1.00  0.00    -0.248 NA
ATOM     32  C   UNL A   1      40.389  34.180  31.227  1.00  0.00     0.031 C 
ATOM     33  C   UNL A   1      46.133  32.786  29.809  1.00  0.00     0.029 A 
ATOM     34  C   UNL A   1      44.759  32.702  29.976  1.00  0.00     0.049 A 
ATOM     35  H   UNL A   1      43.471  31.087  29.554  1.00  0.00     0.167 HD
ATOM     36  C   UNL A   1      42.520  33.568  30.635  1.00  0.00     0.074 A 
ATOM     37  C   UNL A   1      41.647  34.595  31.168  1.00  0.00     0.031 C 
ATOM     38  C   UNL A   1      43.860  33.703  30.491  1.00  0.00     0.037 A 
BRANCH  25  39
ATOM     39  C   UNL A   1      46.737  28.771  28.106  1.00  0.00     0.058 A 
ATOM     40  C   UNL A   1      47.148  28.979  26.786  1.00  0.00     0.135 A 
ATOM     41  C   UNL A   1      47.559  28.003  28.952  1.00  0.00     0.135 A 
ATOM     42  F   UNL A   1      46.416  29.742  25.959  1.00  0.00    -0.206 F 
ATOM     43  C   UNL A   1      48.330  28.428  26.310  1.00  0.00     0.059 A 
ATOM     44  C   UNL A   1      48.756  27.465  28.504  1.00  0.00     0.059 A 
ATOM     45  F   UNL A   1      47.230  27.833  30.243  1.00  0.00    -0.206 F 
ATOM     46  C   UNL A   1      49.125  27.670  27.177  1.00  0.00     0.060 A 
BRANCH  46  47
ATOM     47  S   UNL A   1      50.661  26.978  26.539  1.00  0.00     0.124 S 
ATOM     48  O   UNL A   1      51.650  27.606  27.405  1.00  0.00    -0.237 OA
ATOM     49  O   UNL A   1      50.455  25.548  26.732  1.00  0.00    -0.237 OA
ATOM     50  O   UNL A   1      50.676  27.418  25.143  1.00  0.00    -0.744 OA
ENDBRANCH  46  47
ENDBRANCH  25  39
BRANCH  26  51
ATOM     51  C   UNL A   1      37.899  32.681  30.797  1.00  0.00     0.058 A 
ATOM     52  C   UNL A   1      37.412  32.610  32.111  1.00  0.00     0.135 A 
ATOM     53  C   UNL A   1      37.127  33.402  29.867  1.00  0.00     0.135 A 
ATOM     54  F   UNL A   1      38.108  31.951  33.049  1.00  0.00    -0.206 F 
ATOM     55  C   UNL A   1      36.214  33.221  32.488  1.00  0.00     0.059 A 
ATOM     56  C   UNL A   1      35.937  34.040  30.225  1.00  0.00     0.059 A 
ATOM     57  F   UNL A   1      37.551  33.526  28.601  1.00  0.00    -0.206 F 
ATOM     58  C   UNL A   1      35.483  33.936  31.539  1.00  0.00     0.060 A 
BRANCH  58  59
ATOM     59  S   UNL A   1      33.943  34.736  32.052  1.00  0.00     0.124 S 
ATOM     60  O   UNL A   1      33.397  33.746  32.976  1.00  0.00    -0.237 OA
ATOM     61  O   UNL A   1      34.425  35.973  32.659  1.00  0.00    -0.237 OA
ATOM     62  O   UNL A   1      33.210  34.898  30.800  1.00  0.00    -0.744 OA
ENDBRANCH  58  59
ENDBRANCH  26  51
BRANCH  38  63
ATOM     63  C   UNL A   1      44.465  35.013  30.886  1.00  0.00     0.058 A 
ATOM     64  C   UNL A   1      44.616  36.032  29.933  1.00  0.00     0.135 A 
ATOM     65  C   UNL A   1      44.984  35.221  32.173  1.00  0.00     0.135 A 
ATOM     66  F   UNL A   1      44.138  35.871  28.688  1.00  0.00    -0.206 F 
ATOM     67  C   UNL A   1      45.294  37.203  30.232  1.00  0.00     0.059 A 
ATOM     68  C   UNL A   1      45.638  36.401  32.503  1.00  0.00     0.059 A 
ATOM     69  F   UNL A   1      44.848  34.278  33.118  1.00  0.00    -0.206 F 
ATOM     70  C   UNL A   1      45.807  37.376  31.519  1.00  0.00     0.060 A 
BRANCH  70  71
ATOM     71  S   UNL A   1      46.693  38.902  31.887  1.00  0.00     0.124 S 
ATOM     72  O   UNL A   1      47.115  39.328  30.557  1.00  0.00    -0.237 OA
ATOM     73  O   UNL A   1      45.655  39.715  32.516  1.00  0.00    -0.237 OA
ATOM     74  O   UNL A   1      47.764  38.465  32.776  1.00  0.00    -0.744 OA
ENDBRANCH  70  71
ENDBRANCH  38  63
ENDBRANCH  12  13
ENDBRANCH   5   7
ENDBRANCH   4   5
ENDBRANCH   3   4
ENDBRANCH   2   3
ENDBRANCH   1   2
BRANCH   1  75
ATOM     75  C   UNL A   1      42.499  21.956  26.428  1.00  0.00     0.313 C 
ATOM     76  O   UNL A   1      42.901  21.507  25.362  1.00  0.00    -0.252 OA
BRANCH  75  77
ATOM     77  C   UNL A   1      43.160  23.139  27.195  1.00  0.00     0.131 C 
BRANCH  77  78
ATOM     78  C   UNL A   1      43.353  22.703  28.650  1.00  0.00     0.048 C 
BRANCH  78  79
ATOM     79  C   UNL A   1      43.292  23.877  29.629  1.00  0.00     0.161 C 
BRANCH  79  80
ATOM     80  O   UNL A   1      44.166  23.910  30.758  1.00  0.00    -0.379 OA
BRANCH  80  81
ATOM     81  C   UNL A   1      44.928  25.113  30.937  1.00  0.00     0.188 C 
BRANCH  81  82
ATOM     82  C   UNL A   1      44.318  26.006  32.023  1.00  0.00     0.184 C 
BRANCH  82  83
ATOM     83  O   UNL A   1      43.462  26.991  31.452  1.00  0.00    -0.394 OA
ATOM     84  H   UNL A   1      43.310  27.700  32.095  1.00  0.00     0.210 HD
ENDBRANCH  82  83
ENDBRANCH  81  82
ENDBRANCH  80  81
ENDBRANCH  79  80
ENDBRANCH  78  79
ENDBRANCH  77  78
BRANCH  77  85
ATOM     85  C   UNL A   1      44.496  23.702  26.637  1.00  0.00    -0.031 A 
ATOM     86  C   UNL A   1      45.741  23.349  27.169  1.00  0.00     0.005 A 
ATOM     87  C   UNL A   1      44.503  24.703  25.631  1.00  0.00     0.043 A 
ATOM     88  C   UNL A   1      46.899  24.081  26.857  1.00  0.00     0.003 A 
ATOM     89  C   UNL A   1      45.648  25.453  25.359  1.00  0.00     0.123 A 
ATOM     90  C   UNL A   1      46.845  25.165  25.982  1.00  0.00     0.039 A 
ATOM     91  F   UNL A   1      45.560  26.506  24.535  1.00  0.00    -0.207 F 
ENDBRANCH  77  85
ENDBRANCH  75  77
ENDBRANCH   1  75
TORSDOF 21
ENDMDL
