MODEL 1
REMARK VINA RESULT:     -11.4      0.000      0.000
REMARK SMILES CC(=O)Nc1nc(C[N@@H+]2CCO[C@@H](CC(=O)OCCOC(=O)c3ccc(-c4c5nc(c(-c6c(F)cc(S(=O)(=O)[O-])cc6F)c6ccc([nH]6)c(-c6c(F)cc(S(=O)(=O)[O-])cc6F)c6nc(c(-c7c(F)cc(S(=O)(=O)[O-])cc7F)c7ccc4[nH]7)C=C6)C=C5)cc3)C2)cs1
REMARK SMILES IDX 18 1 17 2 15 3 16 4 14 5 13 6 9 7 10 8 89 9 11 11 12 12 8 13
REMARK SMILES IDX 7 14 5 15 6 16 91 17 90 18 4 19 1 20 2 21 3 22 19 24 20 25
REMARK SMILES IDX 21 26 22 27 23 28 24 29 88 30 25 31 87 32 26 33 27 34 28 35
REMARK SMILES IDX 81 36 29 37 86 38 80 39 82 40 30 41 85 42 79 43 78 44 31 46
REMARK SMILES IDX 65 47 44 48 64 49 45 50 48 51 63 52 83 53 46 54 47 55 62 57
REMARK SMILES IDX 84 58 49 59 32 60 33 61 42 62 34 63 35 64 41 65 43 66 36 67
REMARK SMILES IDX 37 68 38 69 39 70 40 71 66 72 67 73 76 74 68 75 69 76 75 77
REMARK SMILES IDX 77 78 70 79 71 80 72 81 73 82 74 83 50 84 51 85 60 86 52 87
REMARK SMILES IDX 53 88 59 89 61 90 54 91 55 92 56 93 57 94 58 95
REMARK H PARENT 9 10 4 23 82 45 48 56
REMARK Flexibility Score: inf
ROOT
ATOM      1  C   UNL A   1      39.485  23.075  26.652  1.00  0.00     0.274 C 
ENDROOT
BRANCH   1   2
ATOM      2  O   UNL A   1      38.719  21.984  26.096  1.00  0.00    -0.462 OA
BRANCH   2   3
ATOM      3  C   UNL A   1      37.591  22.226  25.380  1.00  0.00     0.308 C 
ATOM      4  O   UNL A   1      37.449  23.178  24.624  1.00  0.00    -0.252 OA
BRANCH   3   5
ATOM      5  C   UNL A   1      36.456  21.259  25.728  1.00  0.00     0.160 C 
BRANCH   5   6
ATOM      6  C   UNL A   1      35.100  21.937  25.865  1.00  0.00     0.184 C 
ATOM      7  N   UNL A   1      32.681  21.622  26.291  1.00  0.00    -0.326 N 
ATOM      8  C   UNL A   1      32.640  23.016  26.751  1.00  0.00     0.291 C 
ATOM      9  C   UNL A   1      34.017  21.077  26.547  1.00  0.00     0.295 C 
ATOM     10  H   UNL A   1      31.984  21.136  26.856  1.00  0.00     0.348 HD
ATOM     11  C   UNL A   1      33.889  23.883  26.438  1.00  0.00     0.222 C 
ATOM     12  O   UNL A   1      35.150  23.186  26.594  1.00  0.00    -0.366 OA
BRANCH   7  13
ATOM     13  C   UNL A   1      32.129  21.296  24.953  1.00  0.00     0.320 C 
BRANCH  13  14
ATOM     14  C   UNL A   1      32.246  19.853  24.486  1.00  0.00     0.108 A 
ATOM     15  C   UNL A   1      32.431  17.623  24.754  1.00  0.00     0.189 A 
ATOM     16  N   UNL A   1      32.115  18.742  25.373  1.00  0.00    -0.219 NA
ATOM     17  S   UNL A   1      32.831  17.806  23.090  1.00  0.00    -0.105 S 
ATOM     18  C   UNL A   1      32.494  19.479  23.177  1.00  0.00     0.098 A 
BRANCH  15  19
ATOM     19  N   UNL A   1      32.605  16.320  25.138  1.00  0.00    -0.302 N 
ATOM     20  C   UNL A   1      35.075  15.865  25.324  1.00  0.00     0.114 C 
ATOM     21  C   UNL A   1      33.644  15.458  25.219  1.00  0.00     0.223 C 
ATOM     22  O   UNL A   1      33.369  14.258  25.344  1.00  0.00    -0.275 OA
ATOM     23  H   UNL A   1      31.761  15.907  25.430  1.00  0.00     0.172 HD
ENDBRANCH  15  19
ENDBRANCH  13  14
ENDBRANCH   7  13
ENDBRANCH   5   6
ENDBRANCH   3   5
ENDBRANCH   2   3
ENDBRANCH   1   2
BRANCH   1  24
ATOM     24  C   UNL A   1      40.965  23.021  26.190  1.00  0.00     0.275 C 
BRANCH  24  25
ATOM     25  O   UNL A   1      41.748  24.106  26.736  1.00  0.00    -0.458 OA
BRANCH  25  26
ATOM     26  C   UNL A   1      41.542  25.358  26.239  1.00  0.00     0.338 C 
ATOM     27  O   UNL A   1      41.363  25.661  25.072  1.00  0.00    -0.246 OA
BRANCH  26  28
ATOM     28  C   UNL A   1      41.474  26.314  27.381  1.00  0.00     0.060 A 
ATOM     29  C   UNL A   1      40.391  26.221  28.256  1.00  0.00     0.016 A 
ATOM     30  C   UNL A   1      42.514  27.199  27.683  1.00  0.00     0.016 A 
ATOM     31  C   UNL A   1      40.407  26.867  29.495  1.00  0.00     0.010 A 
ATOM     32  C   UNL A   1      42.492  27.920  28.896  1.00  0.00     0.010 A 
ATOM     33  C   UNL A   1      41.455  27.735  29.828  1.00  0.00    -0.014 A 
BRANCH  33  34
ATOM     34  C   UNL A   1      41.290  28.614  31.022  1.00  0.00     0.031 A 
ATOM     35  C   UNL A   1      40.186  29.639  30.971  1.00  0.00     0.074 A 
ATOM     36  C   UNL A   1      42.008  28.469  32.156  1.00  0.00     0.049 A 
ATOM     37  N   UNL A   1      39.829  30.528  31.859  1.00  0.00    -0.248 NA
ATOM     38  C   UNL A   1      39.354  29.633  29.755  1.00  0.00     0.031 C 
ATOM     39  C   UNL A   1      43.020  27.444  32.403  1.00  0.00     0.029 A 
ATOM     40  N   UNL A   1      41.976  29.190  33.332  1.00  0.00    -0.354 N 
ATOM     41  C   UNL A   1      38.731  31.182  31.312  1.00  0.00     0.074 A 
ATOM     42  C   UNL A   1      38.472  30.579  30.025  1.00  0.00     0.031 C 
ATOM     43  C   UNL A   1      43.518  27.607  33.646  1.00  0.00     0.029 A 
ATOM     44  C   UNL A   1      42.888  28.768  34.276  1.00  0.00     0.049 A 
ATOM     45  H   UNL A   1      41.355  29.938  33.483  1.00  0.00     0.167 HD
ATOM     46  C   UNL A   1      38.013  32.212  31.816  1.00  0.00     0.037 A 
ATOM     47  C   UNL A   1      43.193  29.279  35.491  1.00  0.00     0.037 A 
ATOM     48  C   UNL A   1      38.306  32.868  33.056  1.00  0.00     0.049 A 
ATOM     49  C   UNL A   1      42.459  30.509  35.983  1.00  0.00     0.074 A 
ATOM     50  C   UNL A   1      37.720  34.000  33.593  1.00  0.00     0.029 A 
ATOM     51  N   UNL A   1      39.285  32.457  33.947  1.00  0.00    -0.354 N 
ATOM     52  N   UNL A   1      41.465  31.159  35.422  1.00  0.00    -0.248 NA
ATOM     53  C   UNL A   1      42.898  31.087  37.265  1.00  0.00     0.031 C 
ATOM     54  C   UNL A   1      38.368  34.291  34.799  1.00  0.00     0.029 A 
ATOM     55  C   UNL A   1      39.326  33.316  35.030  1.00  0.00     0.049 A 
ATOM     56  H   UNL A   1      39.864  31.670  33.827  1.00  0.00     0.167 HD
ATOM     57  C   UNL A   1      41.154  32.207  36.287  1.00  0.00     0.074 A 
ATOM     58  C   UNL A   1      42.051  32.097  37.417  1.00  0.00     0.031 C 
ATOM     59  C   UNL A   1      40.217  33.178  36.155  1.00  0.00     0.037 A 
BRANCH  46  60
ATOM     60  C   UNL A   1      36.902  32.731  30.951  1.00  0.00     0.058 A 
ATOM     61  C   UNL A   1      37.150  33.615  29.889  1.00  0.00     0.135 A 
ATOM     62  C   UNL A   1      35.569  32.407  31.244  1.00  0.00     0.135 A 
ATOM     63  F   UNL A   1      38.406  33.985  29.594  1.00  0.00    -0.206 F 
ATOM     64  C   UNL A   1      36.108  34.194  29.173  1.00  0.00     0.059 A 
ATOM     65  C   UNL A   1      34.513  32.957  30.528  1.00  0.00     0.059 A 
ATOM     66  F   UNL A   1      35.283  31.578  32.262  1.00  0.00    -0.206 F 
ATOM     67  C   UNL A   1      34.792  33.869  29.510  1.00  0.00     0.060 A 
BRANCH  67  68
ATOM     68  S   UNL A   1      33.446  34.676  28.620  1.00  0.00     0.124 S 
ATOM     69  O   UNL A   1      34.137  35.815  28.022  1.00  0.00    -0.237 OA
ATOM     70  O   UNL A   1      33.017  33.637  27.690  1.00  0.00    -0.237 OA
ATOM     71  O   UNL A   1      32.491  35.003  29.674  1.00  0.00    -0.744 OA
ENDBRANCH  67  68
ENDBRANCH  46  60
BRANCH  47  72
ATOM     72  C   UNL A   1      44.278  28.680  36.328  1.00  0.00     0.058 A 
ATOM     73  C   UNL A   1      44.033  27.584  37.173  1.00  0.00     0.135 A 
ATOM     74  C   UNL A   1      45.567  29.235  36.351  1.00  0.00     0.135 A 
ATOM     75  F   UNL A   1      42.811  27.030  37.214  1.00  0.00    -0.206 F 
ATOM     76  C   UNL A   1      45.017  27.072  38.017  1.00  0.00     0.059 A 
ATOM     77  C   UNL A   1      46.575  28.725  37.169  1.00  0.00     0.059 A 
ATOM     78  F   UNL A   1      45.858  30.291  35.576  1.00  0.00    -0.206 F 
ATOM     79  C   UNL A   1      46.287  27.652  38.009  1.00  0.00     0.060 A 
BRANCH  79  80
ATOM     80  S   UNL A   1      47.568  26.968  39.086  1.00  0.00     0.124 S 
ATOM     81  O   UNL A   1      46.900  25.789  39.627  1.00  0.00    -0.237 OA
ATOM     82  O   UNL A   1      48.656  26.709  38.149  1.00  0.00    -0.237 OA
ATOM     83  O   UNL A   1      47.815  28.046  40.040  1.00  0.00    -0.744 OA
ENDBRANCH  79  80
ENDBRANCH  47  72
BRANCH  59  84
ATOM     84  C   UNL A   1      40.081  34.187  37.260  1.00  0.00     0.058 A 
ATOM     85  C   UNL A   1      40.706  35.442  37.191  1.00  0.00     0.135 A 
ATOM     86  C   UNL A   1      39.231  33.936  38.350  1.00  0.00     0.135 A 
ATOM     87  F   UNL A   1      41.527  35.732  36.170  1.00  0.00    -0.206 F 
ATOM     88  C   UNL A   1      40.499  36.411  38.169  1.00  0.00     0.059 A 
ATOM     89  C   UNL A   1      38.993  34.897  39.327  1.00  0.00     0.059 A 
ATOM     90  F   UNL A   1      38.599  32.756  38.455  1.00  0.00    -0.206 F 
ATOM     91  C   UNL A   1      39.636  36.130  39.231  1.00  0.00     0.060 A 
BRANCH  91  92
ATOM     92  S   UNL A   1      39.319  37.418  40.457  1.00  0.00     0.124 S 
ATOM     93  O   UNL A   1      38.838  36.634  41.589  1.00  0.00    -0.237 OA
ATOM     94  O   UNL A   1      40.635  38.028  40.622  1.00  0.00    -0.237 OA
ATOM     95  O   UNL A   1      38.322  38.265  39.809  1.00  0.00    -0.744 OA
ENDBRANCH  91  92
ENDBRANCH  59  84
ENDBRANCH  33  34
ENDBRANCH  26  28
ENDBRANCH  25  26
ENDBRANCH  24  25
ENDBRANCH   1  24
TORSDOF 18
ENDMDL
MODEL 2
REMARK VINA RESULT:     -11.2      5.239     10.158
REMARK SMILES CC(=O)Nc1nc(C[N@@H+]2CCO[C@@H](CC(=O)OCCOC(=O)c3ccc(-c4c5nc(c(-c6c(F)cc(S(=O)(=O)[O-])cc6F)c6ccc([nH]6)c(-c6c(F)cc(S(=O)(=O)[O-])cc6F)c6nc(c(-c7c(F)cc(S(=O)(=O)[O-])cc7F)c7ccc4[nH]7)C=C6)C=C5)cc3)C2)cs1
REMARK SMILES IDX 18 1 17 2 15 3 16 4 14 5 13 6 9 7 10 8 89 9 11 11 12 12 8 13
REMARK SMILES IDX 7 14 5 15 6 16 91 17 90 18 4 19 1 20 2 21 3 22 19 24 20 25
REMARK SMILES IDX 21 26 22 27 23 28 24 29 88 30 25 31 87 32 26 33 27 34 28 35
REMARK SMILES IDX 81 36 29 37 86 38 80 39 82 40 30 41 85 42 79 43 78 44 31 46
REMARK SMILES IDX 65 47 44 48 64 49 45 50 48 51 63 52 83 53 46 54 47 55 62 57
REMARK SMILES IDX 84 58 49 59 32 60 33 61 42 62 34 63 35 64 41 65 43 66 36 67
REMARK SMILES IDX 37 68 38 69 39 70 40 71 66 72 67 73 76 74 68 75 69 76 75 77
REMARK SMILES IDX 77 78 70 79 71 80 72 81 73 82 74 83 50 84 51 85 60 86 52 87
REMARK SMILES IDX 53 88 59 89 61 90 54 91 55 92 56 93 57 94 58 95
REMARK H PARENT 9 10 4 23 82 45 48 56
REMARK Flexibility Score: inf
ROOT
ATOM      1  C   UNL A   1      32.663  28.421  25.645  1.00  0.00     0.274 C 
ENDROOT
BRANCH   1   2
ATOM      2  O   UNL A   1      32.036  27.497  26.561  1.00  0.00    -0.462 OA
BRANCH   2   3
ATOM      3  C   UNL A   1      31.936  26.178  26.253  1.00  0.00     0.308 C 
ATOM      4  O   UNL A   1      31.393  25.346  26.968  1.00  0.00    -0.252 OA
BRANCH   3   5
ATOM      5  C   UNL A   1      32.705  25.812  24.981  1.00  0.00     0.160 C 
BRANCH   5   6
ATOM      6  C   UNL A   1      33.461  24.495  25.083  1.00  0.00     0.184 C 
ATOM      7  N   UNL A   1      33.749  22.216  24.160  1.00  0.00    -0.326 N 
ATOM      8  C   UNL A   1      35.116  22.236  24.694  1.00  0.00     0.291 C 
ATOM      9  C   UNL A   1      33.344  23.588  23.843  1.00  0.00     0.295 C 
ATOM     10  H   UNL A   1      33.804  21.655  23.309  1.00  0.00     0.348 HD
ATOM     11  C   UNL A   1      35.452  23.378  25.690  1.00  0.00     0.222 C 
ATOM     12  O   UNL A   1      34.876  24.660  25.338  1.00  0.00    -0.366 OA
BRANCH   7  13
ATOM     13  C   UNL A   1      32.718  21.418  24.868  1.00  0.00     0.320 C 
BRANCH  13  14
ATOM     14  C   UNL A   1      32.557  19.963  24.451  1.00  0.00     0.108 A 
ATOM     15  C   UNL A   1      32.527  17.733  24.774  1.00  0.00     0.189 A 
ATOM     16  N   UNL A   1      32.490  18.894  25.396  1.00  0.00    -0.219 NA
ATOM     17  S   UNL A   1      32.576  17.834  23.057  1.00  0.00    -0.105 S 
ATOM     18  C   UNL A   1      32.468  19.537  23.138  1.00  0.00     0.098 A 
BRANCH  15  19
ATOM     19  N   UNL A   1      32.623  16.426  25.171  1.00  0.00    -0.302 N 
ATOM     20  C   UNL A   1      35.061  15.826  25.360  1.00  0.00     0.114 C 
ATOM     21  C   UNL A   1      33.609  15.503  25.259  1.00  0.00     0.223 C 
ATOM     22  O   UNL A   1      33.262  14.323  25.395  1.00  0.00    -0.275 OA
ATOM     23  H   UNL A   1      31.756  16.067  25.467  1.00  0.00     0.172 HD
ENDBRANCH  15  19
ENDBRANCH  13  14
ENDBRANCH   7  13
ENDBRANCH   5   6
ENDBRANCH   3   5
ENDBRANCH   2   3
ENDBRANCH   1   2
BRANCH   1  24
ATOM     24  C   UNL A   1      34.024  28.925  26.193  1.00  0.00     0.275 C 
BRANCH  24  25
ATOM     25  O   UNL A   1      33.978  29.186  27.614  1.00  0.00    -0.458 OA
BRANCH  25  26
ATOM     26  C   UNL A   1      34.721  30.221  28.099  1.00  0.00     0.338 C 
ATOM     27  O   UNL A   1      34.320  31.335  28.392  1.00  0.00    -0.246 OA
BRANCH  26  28
ATOM     28  C   UNL A   1      36.115  29.741  28.312  1.00  0.00     0.060 A 
ATOM     29  C   UNL A   1      37.016  29.838  27.250  1.00  0.00     0.016 A 
ATOM     30  C   UNL A   1      36.586  29.330  29.563  1.00  0.00     0.016 A 
ATOM     31  C   UNL A   1      38.391  29.693  27.455  1.00  0.00     0.010 A 
ATOM     32  C   UNL A   1      37.966  29.097  29.753  1.00  0.00     0.010 A 
ATOM     33  C   UNL A   1      38.884  29.309  28.709  1.00  0.00    -0.014 A 
BRANCH  33  34
ATOM     34  C   UNL A   1      40.313  28.891  28.807  1.00  0.00     0.031 A 
ATOM     35  C   UNL A   1      41.287  29.904  29.352  1.00  0.00     0.074 A 
ATOM     36  C   UNL A   1      40.743  27.643  28.525  1.00  0.00     0.049 A 
ATOM     37  N   UNL A   1      42.577  29.809  29.537  1.00  0.00    -0.248 NA
ATOM     38  C   UNL A   1      40.711  31.193  29.773  1.00  0.00     0.031 C 
ATOM     39  C   UNL A   1      39.902  26.521  28.110  1.00  0.00     0.029 A 
ATOM     40  N   UNL A   1      42.012  27.105  28.565  1.00  0.00    -0.354 N 
ATOM     41  C   UNL A   1      42.964  31.020  30.098  1.00  0.00     0.074 A 
ATOM     42  C   UNL A   1      41.773  31.827  30.238  1.00  0.00     0.031 C 
ATOM     43  C   UNL A   1      40.678  25.434  27.927  1.00  0.00     0.029 A 
ATOM     44  C   UNL A   1      42.077  25.785  28.176  1.00  0.00     0.049 A 
ATOM     45  H   UNL A   1      42.802  27.620  28.849  1.00  0.00     0.167 HD
ATOM     46  C   UNL A   1      44.201  31.443  30.445  1.00  0.00     0.037 A 
ATOM     47  C   UNL A   1      43.144  24.969  28.014  1.00  0.00     0.037 A 
ATOM     48  C   UNL A   1      45.399  30.682  30.242  1.00  0.00     0.049 A 
ATOM     49  C   UNL A   1      44.534  25.503  28.292  1.00  0.00     0.074 A 
ATOM     50  C   UNL A   1      46.712  31.070  30.440  1.00  0.00     0.029 A 
ATOM     51  N   UNL A   1      45.428  29.377  29.776  1.00  0.00    -0.354 N 
ATOM     52  N   UNL A   1      44.891  26.677  28.760  1.00  0.00    -0.248 NA
ATOM     53  C   UNL A   1      45.669  24.609  28.002  1.00  0.00     0.031 C 
ATOM     54  C   UNL A   1      47.538  30.005  30.063  1.00  0.00     0.029 A 
ATOM     55  C   UNL A   1      46.737  28.944  29.672  1.00  0.00     0.049 A 
ATOM     56  H   UNL A   1      44.635  28.839  29.552  1.00  0.00     0.167 HD
ATOM     57  C   UNL A   1      46.283  26.654  28.834  1.00  0.00     0.074 A 
ATOM     58  C   UNL A   1      46.705  25.347  28.380  1.00  0.00     0.031 C 
ATOM     59  C   UNL A   1      47.136  27.630  29.233  1.00  0.00     0.037 A 
BRANCH  46  60
ATOM     60  C   UNL A   1      44.296  32.838  30.990  1.00  0.00     0.058 A 
ATOM     61  C   UNL A   1      44.129  33.104  32.358  1.00  0.00     0.135 A 
ATOM     62  C   UNL A   1      44.470  33.925  30.121  1.00  0.00     0.135 A 
ATOM     63  F   UNL A   1      43.922  32.099  33.224  1.00  0.00    -0.206 F 
ATOM     64  C   UNL A   1      44.089  34.408  32.840  1.00  0.00     0.059 A 
ATOM     65  C   UNL A   1      44.454  35.235  30.584  1.00  0.00     0.059 A 
ATOM     66  F   UNL A   1      44.616  33.719  28.802  1.00  0.00    -0.206 F 
ATOM     67  C   UNL A   1      44.238  35.466  31.942  1.00  0.00     0.060 A 
BRANCH  67  68
ATOM     68  S   UNL A   1      44.118  37.155  32.568  1.00  0.00     0.124 S 
ATOM     69  O   UNL A   1      45.456  37.356  33.116  1.00  0.00    -0.237 OA
ATOM     70  O   UNL A   1      43.807  37.915  31.361  1.00  0.00    -0.237 OA
ATOM     71  O   UNL A   1      43.041  37.077  33.550  1.00  0.00    -0.744 OA
ENDBRANCH  67  68
ENDBRANCH  46  60
BRANCH  47  72
ATOM     72  C   UNL A   1      42.975  23.569  27.516  1.00  0.00     0.058 A 
ATOM     73  C   UNL A   1      42.881  23.285  26.143  1.00  0.00     0.135 A 
ATOM     74  C   UNL A   1      42.836  22.493  28.407  1.00  0.00     0.135 A 
ATOM     75  F   UNL A   1      42.978  24.278  25.245  1.00  0.00    -0.206 F 
ATOM     76  C   UNL A   1      42.640  21.994  25.674  1.00  0.00     0.059 A 
ATOM     77  C   UNL A   1      42.620  21.190  27.961  1.00  0.00     0.059 A 
ATOM     78  F   UNL A   1      42.904  22.703  29.730  1.00  0.00    -0.206 F 
ATOM     79  C   UNL A   1      42.510  20.951  26.593  1.00  0.00     0.060 A 
BRANCH  79  80
ATOM     80  S   UNL A   1      42.225  19.275  25.978  1.00  0.00     0.124 S 
ATOM     81  O   UNL A   1      40.784  19.284  25.752  1.00  0.00    -0.237 OA
ATOM     82  O   UNL A   1      43.057  19.238  24.780  1.00  0.00    -0.237 OA
ATOM     83  O   UNL A   1      42.686  18.432  27.079  1.00  0.00    -0.744 OA
ENDBRANCH  79  80
ENDBRANCH  47  72
BRANCH  59  84
ATOM     84  C   UNL A   1      48.608  27.329  29.231  1.00  0.00     0.058 A 
ATOM     85  C   UNL A   1      49.450  27.783  28.204  1.00  0.00     0.135 A 
ATOM     86  C   UNL A   1      49.199  26.670  30.322  1.00  0.00     0.135 A 
ATOM     87  F   UNL A   1      48.935  28.419  27.141  1.00  0.00    -0.206 F 
ATOM     88  C   UNL A   1      50.827  27.588  28.254  1.00  0.00     0.059 A 
ATOM     89  C   UNL A   1      50.575  26.482  30.403  1.00  0.00     0.059 A 
ATOM     90  F   UNL A   1      48.439  26.228  31.336  1.00  0.00    -0.206 F 
ATOM     91  C   UNL A   1      51.381  26.940  29.361  1.00  0.00     0.060 A 
BRANCH  91  92
ATOM     92  S   UNL A   1      53.175  26.753  29.450  1.00  0.00     0.124 S 
ATOM     93  O   UNL A   1      53.345  26.173  30.778  1.00  0.00    -0.237 OA
ATOM     94  O   UNL A   1      53.456  25.863  28.328  1.00  0.00    -0.237 OA
ATOM     95  O   UNL A   1      53.667  28.119  29.294  1.00  0.00    -0.744 OA
ENDBRANCH  91  92
ENDBRANCH  59  84
ENDBRANCH  33  34
ENDBRANCH  26  28
ENDBRANCH  25  26
ENDBRANCH  24  25
ENDBRANCH   1  24
TORSDOF 18
ENDMDL
MODEL 3
REMARK VINA RESULT:     -11.2      6.280      8.679
REMARK SMILES CC(=O)Nc1nc(C[N@@H+]2CCO[C@@H](CC(=O)OCCOC(=O)c3ccc(-c4c5nc(c(-c6c(F)cc(S(=O)(=O)[O-])cc6F)c6ccc([nH]6)c(-c6c(F)cc(S(=O)(=O)[O-])cc6F)c6nc(c(-c7c(F)cc(S(=O)(=O)[O-])cc7F)c7ccc4[nH]7)C=C6)C=C5)cc3)C2)cs1
REMARK SMILES IDX 18 1 17 2 15 3 16 4 14 5 13 6 9 7 10 8 89 9 11 11 12 12 8 13
REMARK SMILES IDX 7 14 5 15 6 16 91 17 90 18 4 19 1 20 2 21 3 22 19 24 20 25
REMARK SMILES IDX 21 26 22 27 23 28 24 29 88 30 25 31 87 32 26 33 27 34 28 35
REMARK SMILES IDX 81 36 29 37 86 38 80 39 82 40 30 41 85 42 79 43 78 44 31 46
REMARK SMILES IDX 65 47 44 48 64 49 45 50 48 51 63 52 83 53 46 54 47 55 62 57
REMARK SMILES IDX 84 58 49 59 32 60 33 61 42 62 34 63 35 64 41 65 43 66 36 67
REMARK SMILES IDX 37 68 38 69 39 70 40 71 66 72 67 73 76 74 68 75 69 76 75 77
REMARK SMILES IDX 77 78 70 79 71 80 72 81 73 82 74 83 50 84 51 85 60 86 52 87
REMARK SMILES IDX 53 88 59 89 61 90 54 91 55 92 56 93 57 94 58 95
REMARK H PARENT 9 10 4 23 82 45 48 56
REMARK Flexibility Score: inf
ROOT
ATOM      1  C   UNL A   1      39.130  21.378  25.799  1.00  0.00     0.274 C 
ENDROOT
BRANCH   1   2
ATOM      2  O   UNL A   1      37.834  21.613  25.206  1.00  0.00    -0.462 OA
BRANCH   2   3
ATOM      3  C   UNL A   1      37.344  22.875  25.092  1.00  0.00     0.308 C 
ATOM      4  O   UNL A   1      37.733  23.824  25.760  1.00  0.00    -0.252 OA
BRANCH   3   5
ATOM      5  C   UNL A   1      36.148  22.956  24.140  1.00  0.00     0.160 C 
BRANCH   5   6
ATOM      6  C   UNL A   1      34.804  23.012  24.854  1.00  0.00     0.184 C 
ATOM      7  N   UNL A   1      33.027  21.714  25.988  1.00  0.00    -0.326 N 
ATOM      8  C   UNL A   1      32.668  22.943  26.706  1.00  0.00     0.291 C 
ATOM      9  C   UNL A   1      34.456  21.750  25.669  1.00  0.00     0.295 C 
ATOM     10  H   UNL A   1      32.826  20.956  26.641  1.00  0.00     0.348 HD
ATOM     11  C   UNL A   1      33.296  24.259  26.176  1.00  0.00     0.222 C 
ATOM     12  O   UNL A   1      34.679  24.132  25.761  1.00  0.00    -0.366 OA
BRANCH   7  13
ATOM     13  C   UNL A   1      32.159  21.260  24.873  1.00  0.00     0.320 C 
BRANCH  13  14
ATOM     14  C   UNL A   1      32.281  19.805  24.445  1.00  0.00     0.108 A 
ATOM     15  C   UNL A   1      32.472  17.583  24.775  1.00  0.00     0.189 A 
ATOM     16  N   UNL A   1      32.153  18.718  25.363  1.00  0.00    -0.219 NA
ATOM     17  S   UNL A   1      32.871  17.722  23.107  1.00  0.00    -0.105 S 
ATOM     18  C   UNL A   1      32.529  19.395  23.147  1.00  0.00     0.098 A 
BRANCH  15  19
ATOM     19  N   UNL A   1      32.650  16.292  25.195  1.00  0.00    -0.302 N 
ATOM     20  C   UNL A   1      35.121  15.845  25.376  1.00  0.00     0.114 C 
ATOM     21  C   UNL A   1      33.691  15.433  25.292  1.00  0.00     0.223 C 
ATOM     22  O   UNL A   1      33.418  14.237  25.454  1.00  0.00    -0.275 OA
ATOM     23  H   UNL A   1      31.809  15.887  25.505  1.00  0.00     0.172 HD
ENDBRANCH  15  19
ENDBRANCH  13  14
ENDBRANCH   7  13
ENDBRANCH   5   6
ENDBRANCH   3   5
ENDBRANCH   2   3
ENDBRANCH   1   2
BRANCH   1  24
ATOM     24  C   UNL A   1      39.510  19.875  25.751  1.00  0.00     0.275 C 
BRANCH  24  25
ATOM     25  O   UNL A   1      40.610  19.562  26.635  1.00  0.00    -0.458 OA
BRANCH  25  26
ATOM     26  C   UNL A   1      41.869  19.553  26.113  1.00  0.00     0.338 C 
ATOM     27  O   UNL A   1      42.370  18.678  25.426  1.00  0.00    -0.246 OA
BRANCH  26  28
ATOM     28  C   UNL A   1      42.525  20.851  26.440  1.00  0.00     0.060 A 
ATOM     29  C   UNL A   1      42.946  21.661  25.386  1.00  0.00     0.016 A 
ATOM     30  C   UNL A   1      42.608  21.343  27.747  1.00  0.00     0.016 A 
ATOM     31  C   UNL A   1      43.290  23.000  25.597  1.00  0.00     0.010 A 
ATOM     32  C   UNL A   1      43.038  22.668  27.972  1.00  0.00     0.010 A 
ATOM     33  C   UNL A   1      43.351  23.519  26.896  1.00  0.00    -0.014 A 
BRANCH  33  34
ATOM     34  C   UNL A   1      43.992  24.851  27.094  1.00  0.00     0.031 A 
ATOM     35  C   UNL A   1      43.112  25.966  27.599  1.00  0.00     0.074 A 
ATOM     36  C   UNL A   1      45.314  25.071  26.934  1.00  0.00     0.049 A 
ATOM     37  N   UNL A   1      43.406  27.214  27.851  1.00  0.00    -0.248 NA
ATOM     38  C   UNL A   1      41.713  25.606  27.888  1.00  0.00     0.031 C 
ATOM     39  C   UNL A   1      46.311  24.065  26.574  1.00  0.00     0.029 A 
ATOM     40  N   UNL A   1      46.051  26.228  27.077  1.00  0.00    -0.354 N 
ATOM     41  C   UNL A   1      42.232  27.785  28.330  1.00  0.00     0.074 A 
ATOM     42  C   UNL A   1      41.228  26.745  28.348  1.00  0.00     0.031 C 
ATOM     43  C   UNL A   1      47.525  24.649  26.515  1.00  0.00     0.029 A 
ATOM     44  C   UNL A   1      47.393  26.079  26.799  1.00  0.00     0.049 A 
ATOM     45  H   UNL A   1      45.653  27.085  27.354  1.00  0.00     0.167 HD
ATOM     46  C   UNL A   1      41.993  29.064  28.698  1.00  0.00     0.037 A 
ATOM     47  C   UNL A   1      48.387  26.996  26.754  1.00  0.00     0.037 A 
ATOM     48  C   UNL A   1      42.958  30.121  28.613  1.00  0.00     0.049 A 
ATOM     49  C   UNL A   1      48.071  28.447  27.051  1.00  0.00     0.074 A 
ATOM     50  C   UNL A   1      42.780  31.473  28.840  1.00  0.00     0.029 A 
ATOM     51  N   UNL A   1      44.286  29.941  28.256  1.00  0.00    -0.354 N 
ATOM     52  N   UNL A   1      46.936  28.984  27.438  1.00  0.00    -0.248 NA
ATOM     53  C   UNL A   1      49.164  29.421  26.888  1.00  0.00     0.031 C 
ATOM     54  C   UNL A   1      43.997  32.117  28.589  1.00  0.00     0.029 A 
ATOM     55  C   UNL A   1      44.939  31.160  28.248  1.00  0.00     0.049 A 
ATOM     56  H   UNL A   1      44.701  29.075  28.040  1.00  0.00     0.167 HD
ATOM     57  C   UNL A   1      47.185  30.348  27.578  1.00  0.00     0.074 A 
ATOM     58  C   UNL A   1      48.579  30.556  27.252  1.00  0.00     0.031 C 
ATOM     59  C   UNL A   1      46.334  31.342  27.937  1.00  0.00     0.037 A 
BRANCH  46  60
ATOM     60  C   UNL A   1      40.592  29.378  29.133  1.00  0.00     0.058 A 
ATOM     61  C   UNL A   1      39.549  29.519  28.204  1.00  0.00     0.135 A 
ATOM     62  C   UNL A   1      40.311  29.625  30.485  1.00  0.00     0.135 A 
ATOM     63  F   UNL A   1      39.777  29.331  26.895  1.00  0.00    -0.206 F 
ATOM     64  C   UNL A   1      38.282  29.936  28.598  1.00  0.00     0.059 A 
ATOM     65  C   UNL A   1      39.047  30.022  30.904  1.00  0.00     0.059 A 
ATOM     66  F   UNL A   1      41.281  29.518  31.407  1.00  0.00    -0.206 F 
ATOM     67  C   UNL A   1      38.046  30.199  29.949  1.00  0.00     0.060 A 
BRANCH  67  68
ATOM     68  S   UNL A   1      36.419  30.804  30.442  1.00  0.00     0.124 S 
ATOM     69  O   UNL A   1      35.750  30.920  29.149  1.00  0.00    -0.237 OA
ATOM     70  O   UNL A   1      35.936  29.737  31.311  1.00  0.00    -0.237 OA
ATOM     71  O   UNL A   1      36.715  32.067  31.111  1.00  0.00    -0.744 OA
ENDBRANCH  67  68
ENDBRANCH  46  60
BRANCH  47  72
ATOM     72  C   UNL A   1      49.777  26.606  26.363  1.00  0.00     0.058 A 
ATOM     73  C   UNL A   1      50.741  26.263  27.326  1.00  0.00     0.135 A 
ATOM     74  C   UNL A   1      50.189  26.634  25.022  1.00  0.00     0.135 A 
ATOM     75  F   UNL A   1      50.412  26.247  28.628  1.00  0.00    -0.206 F 
ATOM     76  C   UNL A   1      52.061  25.979  26.977  1.00  0.00     0.059 A 
ATOM     77  C   UNL A   1      51.497  26.330  24.645  1.00  0.00     0.059 A 
ATOM     78  F   UNL A   1      49.318  26.967  24.057  1.00  0.00    -0.206 F 
ATOM     79  C   UNL A   1      52.429  26.016  25.631  1.00  0.00     0.060 A 
BRANCH  79  80
ATOM     80  S   UNL A   1      54.136  25.621  25.181  1.00  0.00     0.124 S 
ATOM     81  O   UNL A   1      54.437  26.672  24.215  1.00  0.00    -0.237 OA
ATOM     82  O   UNL A   1      54.825  25.717  26.463  1.00  0.00    -0.237 OA
ATOM     83  O   UNL A   1      54.033  24.271  24.632  1.00  0.00    -0.744 OA
ENDBRANCH  79  80
ENDBRANCH  47  72
BRANCH  59  84
ATOM     84  C   UNL A   1      46.877  32.741  28.027  1.00  0.00     0.058 A 
ATOM     85  C   UNL A   1      46.764  33.643  26.958  1.00  0.00     0.135 A 
ATOM     86  C   UNL A   1      47.421  33.214  29.233  1.00  0.00     0.135 A 
ATOM     87  F   UNL A   1      46.250  33.241  25.786  1.00  0.00    -0.206 F 
ATOM     88  C   UNL A   1      47.178  34.967  27.079  1.00  0.00     0.059 A 
ATOM     89  C   UNL A   1      47.822  34.538  29.382  1.00  0.00     0.059 A 
ATOM     90  F   UNL A   1      47.538  32.394  30.289  1.00  0.00    -0.206 F 
ATOM     91  C   UNL A   1      47.701  35.406  28.298  1.00  0.00     0.060 A 
BRANCH  91  92
ATOM     92  S   UNL A   1      48.171  37.142  28.466  1.00  0.00     0.124 S 
ATOM     93  O   UNL A   1      46.887  37.813  28.295  1.00  0.00    -0.237 OA
ATOM     94  O   UNL A   1      48.736  37.187  29.812  1.00  0.00    -0.237 OA
ATOM     95  O   UNL A   1      49.133  37.339  27.386  1.00  0.00    -0.744 OA
ENDBRANCH  91  92
ENDBRANCH  59  84
ENDBRANCH  33  34
ENDBRANCH  26  28
ENDBRANCH  25  26
ENDBRANCH  24  25
ENDBRANCH   1  24
TORSDOF 18
ENDMDL
