MODEL 1
REMARK VINA RESULT:     -12.0      0.000      0.000
REMARK SMILES COc1ccc(NC(=O)[C@@H]2[C@@H](C(=O)OCCOC(=O)c3ccc(-c4c5nc(c(-c6c(F)cc(S(=O)(=O)[O-])cc6F)c6ccc([nH]6)c(-c6c(F)cc(S(=O)(=O)[O-])cc6F)c6nc(c(-c7c(F)cc(S(=O)(=O)[O-])cc7F)c7ccc4[nH]7)C=C6)C=C5)cc3)[C@H]3C=C[C@@H]2C3)cc1O
REMARK SMILES IDX 15 1 14 2 12 3 13 4 11 5 10 6 89 7 86 8 88 9 90 10 87 11
REMARK SMILES IDX 8 12 7 13 9 15 6 16 3 17 4 18 92 19 5 20 91 21 2 22 1 23
REMARK SMILES IDX 93 24 16 26 17 27 18 28 19 29 20 30 21 31 85 32 22 33 84 34
REMARK SMILES IDX 23 35 24 36 25 37 78 38 26 39 83 40 77 41 79 42 27 43 82 44
REMARK SMILES IDX 76 45 75 46 28 48 62 49 41 50 61 51 42 52 45 53 60 54 80 55
REMARK SMILES IDX 43 56 44 57 59 59 81 60 46 61 29 62 30 63 39 64 31 65 32 66
REMARK SMILES IDX 38 67 40 68 33 69 34 70 35 71 36 72 37 73 63 74 64 75 73 76
REMARK SMILES IDX 65 77 66 78 72 79 74 80 67 81 68 82 69 83 70 84 71 85 47 86
REMARK SMILES IDX 48 87 57 88 49 89 50 90 56 91 58 92 51 93 52 94 53 95 54 96
REMARK SMILES IDX 55 97
REMARK H PARENT 7 14 93 25 79 47 45 58
REMARK Flexibility Score: inf
ROOT
ATOM      1  C   UNL A   1      33.371  30.186  26.654  1.00  0.00     0.274 C 
ENDROOT
BRANCH   1   2
ATOM      2  O   UNL A   1      34.123  29.062  26.166  1.00  0.00    -0.462 OA
BRANCH   2   3
ATOM      3  C   UNL A   1      33.641  28.441  25.068  1.00  0.00     0.310 C 
ATOM      4  O   UNL A   1      33.379  29.005  24.011  1.00  0.00    -0.252 OA
BRANCH   3   5
ATOM      5  C   UNL A   1      33.439  26.948  25.233  1.00  0.00     0.119 C 
ATOM      6  C   UNL A   1      32.752  26.354  23.999  1.00  0.00     0.100 C 
ATOM      7  C   UNL A   1      31.564  25.547  24.586  1.00  0.00     0.025 C 
ATOM      8  C   UNL A   1      32.561  26.408  26.395  1.00  0.00     0.027 C 
ATOM      9  C   UNL A   1      30.586  26.514  25.224  1.00  0.00    -0.027 C 
ATOM     10  C   UNL A   1      32.168  25.010  25.879  1.00  0.00     0.017 C 
ATOM     11  C   UNL A   1      31.173  27.003  26.327  1.00  0.00    -0.027 C 
BRANCH   6  12
ATOM     12  C   UNL A   1      33.570  25.560  22.996  1.00  0.00     0.228 C 
ATOM     13  N   UNL A   1      33.915  24.257  22.947  1.00  0.00    -0.326 N 
ATOM     14  H   UNL A   1      34.621  24.157  22.269  1.00  0.00     0.169 HD
ATOM     15  O   UNL A   1      34.027  26.220  22.040  1.00  0.00    -0.274 OA
BRANCH  13  16
ATOM     16  C   UNL A   1      33.655  22.981  23.492  1.00  0.00     0.045 A 
ATOM     17  C   UNL A   1      33.582  20.361  24.578  1.00  0.00     0.160 A 
ATOM     18  C   UNL A   1      32.591  20.783  23.706  1.00  0.00     0.052 A 
ATOM     19  C   UNL A   1      34.600  21.237  24.918  1.00  0.00     0.159 A 
ATOM     20  C   UNL A   1      32.630  22.089  23.176  1.00  0.00     0.030 A 
ATOM     21  C   UNL A   1      34.633  22.529  24.400  1.00  0.00     0.076 A 
BRANCH  17  22
ATOM     22  O   UNL A   1      33.662  19.067  25.009  1.00  0.00    -0.493 OA
ATOM     23  C   UNL A   1      32.531  18.300  24.590  1.00  0.00     0.278 C 
ENDBRANCH  17  22
BRANCH  19  24
ATOM     24  O   UNL A   1      35.611  20.839  25.747  1.00  0.00    -0.504 OA
ATOM     25  H   UNL A   1      36.395  21.349  25.807  1.00  0.00     0.293 HD
ENDBRANCH  19  24
ENDBRANCH  13  16
ENDBRANCH   6  12
ENDBRANCH   3   5
ENDBRANCH   2   3
ENDBRANCH   1   2
BRANCH   1  26
ATOM     26  C   UNL A   1      34.229  30.976  27.638  1.00  0.00     0.275 C 
BRANCH  26  27
ATOM     27  O   UNL A   1      35.082  30.090  28.389  1.00  0.00    -0.458 OA
BRANCH  27  28
ATOM     28  C   UNL A   1      36.030  30.700  29.136  1.00  0.00     0.338 C 
ATOM     29  O   UNL A   1      35.887  31.646  29.897  1.00  0.00    -0.246 OA
BRANCH  28  30
ATOM     30  C   UNL A   1      37.328  30.046  28.927  1.00  0.00     0.060 A 
ATOM     31  C   UNL A   1      38.154  29.780  30.018  1.00  0.00     0.016 A 
ATOM     32  C   UNL A   1      37.779  29.821  27.627  1.00  0.00     0.016 A 
ATOM     33  C   UNL A   1      39.465  29.351  29.805  1.00  0.00     0.010 A 
ATOM     34  C   UNL A   1      39.069  29.323  27.421  1.00  0.00     0.010 A 
ATOM     35  C   UNL A   1      39.942  29.118  28.505  1.00  0.00    -0.014 A 
BRANCH  35  36
ATOM     36  C   UNL A   1      41.354  28.702  28.274  1.00  0.00     0.031 A 
ATOM     37  C   UNL A   1      42.473  29.710  28.370  1.00  0.00     0.074 A 
ATOM     38  C   UNL A   1      41.654  27.418  27.996  1.00  0.00     0.049 A 
ATOM     39  N   UNL A   1      43.740  29.570  28.074  1.00  0.00    -0.248 NA
ATOM     40  C   UNL A   1      42.115  31.051  28.857  1.00  0.00     0.031 C 
ATOM     41  C   UNL A   1      40.689  26.322  27.910  1.00  0.00     0.029 A 
ATOM     42  N   UNL A   1      42.864  26.815  27.748  1.00  0.00    -0.354 N 
ATOM     43  C   UNL A   1      44.320  30.819  28.276  1.00  0.00     0.074 A 
ATOM     44  C   UNL A   1      43.265  31.700  28.731  1.00  0.00     0.031 C 
ATOM     45  C   UNL A   1      41.343  25.178  27.660  1.00  0.00     0.029 A 
ATOM     46  C   UNL A   1      42.764  25.468  27.490  1.00  0.00     0.049 A 
ATOM     47  H   UNL A   1      43.720  27.301  27.752  1.00  0.00     0.167 HD
ATOM     48  C   UNL A   1      45.608  31.199  28.093  1.00  0.00     0.037 A 
ATOM     49  C   UNL A   1      43.698  24.569  27.123  1.00  0.00     0.037 A 
ATOM     50  C   UNL A   1      46.671  30.318  27.684  1.00  0.00     0.049 A 
ATOM     51  C   UNL A   1      45.121  25.007  26.930  1.00  0.00     0.074 A 
ATOM     52  C   UNL A   1      48.010  30.613  27.489  1.00  0.00     0.029 A 
ATOM     53  N   UNL A   1      46.521  28.965  27.419  1.00  0.00    -0.354 N 
ATOM     54  N   UNL A   1      45.640  26.202  27.083  1.00  0.00    -0.248 NA
ATOM     55  C   UNL A   1      46.081  23.982  26.498  1.00  0.00     0.031 C 
ATOM     56  C   UNL A   1      48.663  29.446  27.078  1.00  0.00     0.029 A 
ATOM     57  C   UNL A   1      47.740  28.414  27.053  1.00  0.00     0.049 A 
ATOM     58  H   UNL A   1      45.674  28.468  27.481  1.00  0.00     0.167 HD
ATOM     59  C   UNL A   1      46.986  26.073  26.755  1.00  0.00     0.074 A 
ATOM     60  C   UNL A   1      47.207  24.679  26.429  1.00  0.00     0.031 C 
ATOM     61  C   UNL A   1      47.948  27.028  26.718  1.00  0.00     0.037 A 
BRANCH  48  62
ATOM     62  C   UNL A   1      45.932  32.654  28.297  1.00  0.00     0.058 A 
ATOM     63  C   UNL A   1      45.723  33.612  27.294  1.00  0.00     0.135 A 
ATOM     64  C   UNL A   1      46.455  33.094  29.525  1.00  0.00     0.135 A 
ATOM     65  F   UNL A   1      45.242  33.241  26.097  1.00  0.00    -0.206 F 
ATOM     66  C   UNL A   1      46.055  34.949  27.487  1.00  0.00     0.059 A 
ATOM     67  C   UNL A   1      46.771  34.430  29.749  1.00  0.00     0.059 A 
ATOM     68  F   UNL A   1      46.672  32.218  30.520  1.00  0.00    -0.206 F 
ATOM     69  C   UNL A   1      46.587  35.347  28.716  1.00  0.00     0.060 A 
BRANCH  69  70
ATOM     70  S   UNL A   1      47.042  37.078  28.947  1.00  0.00     0.124 S 
ATOM     71  O   UNL A   1      48.481  37.033  28.704  1.00  0.00    -0.237 OA
ATOM     72  O   UNL A   1      46.249  37.754  27.924  1.00  0.00    -0.237 OA
ATOM     73  O   UNL A   1      46.644  37.351  30.325  1.00  0.00    -0.744 OA
ENDBRANCH  69  70
ENDBRANCH  48  62
BRANCH  49  74
ATOM     74  C   UNL A   1      43.293  23.160  26.883  1.00  0.00     0.058 A 
ATOM     75  C   UNL A   1      43.304  22.617  25.591  1.00  0.00     0.135 A 
ATOM     76  C   UNL A   1      42.944  22.317  27.949  1.00  0.00     0.135 A 
ATOM     77  F   UNL A   1      43.621  23.390  24.541  1.00  0.00    -0.206 F 
ATOM     78  C   UNL A   1      42.993  21.280  25.363  1.00  0.00     0.059 A 
ATOM     79  C   UNL A   1      42.653  20.972  27.750  1.00  0.00     0.059 A 
ATOM     80  F   UNL A   1      42.931  22.791  29.205  1.00  0.00    -0.206 F 
ATOM     81  C   UNL A   1      42.678  20.464  26.452  1.00  0.00     0.060 A 
BRANCH  81  82
ATOM     82  S   UNL A   1      42.375  18.706  26.167  1.00  0.00     0.124 S 
ATOM     83  O   UNL A   1      42.653  18.144  27.483  1.00  0.00    -0.237 OA
ATOM     84  O   UNL A   1      40.975  18.695  25.750  1.00  0.00    -0.237 OA
ATOM     85  O   UNL A   1      43.333  18.371  25.118  1.00  0.00    -0.744 OA
ENDBRANCH  81  82
ENDBRANCH  49  74
BRANCH  61  86
ATOM     86  C   UNL A   1      49.329  26.600  26.309  1.00  0.00     0.058 A 
ATOM     87  C   UNL A   1      49.798  26.797  25.000  1.00  0.00     0.135 A 
ATOM     88  C   UNL A   1      50.205  26.020  27.239  1.00  0.00     0.135 A 
ATOM     89  F   UNL A   1      48.998  27.342  24.070  1.00  0.00    -0.206 F 
ATOM     90  C   UNL A   1      51.082  26.414  24.623  1.00  0.00     0.059 A 
ATOM     91  C   UNL A   1      51.499  25.647  26.890  1.00  0.00     0.059 A 
ATOM     92  F   UNL A   1      49.807  25.817  28.506  1.00  0.00    -0.206 F 
ATOM     93  C   UNL A   1      51.925  25.837  25.576  1.00  0.00     0.060 A 
BRANCH  93  94
ATOM     94  S   UNL A   1      53.596  25.362  25.083  1.00  0.00     0.124 S 
ATOM     95  O   UNL A   1      53.654  23.978  25.541  1.00  0.00    -0.237 OA
ATOM     96  O   UNL A   1      53.563  25.549  23.635  1.00  0.00    -0.237 OA
ATOM     97  O   UNL A   1      54.442  26.302  25.809  1.00  0.00    -0.744 OA
ENDBRANCH  93  94
ENDBRANCH  61  86
ENDBRANCH  35  36
ENDBRANCH  28  30
ENDBRANCH  27  28
ENDBRANCH  26  27
ENDBRANCH   1  26
TORSDOF 18
ENDMDL
MODEL 2
REMARK VINA RESULT:     -12.0      6.563     12.165
REMARK SMILES COc1ccc(NC(=O)[C@@H]2[C@@H](C(=O)OCCOC(=O)c3ccc(-c4c5nc(c(-c6c(F)cc(S(=O)(=O)[O-])cc6F)c6ccc([nH]6)c(-c6c(F)cc(S(=O)(=O)[O-])cc6F)c6nc(c(-c7c(F)cc(S(=O)(=O)[O-])cc7F)c7ccc4[nH]7)C=C6)C=C5)cc3)[C@H]3C=C[C@@H]2C3)cc1O
REMARK SMILES IDX 15 1 14 2 12 3 13 4 11 5 10 6 89 7 86 8 88 9 90 10 87 11
REMARK SMILES IDX 8 12 7 13 9 15 6 16 3 17 4 18 92 19 5 20 91 21 2 22 1 23
REMARK SMILES IDX 93 24 16 26 17 27 18 28 19 29 20 30 21 31 85 32 22 33 84 34
REMARK SMILES IDX 23 35 24 36 25 37 78 38 26 39 83 40 77 41 79 42 27 43 82 44
REMARK SMILES IDX 76 45 75 46 28 48 62 49 41 50 61 51 42 52 45 53 60 54 80 55
REMARK SMILES IDX 43 56 44 57 59 59 81 60 46 61 29 62 30 63 39 64 31 65 32 66
REMARK SMILES IDX 38 67 40 68 33 69 34 70 35 71 36 72 37 73 63 74 64 75 73 76
REMARK SMILES IDX 65 77 66 78 72 79 74 80 67 81 68 82 69 83 70 84 71 85 47 86
REMARK SMILES IDX 48 87 57 88 49 89 50 90 56 91 58 92 51 93 52 94 53 95 54 96
REMARK SMILES IDX 55 97
REMARK H PARENT 7 14 93 25 79 47 45 58
REMARK Flexibility Score: inf
ROOT
ATOM      1  C   UNL A   1      38.256  22.033  25.390  1.00  0.00     0.274 C 
ENDROOT
BRANCH   1   2
ATOM      2  O   UNL A   1      36.859  21.791  25.156  1.00  0.00    -0.462 OA
BRANCH   2   3
ATOM      3  C   UNL A   1      36.294  22.453  24.123  1.00  0.00     0.310 C 
ATOM      4  O   UNL A   1      36.904  22.843  23.132  1.00  0.00    -0.252 OA
BRANCH   3   5
ATOM      5  C   UNL A   1      34.805  22.690  24.271  1.00  0.00     0.119 C 
ATOM      6  C   UNL A   1      34.529  24.104  24.792  1.00  0.00     0.100 C 
ATOM      7  C   UNL A   1      33.578  23.878  25.996  1.00  0.00     0.025 C 
ATOM      8  C   UNL A   1      33.972  21.808  25.242  1.00  0.00     0.027 C 
ATOM      9  C   UNL A   1      34.335  23.138  27.082  1.00  0.00    -0.027 C 
ATOM     10  C   UNL A   1      32.743  22.698  25.511  1.00  0.00     0.017 C 
ATOM     11  C   UNL A   1      34.539  21.887  26.640  1.00  0.00    -0.027 C 
BRANCH   6  12
ATOM     12  C   UNL A   1      34.030  25.171  23.834  1.00  0.00     0.228 C 
ATOM     13  N   UNL A   1      33.523  26.403  24.046  1.00  0.00    -0.326 N 
ATOM     14  H   UNL A   1      33.116  26.710  23.203  1.00  0.00     0.169 HD
ATOM     15  O   UNL A   1      34.076  24.866  22.625  1.00  0.00    -0.274 OA
BRANCH  13  16
ATOM     16  C   UNL A   1      33.351  27.423  25.006  1.00  0.00     0.045 A 
ATOM     17  C   UNL A   1      32.946  29.747  26.583  1.00  0.00     0.160 A 
ATOM     18  C   UNL A   1      33.856  28.781  26.983  1.00  0.00     0.052 A 
ATOM     19  C   UNL A   1      32.231  29.556  25.411  1.00  0.00     0.159 A 
ATOM     20  C   UNL A   1      34.047  27.626  26.198  1.00  0.00     0.030 A 
ATOM     21  C   UNL A   1      32.416  28.411  24.641  1.00  0.00     0.076 A 
BRANCH  17  22
ATOM     22  O   UNL A   1      32.826  30.941  27.235  1.00  0.00    -0.493 OA
ATOM     23  C   UNL A   1      34.068  31.359  27.804  1.00  0.00     0.278 C 
ENDBRANCH  17  22
BRANCH  19  24
ATOM     24  O   UNL A   1      31.354  30.506  24.971  1.00  0.00    -0.504 OA
ATOM     25  H   UNL A   1      30.665  30.269  24.381  1.00  0.00     0.293 HD
ENDBRANCH  19  24
ENDBRANCH  13  16
ENDBRANCH   6  12
ENDBRANCH   3   5
ENDBRANCH   2   3
ENDBRANCH   1   2
BRANCH   1  26
ATOM     26  C   UNL A   1      38.419  23.363  26.122  1.00  0.00     0.275 C 
BRANCH  26  27
ATOM     27  O   UNL A   1      39.486  23.281  27.086  1.00  0.00    -0.458 OA
BRANCH  27  28
ATOM     28  C   UNL A   1      40.513  24.137  26.883  1.00  0.00     0.338 C 
ATOM     29  O   UNL A   1      41.460  23.998  26.123  1.00  0.00    -0.246 OA
BRANCH  28  30
ATOM     30  C   UNL A   1      40.344  25.330  27.722  1.00  0.00     0.060 A 
ATOM     31  C   UNL A   1      41.249  26.385  27.618  1.00  0.00     0.016 A 
ATOM     32  C   UNL A   1      39.357  25.339  28.707  1.00  0.00     0.016 A 
ATOM     33  C   UNL A   1      41.212  27.422  28.551  1.00  0.00     0.010 A 
ATOM     34  C   UNL A   1      39.279  26.417  29.595  1.00  0.00     0.010 A 
ATOM     35  C   UNL A   1      40.229  27.452  29.553  1.00  0.00    -0.014 A 
BRANCH  35  36
ATOM     36  C   UNL A   1      40.215  28.537  30.575  1.00  0.00     0.031 A 
ATOM     37  C   UNL A   1      41.201  28.522  31.717  1.00  0.00     0.074 A 
ATOM     38  C   UNL A   1      39.337  29.555  30.483  1.00  0.00     0.049 A 
ATOM     39  N   UNL A   1      41.258  29.297  32.771  1.00  0.00    -0.248 NA
ATOM     40  C   UNL A   1      42.254  27.497  31.670  1.00  0.00     0.031 C 
ATOM     41  C   UNL A   1      38.352  29.731  29.415  1.00  0.00     0.029 A 
ATOM     42  N   UNL A   1      39.142  30.645  31.297  1.00  0.00    -0.354 N 
ATOM     43  C   UNL A   1      42.310  28.815  33.543  1.00  0.00     0.074 A 
ATOM     44  C   UNL A   1      42.869  27.687  32.829  1.00  0.00     0.031 C 
ATOM     45  C   UNL A   1      37.679  30.872  29.621  1.00  0.00     0.029 A 
ATOM     46  C   UNL A   1      38.128  31.472  30.874  1.00  0.00     0.049 A 
ATOM     47  H   UNL A   1      39.677  30.817  32.105  1.00  0.00     0.167 HD
ATOM     48  C   UNL A   1      42.765  29.266  34.738  1.00  0.00     0.037 A 
ATOM     49  C   UNL A   1      37.590  32.569  31.442  1.00  0.00     0.037 A 
ATOM     50  C   UNL A   1      42.243  30.414  35.432  1.00  0.00     0.049 A 
ATOM     51  C   UNL A   1      38.110  33.056  32.764  1.00  0.00     0.074 A 
ATOM     52  C   UNL A   1      42.653  30.952  36.640  1.00  0.00     0.029 A 
ATOM     53  N   UNL A   1      41.205  31.212  34.975  1.00  0.00    -0.354 N 
ATOM     54  N   UNL A   1      39.076  32.560  33.500  1.00  0.00    -0.248 NA
ATOM     55  C   UNL A   1      37.457  34.239  33.342  1.00  0.00     0.031 C 
ATOM     56  C   UNL A   1      41.843  32.057  36.928  1.00  0.00     0.029 A 
ATOM     57  C   UNL A   1      40.954  32.231  35.881  1.00  0.00     0.049 A 
ATOM     58  H   UNL A   1      40.717  31.075  34.131  1.00  0.00     0.167 HD
ATOM     59  C   UNL A   1      39.138  33.364  34.634  1.00  0.00     0.074 A 
ATOM     60  C   UNL A   1      38.137  34.399  34.469  1.00  0.00     0.031 C 
ATOM     61  C   UNL A   1      39.947  33.249  35.716  1.00  0.00     0.037 A 
BRANCH  48  62
ATOM     62  C   UNL A   1      43.866  28.480  35.396  1.00  0.00     0.058 A 
ATOM     63  C   UNL A   1      45.221  28.793  35.206  1.00  0.00     0.135 A 
ATOM     64  C   UNL A   1      43.554  27.399  36.237  1.00  0.00     0.135 A 
ATOM     65  F   UNL A   1      45.573  29.806  34.400  1.00  0.00    -0.206 F 
ATOM     66  C   UNL A   1      46.229  28.038  35.799  1.00  0.00     0.059 A 
ATOM     67  C   UNL A   1      44.545  26.645  36.858  1.00  0.00     0.059 A 
ATOM     68  F   UNL A   1      42.273  27.058  36.454  1.00  0.00    -0.206 F 
ATOM     69  C   UNL A   1      45.881  26.961  36.616  1.00  0.00     0.060 A 
BRANCH  69  70
ATOM     70  S   UNL A   1      47.196  25.970  37.355  1.00  0.00     0.124 S 
ATOM     71  O   UNL A   1      47.496  26.739  38.558  1.00  0.00    -0.237 OA
ATOM     72  O   UNL A   1      46.539  24.684  37.573  1.00  0.00    -0.237 OA
ATOM     73  O   UNL A   1      48.237  25.971  36.331  1.00  0.00    -0.744 OA
ENDBRANCH  69  70
ENDBRANCH  48  62
BRANCH  49  74
ATOM     74  C   UNL A   1      36.465  33.261  30.762  1.00  0.00     0.058 A 
ATOM     75  C   UNL A   1      35.153  33.142  31.238  1.00  0.00     0.135 A 
ATOM     76  C   UNL A   1      36.694  34.098  29.660  1.00  0.00     0.135 A 
ATOM     77  F   UNL A   1      34.888  32.344  32.283  1.00  0.00    -0.206 F 
ATOM     78  C   UNL A   1      34.102  33.840  30.650  1.00  0.00     0.059 A 
ATOM     79  C   UNL A   1      35.664  34.824  29.070  1.00  0.00     0.059 A 
ATOM     80  F   UNL A   1      37.937  34.250  29.176  1.00  0.00    -0.206 F 
ATOM     81  C   UNL A   1      34.371  34.686  29.572  1.00  0.00     0.060 A 
BRANCH  81  82
ATOM     82  S   UNL A   1      33.025  35.669  28.876  1.00  0.00     0.124 S 
ATOM     83  O   UNL A   1      32.334  34.680  28.057  1.00  0.00    -0.237 OA
ATOM     84  O   UNL A   1      32.317  36.117  30.072  1.00  0.00    -0.237 OA
ATOM     85  O   UNL A   1      33.727  36.720  28.145  1.00  0.00    -0.744 OA
ENDBRANCH  81  82
ENDBRANCH  49  74
BRANCH  61  86
ATOM     86  C   UNL A   1      39.782  34.265  36.811  1.00  0.00     0.058 A 
ATOM     87  C   UNL A   1      39.010  33.991  37.951  1.00  0.00     0.135 A 
ATOM     88  C   UNL A   1      40.429  35.507  36.739  1.00  0.00     0.135 A 
ATOM     89  F   UNL A   1      38.365  32.819  38.066  1.00  0.00    -0.206 F 
ATOM     90  C   UNL A   1      38.867  34.925  38.974  1.00  0.00     0.059 A 
ATOM     91  C   UNL A   1      40.316  36.449  37.758  1.00  0.00     0.059 A 
ATOM     92  F   UNL A   1      41.185  35.814  35.673  1.00  0.00    -0.206 F 
ATOM     93  C   UNL A   1      39.524  36.153  38.866  1.00  0.00     0.060 A 
BRANCH  93  94
ATOM     94  S   UNL A   1      39.350  37.351  40.206  1.00  0.00     0.124 S 
ATOM     95  O   UNL A   1      38.553  38.392  39.567  1.00  0.00    -0.237 OA
ATOM     96  O   UNL A   1      38.668  36.574  41.237  1.00  0.00    -0.237 OA
ATOM     97  O   UNL A   1      40.729  37.714  40.515  1.00  0.00    -0.744 OA
ENDBRANCH  93  94
ENDBRANCH  61  86
ENDBRANCH  35  36
ENDBRANCH  28  30
ENDBRANCH  27  28
ENDBRANCH  26  27
ENDBRANCH   1  26
TORSDOF 18
ENDMDL
MODEL 3
REMARK VINA RESULT:     -11.9      6.664     12.147
REMARK SMILES COc1ccc(NC(=O)[C@@H]2[C@@H](C(=O)OCCOC(=O)c3ccc(-c4c5nc(c(-c6c(F)cc(S(=O)(=O)[O-])cc6F)c6ccc([nH]6)c(-c6c(F)cc(S(=O)(=O)[O-])cc6F)c6nc(c(-c7c(F)cc(S(=O)(=O)[O-])cc7F)c7ccc4[nH]7)C=C6)C=C5)cc3)[C@H]3C=C[C@@H]2C3)cc1O
REMARK SMILES IDX 15 1 14 2 12 3 13 4 11 5 10 6 89 7 86 8 88 9 90 10 87 11
REMARK SMILES IDX 8 12 7 13 9 15 6 16 3 17 4 18 92 19 5 20 91 21 2 22 1 23
REMARK SMILES IDX 93 24 16 26 17 27 18 28 19 29 20 30 21 31 85 32 22 33 84 34
REMARK SMILES IDX 23 35 24 36 25 37 78 38 26 39 83 40 77 41 79 42 27 43 82 44
REMARK SMILES IDX 76 45 75 46 28 48 62 49 41 50 61 51 42 52 45 53 60 54 80 55
REMARK SMILES IDX 43 56 44 57 59 59 81 60 46 61 29 62 30 63 39 64 31 65 32 66
REMARK SMILES IDX 38 67 40 68 33 69 34 70 35 71 36 72 37 73 63 74 64 75 73 76
REMARK SMILES IDX 65 77 66 78 72 79 74 80 67 81 68 82 69 83 70 84 71 85 47 86
REMARK SMILES IDX 48 87 57 88 49 89 50 90 56 91 58 92 51 93 52 94 53 95 54 96
REMARK SMILES IDX 55 97
REMARK H PARENT 7 14 93 25 79 47 45 58
REMARK Flexibility Score: inf
ROOT
ATOM      1  C   UNL A   1      37.153  22.275  25.555  1.00  0.00     0.274 C 
ENDROOT
BRANCH   1   2
ATOM      2  O   UNL A   1      36.357  23.354  26.071  1.00  0.00    -0.462 OA
BRANCH   2   3
ATOM      3  C   UNL A   1      35.029  23.131  26.176  1.00  0.00     0.310 C 
ATOM      4  O   UNL A   1      34.527  22.237  26.849  1.00  0.00    -0.252 OA
BRANCH   3   5
ATOM      5  C   UNL A   1      34.169  24.092  25.382  1.00  0.00     0.119 C 
ATOM      6  C   UNL A   1      32.698  23.664  25.419  1.00  0.00     0.100 C 
ATOM      7  C   UNL A   1      32.275  23.655  23.927  1.00  0.00     0.025 C 
ATOM      8  C   UNL A   1      34.421  24.284  23.861  1.00  0.00     0.027 C 
ATOM      9  C   UNL A   1      33.044  22.563  23.209  1.00  0.00    -0.027 C 
ATOM     10  C   UNL A   1      33.066  24.836  23.376  1.00  0.00     0.017 C 
ATOM     11  C   UNL A   1      34.324  22.959  23.141  1.00  0.00    -0.027 C 
BRANCH   6  12
ATOM     12  C   UNL A   1      31.722  24.413  26.308  1.00  0.00     0.228 C 
ATOM     13  N   UNL A   1      31.087  25.593  26.152  1.00  0.00    -0.326 N 
ATOM     14  H   UNL A   1      30.707  25.848  27.023  1.00  0.00     0.169 HD
ATOM     15  O   UNL A   1      31.455  23.858  27.393  1.00  0.00    -0.274 OA
BRANCH  13  16
ATOM     16  C   UNL A   1      30.757  26.604  25.223  1.00  0.00     0.045 A 
ATOM     17  C   UNL A   1      30.173  28.923  23.696  1.00  0.00     0.160 A 
ATOM     18  C   UNL A   1      29.451  27.756  23.499  1.00  0.00     0.052 A 
ATOM     19  C   UNL A   1      31.187  28.937  24.641  1.00  0.00     0.159 A 
ATOM     20  C   UNL A   1      29.752  26.606  24.256  1.00  0.00     0.030 A 
ATOM     21  C   UNL A   1      31.488  27.797  25.382  1.00  0.00     0.076 A 
BRANCH  17  22
ATOM     22  O   UNL A   1      29.831  30.096  23.087  1.00  0.00    -0.493 OA
ATOM     23  C   UNL A   1      29.166  29.870  21.842  1.00  0.00     0.278 C 
ENDBRANCH  17  22
BRANCH  19  24
ATOM     24  O   UNL A   1      31.893  30.081  24.884  1.00  0.00    -0.504 OA
ATOM     25  H   UNL A   1      31.717  30.584  25.655  1.00  0.00     0.293 HD
ENDBRANCH  19  24
ENDBRANCH  13  16
ENDBRANCH   6  12
ENDBRANCH   3   5
ENDBRANCH   2   3
ENDBRANCH   1   2
BRANCH   1  26
ATOM     26  C   UNL A   1      38.608  22.482  25.968  1.00  0.00     0.275 C 
BRANCH  26  27
ATOM     27  O   UNL A   1      38.909  23.887  26.070  1.00  0.00    -0.458 OA
BRANCH  27  28
ATOM     28  C   UNL A   1      40.096  24.181  26.648  1.00  0.00     0.338 C 
ATOM     29  O   UNL A   1      41.164  23.606  26.493  1.00  0.00    -0.246 OA
BRANCH  28  30
ATOM     30  C   UNL A   1      39.950  25.349  27.525  1.00  0.00     0.060 A 
ATOM     31  C   UNL A   1      40.793  26.448  27.363  1.00  0.00     0.016 A 
ATOM     32  C   UNL A   1      39.059  25.293  28.596  1.00  0.00     0.016 A 
ATOM     33  C   UNL A   1      40.794  27.465  28.318  1.00  0.00     0.010 A 
ATOM     34  C   UNL A   1      39.014  26.349  29.511  1.00  0.00     0.010 A 
ATOM     35  C   UNL A   1      39.907  27.430  29.406  1.00  0.00    -0.014 A 
BRANCH  35  36
ATOM     36  C   UNL A   1      39.938  28.494  30.449  1.00  0.00     0.031 A 
ATOM     37  C   UNL A   1      40.941  28.431  31.574  1.00  0.00     0.074 A 
ATOM     38  C   UNL A   1      39.084  29.535  30.392  1.00  0.00     0.049 A 
ATOM     39  N   UNL A   1      41.035  29.184  32.641  1.00  0.00    -0.248 NA
ATOM     40  C   UNL A   1      41.967  27.381  31.489  1.00  0.00     0.031 C 
ATOM     41  C   UNL A   1      38.087  29.757  29.345  1.00  0.00     0.029 A 
ATOM     42  N   UNL A   1      38.931  30.614  31.230  1.00  0.00    -0.354 N 
ATOM     43  C   UNL A   1      42.087  28.660  33.386  1.00  0.00     0.074 A 
ATOM     44  C   UNL A   1      42.605  27.533  32.641  1.00  0.00     0.031 C 
ATOM     45  C   UNL A   1      37.447  30.911  29.584  1.00  0.00     0.029 A 
ATOM     46  C   UNL A   1      37.932  31.475  30.841  1.00  0.00     0.049 A 
ATOM     47  H   UNL A   1      39.483  30.756  32.032  1.00  0.00     0.167 HD
ATOM     48  C   UNL A   1      42.573  29.075  34.583  1.00  0.00     0.037 A 
ATOM     49  C   UNL A   1      37.431  32.573  31.439  1.00  0.00     0.037 A 
ATOM     50  C   UNL A   1      42.091  30.222  35.307  1.00  0.00     0.049 A 
ATOM     51  C   UNL A   1      37.985  33.020  32.762  1.00  0.00     0.074 A 
ATOM     52  C   UNL A   1      42.534  30.725  36.519  1.00  0.00     0.029 A 
ATOM     53  N   UNL A   1      41.067  31.055  34.884  1.00  0.00    -0.354 N 
ATOM     54  N   UNL A   1      38.949  32.485  33.471  1.00  0.00    -0.248 NA
ATOM     55  C   UNL A   1      37.371  34.207  33.373  1.00  0.00     0.031 C 
ATOM     56  C   UNL A   1      41.759  31.844  36.841  1.00  0.00     0.029 A 
ATOM     57  C   UNL A   1      40.857  32.062  35.813  1.00  0.00     0.049 A 
ATOM     58  H   UNL A   1      40.562  30.947  34.045  1.00  0.00     0.167 HD
ATOM     59  C   UNL A   1      39.051  33.265  34.619  1.00  0.00     0.074 A 
ATOM     60  C   UNL A   1      38.073  34.327  34.491  1.00  0.00     0.031 C 
ATOM     61  C   UNL A   1      39.873  33.108  35.685  1.00  0.00     0.037 A 
BRANCH  48  62
ATOM     62  C   UNL A   1      43.664  28.248  35.206  1.00  0.00     0.058 A 
ATOM     63  C   UNL A   1      43.387  27.169  36.058  1.00  0.00     0.135 A 
ATOM     64  C   UNL A   1      45.011  28.542  34.937  1.00  0.00     0.135 A 
ATOM     65  F   UNL A   1      42.117  26.857  36.361  1.00  0.00    -0.206 F 
ATOM     66  C   UNL A   1      44.408  26.432  36.651  1.00  0.00     0.059 A 
ATOM     67  C   UNL A   1      46.047  27.804  35.500  1.00  0.00     0.059 A 
ATOM     68  F   UNL A   1      45.331  29.564  34.126  1.00  0.00    -0.206 F 
ATOM     69  C   UNL A   1      45.735  26.763  36.372  1.00  0.00     0.060 A 
BRANCH  69  70
ATOM     70  S   UNL A   1      47.053  25.821  37.169  1.00  0.00     0.124 S 
ATOM     71  O   UNL A   1      47.154  26.498  38.457  1.00  0.00    -0.237 OA
ATOM     72  O   UNL A   1      46.499  24.470  37.205  1.00  0.00    -0.237 OA
ATOM     73  O   UNL A   1      48.190  26.003  36.271  1.00  0.00    -0.744 OA
ENDBRANCH  69  70
ENDBRANCH  48  62
BRANCH  49  74
ATOM     74  C   UNL A   1      36.313  33.306  30.792  1.00  0.00     0.058 A 
ATOM     75  C   UNL A   1      35.010  33.229  31.300  1.00  0.00     0.135 A 
ATOM     76  C   UNL A   1      36.541  34.142  29.688  1.00  0.00     0.135 A 
ATOM     77  F   UNL A   1      34.745  32.434  32.348  1.00  0.00    -0.206 F 
ATOM     78  C   UNL A   1      33.969  33.965  30.743  1.00  0.00     0.059 A 
ATOM     79  C   UNL A   1      35.523  34.905  29.129  1.00  0.00     0.059 A 
ATOM     80  F   UNL A   1      37.776  34.255  29.174  1.00  0.00    -0.206 F 
ATOM     81  C   UNL A   1      34.239  34.808  29.663  1.00  0.00     0.060 A 
BRANCH  81  82
ATOM     82  S   UNL A   1      32.910  35.840  29.007  1.00  0.00     0.124 S 
ATOM     83  O   UNL A   1      33.653  36.985  28.496  1.00  0.00    -0.237 OA
ATOM     84  O   UNL A   1      32.307  34.969  28.001  1.00  0.00    -0.237 OA
ATOM     85  O   UNL A   1      32.079  36.094  30.180  1.00  0.00    -0.744 OA
ENDBRANCH  81  82
ENDBRANCH  49  74
BRANCH  61  86
ATOM     86  C   UNL A   1      39.753  34.105  36.802  1.00  0.00     0.058 A 
ATOM     87  C   UNL A   1      39.004  33.823  37.956  1.00  0.00     0.135 A 
ATOM     88  C   UNL A   1      40.418  35.339  36.737  1.00  0.00     0.135 A 
ATOM     89  F   UNL A   1      38.343  32.660  38.065  1.00  0.00    -0.206 F 
ATOM     90  C   UNL A   1      38.902  34.740  38.999  1.00  0.00     0.059 A 
ATOM     91  C   UNL A   1      40.347  36.262  37.776  1.00  0.00     0.059 A 
ATOM     92  F   UNL A   1      41.154  35.653  35.658  1.00  0.00    -0.206 F 
ATOM     93  C   UNL A   1      39.576  35.959  38.897  1.00  0.00     0.060 A 
BRANCH  93  94
ATOM     94  S   UNL A   1      39.456  37.134  40.263  1.00  0.00     0.124 S 
ATOM     95  O   UNL A   1      38.939  38.318  39.586  1.00  0.00    -0.237 OA
ATOM     96  O   UNL A   1      38.527  36.467  41.171  1.00  0.00    -0.237 OA
ATOM     97  O   UNL A   1      40.829  37.233  40.746  1.00  0.00    -0.744 OA
ENDBRANCH  93  94
ENDBRANCH  61  86
ENDBRANCH  35  36
ENDBRANCH  28  30
ENDBRANCH  27  28
ENDBRANCH  26  27
ENDBRANCH   1  26
TORSDOF 18
ENDMDL
