MODEL 1
REMARK VINA RESULT:      -9.3      0.000      0.000
REMARK SMILES C[C@@]([NH2+]CCC1CC1)(C(=O)OCCOC(=O)c1ccc(-c2c3nc(c(-c4c(F)cc(S(=O)(=O)[O-])cc4F)c4ccc([nH]4)c(-c4c(F)cc(S(=O)(=O)[O-])cc4F)c4nc(c(-c5c(F)cc(S(=O)(=O)[O-])cc5F)c5ccc2[nH]5)C=C4)C=C3)cc1)C(F)(F)F
REMARK SMILES IDX 12 1 11 2 9 3 10 4 2 5 1 6 3 7 4 10 5 11 6 12 7 13 8 14
REMARK SMILES IDX 83 15 84 16 85 17 86 18 13 19 14 20 15 21 16 22 17 23 18 24
REMARK SMILES IDX 82 25 19 26 81 27 20 28 21 29 22 30 75 31 23 32 80 33 74 34
REMARK SMILES IDX 76 35 24 36 79 37 73 38 72 39 25 41 59 42 38 43 58 44 39 45
REMARK SMILES IDX 42 46 57 47 77 48 40 49 41 50 56 52 78 53 43 54 26 55 27 56
REMARK SMILES IDX 36 57 28 58 29 59 35 60 37 61 30 62 31 63 32 64 33 65 34 66
REMARK SMILES IDX 60 67 61 68 70 69 62 70 63 71 69 72 71 73 64 74 65 75 66 76
REMARK SMILES IDX 67 77 68 78 44 79 45 80 54 81 46 82 47 83 53 84 55 85 48 86
REMARK SMILES IDX 49 87 50 88 51 89 52 90
REMARK H PARENT 3 8 3 9 76 40 42 51
REMARK Flexibility Score: inf
ROOT
ATOM      1  C   UNL A   1      41.774  19.506  26.382  1.00  0.00     0.274 C 
ENDROOT
BRANCH   1   2
ATOM      2  O   UNL A   1      42.685  20.014  25.384  1.00  0.00    -0.457 OA
BRANCH   2   3
ATOM      3  C   UNL A   1      43.769  19.236  25.092  1.00  0.00     0.377 C 
ATOM      4  O   UNL A   1      43.884  18.081  25.487  1.00  0.00    -0.244 OA
BRANCH   3   5
ATOM      5  C   UNL A   1      44.821  19.965  24.239  1.00  0.00     0.287 C 
ATOM      6  C   UNL A   1      45.105  19.197  22.928  1.00  0.00     0.103 C 
BRANCH   5   7
ATOM      7  N   UNL A   1      44.368  21.327  23.759  1.00  0.00    -0.325 N 
ATOM      8  H   UNL A   1      43.530  21.182  23.196  1.00  0.00     0.347 HD
ATOM      9  H   UNL A   1      45.186  21.699  23.276  1.00  0.00     0.347 HD
BRANCH   7  10
ATOM     10  C   UNL A   1      44.046  22.364  24.747  1.00  0.00     0.261 C 
BRANCH  10  11
ATOM     11  C   UNL A   1      44.762  23.720  24.674  1.00  0.00     0.065 C 
BRANCH  11  12
ATOM     12  C   UNL A   1      46.262  23.737  24.792  1.00  0.00    -0.006 C 
ATOM     13  C   UNL A   1      47.040  25.029  24.800  1.00  0.00     0.004 C 
ATOM     14  C   UNL A   1      47.033  24.155  26.022  1.00  0.00     0.004 C 
ENDBRANCH  11  12
ENDBRANCH  10  11
ENDBRANCH   7  10
ENDBRANCH   5   7
BRANCH   5  15
ATOM     15  C   UNL A   1      46.128  19.913  25.058  1.00  0.00     0.455 C 
ATOM     16  F   UNL A   1      46.489  18.643  25.347  1.00  0.00    -0.164 F 
ATOM     17  F   UNL A   1      47.149  20.458  24.344  1.00  0.00    -0.164 F 
ATOM     18  F   UNL A   1      46.069  20.595  26.216  1.00  0.00    -0.164 F 
ENDBRANCH   5  15
ENDBRANCH   3   5
ENDBRANCH   2   3
ENDBRANCH   1   2
BRANCH   1  19
ATOM     19  C   UNL A   1      40.348  19.973  26.099  1.00  0.00     0.275 C 
BRANCH  19  20
ATOM     20  O   UNL A   1      40.371  21.375  25.789  1.00  0.00    -0.458 OA
BRANCH  20  21
ATOM     21  C   UNL A   1      39.307  22.096  26.207  1.00  0.00     0.338 C 
ATOM     22  O   UNL A   1      38.128  21.794  26.082  1.00  0.00    -0.246 OA
BRANCH  21  23
ATOM     23  C   UNL A   1      39.772  23.336  26.864  1.00  0.00     0.060 A 
ATOM     24  C   UNL A   1      39.298  24.577  26.441  1.00  0.00     0.016 A 
ATOM     25  C   UNL A   1      40.764  23.278  27.842  1.00  0.00     0.016 A 
ATOM     26  C   UNL A   1      39.883  25.752  26.904  1.00  0.00     0.010 A 
ATOM     27  C   UNL A   1      41.271  24.464  28.392  1.00  0.00     0.010 A 
ATOM     28  C   UNL A   1      40.870  25.718  27.897  1.00  0.00    -0.014 A 
BRANCH  28  29
ATOM     29  C   UNL A   1      41.515  26.982  28.360  1.00  0.00     0.031 A 
ATOM     30  C   UNL A   1      42.984  27.224  28.102  1.00  0.00     0.074 A 
ATOM     31  C   UNL A   1      40.791  27.942  28.973  1.00  0.00     0.049 A 
ATOM     32  N   UNL A   1      43.763  28.165  28.572  1.00  0.00    -0.248 NA
ATOM     33  C   UNL A   1      43.670  26.270  27.216  1.00  0.00     0.031 C 
ATOM     34  C   UNL A   1      39.357  27.873  29.262  1.00  0.00     0.029 A 
ATOM     35  N   UNL A   1      41.160  29.177  29.449  1.00  0.00    -0.354 N 
ATOM     36  C   UNL A   1      45.037  27.881  28.094  1.00  0.00     0.074 A 
ATOM     37  C   UNL A   1      44.929  26.679  27.297  1.00  0.00     0.031 C 
ATOM     38  C   UNL A   1      38.958  29.031  29.810  1.00  0.00     0.029 A 
ATOM     39  C   UNL A   1      40.120  29.893  29.996  1.00  0.00     0.049 A 
ATOM     40  H   UNL A   1      42.083  29.518  29.405  1.00  0.00     0.167 HD
ATOM     41  C   UNL A   1      46.192  28.560  28.299  1.00  0.00     0.037 A 
ATOM     42  C   UNL A   1      40.102  31.092  30.610  1.00  0.00     0.037 A 
ATOM     43  C   UNL A   1      46.288  29.796  29.033  1.00  0.00     0.049 A 
ATOM     44  C   UNL A   1      41.389  31.843  30.796  1.00  0.00     0.074 A 
ATOM     45  C   UNL A   1      47.416  30.546  29.317  1.00  0.00     0.029 A 
ATOM     46  N   UNL A   1      45.209  30.484  29.567  1.00  0.00    -0.354 N 
ATOM     47  N   UNL A   1      42.601  31.501  30.432  1.00  0.00    -0.248 NA
ATOM     48  C   UNL A   1      41.308  33.133  31.496  1.00  0.00     0.031 C 
ATOM     49  C   UNL A   1      47.020  31.685  30.031  1.00  0.00     0.029 A 
ATOM     50  C   UNL A   1      45.641  31.655  30.167  1.00  0.00     0.049 A 
ATOM     51  H   UNL A   1      44.272  30.184  29.525  1.00  0.00     0.167 HD
ATOM     52  C   UNL A   1      43.431  32.525  30.873  1.00  0.00     0.074 A 
ATOM     53  C   UNL A   1      42.577  33.519  31.492  1.00  0.00     0.031 C 
ATOM     54  C   UNL A   1      44.780  32.626  30.789  1.00  0.00     0.037 A 
BRANCH  41  55
ATOM     55  C   UNL A   1      47.456  27.965  27.745  1.00  0.00     0.058 A 
ATOM     56  C   UNL A   1      47.984  28.365  26.508  1.00  0.00     0.135 A 
ATOM     57  C   UNL A   1      48.167  27.001  28.480  1.00  0.00     0.135 A 
ATOM     58  F   UNL A   1      47.335  29.268  25.756  1.00  0.00    -0.206 F 
ATOM     59  C   UNL A   1      49.162  27.816  26.009  1.00  0.00     0.059 A 
ATOM     60  C   UNL A   1      49.357  26.455  28.011  1.00  0.00     0.059 A 
ATOM     61  F   UNL A   1      47.703  26.582  29.668  1.00  0.00    -0.206 F 
ATOM     62  C   UNL A   1      49.841  26.859  26.767  1.00  0.00     0.060 A 
BRANCH  62  63
ATOM     63  S   UNL A   1      51.373  26.160  26.116  1.00  0.00     0.124 S 
ATOM     64  O   UNL A   1      51.377  24.839  26.735  1.00  0.00    -0.237 OA
ATOM     65  O   UNL A   1      51.143  26.184  24.675  1.00  0.00    -0.237 OA
ATOM     66  O   UNL A   1      52.397  27.083  26.598  1.00  0.00    -0.744 OA
ENDBRANCH  62  63
ENDBRANCH  41  55
BRANCH  42  67
ATOM     67  C   UNL A   1      38.821  31.633  31.139  1.00  0.00     0.058 A 
ATOM     68  C   UNL A   1      38.363  31.292  32.420  1.00  0.00     0.135 A 
ATOM     69  C   UNL A   1      38.038  32.514  30.376  1.00  0.00     0.135 A 
ATOM     70  F   UNL A   1      39.071  30.443  33.181  1.00  0.00    -0.206 F 
ATOM     71  C   UNL A   1      37.171  31.802  32.926  1.00  0.00     0.059 A 
ATOM     72  C   UNL A   1      36.858  33.056  30.870  1.00  0.00     0.059 A 
ATOM     73  F   UNL A   1      38.439  32.879  29.148  1.00  0.00    -0.206 F 
ATOM     74  C   UNL A   1      36.427  32.686  32.144  1.00  0.00     0.060 A 
BRANCH  74  75
ATOM     75  S   UNL A   1      34.914  33.402  32.824  1.00  0.00     0.124 S 
ATOM     76  O   UNL A   1      35.067  34.805  32.463  1.00  0.00    -0.237 OA
ATOM     77  O   UNL A   1      33.872  32.668  32.113  1.00  0.00    -0.237 OA
ATOM     78  O   UNL A   1      35.018  33.098  34.249  1.00  0.00    -0.744 OA
ENDBRANCH  74  75
ENDBRANCH  42  67
BRANCH  54  79
ATOM     79  C   UNL A   1      45.403  33.854  31.385  1.00  0.00     0.058 A 
ATOM     80  C   UNL A   1      45.818  33.884  32.726  1.00  0.00     0.135 A 
ATOM     81  C   UNL A   1      45.584  35.012  30.613  1.00  0.00     0.135 A 
ATOM     82  F   UNL A   1      45.661  32.802  33.505  1.00  0.00    -0.206 F 
ATOM     83  C   UNL A   1      46.358  35.034  33.293  1.00  0.00     0.059 A 
ATOM     84  C   UNL A   1      46.140  36.167  31.156  1.00  0.00     0.059 A 
ATOM     85  F   UNL A   1      45.212  35.030  29.324  1.00  0.00    -0.206 F 
ATOM     86  C   UNL A   1      46.506  36.174  32.501  1.00  0.00     0.060 A 
BRANCH  86  87
ATOM     87  S   UNL A   1      47.195  37.667  33.246  1.00  0.00     0.124 S 
ATOM     88  O   UNL A   1      48.496  37.192  33.703  1.00  0.00    -0.237 OA
ATOM     89  O   UNL A   1      47.220  38.600  32.122  1.00  0.00    -0.237 OA
ATOM     90  O   UNL A   1      46.237  37.991  34.298  1.00  0.00    -0.744 OA
ENDBRANCH  86  87
ENDBRANCH  54  79
ENDBRANCH  28  29
ENDBRANCH  21  23
ENDBRANCH  20  21
ENDBRANCH  19  20
ENDBRANCH   1  19
TORSDOF 19
ENDMDL
MODEL 2
REMARK VINA RESULT:      -9.0      6.176      8.135
REMARK SMILES C[C@@]([NH2+]CCC1CC1)(C(=O)OCCOC(=O)c1ccc(-c2c3nc(c(-c4c(F)cc(S(=O)(=O)[O-])cc4F)c4ccc([nH]4)c(-c4c(F)cc(S(=O)(=O)[O-])cc4F)c4nc(c(-c5c(F)cc(S(=O)(=O)[O-])cc5F)c5ccc2[nH]5)C=C4)C=C3)cc1)C(F)(F)F
REMARK SMILES IDX 12 1 11 2 9 3 10 4 2 5 1 6 3 7 4 10 5 11 6 12 7 13 8 14
REMARK SMILES IDX 83 15 84 16 85 17 86 18 13 19 14 20 15 21 16 22 17 23 18 24
REMARK SMILES IDX 82 25 19 26 81 27 20 28 21 29 22 30 75 31 23 32 80 33 74 34
REMARK SMILES IDX 76 35 24 36 79 37 73 38 72 39 25 41 59 42 38 43 58 44 39 45
REMARK SMILES IDX 42 46 57 47 77 48 40 49 41 50 56 52 78 53 43 54 26 55 27 56
REMARK SMILES IDX 36 57 28 58 29 59 35 60 37 61 30 62 31 63 32 64 33 65 34 66
REMARK SMILES IDX 60 67 61 68 70 69 62 70 63 71 69 72 71 73 64 74 65 75 66 76
REMARK SMILES IDX 67 77 68 78 44 79 45 80 54 81 46 82 47 83 53 84 55 85 48 86
REMARK SMILES IDX 49 87 50 88 51 89 52 90
REMARK H PARENT 3 8 3 9 76 40 42 51
REMARK Flexibility Score: inf
ROOT
ATOM      1  C   UNL A   1      37.366  22.444  25.048  1.00  0.00     0.274 C 
ENDROOT
BRANCH   1   2
ATOM      2  O   UNL A   1      36.088  22.191  25.670  1.00  0.00    -0.457 OA
BRANCH   2   3
ATOM      3  C   UNL A   1      35.028  21.994  24.832  1.00  0.00     0.377 C 
ATOM      4  O   UNL A   1      35.087  22.203  23.625  1.00  0.00    -0.244 OA
BRANCH   3   5
ATOM      5  C   UNL A   1      33.766  21.506  25.562  1.00  0.00     0.287 C 
ATOM      6  C   UNL A   1      32.580  21.350  24.584  1.00  0.00     0.103 C 
BRANCH   5   7
ATOM      7  N   UNL A   1      33.913  20.124  26.162  1.00  0.00    -0.325 N 
ATOM      8  H   UNL A   1      33.921  20.238  27.176  1.00  0.00     0.347 HD
ATOM      9  H   UNL A   1      34.766  19.763  25.735  1.00  0.00     0.347 HD
BRANCH   7  10
ATOM     10  C   UNL A   1      32.908  19.100  25.854  1.00  0.00     0.261 C 
BRANCH  10  11
ATOM     11  C   UNL A   1      33.364  17.667  25.547  1.00  0.00     0.065 C 
BRANCH  11  12
ATOM     12  C   UNL A   1      32.985  17.071  24.219  1.00  0.00    -0.006 C 
ATOM     13  C   UNL A   1      32.842  17.922  22.982  1.00  0.00     0.004 C 
ATOM     14  C   UNL A   1      33.923  16.880  23.051  1.00  0.00     0.004 C 
ENDBRANCH  11  12
ENDBRANCH  10  11
ENDBRANCH   7  10
ENDBRANCH   5   7
BRANCH   5  15
ATOM     15  C   UNL A   1      33.378  22.646  26.528  1.00  0.00     0.455 C 
ATOM     16  F   UNL A   1      33.594  23.863  25.980  1.00  0.00    -0.164 F 
ATOM     17  F   UNL A   1      32.052  22.579  26.822  1.00  0.00    -0.164 F 
ATOM     18  F   UNL A   1      34.029  22.606  27.705  1.00  0.00    -0.164 F 
ENDBRANCH   5  15
ENDBRANCH   3   5
ENDBRANCH   2   3
ENDBRANCH   1   2
BRANCH   1  19
ATOM     19  C   UNL A   1      38.463  22.575  26.102  1.00  0.00     0.275 C 
BRANCH  19  20
ATOM     20  O   UNL A   1      38.992  23.909  26.059  1.00  0.00    -0.458 OA
BRANCH  20  21
ATOM     21  C   UNL A   1      40.150  24.114  26.725  1.00  0.00     0.338 C 
ATOM     22  O   UNL A   1      41.175  23.453  26.624  1.00  0.00    -0.246 OA
BRANCH  21  23
ATOM     23  C   UNL A   1      40.012  25.285  27.616  1.00  0.00     0.060 A 
ATOM     24  C   UNL A   1      40.889  26.363  27.503  1.00  0.00     0.016 A 
ATOM     25  C   UNL A   1      39.068  25.275  28.641  1.00  0.00     0.016 A 
ATOM     26  C   UNL A   1      40.903  27.367  28.467  1.00  0.00     0.010 A 
ATOM     27  C   UNL A   1      39.007  26.346  29.544  1.00  0.00     0.010 A 
ATOM     28  C   UNL A   1      39.955  27.385  29.497  1.00  0.00    -0.014 A 
BRANCH  28  29
ATOM     29  C   UNL A   1      40.001  28.447  30.544  1.00  0.00     0.031 A 
ATOM     30  C   UNL A   1      41.047  28.394  31.633  1.00  0.00     0.074 A 
ATOM     31  C   UNL A   1      39.143  29.489  30.510  1.00  0.00     0.049 A 
ATOM     32  N   UNL A   1      41.146  29.114  32.722  1.00  0.00    -0.248 NA
ATOM     33  C   UNL A   1      42.111  27.387  31.486  1.00  0.00     0.031 C 
ATOM     34  C   UNL A   1      38.101  29.700  29.504  1.00  0.00     0.029 A 
ATOM     35  N   UNL A   1      39.024  30.579  31.337  1.00  0.00    -0.354 N 
ATOM     36  C   UNL A   1      42.236  28.605  33.419  1.00  0.00     0.074 A 
ATOM     37  C   UNL A   1      42.769  27.516  32.630  1.00  0.00     0.031 C 
ATOM     38  C   UNL A   1      37.490  30.871  29.737  1.00  0.00     0.029 A 
ATOM     39  C   UNL A   1      38.032  31.454  30.959  1.00  0.00     0.049 A 
ATOM     40  H   UNL A   1      39.594  30.722  32.127  1.00  0.00     0.167 HD
ATOM     41  C   UNL A   1      42.748  29.010  34.607  1.00  0.00     0.037 A 
ATOM     42  C   UNL A   1      37.580  32.581  31.544  1.00  0.00     0.037 A 
ATOM     43  C   UNL A   1      42.263  30.140  35.358  1.00  0.00     0.049 A 
ATOM     44  C   UNL A   1      38.186  33.030  32.843  1.00  0.00     0.074 A 
ATOM     45  C   UNL A   1      42.699  30.614  36.584  1.00  0.00     0.029 A 
ATOM     46  N   UNL A   1      41.258  30.996  34.936  1.00  0.00    -0.354 N 
ATOM     47  N   UNL A   1      39.144  32.469  33.540  1.00  0.00    -0.248 NA
ATOM     48  C   UNL A   1      37.633  34.251  33.445  1.00  0.00     0.031 C 
ATOM     49  C   UNL A   1      41.950  31.753  36.907  1.00  0.00     0.029 A 
ATOM     50  C   UNL A   1      41.068  32.003  35.869  1.00  0.00     0.049 A 
ATOM     51  H   UNL A   1      40.753  30.903  34.095  1.00  0.00     0.167 HD
ATOM     52  C   UNL A   1      39.299  33.261  34.673  1.00  0.00     0.074 A 
ATOM     53  C   UNL A   1      38.366  34.362  34.545  1.00  0.00     0.031 C 
ATOM     54  C   UNL A   1      40.127  33.083  35.732  1.00  0.00     0.037 A 
BRANCH  41  55
ATOM     55  C   UNL A   1      43.879  28.207  35.186  1.00  0.00     0.058 A 
ATOM     56  C   UNL A   1      43.653  27.108  36.030  1.00  0.00     0.135 A 
ATOM     57  C   UNL A   1      45.209  28.524  34.866  1.00  0.00     0.135 A 
ATOM     58  F   UNL A   1      42.402  26.774  36.384  1.00  0.00    -0.206 F 
ATOM     59  C   UNL A   1      44.707  26.364  36.552  1.00  0.00     0.059 A 
ATOM     60  C   UNL A   1      46.278  27.781  35.359  1.00  0.00     0.059 A 
ATOM     61  F   UNL A   1      45.481  29.567  34.066  1.00  0.00    -0.206 F 
ATOM     62  C   UNL A   1      46.017  26.710  36.212  1.00  0.00     0.060 A 
BRANCH  62  63
ATOM     63  S   UNL A   1      47.377  25.732  36.887  1.00  0.00     0.124 S 
ATOM     64  O   UNL A   1      47.163  25.887  38.322  1.00  0.00    -0.237 OA
ATOM     65  O   UNL A   1      47.109  24.403  36.347  1.00  0.00    -0.237 OA
ATOM     66  O   UNL A   1      48.565  26.392  36.354  1.00  0.00    -0.744 OA
ENDBRANCH  62  63
ENDBRANCH  41  55
BRANCH  42  67
ATOM     67  C   UNL A   1      36.459  33.337  30.925  1.00  0.00     0.058 A 
ATOM     68  C   UNL A   1      35.164  33.282  31.462  1.00  0.00     0.135 A 
ATOM     69  C   UNL A   1      36.665  34.141  29.794  1.00  0.00     0.135 A 
ATOM     70  F   UNL A   1      34.915  32.517  32.536  1.00  0.00    -0.206 F 
ATOM     71  C   UNL A   1      34.111  33.995  30.895  1.00  0.00     0.059 A 
ATOM     72  C   UNL A   1      35.635  34.882  29.226  1.00  0.00     0.059 A 
ATOM     73  F   UNL A   1      37.889  34.235  29.249  1.00  0.00    -0.206 F 
ATOM     74  C   UNL A   1      34.358  34.794  29.778  1.00  0.00     0.060 A 
BRANCH  74  75
ATOM     75  S   UNL A   1      33.008  35.772  29.082  1.00  0.00     0.124 S 
ATOM     76  O   UNL A   1      32.258  36.129  30.279  1.00  0.00    -0.237 OA
ATOM     77  O   UNL A   1      33.719  36.864  28.424  1.00  0.00    -0.237 OA
ATOM     78  O   UNL A   1      32.352  34.831  28.178  1.00  0.00    -0.744 OA
ENDBRANCH  74  75
ENDBRANCH  42  67
BRANCH  54  79
ATOM     79  C   UNL A   1      40.049  34.105  36.828  1.00  0.00     0.058 A 
ATOM     80  C   UNL A   1      39.279  33.881  37.980  1.00  0.00     0.135 A 
ATOM     81  C   UNL A   1      40.746  35.318  36.726  1.00  0.00     0.135 A 
ATOM     82  F   UNL A   1      38.591  32.737  38.121  1.00  0.00    -0.206 F 
ATOM     83  C   UNL A   1      39.172  34.844  38.979  1.00  0.00     0.059 A 
ATOM     84  C   UNL A   1      40.669  36.287  37.723  1.00  0.00     0.059 A 
ATOM     85  F   UNL A   1      41.503  35.575  35.648  1.00  0.00    -0.206 F 
ATOM     86  C   UNL A   1      39.864  36.048  38.835  1.00  0.00     0.060 A 
BRANCH  86  87
ATOM     87  S   UNL A   1      39.711  37.299  40.129  1.00  0.00     0.124 S 
ATOM     88  O   UNL A   1      39.310  38.469  39.357  1.00  0.00    -0.237 OA
ATOM     89  O   UNL A   1      38.685  36.731  40.999  1.00  0.00    -0.237 OA
ATOM     90  O   UNL A   1      41.052  37.352  40.705  1.00  0.00    -0.744 OA
ENDBRANCH  86  87
ENDBRANCH  54  79
ENDBRANCH  28  29
ENDBRANCH  21  23
ENDBRANCH  20  21
ENDBRANCH  19  20
ENDBRANCH   1  19
TORSDOF 19
ENDMDL
MODEL 3
REMARK VINA RESULT:      -9.0      3.221     11.181
REMARK SMILES C[C@@]([NH2+]CCC1CC1)(C(=O)OCCOC(=O)c1ccc(-c2c3nc(c(-c4c(F)cc(S(=O)(=O)[O-])cc4F)c4ccc([nH]4)c(-c4c(F)cc(S(=O)(=O)[O-])cc4F)c4nc(c(-c5c(F)cc(S(=O)(=O)[O-])cc5F)c5ccc2[nH]5)C=C4)C=C3)cc1)C(F)(F)F
REMARK SMILES IDX 12 1 11 2 9 3 10 4 2 5 1 6 3 7 4 10 5 11 6 12 7 13 8 14
REMARK SMILES IDX 83 15 84 16 85 17 86 18 13 19 14 20 15 21 16 22 17 23 18 24
REMARK SMILES IDX 82 25 19 26 81 27 20 28 21 29 22 30 75 31 23 32 80 33 74 34
REMARK SMILES IDX 76 35 24 36 79 37 73 38 72 39 25 41 59 42 38 43 58 44 39 45
REMARK SMILES IDX 42 46 57 47 77 48 40 49 41 50 56 52 78 53 43 54 26 55 27 56
REMARK SMILES IDX 36 57 28 58 29 59 35 60 37 61 30 62 31 63 32 64 33 65 34 66
REMARK SMILES IDX 60 67 61 68 70 69 62 70 63 71 69 72 71 73 64 74 65 75 66 76
REMARK SMILES IDX 67 77 68 78 44 79 45 80 54 81 46 82 47 83 53 84 55 85 48 86
REMARK SMILES IDX 49 87 50 88 51 89 52 90
REMARK H PARENT 3 8 3 9 76 40 42 51
REMARK Flexibility Score: inf
ROOT
ATOM      1  C   UNL A   1      35.394  32.793  32.855  1.00  0.00     0.274 C 
ENDROOT
BRANCH   1   2
ATOM      2  O   UNL A   1      34.551  32.685  31.688  1.00  0.00    -0.457 OA
BRANCH   2   3
ATOM      3  C   UNL A   1      34.530  33.762  30.847  1.00  0.00     0.377 C 
ATOM      4  O   UNL A   1      34.425  34.916  31.247  1.00  0.00    -0.244 OA
BRANCH   3   5
ATOM      5  C   UNL A   1      34.632  33.369  29.364  1.00  0.00     0.287 C 
ATOM      6  C   UNL A   1      36.056  33.620  28.817  1.00  0.00     0.103 C 
BRANCH   5   7
ATOM      7  N   UNL A   1      34.414  31.892  29.115  1.00  0.00    -0.325 N 
ATOM      8  H   UNL A   1      33.418  31.711  29.241  1.00  0.00     0.347 HD
ATOM      9  H   UNL A   1      35.048  31.438  29.773  1.00  0.00     0.347 HD
BRANCH   7  10
ATOM     10  C   UNL A   1      34.791  31.321  27.817  1.00  0.00     0.261 C 
BRANCH  10  11
ATOM     11  C   UNL A   1      34.820  29.795  27.646  1.00  0.00     0.065 C 
BRANCH  11  12
ATOM     12  C   UNL A   1      33.600  29.122  27.081  1.00  0.00    -0.006 C 
ATOM     13  C   UNL A   1      33.366  29.027  25.594  1.00  0.00     0.004 C 
ATOM     14  C   UNL A   1      33.588  27.776  26.397  1.00  0.00     0.004 C 
ENDBRANCH  11  12
ENDBRANCH  10  11
ENDBRANCH   7  10
ENDBRANCH   5   7
BRANCH   5  15
ATOM     15  C   UNL A   1      33.704  34.346  28.610  1.00  0.00     0.455 C 
ATOM     16  F   UNL A   1      34.314  35.528  28.366  1.00  0.00    -0.164 F 
ATOM     17  F   UNL A   1      33.361  33.825  27.402  1.00  0.00    -0.164 F 
ATOM     18  F   UNL A   1      32.552  34.604  29.253  1.00  0.00    -0.164 F 
ENDBRANCH   5  15
ENDBRANCH   3   5
ENDBRANCH   2   3
ENDBRANCH   1   2
BRANCH   1  19
ATOM     19  C   UNL A   1      36.418  31.661  32.887  1.00  0.00     0.275 C 
BRANCH  19  20
ATOM     20  O   UNL A   1      36.970  31.496  31.572  1.00  0.00    -0.458 OA
BRANCH  20  21
ATOM     21  C   UNL A   1      36.751  30.301  30.979  1.00  0.00     0.338 C 
ATOM     22  O   UNL A   1      35.689  29.694  30.933  1.00  0.00    -0.246 OA
BRANCH  21  23
ATOM     23  C   UNL A   1      38.004  29.812  30.366  1.00  0.00     0.060 A 
ATOM     24  C   UNL A   1      38.977  29.195  31.150  1.00  0.00     0.016 A 
ATOM     25  C   UNL A   1      38.262  30.054  29.017  1.00  0.00     0.016 A 
ATOM     26  C   UNL A   1      40.239  28.925  30.628  1.00  0.00     0.010 A 
ATOM     27  C   UNL A   1      39.493  29.675  28.464  1.00  0.00     0.010 A 
ATOM     28  C   UNL A   1      40.516  29.147  29.273  1.00  0.00    -0.014 A 
BRANCH  28  29
ATOM     29  C   UNL A   1      41.883  28.886  28.732  1.00  0.00     0.031 A 
ATOM     30  C   UNL A   1      42.232  27.525  28.176  1.00  0.00     0.074 A 
ATOM     31  C   UNL A   1      42.808  29.868  28.691  1.00  0.00     0.049 A 
ATOM     32  N   UNL A   1      43.399  27.049  27.825  1.00  0.00    -0.248 NA
ATOM     33  C   UNL A   1      41.124  26.569  28.011  1.00  0.00     0.031 C 
ATOM     34  C   UNL A   1      42.612  31.242  29.156  1.00  0.00     0.029 A 
ATOM     35  N   UNL A   1      44.098  29.865  28.217  1.00  0.00    -0.354 N 
ATOM     36  C   UNL A   1      43.179  25.725  27.463  1.00  0.00     0.074 A 
ATOM     37  C   UNL A   1      41.766  25.471  27.636  1.00  0.00     0.031 C 
ATOM     38  C   UNL A   1      43.714  31.961  28.894  1.00  0.00     0.029 A 
ATOM     39  C   UNL A   1      44.729  31.082  28.324  1.00  0.00     0.049 A 
ATOM     40  H   UNL A   1      44.530  29.066  27.837  1.00  0.00     0.167 HD
ATOM     41  C   UNL A   1      44.072  24.804  27.026  1.00  0.00     0.037 A 
ATOM     42  C   UNL A   1      45.993  31.449  28.032  1.00  0.00     0.037 A 
ATOM     43  C   UNL A   1      45.467  25.076  26.785  1.00  0.00     0.049 A 
ATOM     44  C   UNL A   1      46.956  30.419  27.515  1.00  0.00     0.074 A 
ATOM     45  C   UNL A   1      46.457  24.204  26.365  1.00  0.00     0.029 A 
ATOM     46  N   UNL A   1      46.061  26.323  26.906  1.00  0.00    -0.354 N 
ATOM     47  N   UNL A   1      46.754  29.145  27.285  1.00  0.00    -0.248 NA
ATOM     48  C   UNL A   1      48.327  30.874  27.240  1.00  0.00     0.031 C 
ATOM     49  C   UNL A   1      47.653  24.923  26.241  1.00  0.00     0.029 A 
ATOM     50  C   UNL A   1      47.400  26.248  26.557  1.00  0.00     0.049 A 
ATOM     51  H   UNL A   1      45.599  27.143  27.197  1.00  0.00     0.167 HD
ATOM     52  C   UNL A   1      47.975  28.640  26.853  1.00  0.00     0.074 A 
ATOM     53  C   UNL A   1      48.898  29.756  26.813  1.00  0.00     0.031 C 
ATOM     54  C   UNL A   1      48.307  27.365  26.535  1.00  0.00     0.037 A 
BRANCH  41  55
ATOM     55  C   UNL A   1      43.575  23.404  26.804  1.00  0.00     0.058 A 
ATOM     56  C   UNL A   1      43.380  22.881  25.516  1.00  0.00     0.135 A 
ATOM     57  C   UNL A   1      43.321  22.561  27.899  1.00  0.00     0.135 A 
ATOM     58  F   UNL A   1      43.589  23.649  24.436  1.00  0.00    -0.206 F 
ATOM     59  C   UNL A   1      42.930  21.578  25.322  1.00  0.00     0.059 A 
ATOM     60  C   UNL A   1      42.891  21.249  27.728  1.00  0.00     0.059 A 
ATOM     61  F   UNL A   1      43.489  23.013  29.152  1.00  0.00    -0.206 F 
ATOM     62  C   UNL A   1      42.686  20.770  26.435  1.00  0.00     0.060 A 
BRANCH  62  63
ATOM     63  S   UNL A   1      42.112  19.078  26.172  1.00  0.00     0.124 S 
ATOM     64  O   UNL A   1      40.733  19.300  25.752  1.00  0.00    -0.237 OA
ATOM     65  O   UNL A   1      43.019  18.594  25.137  1.00  0.00    -0.237 OA
ATOM     66  O   UNL A   1      42.277  18.457  27.483  1.00  0.00    -0.744 OA
ENDBRANCH  62  63
ENDBRANCH  41  55
BRANCH  42  67
ATOM     67  C   UNL A   1      46.430  32.850  28.271  1.00  0.00     0.058 A 
ATOM     68  C   UNL A   1      46.997  33.234  29.495  1.00  0.00     0.135 A 
ATOM     69  C   UNL A   1      46.304  33.827  27.272  1.00  0.00     0.135 A 
ATOM     70  F   UNL A   1      47.127  32.338  30.485  1.00  0.00    -0.206 F 
ATOM     71  C   UNL A   1      47.418  34.541  29.723  1.00  0.00     0.059 A 
ATOM     72  C   UNL A   1      46.741  35.132  27.467  1.00  0.00     0.059 A 
ATOM     73  F   UNL A   1      45.778  33.507  26.079  1.00  0.00    -0.206 F 
ATOM     74  C   UNL A   1      47.289  35.483  28.701  1.00  0.00     0.060 A 
BRANCH  74  75
ATOM     75  S   UNL A   1      47.897  37.162  28.970  1.00  0.00     0.124 S 
ATOM     76  O   UNL A   1      46.976  37.645  29.992  1.00  0.00    -0.237 OA
ATOM     77  O   UNL A   1      49.271  36.932  29.405  1.00  0.00    -0.237 OA
ATOM     78  O   UNL A   1      47.762  37.777  27.652  1.00  0.00    -0.744 OA
ENDBRANCH  74  75
ENDBRANCH  42  67
BRANCH  54  79
ATOM     79  C   UNL A   1      49.728  27.121  26.120  1.00  0.00     0.058 A 
ATOM     80  C   UNL A   1      50.721  26.815  27.065  1.00  0.00     0.135 A 
ATOM     81  C   UNL A   1      50.103  27.197  24.771  1.00  0.00     0.135 A 
ATOM     82  F   UNL A   1      50.411  26.736  28.369  1.00  0.00    -0.206 F 
ATOM     83  C   UNL A   1      52.047  26.630  26.689  1.00  0.00     0.059 A 
ATOM     84  C   UNL A   1      51.422  26.995  24.370  1.00  0.00     0.059 A 
ATOM     85  F   UNL A   1      49.189  27.477  23.829  1.00  0.00    -0.206 F 
ATOM     86  C   UNL A   1      52.389  26.731  25.339  1.00  0.00     0.060 A 
BRANCH  86  87
ATOM     87  S   UNL A   1      54.115  26.502  24.858  1.00  0.00     0.124 S 
ATOM     88  O   UNL A   1      54.067  26.827  23.437  1.00  0.00    -0.237 OA
ATOM     89  O   UNL A   1      54.811  27.466  25.706  1.00  0.00    -0.237 OA
ATOM     90  O   UNL A   1      54.368  25.100  25.176  1.00  0.00    -0.744 OA
ENDBRANCH  86  87
ENDBRANCH  54  79
ENDBRANCH  28  29
ENDBRANCH  21  23
ENDBRANCH  20  21
ENDBRANCH  19  20
ENDBRANCH   1  19
TORSDOF 19
ENDMDL
