MODEL 1
REMARK VINA RESULT:     -11.4      0.000      0.000
REMARK SMILES NC(=O)[C@@H]1CCCCN1C(=O)N[C@H]1C=C[C@@H](C(=O)OCCOC(=O)c2ccc(-c3c4nc(c(-c5c(F)cc(S(=O)(=O)[O-])cc5F)c5ccc([nH]5)c(-c5c(F)cc(S(=O)(=O)[O-])cc5F)c5nc(c(-c6c(F)cc(S(=O)(=O)[O-])cc6F)c6ccc3[nH]6)C=C5)C=C4)cc2)C1
REMARK SMILES IDX 20 1 19 2 17 3 18 4 16 5 13 6 14 7 91 8 15 9 12 10 10 11
REMARK SMILES IDX 11 12 9 14 4 15 5 16 6 17 8 18 7 19 2 20 1 21 3 24 21 25
REMARK SMILES IDX 22 26 23 27 24 28 25 29 26 30 90 31 27 32 89 33 28 34 29 35
REMARK SMILES IDX 30 36 83 37 31 38 88 39 82 40 84 41 32 42 87 43 81 44 80 45
REMARK SMILES IDX 33 47 67 48 46 49 66 50 47 51 50 52 65 53 85 54 48 55 49 56
REMARK SMILES IDX 64 58 86 59 51 60 34 61 35 62 44 63 36 64 37 65 43 66 45 67
REMARK SMILES IDX 38 68 39 69 40 70 41 71 42 72 68 73 69 74 78 75 70 76 71 77
REMARK SMILES IDX 77 78 79 79 72 80 73 81 74 82 75 83 76 84 52 85 53 86 62 87
REMARK SMILES IDX 54 88 55 89 61 90 63 91 56 92 57 93 58 94 59 95 60 96
REMARK H PARENT 12 13 1 22 1 23 84 46 50 57
REMARK Flexibility Score: inf
ROOT
ATOM      1  C   UNL A   1      34.085  32.406  28.206  1.00  0.00     0.274 C 
ENDROOT
BRANCH   1   2
ATOM      2  O   UNL A   1      34.167  31.279  27.314  1.00  0.00    -0.462 OA
BRANCH   2   3
ATOM      3  C   UNL A   1      33.024  30.582  27.096  1.00  0.00     0.312 C 
ATOM      4  O   UNL A   1      31.936  31.091  26.848  1.00  0.00    -0.252 OA
BRANCH   3   5
ATOM      5  C   UNL A   1      33.209  29.071  27.199  1.00  0.00     0.124 C 
ATOM      6  C   UNL A   1      32.344  26.928  26.360  1.00  0.00     0.107 C 
ATOM      7  C   UNL A   1      33.614  27.343  25.672  1.00  0.00    -0.006 C 
ATOM      8  C   UNL A   1      31.947  28.207  27.103  1.00  0.00     0.048 C 
ATOM      9  C   UNL A   1      34.076  28.519  26.113  1.00  0.00    -0.014 C 
BRANCH   6  10
ATOM     10  N   UNL A   1      31.390  26.555  25.339  1.00  0.00    -0.332 N 
ATOM     11  C   UNL A   1      31.167  25.536  24.499  1.00  0.00     0.318 C 
ATOM     12  O   UNL A   1      30.093  25.658  23.900  1.00  0.00    -0.249 OA
ATOM     13  H   UNL A   1      30.706  27.253  25.230  1.00  0.00     0.165 HD
BRANCH  11  14
ATOM     14  N   UNL A   1      32.000  24.478  24.298  1.00  0.00    -0.313 N 
ATOM     15  C   UNL A   1      32.225  23.441  25.355  1.00  0.00     0.176 C 
ATOM     16  C   UNL A   1      33.628  23.653  25.961  1.00  0.00     0.035 C 
ATOM     17  C   UNL A   1      34.705  23.570  24.877  1.00  0.00     0.004 C 
ATOM     18  C   UNL A   1      32.958  24.308  23.203  1.00  0.00     0.122 C 
ATOM     19  C   UNL A   1      34.385  24.509  23.716  1.00  0.00     0.022 C 
BRANCH  15  20
ATOM     20  C   UNL A   1      31.261  23.052  26.512  1.00  0.00     0.240 C 
ATOM     21  N   UNL A   1      30.163  22.313  26.212  1.00  0.00    -0.368 N 
ATOM     22  H   UNL A   1      29.536  22.052  26.926  1.00  0.00     0.159 HD
ATOM     23  H   UNL A   1      29.992  22.037  25.283  1.00  0.00     0.159 HD
ATOM     24  O   UNL A   1      31.334  23.575  27.625  1.00  0.00    -0.273 OA
ENDBRANCH  15  20
ENDBRANCH  11  14
ENDBRANCH   6  10
ENDBRANCH   3   5
ENDBRANCH   2   3
ENDBRANCH   1   2
BRANCH   1  25
ATOM     25  C   UNL A   1      34.935  32.151  29.454  1.00  0.00     0.275 C 
BRANCH  25  26
ATOM     26  O   UNL A   1      35.753  30.976  29.295  1.00  0.00    -0.458 OA
BRANCH  26  27
ATOM     27  C   UNL A   1      36.422  30.594  30.409  1.00  0.00     0.338 C 
ATOM     28  O   UNL A   1      35.966  30.445  31.527  1.00  0.00    -0.246 OA
BRANCH  27  29
ATOM     29  C   UNL A   1      37.813  30.259  30.070  1.00  0.00     0.060 A 
ATOM     30  C   UNL A   1      38.169  30.184  28.721  1.00  0.00     0.016 A 
ATOM     31  C   UNL A   1      38.734  29.940  31.067  1.00  0.00     0.016 A 
ATOM     32  C   UNL A   1      39.452  29.787  28.358  1.00  0.00     0.010 A 
ATOM     33  C   UNL A   1      40.027  29.551  30.702  1.00  0.00     0.010 A 
ATOM     34  C   UNL A   1      40.392  29.470  29.347  1.00  0.00    -0.014 A 
BRANCH  34  35
ATOM     35  C   UNL A   1      41.763  29.057  28.964  1.00  0.00     0.031 A 
ATOM     36  C   UNL A   1      42.873  30.066  28.932  1.00  0.00     0.074 A 
ATOM     37  C   UNL A   1      41.999  27.773  28.636  1.00  0.00     0.049 A 
ATOM     38  N   UNL A   1      44.104  29.923  28.515  1.00  0.00    -0.248 NA
ATOM     39  C   UNL A   1      42.559  31.412  29.435  1.00  0.00     0.031 C 
ATOM     40  C   UNL A   1      41.006  26.698  28.670  1.00  0.00     0.029 A 
ATOM     41  N   UNL A   1      43.143  27.158  28.197  1.00  0.00    -0.354 N 
ATOM     42  C   UNL A   1      44.710  31.160  28.686  1.00  0.00     0.074 A 
ATOM     43  C   UNL A   1      43.706  32.048  29.237  1.00  0.00     0.031 C 
ATOM     44  C   UNL A   1      41.582  25.558  28.258  1.00  0.00     0.029 A 
ATOM     45  C   UNL A   1      42.966  25.831  27.885  1.00  0.00     0.049 A 
ATOM     46  H   UNL A   1      44.007  27.622  28.112  1.00  0.00     0.167 HD
ATOM     47  C   UNL A   1      45.985  31.521  28.408  1.00  0.00     0.037 A 
ATOM     48  C   UNL A   1      43.813  24.946  27.324  1.00  0.00     0.037 A 
ATOM     49  C   UNL A   1      46.977  30.628  27.867  1.00  0.00     0.049 A 
ATOM     50  C   UNL A   1      45.201  25.389  26.955  1.00  0.00     0.074 A 
ATOM     51  C   UNL A   1      48.305  30.893  27.573  1.00  0.00     0.029 A 
ATOM     52  N   UNL A   1      46.751  29.302  27.530  1.00  0.00    -0.354 N 
ATOM     53  N   UNL A   1      45.762  26.563  27.124  1.00  0.00    -0.248 NA
ATOM     54  C   UNL A   1      46.067  24.395  26.306  1.00  0.00     0.031 C 
ATOM     55  C   UNL A   1      48.869  29.737  27.022  1.00  0.00     0.029 A 
ATOM     56  C   UNL A   1      47.904  28.741  27.006  1.00  0.00     0.049 A 
ATOM     57  H   UNL A   1      45.896  28.828  27.646  1.00  0.00     0.167 HD
ATOM     58  C   UNL A   1      47.048  26.446  26.611  1.00  0.00     0.074 A 
ATOM     59  C   UNL A   1      47.188  25.084  26.139  1.00  0.00     0.031 C 
ATOM     60  C   UNL A   1      48.024  27.384  26.536  1.00  0.00     0.037 A 
BRANCH  47  61
ATOM     61  C   UNL A   1      46.374  32.950  28.657  1.00  0.00     0.058 A 
ATOM     62  C   UNL A   1      46.220  33.938  27.673  1.00  0.00     0.135 A 
ATOM     63  C   UNL A   1      46.877  33.341  29.909  1.00  0.00     0.135 A 
ATOM     64  F   UNL A   1      45.760  33.613  26.455  1.00  0.00    -0.206 F 
ATOM     65  C   UNL A   1      46.573  35.263  27.914  1.00  0.00     0.059 A 
ATOM     66  C   UNL A   1      47.217  34.663  30.177  1.00  0.00     0.059 A 
ATOM     67  F   UNL A   1      47.046  32.433  30.883  1.00  0.00    -0.206 F 
ATOM     68  C   UNL A   1      47.075  35.614  29.168  1.00  0.00     0.060 A 
BRANCH  68  69
ATOM     69  S   UNL A   1      47.535  37.335  29.465  1.00  0.00     0.124 S 
ATOM     70  O   UNL A   1      47.900  37.296  30.878  1.00  0.00    -0.237 OA
ATOM     71  O   UNL A   1      48.639  37.531  28.531  1.00  0.00    -0.237 OA
ATOM     72  O   UNL A   1      46.314  38.071  29.153  1.00  0.00    -0.744 OA
ENDBRANCH  68  69
ENDBRANCH  47  61
BRANCH  48  73
ATOM     73  C   UNL A   1      43.351  23.562  27.043  1.00  0.00     0.058 A 
ATOM     74  C   UNL A   1      42.965  23.177  25.753  1.00  0.00     0.135 A 
ATOM     75  C   UNL A   1      43.311  22.592  28.057  1.00  0.00     0.135 A 
ATOM     76  F   UNL A   1      42.978  24.073  24.754  1.00  0.00    -0.206 F 
ATOM     77  C   UNL A   1      42.550  21.879  25.475  1.00  0.00     0.059 A 
ATOM     78  C   UNL A   1      42.922  21.282  27.801  1.00  0.00     0.059 A 
ATOM     79  F   UNL A   1      43.682  22.911  29.307  1.00  0.00    -0.206 F 
ATOM     80  C   UNL A   1      42.536  20.937  26.506  1.00  0.00     0.060 A 
BRANCH  80  81
ATOM     81  S   UNL A   1      42.057  19.238  26.127  1.00  0.00     0.124 S 
ATOM     82  O   UNL A   1      42.436  18.547  27.354  1.00  0.00    -0.237 OA
ATOM     83  O   UNL A   1      40.624  19.367  25.883  1.00  0.00    -0.237 OA
ATOM     84  O   UNL A   1      42.859  18.920  24.948  1.00  0.00    -0.744 OA
ENDBRANCH  80  81
ENDBRANCH  48  73
BRANCH  60  85
ATOM     85  C   UNL A   1      49.334  26.970  25.930  1.00  0.00     0.058 A 
ATOM     86  C   UNL A   1      49.606  27.174  24.569  1.00  0.00     0.135 A 
ATOM     87  C   UNL A   1      50.349  26.423  26.731  1.00  0.00     0.135 A 
ATOM     88  F   UNL A   1      48.663  27.685  23.762  1.00  0.00    -0.206 F 
ATOM     89  C   UNL A   1      50.839  26.841  24.019  1.00  0.00     0.059 A 
ATOM     90  C   UNL A   1      51.597  26.102  26.205  1.00  0.00     0.059 A 
ATOM     91  F   UNL A   1      50.140  26.214  28.040  1.00  0.00    -0.206 F 
ATOM     92  C   UNL A   1      51.830  26.309  24.846  1.00  0.00     0.060 A 
BRANCH  92  93
ATOM     93  S   UNL A   1      53.445  25.931  24.132  1.00  0.00     0.124 S 
ATOM     94  O   UNL A   1      54.264  27.015  24.665  1.00  0.00    -0.237 OA
ATOM     95  O   UNL A   1      53.724  24.603  24.670  1.00  0.00    -0.237 OA
ATOM     96  O   UNL A   1      53.198  25.978  22.693  1.00  0.00    -0.744 OA
ENDBRANCH  92  93
ENDBRANCH  60  85
ENDBRANCH  34  35
ENDBRANCH  27  29
ENDBRANCH  26  27
ENDBRANCH  25  26
ENDBRANCH   1  25
TORSDOF 17
ENDMDL
MODEL 2
REMARK VINA RESULT:     -11.3      6.675     11.872
REMARK SMILES NC(=O)[C@@H]1CCCCN1C(=O)N[C@H]1C=C[C@@H](C(=O)OCCOC(=O)c2ccc(-c3c4nc(c(-c5c(F)cc(S(=O)(=O)[O-])cc5F)c5ccc([nH]5)c(-c5c(F)cc(S(=O)(=O)[O-])cc5F)c5nc(c(-c6c(F)cc(S(=O)(=O)[O-])cc6F)c6ccc3[nH]6)C=C5)C=C4)cc2)C1
REMARK SMILES IDX 20 1 19 2 17 3 18 4 16 5 13 6 14 7 91 8 15 9 12 10 10 11
REMARK SMILES IDX 11 12 9 14 4 15 5 16 6 17 8 18 7 19 2 20 1 21 3 24 21 25
REMARK SMILES IDX 22 26 23 27 24 28 25 29 26 30 90 31 27 32 89 33 28 34 29 35
REMARK SMILES IDX 30 36 83 37 31 38 88 39 82 40 84 41 32 42 87 43 81 44 80 45
REMARK SMILES IDX 33 47 67 48 46 49 66 50 47 51 50 52 65 53 85 54 48 55 49 56
REMARK SMILES IDX 64 58 86 59 51 60 34 61 35 62 44 63 36 64 37 65 43 66 45 67
REMARK SMILES IDX 38 68 39 69 40 70 41 71 42 72 68 73 69 74 78 75 70 76 71 77
REMARK SMILES IDX 77 78 79 79 72 80 73 81 74 82 75 83 76 84 52 85 53 86 62 87
REMARK SMILES IDX 54 88 55 89 61 90 63 91 56 92 57 93 58 94 59 95 60 96
REMARK H PARENT 12 13 1 22 1 23 84 46 50 57
REMARK Flexibility Score: inf
ROOT
ATOM      1  C   UNL A   1      40.995  21.853  26.306  1.00  0.00     0.274 C 
ENDROOT
BRANCH   1   2
ATOM      2  O   UNL A   1      39.577  22.007  26.501  1.00  0.00    -0.462 OA
BRANCH   2   3
ATOM      3  C   UNL A   1      38.763  21.287  25.689  1.00  0.00     0.312 C 
ATOM      4  O   UNL A   1      38.921  20.101  25.420  1.00  0.00    -0.252 OA
BRANCH   3   5
ATOM      5  C   UNL A   1      37.609  22.103  25.113  1.00  0.00     0.124 C 
ATOM      6  C   UNL A   1      35.299  22.817  25.560  1.00  0.00     0.107 C 
ATOM      7  C   UNL A   1      36.302  23.891  25.875  1.00  0.00    -0.006 C 
ATOM      8  C   UNL A   1      36.191  21.585  25.377  1.00  0.00     0.048 C 
ATOM      9  C   UNL A   1      37.562  23.498  25.653  1.00  0.00    -0.014 C 
BRANCH   6  10
ATOM     10  N   UNL A   1      34.407  22.699  26.692  1.00  0.00    -0.332 N 
ATOM     11  C   UNL A   1      33.137  22.349  26.938  1.00  0.00     0.318 C 
ATOM     12  O   UNL A   1      32.900  22.293  28.148  1.00  0.00    -0.249 OA
ATOM     13  H   UNL A   1      34.866  22.950  27.525  1.00  0.00     0.165 HD
BRANCH  11  14
ATOM     14  N   UNL A   1      32.193  22.083  25.994  1.00  0.00    -0.313 N 
ATOM     15  C   UNL A   1      32.293  20.889  25.095  1.00  0.00     0.176 C 
ATOM     16  C   UNL A   1      32.696  21.368  23.684  1.00  0.00     0.035 C 
ATOM     17  C   UNL A   1      31.679  22.376  23.143  1.00  0.00     0.004 C 
ATOM     18  C   UNL A   1      31.128  22.979  25.537  1.00  0.00     0.122 C 
ATOM     19  C   UNL A   1      31.450  23.510  24.139  1.00  0.00     0.022 C 
BRANCH  15  20
ATOM     20  C   UNL A   1      33.045  19.558  25.378  1.00  0.00     0.240 C 
ATOM     21  N   UNL A   1      32.951  19.017  26.619  1.00  0.00    -0.368 N 
ATOM     22  H   UNL A   1      33.417  18.174  26.825  1.00  0.00     0.159 HD
ATOM     23  H   UNL A   1      32.417  19.466  27.313  1.00  0.00     0.159 HD
ATOM     24  O   UNL A   1      33.893  19.111  24.603  1.00  0.00    -0.273 OA
ENDBRANCH  15  20
ENDBRANCH  11  14
ENDBRANCH   6  10
ENDBRANCH   3   5
ENDBRANCH   2   3
ENDBRANCH   1   2
BRANCH   1  25
ATOM     25  C   UNL A   1      41.667  23.226  26.229  1.00  0.00     0.275 C 
BRANCH  25  26
ATOM     26  O   UNL A   1      40.750  24.275  26.593  1.00  0.00    -0.458 OA
BRANCH  26  27
ATOM     27  C   UNL A   1      41.200  25.531  26.357  1.00  0.00     0.338 C 
ATOM     28  O   UNL A   1      41.568  25.994  25.294  1.00  0.00    -0.246 OA
BRANCH  27  29
ATOM     29  C   UNL A   1      41.084  26.343  27.577  1.00  0.00     0.060 A 
ATOM     30  C   UNL A   1      40.028  26.081  28.453  1.00  0.00     0.016 A 
ATOM     31  C   UNL A   1      41.955  27.406  27.812  1.00  0.00     0.016 A 
ATOM     32  C   UNL A   1      39.835  26.882  29.574  1.00  0.00     0.010 A 
ATOM     33  C   UNL A   1      41.766  28.206  28.944  1.00  0.00     0.010 A 
ATOM     34  C   UNL A   1      40.704  27.950  29.830  1.00  0.00    -0.014 A 
BRANCH  34  35
ATOM     35  C   UNL A   1      40.507  28.799  31.028  1.00  0.00     0.031 A 
ATOM     36  C   UNL A   1      39.478  29.891  31.018  1.00  0.00     0.074 A 
ATOM     37  C   UNL A   1      41.267  28.588  32.119  1.00  0.00     0.049 A 
ATOM     38  N   UNL A   1      39.240  30.806  31.921  1.00  0.00    -0.248 NA
ATOM     39  C   UNL A   1      38.601  29.963  29.839  1.00  0.00     0.031 C 
ATOM     40  C   UNL A   1      42.271  27.531  32.256  1.00  0.00     0.029 A 
ATOM     41  N   UNL A   1      41.323  29.260  33.313  1.00  0.00    -0.354 N 
ATOM     42  C   UNL A   1      38.200  31.576  31.416  1.00  0.00     0.074 A 
ATOM     43  C   UNL A   1      37.859  31.026  30.121  1.00  0.00     0.031 C 
ATOM     44  C   UNL A   1      42.850  27.633  33.462  1.00  0.00     0.029 A 
ATOM     45  C   UNL A   1      42.296  28.788  34.161  1.00  0.00     0.049 A 
ATOM     46  H   UNL A   1      40.726  30.009  33.540  1.00  0.00     0.167 HD
ATOM     47  C   UNL A   1      37.589  32.643  31.984  1.00  0.00     0.037 A 
ATOM     48  C   UNL A   1      42.722  29.259  35.350  1.00  0.00     0.037 A 
ATOM     49  C   UNL A   1      37.932  33.178  33.276  1.00  0.00     0.049 A 
ATOM     50  C   UNL A   1      42.079  30.490  35.925  1.00  0.00     0.074 A 
ATOM     51  C   UNL A   1      37.355  34.243  33.948  1.00  0.00     0.029 A 
ATOM     52  N   UNL A   1      38.947  32.697  34.089  1.00  0.00    -0.354 N 
ATOM     53  N   UNL A   1      41.095  31.208  35.438  1.00  0.00    -0.248 NA
ATOM     54  C   UNL A   1      42.611  30.984  37.203  1.00  0.00     0.031 C 
ATOM     55  C   UNL A   1      38.047  34.429  35.150  1.00  0.00     0.029 A 
ATOM     56  C   UNL A   1      39.032  33.457  35.244  1.00  0.00     0.049 A 
ATOM     57  H   UNL A   1      39.523  31.927  33.877  1.00  0.00     0.167 HD
ATOM     58  C   UNL A   1      40.884  32.232  36.352  1.00  0.00     0.074 A 
ATOM     59  C   UNL A   1      41.832  32.034  37.429  1.00  0.00     0.031 C 
ATOM     60  C   UNL A   1      39.987  33.248  36.303  1.00  0.00     0.037 A 
BRANCH  47  61
ATOM     61  C   UNL A   1      36.506  33.323  31.197  1.00  0.00     0.058 A 
ATOM     62  C   UNL A   1      36.790  34.079  30.050  1.00  0.00     0.135 A 
ATOM     63  C   UNL A   1      35.161  33.189  31.579  1.00  0.00     0.135 A 
ATOM     64  F   UNL A   1      38.060  34.252  29.652  1.00  0.00    -0.206 F 
ATOM     65  C   UNL A   1      35.780  34.698  29.320  1.00  0.00     0.059 A 
ATOM     66  C   UNL A   1      34.133  33.783  30.852  1.00  0.00     0.059 A 
ATOM     67  F   UNL A   1      34.836  32.478  32.670  1.00  0.00    -0.206 F 
ATOM     68  C   UNL A   1      34.455  34.547  29.732  1.00  0.00     0.060 A 
BRANCH  68  69
ATOM     69  S   UNL A   1      33.154  35.361  28.779  1.00  0.00     0.124 S 
ATOM     70  O   UNL A   1      32.346  35.953  29.842  1.00  0.00    -0.237 OA
ATOM     71  O   UNL A   1      33.909  36.303  27.958  1.00  0.00    -0.237 OA
ATOM     72  O   UNL A   1      32.528  34.262  28.052  1.00  0.00    -0.744 OA
ENDBRANCH  68  69
ENDBRANCH  47  61
BRANCH  48  73
ATOM     73  C   UNL A   1      43.841  28.581  36.052  1.00  0.00     0.058 A 
ATOM     74  C   UNL A   1      43.608  27.493  36.903  1.00  0.00     0.135 A 
ATOM     75  C   UNL A   1      45.170  28.995  35.866  1.00  0.00     0.135 A 
ATOM     76  F   UNL A   1      42.353  27.068  37.119  1.00  0.00    -0.206 F 
ATOM     77  C   UNL A   1      44.651  26.839  37.550  1.00  0.00     0.059 A 
ATOM     78  C   UNL A   1      46.231  28.344  36.484  1.00  0.00     0.059 A 
ATOM     79  F   UNL A   1      45.445  30.027  35.052  1.00  0.00    -0.206 F 
ATOM     80  C   UNL A   1      45.961  27.270  37.331  1.00  0.00     0.060 A 
BRANCH  80  81
ATOM     81  S   UNL A   1      47.315  26.377  38.123  1.00  0.00     0.124 S 
ATOM     82  O   UNL A   1      48.394  27.356  38.046  1.00  0.00    -0.237 OA
ATOM     83  O   UNL A   1      46.780  26.122  39.457  1.00  0.00    -0.237 OA
ATOM     84  O   UNL A   1      47.473  25.194  37.283  1.00  0.00    -0.744 OA
ENDBRANCH  80  81
ENDBRANCH  48  73
BRANCH  60  85
ATOM     85  C   UNL A   1      39.980  34.219  37.449  1.00  0.00     0.058 A 
ATOM     86  C   UNL A   1      40.738  35.399  37.410  1.00  0.00     0.135 A 
ATOM     87  C   UNL A   1      39.160  33.998  38.566  1.00  0.00     0.135 A 
ATOM     88  F   UNL A   1      41.544  35.649  36.368  1.00  0.00    -0.206 F 
ATOM     89  C   UNL A   1      40.689  36.325  38.447  1.00  0.00     0.059 A 
ATOM     90  C   UNL A   1      39.080  34.921  39.605  1.00  0.00     0.059 A 
ATOM     91  F   UNL A   1      38.410  32.886  38.647  1.00  0.00    -0.206 F 
ATOM     92  C   UNL A   1      39.853  36.079  39.539  1.00  0.00     0.060 A 
BRANCH  92  93
ATOM     93  S   UNL A   1      39.758  37.313  40.852  1.00  0.00     0.124 S 
ATOM     94  O   UNL A   1      39.335  36.502  41.989  1.00  0.00    -0.237 OA
ATOM     95  O   UNL A   1      41.126  37.819  40.910  1.00  0.00    -0.237 OA
ATOM     96  O   UNL A   1      38.766  38.262  40.354  1.00  0.00    -0.744 OA
ENDBRANCH  92  93
ENDBRANCH  60  85
ENDBRANCH  34  35
ENDBRANCH  27  29
ENDBRANCH  26  27
ENDBRANCH  25  26
ENDBRANCH   1  25
TORSDOF 17
ENDMDL
MODEL 3
REMARK VINA RESULT:     -11.1      1.621      8.557
REMARK SMILES NC(=O)[C@@H]1CCCCN1C(=O)N[C@H]1C=C[C@@H](C(=O)OCCOC(=O)c2ccc(-c3c4nc(c(-c5c(F)cc(S(=O)(=O)[O-])cc5F)c5ccc([nH]5)c(-c5c(F)cc(S(=O)(=O)[O-])cc5F)c5nc(c(-c6c(F)cc(S(=O)(=O)[O-])cc6F)c6ccc3[nH]6)C=C5)C=C4)cc2)C1
REMARK SMILES IDX 20 1 19 2 17 3 18 4 16 5 13 6 14 7 91 8 15 9 12 10 10 11
REMARK SMILES IDX 11 12 9 14 4 15 5 16 6 17 8 18 7 19 2 20 1 21 3 24 21 25
REMARK SMILES IDX 22 26 23 27 24 28 25 29 26 30 90 31 27 32 89 33 28 34 29 35
REMARK SMILES IDX 30 36 83 37 31 38 88 39 82 40 84 41 32 42 87 43 81 44 80 45
REMARK SMILES IDX 33 47 67 48 46 49 66 50 47 51 50 52 65 53 85 54 48 55 49 56
REMARK SMILES IDX 64 58 86 59 51 60 34 61 35 62 44 63 36 64 37 65 43 66 45 67
REMARK SMILES IDX 38 68 39 69 40 70 41 71 42 72 68 73 69 74 78 75 70 76 71 77
REMARK SMILES IDX 77 78 79 79 72 80 73 81 74 82 75 83 76 84 52 85 53 86 62 87
REMARK SMILES IDX 54 88 55 89 61 90 63 91 56 92 57 93 58 94 59 95 60 96
REMARK H PARENT 12 13 1 22 1 23 84 46 50 57
REMARK Flexibility Score: inf
ROOT
ATOM      1  C   UNL A   1      34.553  32.551  28.880  1.00  0.00     0.274 C 
ENDROOT
BRANCH   1   2
ATOM      2  O   UNL A   1      34.402  31.496  27.912  1.00  0.00    -0.462 OA
BRANCH   2   3
ATOM      3  C   UNL A   1      33.160  31.300  27.404  1.00  0.00     0.312 C 
ATOM      4  O   UNL A   1      32.330  32.188  27.235  1.00  0.00    -0.252 OA
BRANCH   3   5
ATOM      5  C   UNL A   1      32.871  29.842  27.061  1.00  0.00     0.124 C 
ATOM      6  C   UNL A   1      32.992  28.195  25.239  1.00  0.00     0.107 C 
ATOM      7  C   UNL A   1      34.128  28.058  26.213  1.00  0.00    -0.006 C 
ATOM      8  C   UNL A   1      32.387  29.545  25.637  1.00  0.00     0.048 C 
ATOM      9  C   UNL A   1      34.076  28.966  27.194  1.00  0.00    -0.014 C 
BRANCH   6  10
ATOM     10  N   UNL A   1      33.552  28.205  23.905  1.00  0.00    -0.332 N 
ATOM     11  C   UNL A   1      33.199  27.840  22.666  1.00  0.00     0.318 C 
ATOM     12  O   UNL A   1      34.027  28.202  21.824  1.00  0.00    -0.249 OA
ATOM     13  H   UNL A   1      34.456  28.591  23.910  1.00  0.00     0.165 HD
BRANCH  11  14
ATOM     14  N   UNL A   1      32.073  27.150  22.335  1.00  0.00    -0.313 N 
ATOM     15  C   UNL A   1      30.708  27.741  22.507  1.00  0.00     0.176 C 
ATOM     16  C   UNL A   1      30.031  27.070  23.720  1.00  0.00     0.035 C 
ATOM     17  C   UNL A   1      29.949  25.553  23.524  1.00  0.00     0.004 C 
ATOM     18  C   UNL A   1      31.976  25.723  22.020  1.00  0.00     0.122 C 
ATOM     19  C   UNL A   1      31.318  24.973  23.180  1.00  0.00     0.022 C 
BRANCH  15  20
ATOM     20  C   UNL A   1      30.331  29.250  22.528  1.00  0.00     0.240 C 
ATOM     21  N   UNL A   1      30.923  30.073  21.626  1.00  0.00    -0.368 N 
ATOM     22  H   UNL A   1      30.703  31.033  21.618  1.00  0.00     0.159 HD
ATOM     23  H   UNL A   1      31.573  29.713  20.982  1.00  0.00     0.159 HD
ATOM     24  O   UNL A   1      29.705  29.753  23.463  1.00  0.00    -0.273 OA
ENDBRANCH  15  20
ENDBRANCH  11  14
ENDBRANCH   6  10
ENDBRANCH   3   5
ENDBRANCH   2   3
ENDBRANCH   1   2
BRANCH   1  25
ATOM     25  C   UNL A   1      35.253  32.020  30.133  1.00  0.00     0.275 C 
BRANCH  25  26
ATOM     26  O   UNL A   1      35.891  30.754  29.875  1.00  0.00    -0.458 OA
BRANCH  26  27
ATOM     27  C   UNL A   1      36.711  30.319  30.861  1.00  0.00     0.338 C 
ATOM     28  O   UNL A   1      36.410  30.071  32.014  1.00  0.00    -0.246 OA
BRANCH  27  29
ATOM     29  C   UNL A   1      38.054  30.064  30.321  1.00  0.00     0.060 A 
ATOM     30  C   UNL A   1      38.241  30.141  28.939  1.00  0.00     0.016 A 
ATOM     31  C   UNL A   1      39.097  29.672  31.159  1.00  0.00     0.016 A 
ATOM     32  C   UNL A   1      39.477  29.824  28.382  1.00  0.00     0.010 A 
ATOM     33  C   UNL A   1      40.342  29.362  30.600  1.00  0.00     0.010 A 
ATOM     34  C   UNL A   1      40.538  29.434  29.209  1.00  0.00    -0.014 A 
BRANCH  34  35
ATOM     35  C   UNL A   1      41.858  29.106  28.621  1.00  0.00     0.031 A 
ATOM     36  C   UNL A   1      42.163  27.702  28.189  1.00  0.00     0.074 A 
ATOM     37  C   UNL A   1      42.781  30.076  28.488  1.00  0.00     0.049 A 
ATOM     38  N   UNL A   1      43.292  27.199  27.763  1.00  0.00    -0.248 NA
ATOM     39  C   UNL A   1      41.053  26.737  28.243  1.00  0.00     0.031 C 
ATOM     40  C   UNL A   1      42.582  31.484  28.837  1.00  0.00     0.029 A 
ATOM     41  N   UNL A   1      44.076  30.023  28.039  1.00  0.00    -0.354 N 
ATOM     42  C   UNL A   1      43.039  25.856  27.514  1.00  0.00     0.074 A 
ATOM     43  C   UNL A   1      41.649  25.620  27.847  1.00  0.00     0.031 C 
ATOM     44  C   UNL A   1      43.717  32.159  28.598  1.00  0.00     0.029 A 
ATOM     45  C   UNL A   1      44.736  31.225  28.128  1.00  0.00     0.049 A 
ATOM     46  H   UNL A   1      44.492  29.203  27.687  1.00  0.00     0.167 HD
ATOM     47  C   UNL A   1      43.890  24.910  27.051  1.00  0.00     0.037 A 
ATOM     48  C   UNL A   1      46.027  31.531  27.897  1.00  0.00     0.037 A 
ATOM     49  C   UNL A   1      45.269  25.157  26.717  1.00  0.00     0.049 A 
ATOM     50  C   UNL A   1      46.971  30.448  27.455  1.00  0.00     0.074 A 
ATOM     51  C   UNL A   1      46.206  24.268  26.217  1.00  0.00     0.029 A 
ATOM     52  N   UNL A   1      45.911  26.378  26.855  1.00  0.00    -0.354 N 
ATOM     53  N   UNL A   1      46.719  29.182  27.221  1.00  0.00    -0.248 NA
ATOM     54  C   UNL A   1      48.377  30.828  27.259  1.00  0.00     0.031 C 
ATOM     55  C   UNL A   1      47.425  24.943  26.091  1.00  0.00     0.029 A 
ATOM     56  C   UNL A   1      47.239  26.262  26.477  1.00  0.00     0.049 A 
ATOM     57  H   UNL A   1      45.487  27.206  27.175  1.00  0.00     0.167 HD
ATOM     58  C   UNL A   1      47.930  28.617  26.843  1.00  0.00     0.074 A 
ATOM     59  C   UNL A   1      48.913  29.681  26.864  1.00  0.00     0.031 C 
ATOM     60  C   UNL A   1      48.205  27.331  26.509  1.00  0.00     0.037 A 
BRANCH  47  61
ATOM     61  C   UNL A   1      43.363  23.511  26.906  1.00  0.00     0.058 A 
ATOM     62  C   UNL A   1      43.220  22.658  28.011  1.00  0.00     0.135 A 
ATOM     63  C   UNL A   1      42.964  23.030  25.648  1.00  0.00     0.135 A 
ATOM     64  F   UNL A   1      43.602  23.065  29.232  1.00  0.00    -0.206 F 
ATOM     65  C   UNL A   1      42.721  21.367  27.872  1.00  0.00     0.059 A 
ATOM     66  C   UNL A   1      42.444  21.749  25.489  1.00  0.00     0.059 A 
ATOM     67  F   UNL A   1      43.083  23.805  24.560  1.00  0.00    -0.206 F 
ATOM     68  C   UNL A   1      42.339  20.920  26.605  1.00  0.00     0.060 A 
BRANCH  68  69
ATOM     69  S   UNL A   1      41.700  19.240  26.437  1.00  0.00     0.124 S 
ATOM     70  O   UNL A   1      42.557  18.710  25.380  1.00  0.00    -0.237 OA
ATOM     71  O   UNL A   1      41.919  18.685  27.769  1.00  0.00    -0.237 OA
ATOM     72  O   UNL A   1      40.302  19.444  26.068  1.00  0.00    -0.744 OA
ENDBRANCH  68  69
ENDBRANCH  47  61
BRANCH  48  73
ATOM     73  C   UNL A   1      46.506  32.920  28.118  1.00  0.00     0.058 A 
ATOM     74  C   UNL A   1      46.454  33.874  27.094  1.00  0.00     0.135 A 
ATOM     75  C   UNL A   1      47.004  33.324  29.367  1.00  0.00     0.135 A 
ATOM     76  F   UNL A   1      45.996  33.531  25.881  1.00  0.00    -0.206 F 
ATOM     77  C   UNL A   1      46.882  35.182  27.297  1.00  0.00     0.059 A 
ATOM     78  C   UNL A   1      47.416  34.631  29.602  1.00  0.00     0.059 A 
ATOM     79  F   UNL A   1      47.063  32.448  30.383  1.00  0.00    -0.206 F 
ATOM     80  C   UNL A   1      47.358  35.552  28.556  1.00  0.00     0.060 A 
BRANCH  80  81
ATOM     81  S   UNL A   1      47.852  37.267  28.832  1.00  0.00     0.124 S 
ATOM     82  O   UNL A   1      48.668  37.146  30.035  1.00  0.00    -0.237 OA
ATOM     83  O   UNL A   1      48.571  37.583  27.602  1.00  0.00    -0.237 OA
ATOM     84  O   UNL A   1      46.577  37.959  28.998  1.00  0.00    -0.744 OA
ENDBRANCH  80  81
ENDBRANCH  48  73
BRANCH  60  85
ATOM     85  C   UNL A   1      49.620  27.003  26.132  1.00  0.00     0.058 A 
ATOM     86  C   UNL A   1      50.563  26.618  27.097  1.00  0.00     0.135 A 
ATOM     87  C   UNL A   1      50.021  27.014  24.787  1.00  0.00     0.135 A 
ATOM     88  F   UNL A   1      50.230  26.603  28.397  1.00  0.00    -0.206 F 
ATOM     89  C   UNL A   1      51.859  26.261  26.742  1.00  0.00     0.059 A 
ATOM     90  C   UNL A   1      51.307  26.640  24.407  1.00  0.00     0.059 A 
ATOM     91  F   UNL A   1      49.154  27.369  23.825  1.00  0.00    -0.206 F 
ATOM     92  C   UNL A   1      52.221  26.271  25.393  1.00  0.00     0.060 A 
BRANCH  92  93
ATOM     93  S   UNL A   1      53.889  25.754  24.939  1.00  0.00     0.124 S 
ATOM     94  O   UNL A   1      53.893  24.359  25.369  1.00  0.00    -0.237 OA
ATOM     95  O   UNL A   1      53.905  25.972  23.496  1.00  0.00    -0.237 OA
ATOM     96  O   UNL A   1      54.744  26.652  25.711  1.00  0.00    -0.744 OA
ENDBRANCH  92  93
ENDBRANCH  60  85
ENDBRANCH  34  35
ENDBRANCH  27  29
ENDBRANCH  26  27
ENDBRANCH  25  26
ENDBRANCH   1  25
TORSDOF 17
ENDMDL
