MODEL 1
REMARK VINA RESULT:     -11.9      0.000      0.000
REMARK SMILES O=C(CCCc1nc(-c2ccc(Cl)c(Cl)c2)c(-c2ccccc2)o1)OCCOC(=O)c1ccc(-c2c3nc(c(-c4c(F)cc(S(=O)(=O)[O-])cc4F)c4ccc([nH]4)c(-c4c(F)cc(S(=O)(=O)[O-])cc4F)c4nc(c(-c5c(F)cc(S(=O)(=O)[O-])cc5F)c5ccc2[nH]5)C=C4)C=C3)cc1
REMARK SMILES IDX 26 1 25 2 2 3 1 4 3 5 4 6 5 7 6 8 7 9 24 10 8 11 17 12 9 13
REMARK SMILES IDX 10 14 16 15 11 16 14 17 12 18 15 19 13 20 18 21 19 22 23 23
REMARK SMILES IDX 20 24 22 25 21 26 27 27 28 28 29 29 30 30 31 31 32 32 96 33
REMARK SMILES IDX 33 34 95 35 34 36 35 37 36 38 89 39 37 40 94 41 88 42 90 43
REMARK SMILES IDX 38 44 93 45 87 46 86 47 39 49 73 50 52 51 72 52 53 53 56 54
REMARK SMILES IDX 71 55 91 56 54 57 55 58 70 60 92 61 57 62 40 63 41 64 50 65
REMARK SMILES IDX 42 66 43 67 49 68 51 69 44 70 45 71 46 72 47 73 48 74 74 75
REMARK SMILES IDX 75 76 84 77 76 78 77 79 83 80 85 81 78 82 79 83 80 84 81 85
REMARK SMILES IDX 82 86 58 87 59 88 68 89 60 90 61 91 67 92 69 93 62 94 63 95
REMARK SMILES IDX 64 96 65 97 66 98
REMARK H PARENT 90 48 56 59
REMARK Flexibility Score: inf
ROOT
ATOM      1  C   UNL A   1      43.578  22.680  25.520  1.00  0.00     0.274 C 
ENDROOT
BRANCH   1   2
ATOM      2  O   UNL A   1      42.385  21.902  25.334  1.00  0.00    -0.462 OA
BRANCH   2   3
ATOM      3  C   UNL A   1      41.747  21.280  26.354  1.00  0.00     0.305 C 
ATOM      4  O   UNL A   1      41.734  20.053  26.413  1.00  0.00    -0.252 OA
BRANCH   3   5
ATOM      5  C   UNL A   1      40.984  22.115  27.363  1.00  0.00     0.123 C 
BRANCH   5   6
ATOM      6  C   UNL A   1      39.655  22.679  26.865  1.00  0.00     0.021 C 
BRANCH   6   7
ATOM      7  C   UNL A   1      38.903  21.820  25.842  1.00  0.00     0.098 C 
BRANCH   7   8
ATOM      8  C   UNL A   1      37.443  22.123  25.725  1.00  0.00     0.195 A 
ATOM      9  N   UNL A   1      36.802  23.244  25.996  1.00  0.00    -0.213 NA
ATOM     10  O   UNL A   1      36.645  21.127  25.209  1.00  0.00    -0.440 OA
ATOM     11  C   UNL A   1      35.498  22.964  25.659  1.00  0.00     0.117 A 
ATOM     12  C   UNL A   1      35.394  21.681  25.169  1.00  0.00     0.162 A 
BRANCH  11  13
ATOM     13  C   UNL A   1      34.419  23.925  25.671  1.00  0.00     0.006 A 
ATOM     14  C   UNL A   1      33.328  23.716  26.519  1.00  0.00     0.012 A 
ATOM     15  C   UNL A   1      34.498  25.104  24.919  1.00  0.00     0.032 A 
ATOM     16  C   UNL A   1      32.342  24.695  26.647  1.00  0.00     0.023 A 
ATOM     17  C   UNL A   1      33.507  26.084  25.041  1.00  0.00     0.060 A 
ATOM     18  C   UNL A   1      32.433  25.883  25.916  1.00  0.00     0.059 A 
ATOM     19  Cl  UNL A   1      33.687  27.526  24.110  1.00  0.00    -0.083 Cl
ATOM     20  Cl  UNL A   1      31.200  27.069  26.159  1.00  0.00    -0.083 Cl
ENDBRANCH  11  13
BRANCH  12  21
ATOM     21  C   UNL A   1      34.335  20.900  24.555  1.00  0.00     0.020 A 
ATOM     22  C   UNL A   1      34.235  19.521  24.772  1.00  0.00     0.012 A 
ATOM     23  C   UNL A   1      33.349  21.536  23.792  1.00  0.00     0.012 A 
ATOM     24  C   UNL A   1      33.200  18.782  24.194  1.00  0.00     0.001 A 
ATOM     25  C   UNL A   1      32.300  20.802  23.232  1.00  0.00     0.001 A 
ATOM     26  C   UNL A   1      32.233  19.424  23.423  1.00  0.00     0.000 A 
ENDBRANCH  12  21
ENDBRANCH   7   8
ENDBRANCH   6   7
ENDBRANCH   5   6
ENDBRANCH   3   5
ENDBRANCH   2   3
ENDBRANCH   1   2
BRANCH   1  27
ATOM     27  C   UNL A   1      43.435  24.109  25.008  1.00  0.00     0.275 C 
BRANCH  27  28
ATOM     28  O   UNL A   1      42.302  24.760  25.614  1.00  0.00    -0.458 OA
BRANCH  28  29
ATOM     29  C   UNL A   1      42.392  26.115  25.617  1.00  0.00     0.338 C 
ATOM     30  O   UNL A   1      42.338  26.833  24.639  1.00  0.00    -0.246 OA
BRANCH  29  31
ATOM     31  C   UNL A   1      42.397  26.663  26.997  1.00  0.00     0.060 A 
ATOM     32  C   UNL A   1      41.463  26.104  27.877  1.00  0.00     0.016 A 
ATOM     33  C   UNL A   1      43.204  27.723  27.424  1.00  0.00     0.016 A 
ATOM     34  C   UNL A   1      41.249  26.667  29.132  1.00  0.00     0.010 A 
ATOM     35  C   UNL A   1      42.995  28.285  28.697  1.00  0.00     0.010 A 
ATOM     36  C   UNL A   1      41.969  27.800  29.531  1.00  0.00    -0.014 A 
BRANCH  36  37
ATOM     37  C   UNL A   1      41.466  28.554  30.716  1.00  0.00     0.031 A 
ATOM     38  C   UNL A   1      42.254  28.500  32.002  1.00  0.00     0.074 A 
ATOM     39  C   UNL A   1      40.419  29.396  30.618  1.00  0.00     0.049 A 
ATOM     40  N   UNL A   1      42.131  29.226  33.084  1.00  0.00    -0.248 NA
ATOM     41  C   UNL A   1      43.333  27.500  32.075  1.00  0.00     0.031 C 
ATOM     42  C   UNL A   1      39.583  29.572  29.431  1.00  0.00     0.029 A 
ATOM     43  N   UNL A   1      39.899  30.286  31.528  1.00  0.00    -0.354 N 
ATOM     44  C   UNL A   1      43.120  28.783  33.957  1.00  0.00     0.074 A 
ATOM     45  C   UNL A   1      43.802  27.691  33.298  1.00  0.00     0.031 C 
ATOM     46  C   UNL A   1      38.668  30.527  29.679  1.00  0.00     0.029 A 
ATOM     47  C   UNL A   1      38.848  31.028  31.041  1.00  0.00     0.049 A 
ATOM     48  H   UNL A   1      40.247  30.383  32.444  1.00  0.00     0.167 HD
ATOM     49  C   UNL A   1      43.449  29.252  35.185  1.00  0.00     0.037 A 
ATOM     50  C   UNL A   1      38.127  32.011  31.617  1.00  0.00     0.037 A 
ATOM     51  C   UNL A   1      42.779  30.339  35.848  1.00  0.00     0.049 A 
ATOM     52  C   UNL A   1      38.484  32.489  33.003  1.00  0.00     0.074 A 
ATOM     53  C   UNL A   1      43.056  30.895  37.085  1.00  0.00     0.029 A 
ATOM     54  N   UNL A   1      41.691  31.029  35.336  1.00  0.00    -0.354 N 
ATOM     55  N   UNL A   1      39.459  32.096  33.790  1.00  0.00    -0.248 NA
ATOM     56  C   UNL A   1      37.653  33.561  33.573  1.00  0.00     0.031 C 
ATOM     57  C   UNL A   1      42.107  31.890  37.342  1.00  0.00     0.029 A 
ATOM     58  C   UNL A   1      41.272  31.991  36.241  1.00  0.00     0.049 A 
ATOM     59  H   UNL A   1      41.278  30.861  34.458  1.00  0.00     0.167 HD
ATOM     60  C   UNL A   1      39.384  32.901  34.924  1.00  0.00     0.074 A 
ATOM     61  C   UNL A   1      38.270  33.804  34.720  1.00  0.00     0.031 C 
ATOM     62  C   UNL A   1      40.173  32.899  36.027  1.00  0.00     0.037 A 
BRANCH  49  63
ATOM     63  C   UNL A   1      44.583  28.572  35.902  1.00  0.00     0.058 A 
ATOM     64  C   UNL A   1      44.367  27.490  36.771  1.00  0.00     0.135 A 
ATOM     65  C   UNL A   1      45.906  28.997  35.704  1.00  0.00     0.135 A 
ATOM     66  F   UNL A   1      43.120  27.054  37.010  1.00  0.00    -0.206 F 
ATOM     67  C   UNL A   1      45.419  26.874  37.442  1.00  0.00     0.059 A 
ATOM     68  C   UNL A   1      46.977  28.379  36.344  1.00  0.00     0.059 A 
ATOM     69  F   UNL A   1      46.170  30.026  34.884  1.00  0.00    -0.206 F 
ATOM     70  C   UNL A   1      46.721  27.330  37.225  1.00  0.00     0.060 A 
BRANCH  70  71
ATOM     71  S   UNL A   1      48.075  26.531  38.112  1.00  0.00     0.124 S 
ATOM     72  O   UNL A   1      49.214  26.859  37.260  1.00  0.00    -0.237 OA
ATOM     73  O   UNL A   1      48.041  27.202  39.408  1.00  0.00    -0.237 OA
ATOM     74  O   UNL A   1      47.689  25.124  38.127  1.00  0.00    -0.744 OA
ENDBRANCH  70  71
ENDBRANCH  49  63
BRANCH  50  75
ATOM     75  C   UNL A   1      37.000  32.642  30.876  1.00  0.00     0.058 A 
ATOM     76  C   UNL A   1      37.228  33.625  29.901  1.00  0.00     0.135 A 
ATOM     77  C   UNL A   1      35.669  32.289  31.147  1.00  0.00     0.135 A 
ATOM     78  F   UNL A   1      38.481  34.009  29.615  1.00  0.00    -0.206 F 
ATOM     79  C   UNL A   1      36.176  34.250  29.235  1.00  0.00     0.059 A 
ATOM     80  C   UNL A   1      34.603  32.881  30.477  1.00  0.00     0.059 A 
ATOM     81  F   UNL A   1      35.397  31.349  32.067  1.00  0.00    -0.206 F 
ATOM     82  C   UNL A   1      34.867  33.870  29.531  1.00  0.00     0.060 A 
BRANCH  82  83
ATOM     83  S   UNL A   1      33.510  34.659  28.637  1.00  0.00     0.124 S 
ATOM     84  O   UNL A   1      34.178  35.811  28.043  1.00  0.00    -0.237 OA
ATOM     85  O   UNL A   1      33.101  33.609  27.710  1.00  0.00    -0.237 OA
ATOM     86  O   UNL A   1      32.546  34.963  29.691  1.00  0.00    -0.744 OA
ENDBRANCH  82  83
ENDBRANCH  50  75
BRANCH  62  87
ATOM     87  C   UNL A   1      39.903  33.939  37.083  1.00  0.00     0.058 A 
ATOM     88  C   UNL A   1      39.124  33.665  38.218  1.00  0.00     0.135 A 
ATOM     89  C   UNL A   1      40.468  35.220  36.974  1.00  0.00     0.135 A 
ATOM     90  F   UNL A   1      38.559  32.458  38.375  1.00  0.00    -0.206 F 
ATOM     91  C   UNL A   1      38.885  34.635  39.188  1.00  0.00     0.059 A 
ATOM     92  C   UNL A   1      40.266  36.197  37.946  1.00  0.00     0.059 A 
ATOM     93  F   UNL A   1      41.236  35.533  35.917  1.00  0.00    -0.206 F 
ATOM     94  C   UNL A   1      39.458  35.900  39.041  1.00  0.00     0.060 A 
BRANCH  94  95
ATOM     95  S   UNL A   1      39.151  37.148  40.310  1.00  0.00     0.124 S 
ATOM     96  O   UNL A   1      38.314  36.411  41.251  1.00  0.00    -0.237 OA
ATOM     97  O   UNL A   1      40.499  37.463  40.774  1.00  0.00    -0.237 OA
ATOM     98  O   UNL A   1      38.481  38.219  39.578  1.00  0.00    -0.744 OA
ENDBRANCH  94  95
ENDBRANCH  62  87
ENDBRANCH  36  37
ENDBRANCH  29  31
ENDBRANCH  28  29
ENDBRANCH  27  28
ENDBRANCH   1  27
TORSDOF 19
ENDMDL
MODEL 2
REMARK VINA RESULT:     -11.8      3.555      9.692
REMARK SMILES O=C(CCCc1nc(-c2ccc(Cl)c(Cl)c2)c(-c2ccccc2)o1)OCCOC(=O)c1ccc(-c2c3nc(c(-c4c(F)cc(S(=O)(=O)[O-])cc4F)c4ccc([nH]4)c(-c4c(F)cc(S(=O)(=O)[O-])cc4F)c4nc(c(-c5c(F)cc(S(=O)(=O)[O-])cc5F)c5ccc2[nH]5)C=C4)C=C3)cc1
REMARK SMILES IDX 26 1 25 2 2 3 1 4 3 5 4 6 5 7 6 8 7 9 24 10 8 11 17 12 9 13
REMARK SMILES IDX 10 14 16 15 11 16 14 17 12 18 15 19 13 20 18 21 19 22 23 23
REMARK SMILES IDX 20 24 22 25 21 26 27 27 28 28 29 29 30 30 31 31 32 32 96 33
REMARK SMILES IDX 33 34 95 35 34 36 35 37 36 38 89 39 37 40 94 41 88 42 90 43
REMARK SMILES IDX 38 44 93 45 87 46 86 47 39 49 73 50 52 51 72 52 53 53 56 54
REMARK SMILES IDX 71 55 91 56 54 57 55 58 70 60 92 61 57 62 40 63 41 64 50 65
REMARK SMILES IDX 42 66 43 67 49 68 51 69 44 70 45 71 46 72 47 73 48 74 74 75
REMARK SMILES IDX 75 76 84 77 76 78 77 79 83 80 85 81 78 82 79 83 80 84 81 85
REMARK SMILES IDX 82 86 58 87 59 88 68 89 60 90 61 91 67 92 69 93 62 94 63 95
REMARK SMILES IDX 64 96 65 97 66 98
REMARK H PARENT 90 48 56 59
REMARK Flexibility Score: inf
ROOT
ATOM      1  C   UNL A   1      31.532  30.539  25.962  1.00  0.00     0.274 C 
ENDROOT
BRANCH   1   2
ATOM      2  O   UNL A   1      31.445  29.323  25.203  1.00  0.00    -0.462 OA
BRANCH   2   3
ATOM      3  C   UNL A   1      30.949  29.277  23.943  1.00  0.00     0.305 C 
ATOM      4  O   UNL A   1      29.877  29.820  23.686  1.00  0.00    -0.252 OA
BRANCH   3   5
ATOM      5  C   UNL A   1      31.688  28.478  22.889  1.00  0.00     0.123 C 
BRANCH   5   6
ATOM      6  C   UNL A   1      30.955  27.237  22.384  1.00  0.00     0.021 C 
BRANCH   6   7
ATOM      7  C   UNL A   1      30.395  26.303  23.464  1.00  0.00     0.098 C 
BRANCH   7   8
ATOM      8  C   UNL A   1      31.177  25.044  23.667  1.00  0.00     0.195 A 
ATOM      9  N   UNL A   1      30.787  23.792  23.523  1.00  0.00    -0.213 NA
ATOM     10  O   UNL A   1      32.506  25.188  23.993  1.00  0.00    -0.440 OA
ATOM     11  C   UNL A   1      31.923  23.063  23.791  1.00  0.00     0.117 A 
ATOM     12  C   UNL A   1      32.978  23.905  24.068  1.00  0.00     0.162 A 
BRANCH  11  13
ATOM     13  C   UNL A   1      32.036  21.629  23.652  1.00  0.00     0.006 A 
ATOM     14  C   UNL A   1      31.992  21.062  22.376  1.00  0.00     0.012 A 
ATOM     15  C   UNL A   1      32.282  20.817  24.766  1.00  0.00     0.032 A 
ATOM     16  C   UNL A   1      32.234  19.698  22.207  1.00  0.00     0.023 A 
ATOM     17  C   UNL A   1      32.518  19.448  24.598  1.00  0.00     0.060 A 
ATOM     18  C   UNL A   1      32.506  18.890  23.315  1.00  0.00     0.059 A 
ATOM     19  Cl  UNL A   1      32.849  18.513  26.012  1.00  0.00    -0.083 Cl
ATOM     20  Cl  UNL A   1      32.840  17.220  23.026  1.00  0.00    -0.083 Cl
ENDBRANCH  11  13
BRANCH  12  21
ATOM     21  C   UNL A   1      34.402  23.727  24.287  1.00  0.00     0.020 A 
ATOM     22  C   UNL A   1      34.989  24.043  25.517  1.00  0.00     0.012 A 
ATOM     23  C   UNL A   1      35.199  23.162  23.284  1.00  0.00     0.012 A 
ATOM     24  C   UNL A   1      36.357  23.848  25.724  1.00  0.00     0.001 A 
ATOM     25  C   UNL A   1      36.563  22.945  23.498  1.00  0.00     0.001 A 
ATOM     26  C   UNL A   1      37.144  23.300  24.713  1.00  0.00     0.000 A 
ENDBRANCH  12  21
ENDBRANCH   7   8
ENDBRANCH   6   7
ENDBRANCH   5   6
ENDBRANCH   3   5
ENDBRANCH   2   3
ENDBRANCH   1   2
BRANCH   1  27
ATOM     27  C   UNL A   1      32.403  30.395  27.206  1.00  0.00     0.275 C 
BRANCH  27  28
ATOM     28  O   UNL A   1      33.783  30.672  26.900  1.00  0.00    -0.458 OA
BRANCH  28  29
ATOM     29  C   UNL A   1      34.367  31.539  27.768  1.00  0.00     0.338 C 
ATOM     30  O   UNL A   1      33.800  32.420  28.381  1.00  0.00    -0.246 OA
BRANCH  29  31
ATOM     31  C   UNL A   1      35.785  31.184  28.028  1.00  0.00     0.060 A 
ATOM     32  C   UNL A   1      36.068  29.815  28.092  1.00  0.00     0.016 A 
ATOM     33  C   UNL A   1      36.799  32.115  28.279  1.00  0.00     0.016 A 
ATOM     34  C   UNL A   1      37.318  29.371  28.517  1.00  0.00     0.010 A 
ATOM     35  C   UNL A   1      38.065  31.665  28.699  1.00  0.00     0.010 A 
ATOM     36  C   UNL A   1      38.309  30.290  28.884  1.00  0.00    -0.014 A 
BRANCH  36  37
ATOM     37  C   UNL A   1      39.482  29.773  29.645  1.00  0.00     0.031 A 
ATOM     38  C   UNL A   1      39.645  30.172  31.092  1.00  0.00     0.074 A 
ATOM     39  C   UNL A   1      40.305  28.845  29.118  1.00  0.00     0.049 A 
ATOM     40  N   UNL A   1      40.455  29.690  32.001  1.00  0.00    -0.248 NA
ATOM     41  C   UNL A   1      38.771  31.250  31.582  1.00  0.00     0.031 C 
ATOM     42  C   UNL A   1      40.248  28.346  27.746  1.00  0.00     0.029 A 
ATOM     43  N   UNL A   1      41.332  28.134  29.692  1.00  0.00    -0.354 N 
ATOM     44  C   UNL A   1      40.180  30.394  33.169  1.00  0.00     0.074 A 
ATOM     45  C   UNL A   1      39.163  31.370  32.841  1.00  0.00     0.031 C 
ATOM     46  C   UNL A   1      41.187  27.394  27.588  1.00  0.00     0.029 A 
ATOM     47  C   UNL A   1      41.913  27.218  28.845  1.00  0.00     0.049 A 
ATOM     48  H   UNL A   1      41.626  28.268  30.621  1.00  0.00     0.167 HD
ATOM     49  C   UNL A   1      40.704  30.234  34.408  1.00  0.00     0.037 A 
ATOM     50  C   UNL A   1      42.902  26.327  29.062  1.00  0.00     0.037 A 
ATOM     51  C   UNL A   1      41.714  29.265  34.744  1.00  0.00     0.049 A 
ATOM     52  C   UNL A   1      43.503  26.194  30.440  1.00  0.00     0.074 A 
ATOM     53  C   UNL A   1      42.291  29.016  35.978  1.00  0.00     0.029 A 
ATOM     54  N   UNL A   1      42.305  28.391  33.845  1.00  0.00    -0.354 N 
ATOM     55  N   UNL A   1      43.189  26.830  31.545  1.00  0.00    -0.248 NA
ATOM     56  C   UNL A   1      44.579  25.206  30.604  1.00  0.00     0.031 C 
ATOM     57  C   UNL A   1      43.265  28.025  35.815  1.00  0.00     0.029 A 
ATOM     58  C   UNL A   1      43.256  27.617  34.491  1.00  0.00     0.049 A 
ATOM     59  H   UNL A   1      42.081  28.328  32.888  1.00  0.00     0.167 HD
ATOM     60  C   UNL A   1      43.998  26.287  32.540  1.00  0.00     0.074 A 
ATOM     61  C   UNL A   1      44.813  25.271  31.907  1.00  0.00     0.031 C 
ATOM     62  C   UNL A   1      44.053  26.595  33.860  1.00  0.00     0.037 A 
BRANCH  49  63
ATOM     63  C   UNL A   1      40.204  31.146  35.494  1.00  0.00     0.058 A 
ATOM     64  C   UNL A   1      41.007  32.163  36.036  1.00  0.00     0.135 A 
ATOM     65  C   UNL A   1      38.896  31.014  35.987  1.00  0.00     0.135 A 
ATOM     66  F   UNL A   1      42.271  32.322  35.613  1.00  0.00    -0.206 F 
ATOM     67  C   UNL A   1      40.543  32.994  37.050  1.00  0.00     0.059 A 
ATOM     68  C   UNL A   1      38.401  31.852  36.982  1.00  0.00     0.059 A 
ATOM     69  F   UNL A   1      38.086  30.059  35.504  1.00  0.00    -0.206 F 
ATOM     70  C   UNL A   1      39.239  32.827  37.520  1.00  0.00     0.060 A 
BRANCH  70  71
ATOM     71  S   UNL A   1      38.653  33.905  38.844  1.00  0.00     0.124 S 
ATOM     72  O   UNL A   1      39.537  33.523  39.941  1.00  0.00    -0.237 OA
ATOM     73  O   UNL A   1      38.875  35.236  38.287  1.00  0.00    -0.237 OA
ATOM     74  O   UNL A   1      37.254  33.520  39.003  1.00  0.00    -0.744 OA
ENDBRANCH  70  71
ENDBRANCH  49  63
BRANCH  50  75
ATOM     75  C   UNL A   1      43.379  25.458  27.951  1.00  0.00     0.058 A 
ATOM     76  C   UNL A   1      44.345  25.907  27.037  1.00  0.00     0.135 A 
ATOM     77  C   UNL A   1      42.859  24.167  27.768  1.00  0.00     0.135 A 
ATOM     78  F   UNL A   1      44.864  27.138  27.159  1.00  0.00    -0.206 F 
ATOM     79  C   UNL A   1      44.764  25.116  25.970  1.00  0.00     0.059 A 
ATOM     80  C   UNL A   1      43.280  23.349  26.724  1.00  0.00     0.059 A 
ATOM     81  F   UNL A   1      41.937  23.688  28.618  1.00  0.00    -0.206 F 
ATOM     82  C   UNL A   1      44.225  23.837  25.822  1.00  0.00     0.060 A 
BRANCH  82  83
ATOM     83  S   UNL A   1      44.799  22.804  24.458  1.00  0.00     0.124 S 
ATOM     84  O   UNL A   1      43.580  22.644  23.675  1.00  0.00    -0.237 OA
ATOM     85  O   UNL A   1      45.839  23.635  23.859  1.00  0.00    -0.237 OA
ATOM     86  O   UNL A   1      45.281  21.599  25.130  1.00  0.00    -0.744 OA
ENDBRANCH  82  83
ENDBRANCH  50  75
BRANCH  62  87
ATOM     87  C   UNL A   1      44.984  25.791  34.730  1.00  0.00     0.058 A 
ATOM     88  C   UNL A   1      44.586  24.589  35.336  1.00  0.00     0.135 A 
ATOM     89  C   UNL A   1      46.308  26.214  34.928  1.00  0.00     0.135 A 
ATOM     90  F   UNL A   1      43.332  24.137  35.181  1.00  0.00    -0.206 F 
ATOM     91  C   UNL A   1      45.458  23.855  36.136  1.00  0.00     0.059 A 
ATOM     92  C   UNL A   1      47.206  25.481  35.700  1.00  0.00     0.059 A 
ATOM     93  F   UNL A   1      46.748  27.349  34.359  1.00  0.00    -0.206 F 
ATOM     94  C   UNL A   1      46.765  24.311  36.315  1.00  0.00     0.060 A 
BRANCH  94  95
ATOM     95  S   UNL A   1      47.892  23.345  37.345  1.00  0.00     0.124 S 
ATOM     96  O   UNL A   1      47.902  22.064  36.648  1.00  0.00    -0.237 OA
ATOM     97  O   UNL A   1      49.128  24.118  37.268  1.00  0.00    -0.237 OA
ATOM     98  O   UNL A   1      47.241  23.345  38.651  1.00  0.00    -0.744 OA
ENDBRANCH  94  95
ENDBRANCH  62  87
ENDBRANCH  36  37
ENDBRANCH  29  31
ENDBRANCH  28  29
ENDBRANCH  27  28
ENDBRANCH   1  27
TORSDOF 19
ENDMDL
MODEL 3
REMARK VINA RESULT:     -11.7      5.195     10.385
REMARK SMILES O=C(CCCc1nc(-c2ccc(Cl)c(Cl)c2)c(-c2ccccc2)o1)OCCOC(=O)c1ccc(-c2c3nc(c(-c4c(F)cc(S(=O)(=O)[O-])cc4F)c4ccc([nH]4)c(-c4c(F)cc(S(=O)(=O)[O-])cc4F)c4nc(c(-c5c(F)cc(S(=O)(=O)[O-])cc5F)c5ccc2[nH]5)C=C4)C=C3)cc1
REMARK SMILES IDX 26 1 25 2 2 3 1 4 3 5 4 6 5 7 6 8 7 9 24 10 8 11 17 12 9 13
REMARK SMILES IDX 10 14 16 15 11 16 14 17 12 18 15 19 13 20 18 21 19 22 23 23
REMARK SMILES IDX 20 24 22 25 21 26 27 27 28 28 29 29 30 30 31 31 32 32 96 33
REMARK SMILES IDX 33 34 95 35 34 36 35 37 36 38 89 39 37 40 94 41 88 42 90 43
REMARK SMILES IDX 38 44 93 45 87 46 86 47 39 49 73 50 52 51 72 52 53 53 56 54
REMARK SMILES IDX 71 55 91 56 54 57 55 58 70 60 92 61 57 62 40 63 41 64 50 65
REMARK SMILES IDX 42 66 43 67 49 68 51 69 44 70 45 71 46 72 47 73 48 74 74 75
REMARK SMILES IDX 75 76 84 77 76 78 77 79 83 80 85 81 78 82 79 83 80 84 81 85
REMARK SMILES IDX 82 86 58 87 59 88 68 89 60 90 61 91 67 92 69 93 62 94 63 95
REMARK SMILES IDX 64 96 65 97 66 98
REMARK H PARENT 90 48 56 59
REMARK Flexibility Score: inf
ROOT
ATOM      1  C   UNL A   1      31.814  30.230  26.024  1.00  0.00     0.274 C 
ENDROOT
BRANCH   1   2
ATOM      2  O   UNL A   1      31.897  28.935  25.408  1.00  0.00    -0.462 OA
BRANCH   2   3
ATOM      3  C   UNL A   1      31.048  28.529  24.434  1.00  0.00     0.305 C 
ATOM      4  O   UNL A   1      30.658  29.329  23.587  1.00  0.00    -0.252 OA
BRANCH   3   5
ATOM      5  C   UNL A   1      30.524  27.108  24.460  1.00  0.00     0.123 C 
BRANCH   5   6
ATOM      6  C   UNL A   1      30.747  26.358  25.772  1.00  0.00     0.021 C 
BRANCH   6   7
ATOM      7  C   UNL A   1      30.187  24.932  25.831  1.00  0.00     0.098 C 
BRANCH   7   8
ATOM      8  C   UNL A   1      31.199  23.854  25.606  1.00  0.00     0.195 A 
ATOM      9  N   UNL A   1      31.009  22.565  25.396  1.00  0.00    -0.213 NA
ATOM     10  O   UNL A   1      32.517  24.247  25.548  1.00  0.00    -0.440 OA
ATOM     11  C   UNL A   1      32.280  22.073  25.209  1.00  0.00     0.117 A 
ATOM     12  C   UNL A   1      33.204  23.092  25.289  1.00  0.00     0.162 A 
BRANCH  11  13
ATOM     13  C   UNL A   1      32.591  20.714  24.830  1.00  0.00     0.006 A 
ATOM     14  C   UNL A   1      33.055  19.824  25.802  1.00  0.00     0.012 A 
ATOM     15  C   UNL A   1      32.345  20.257  23.529  1.00  0.00     0.032 A 
ATOM     16  C   UNL A   1      33.232  18.475  25.490  1.00  0.00     0.023 A 
ATOM     17  C   UNL A   1      32.528  18.906  23.213  1.00  0.00     0.060 A 
ATOM     18  C   UNL A   1      32.961  18.012  24.198  1.00  0.00     0.059 A 
ATOM     19  Cl  UNL A   1      32.172  18.406  21.599  1.00  0.00    -0.083 Cl
ATOM     20  Cl  UNL A   1      33.160  16.323  23.896  1.00  0.00    -0.083 Cl
ENDBRANCH  11  13
BRANCH  12  21
ATOM     21  C   UNL A   1      34.633  23.201  25.054  1.00  0.00     0.020 A 
ATOM     22  C   UNL A   1      35.515  23.513  26.095  1.00  0.00     0.012 A 
ATOM     23  C   UNL A   1      35.157  22.920  23.787  1.00  0.00     0.012 A 
ATOM     24  C   UNL A   1      36.890  23.596  25.863  1.00  0.00     0.001 A 
ATOM     25  C   UNL A   1      36.534  22.979  23.559  1.00  0.00     0.001 A 
ATOM     26  C   UNL A   1      37.399  23.329  24.593  1.00  0.00     0.000 A 
ENDBRANCH  12  21
ENDBRANCH   7   8
ENDBRANCH   6   7
ENDBRANCH   5   6
ENDBRANCH   3   5
ENDBRANCH   2   3
ENDBRANCH   1   2
BRANCH   1  27
ATOM     27  C   UNL A   1      33.173  30.755  26.476  1.00  0.00     0.275 C 
BRANCH  27  28
ATOM     28  O   UNL A   1      33.575  30.136  27.713  1.00  0.00    -0.458 OA
BRANCH  28  29
ATOM     29  C   UNL A   1      34.503  30.851  28.401  1.00  0.00     0.338 C 
ATOM     30  O   UNL A   1      34.291  31.864  29.036  1.00  0.00    -0.246 OA
BRANCH  29  31
ATOM     31  C   UNL A   1      35.815  30.157  28.439  1.00  0.00     0.060 A 
ATOM     32  C   UNL A   1      36.234  29.718  29.700  1.00  0.00     0.016 A 
ATOM     33  C   UNL A   1      36.655  29.994  27.333  1.00  0.00     0.016 A 
ATOM     34  C   UNL A   1      37.525  29.229  29.885  1.00  0.00     0.010 A 
ATOM     35  C   UNL A   1      37.956  29.489  27.518  1.00  0.00     0.010 A 
ATOM     36  C   UNL A   1      38.419  29.166  28.809  1.00  0.00    -0.014 A 
BRANCH  36  37
ATOM     37  C   UNL A   1      39.863  28.966  29.123  1.00  0.00     0.031 A 
ATOM     38  C   UNL A   1      40.514  27.656  28.753  1.00  0.00     0.074 A 
ATOM     39  C   UNL A   1      40.625  29.976  29.585  1.00  0.00     0.049 A 
ATOM     40  N   UNL A   1      41.783  27.333  28.737  1.00  0.00    -0.248 NA
ATOM     41  C   UNL A   1      39.616  26.566  28.336  1.00  0.00     0.031 C 
ATOM     42  C   UNL A   1      40.138  31.303  29.957  1.00  0.00     0.029 A 
ATOM     43  N   UNL A   1      41.984  30.050  29.788  1.00  0.00    -0.354 N 
ATOM     44  C   UNL A   1      41.836  26.015  28.297  1.00  0.00     0.074 A 
ATOM     45  C   UNL A   1      40.470  25.580  28.106  1.00  0.00     0.031 C 
ATOM     46  C   UNL A   1      41.183  32.066  30.325  1.00  0.00     0.029 A 
ATOM     47  C   UNL A   1      42.414  31.283  30.218  1.00  0.00     0.049 A 
ATOM     48  H   UNL A   1      42.591  29.289  29.641  1.00  0.00     0.167 HD
ATOM     49  C   UNL A   1      42.919  25.238  28.052  1.00  0.00     0.037 A 
ATOM     50  C   UNL A   1      43.658  31.737  30.478  1.00  0.00     0.037 A 
ATOM     51  C   UNL A   1      44.283  25.661  28.237  1.00  0.00     0.049 A 
ATOM     52  C   UNL A   1      44.848  30.841  30.239  1.00  0.00     0.074 A 
ATOM     53  C   UNL A   1      45.445  24.949  27.995  1.00  0.00     0.029 A 
ATOM     54  N   UNL A   1      44.669  26.902  28.718  1.00  0.00    -0.354 N 
ATOM     55  N   UNL A   1      44.881  29.615  29.769  1.00  0.00    -0.248 NA
ATOM     56  C   UNL A   1      46.173  31.398  30.547  1.00  0.00     0.031 C 
ATOM     57  C   UNL A   1      46.533  25.742  28.375  1.00  0.00     0.029 A 
ATOM     58  C   UNL A   1      46.050  26.969  28.801  1.00  0.00     0.049 A 
ATOM     59  H   UNL A   1      44.052  27.630  28.963  1.00  0.00     0.167 HD
ATOM     60  C   UNL A   1      46.229  29.275  29.684  1.00  0.00     0.074 A 
ATOM     61  C   UNL A   1      46.979  30.423  30.149  1.00  0.00     0.031 C 
ATOM     62  C   UNL A   1      46.793  28.120  29.250  1.00  0.00     0.037 A 
BRANCH  49  63
ATOM     63  C   UNL A   1      42.669  23.835  27.570  1.00  0.00     0.058 A 
ATOM     64  C   UNL A   1      42.634  23.516  26.203  1.00  0.00     0.135 A 
ATOM     65  C   UNL A   1      42.479  22.791  28.489  1.00  0.00     0.135 A 
ATOM     66  F   UNL A   1      42.793  24.479  25.281  1.00  0.00    -0.206 F 
ATOM     67  C   UNL A   1      42.388  22.219  25.764  1.00  0.00     0.059 A 
ATOM     68  C   UNL A   1      42.258  21.481  28.074  1.00  0.00     0.059 A 
ATOM     69  F   UNL A   1      42.503  23.040  29.808  1.00  0.00    -0.206 F 
ATOM     70  C   UNL A   1      42.196  21.209  26.708  1.00  0.00     0.060 A 
BRANCH  70  71
ATOM     71  S   UNL A   1      41.866  19.533  26.126  1.00  0.00     0.124 S 
ATOM     72  O   UNL A   1      42.278  18.738  27.279  1.00  0.00    -0.237 OA
ATOM     73  O   UNL A   1      40.430  19.569  25.863  1.00  0.00    -0.237 OA
ATOM     74  O   UNL A   1      42.713  19.409  24.944  1.00  0.00    -0.744 OA
ENDBRANCH  70  71
ENDBRANCH  49  63
BRANCH  50  75
ATOM     75  C   UNL A   1      43.856  33.127  30.973  1.00  0.00     0.058 A 
ATOM     76  C   UNL A   1      44.053  34.196  30.085  1.00  0.00     0.135 A 
ATOM     77  C   UNL A   1      43.876  33.410  32.348  1.00  0.00     0.135 A 
ATOM     78  F   UNL A   1      44.058  33.977  28.761  1.00  0.00    -0.206 F 
ATOM     79  C   UNL A   1      44.282  35.492  30.542  1.00  0.00     0.059 A 
ATOM     80  C   UNL A   1      44.078  34.700  32.827  1.00  0.00     0.059 A 
ATOM     81  F   UNL A   1      43.686  32.424  33.238  1.00  0.00    -0.206 F 
ATOM     82  C   UNL A   1      44.293  35.733  31.916  1.00  0.00     0.060 A 
BRANCH  82  83
ATOM     83  S   UNL A   1      44.554  37.422  32.499  1.00  0.00     0.124 S 
ATOM     84  O   UNL A   1      44.027  38.204  31.387  1.00  0.00    -0.237 OA
ATOM     85  O   UNL A   1      43.768  37.448  33.729  1.00  0.00    -0.237 OA
ATOM     86  O   UNL A   1      46.001  37.491  32.689  1.00  0.00    -0.744 OA
ENDBRANCH  82  83
ENDBRANCH  50  75
BRANCH  62  87
ATOM     87  C   UNL A   1      48.297  28.050  29.200  1.00  0.00     0.058 A 
ATOM     88  C   UNL A   1      49.025  28.434  28.063  1.00  0.00     0.135 A 
ATOM     89  C   UNL A   1      49.022  27.628  30.326  1.00  0.00     0.135 A 
ATOM     90  F   UNL A   1      48.384  28.846  26.959  1.00  0.00    -0.206 F 
ATOM     91  C   UNL A   1      50.415  28.367  28.032  1.00  0.00     0.059 A 
ATOM     92  C   UNL A   1      50.414  27.579  30.328  1.00  0.00     0.059 A 
ATOM     93  F   UNL A   1      48.379  27.263  31.448  1.00  0.00    -0.206 F 
ATOM     94  C   UNL A   1      51.101  27.935  29.169  1.00  0.00     0.060 A 
BRANCH  94  95
ATOM     95  S   UNL A   1      52.905  27.862  29.122  1.00  0.00     0.124 S 
ATOM     96  O   UNL A   1      53.146  26.432  29.288  1.00  0.00    -0.237 OA
ATOM     97  O   UNL A   1      53.208  28.406  27.802  1.00  0.00    -0.237 OA
ATOM     98  O   UNL A   1      53.308  28.701  30.247  1.00  0.00    -0.744 OA
ENDBRANCH  94  95
ENDBRANCH  62  87
ENDBRANCH  36  37
ENDBRANCH  29  31
ENDBRANCH  28  29
ENDBRANCH  27  28
ENDBRANCH   1  27
TORSDOF 19
ENDMDL
