MODEL 1
REMARK VINA RESULT:     -11.0      0.000      0.000
REMARK SMILES Cc1ccc(NC(=O)C[C@@H](C(=O)OCCOC(=O)c2ccc(-c3c4nc(c(-c5c(F)cc(S(=O)(=O)[O-])cc5F)c5ccc([nH]5)c(-c5c(F)cc(S(=O)(=O)[O-])cc5F)c5nc(c(-c6c(F)cc(S(=O)(=O)[O-])cc6F)c6ccc3[nH]6)C=C5)C=C4)cc2)[NH+](C)C)cc1Cl
REMARK SMILES IDX 14 1 13 2 11 3 12 4 10 5 9 6 7 7 6 8 8 10 5 11 1 12 2 13
REMARK SMILES IDX 3 14 89 15 4 16 88 17 90 18 85 19 86 20 87 21 15 23 16 24
REMARK SMILES IDX 17 25 18 26 19 27 20 28 84 29 21 30 83 31 22 32 23 33 24 34
REMARK SMILES IDX 77 35 25 36 82 37 76 38 78 39 26 40 81 41 75 42 74 43 27 45
REMARK SMILES IDX 61 46 40 47 60 48 41 49 44 50 59 51 79 52 42 53 43 54 58 56
REMARK SMILES IDX 80 57 45 58 28 59 29 60 38 61 30 62 31 63 37 64 39 65 32 66
REMARK SMILES IDX 33 67 34 68 35 69 36 70 62 71 63 72 72 73 64 74 65 75 71 76
REMARK SMILES IDX 73 77 66 78 67 79 68 80 69 81 70 82 46 83 47 84 56 85 48 86
REMARK SMILES IDX 49 87 55 88 57 89 50 90 51 91 52 92 53 93 54 94
REMARK H PARENT 6 9 85 22 78 44 44 55
REMARK Flexibility Score: inf
ROOT
ATOM      1  C   UNL A   1      38.118  22.306  25.980  1.00  0.00     0.274 C 
ENDROOT
BRANCH   1   2
ATOM      2  O   UNL A   1      37.102  23.189  25.469  1.00  0.00    -0.458 OA
BRANCH   2   3
ATOM      3  C   UNL A   1      36.442  22.793  24.353  1.00  0.00     0.365 C 
ATOM      4  O   UNL A   1      37.007  22.280  23.391  1.00  0.00    -0.245 OA
BRANCH   3   5
ATOM      5  C   UNL A   1      34.912  23.080  24.411  1.00  0.00     0.304 C 
BRANCH   5   6
ATOM      6  C   UNL A   1      34.565  24.282  25.342  1.00  0.00     0.177 C 
BRANCH   6   7
ATOM      7  C   UNL A   1      33.533  23.883  26.376  1.00  0.00     0.231 C 
ATOM      8  N   UNL A   1      32.270  24.390  26.446  1.00  0.00    -0.326 N 
ATOM      9  H   UNL A   1      31.721  23.950  27.134  1.00  0.00     0.169 HD
ATOM     10  O   UNL A   1      33.798  22.976  27.178  1.00  0.00    -0.274 OA
BRANCH   8  11
ATOM     11  C   UNL A   1      31.576  25.398  25.759  1.00  0.00     0.042 A 
ATOM     12  C   UNL A   1      29.781  28.106  22.918  1.00  0.00     0.046 C 
ATOM     13  C   UNL A   1      30.263  27.227  24.041  1.00  0.00    -0.032 A 
ATOM     14  C   UNL A   1      29.992  25.856  23.967  1.00  0.00     0.007 A 
ATOM     15  C   UNL A   1      31.102  27.678  25.073  1.00  0.00     0.046 A 
ATOM     16  C   UNL A   1      30.616  24.959  24.838  1.00  0.00     0.026 A 
ATOM     17  C   UNL A   1      31.759  26.766  25.925  1.00  0.00     0.047 A 
ATOM     18  Cl  UNL A   1      31.421  29.366  25.295  1.00  0.00    -0.084 Cl
ENDBRANCH   8  11
ENDBRANCH   6   7
ENDBRANCH   5   6
BRANCH   5  19
ATOM     19  N   UNL A   1      34.083  21.843  24.633  1.00  0.00    -0.328 N 
ATOM     20  C   UNL A   1      32.989  21.610  23.695  1.00  0.00     0.333 C 
ATOM     21  C   UNL A   1      34.787  20.627  25.001  1.00  0.00     0.333 C 
ATOM     22  H   UNL A   1      33.623  22.126  25.498  1.00  0.00     0.348 HD
ENDBRANCH   5  19
ENDBRANCH   3   5
ENDBRANCH   2   3
ENDBRANCH   1   2
BRANCH   1  23
ATOM     23  C   UNL A   1      39.373  23.100  26.332  1.00  0.00     0.275 C 
BRANCH  23  24
ATOM     24  O   UNL A   1      39.117  24.511  26.414  1.00  0.00    -0.458 OA
BRANCH  24  25
ATOM     25  C   UNL A   1      40.239  25.257  26.474  1.00  0.00     0.338 C 
ATOM     26  O   UNL A   1      41.182  25.254  25.704  1.00  0.00    -0.246 OA
BRANCH  25  27
ATOM     27  C   UNL A   1      40.273  26.105  27.645  1.00  0.00     0.060 A 
ATOM     28  C   UNL A   1      41.288  27.046  27.762  1.00  0.00     0.016 A 
ATOM     29  C   UNL A   1      39.382  25.838  28.686  1.00  0.00     0.016 A 
ATOM     30  C   UNL A   1      41.418  27.739  28.950  1.00  0.00     0.010 A 
ATOM     31  C   UNL A   1      39.440  26.616  29.831  1.00  0.00     0.010 A 
ATOM     32  C   UNL A   1      40.444  27.585  29.953  1.00  0.00    -0.014 A 
BRANCH  32  33
ATOM     33  C   UNL A   1      40.393  28.580  31.040  1.00  0.00     0.031 A 
ATOM     34  C   UNL A   1      41.366  28.534  32.173  1.00  0.00     0.074 A 
ATOM     35  C   UNL A   1      39.420  29.509  30.953  1.00  0.00     0.049 A 
ATOM     36  N   UNL A   1      41.419  29.295  33.231  1.00  0.00    -0.248 NA
ATOM     37  C   UNL A   1      42.393  27.481  32.136  1.00  0.00     0.031 C 
ATOM     38  C   UNL A   1      38.409  29.564  29.888  1.00  0.00     0.029 A 
ATOM     39  N   UNL A   1      39.134  30.596  31.727  1.00  0.00    -0.354 N 
ATOM     40  C   UNL A   1      42.450  28.789  34.011  1.00  0.00     0.074 A 
ATOM     41  C   UNL A   1      42.997  27.652  33.304  1.00  0.00     0.031 C 
ATOM     42  C   UNL A   1      37.683  30.680  30.019  1.00  0.00     0.029 A 
ATOM     43  C   UNL A   1      38.109  31.367  31.227  1.00  0.00     0.049 A 
ATOM     44  H   UNL A   1      39.612  30.807  32.562  1.00  0.00     0.167 HD
ATOM     45  C   UNL A   1      42.877  29.244  35.213  1.00  0.00     0.037 A 
ATOM     46  C   UNL A   1      37.567  32.500  31.705  1.00  0.00     0.037 A 
ATOM     47  C   UNL A   1      42.307  30.402  35.857  1.00  0.00     0.049 A 
ATOM     48  C   UNL A   1      38.122  33.029  32.992  1.00  0.00     0.074 A 
ATOM     49  C   UNL A   1      42.635  30.969  37.073  1.00  0.00     0.029 A 
ATOM     50  N   UNL A   1      41.287  31.179  35.313  1.00  0.00    -0.354 N 
ATOM     51  N   UNL A   1      39.081  32.524  33.734  1.00  0.00    -0.248 NA
ATOM     52  C   UNL A   1      37.522  34.255  33.521  1.00  0.00     0.031 C 
ATOM     53  C   UNL A   1      41.802  32.077  37.273  1.00  0.00     0.029 A 
ATOM     54  C   UNL A   1      40.978  32.224  36.166  1.00  0.00     0.049 A 
ATOM     55  H   UNL A   1      40.851  31.010  34.448  1.00  0.00     0.167 HD
ATOM     56  C   UNL A   1      39.192  33.361  34.832  1.00  0.00     0.074 A 
ATOM     57  C   UNL A   1      38.226  34.429  34.631  1.00  0.00     0.031 C 
ATOM     58  C   UNL A   1      39.998  33.254  35.916  1.00  0.00     0.037 A 
BRANCH  45  59
ATOM     59  C   UNL A   1      43.968  28.472  35.907  1.00  0.00     0.058 A 
ATOM     60  C   UNL A   1      43.692  27.382  36.748  1.00  0.00     0.135 A 
ATOM     61  C   UNL A   1      45.315  28.831  35.734  1.00  0.00     0.135 A 
ATOM     62  F   UNL A   1      42.422  27.003  36.968  1.00  0.00    -0.206 F 
ATOM     63  C   UNL A   1      44.705  26.698  37.416  1.00  0.00     0.059 A 
ATOM     64  C   UNL A   1      46.347  28.147  36.373  1.00  0.00     0.059 A 
ATOM     65  F   UNL A   1      45.642  29.867  34.946  1.00  0.00    -0.206 F 
ATOM     66  C   UNL A   1      46.031  27.093  37.228  1.00  0.00     0.060 A 
BRANCH  66  67
ATOM     67  S   UNL A   1      47.334  26.209  38.114  1.00  0.00     0.124 S 
ATOM     68  O   UNL A   1      47.351  24.932  37.408  1.00  0.00    -0.237 OA
ATOM     69  O   UNL A   1      48.497  27.066  37.900  1.00  0.00    -0.237 OA
ATOM     70  O   UNL A   1      46.839  26.162  39.487  1.00  0.00    -0.744 OA
ENDBRANCH  66  67
ENDBRANCH  45  59
BRANCH  46  71
ATOM     71  C   UNL A   1      36.464  33.165  30.963  1.00  0.00     0.058 A 
ATOM     72  C   UNL A   1      35.152  33.162  31.456  1.00  0.00     0.135 A 
ATOM     73  C   UNL A   1      36.716  33.901  29.792  1.00  0.00     0.135 A 
ATOM     74  F   UNL A   1      34.858  32.479  32.573  1.00  0.00    -0.206 F 
ATOM     75  C   UNL A   1      34.129  33.859  30.819  1.00  0.00     0.059 A 
ATOM     76  C   UNL A   1      35.718  34.630  29.153  1.00  0.00     0.059 A 
ATOM     77  F   UNL A   1      37.960  33.963  29.291  1.00  0.00    -0.206 F 
ATOM     78  C   UNL A   1      34.425  34.598  29.671  1.00  0.00     0.060 A 
BRANCH  78  79
ATOM     79  S   UNL A   1      33.115  35.569  28.894  1.00  0.00     0.124 S 
ATOM     80  O   UNL A   1      32.410  34.548  28.126  1.00  0.00    -0.237 OA
ATOM     81  O   UNL A   1      32.401  36.109  30.046  1.00  0.00    -0.237 OA
ATOM     82  O   UNL A   1      33.852  36.554  28.106  1.00  0.00    -0.744 OA
ENDBRANCH  78  79
ENDBRANCH  46  71
BRANCH  58  83
ATOM     83  C   UNL A   1      39.852  34.325  36.951  1.00  0.00     0.058 A 
ATOM     84  C   UNL A   1      40.503  35.560  36.815  1.00  0.00     0.135 A 
ATOM     85  C   UNL A   1      39.032  34.122  38.071  1.00  0.00     0.135 A 
ATOM     86  F   UNL A   1      41.306  35.790  35.763  1.00  0.00    -0.206 F 
ATOM     87  C   UNL A   1      40.362  36.556  37.771  1.00  0.00     0.059 A 
ATOM     88  C   UNL A   1      38.860  35.113  39.028  1.00  0.00     0.059 A 
ATOM     89  F   UNL A   1      38.388  32.956  38.236  1.00  0.00    -0.206 F 
ATOM     90  C   UNL A   1      39.539  36.323  38.875  1.00  0.00     0.060 A 
BRANCH  90  91
ATOM     91  S   UNL A   1      39.342  37.633  40.098  1.00  0.00     0.124 S 
ATOM     92  O   UNL A   1      40.638  38.299  40.022  1.00  0.00    -0.237 OA
ATOM     93  O   UNL A   1      38.209  38.387  39.571  1.00  0.00    -0.237 OA
ATOM     94  O   UNL A   1      39.080  36.903  41.334  1.00  0.00    -0.744 OA
ENDBRANCH  90  91
ENDBRANCH  58  83
ENDBRANCH  32  33
ENDBRANCH  25  27
ENDBRANCH  24  25
ENDBRANCH  23  24
ENDBRANCH   1  23
TORSDOF 18
ENDMDL
MODEL 2
REMARK VINA RESULT:     -10.8      5.185     10.658
REMARK SMILES Cc1ccc(NC(=O)C[C@@H](C(=O)OCCOC(=O)c2ccc(-c3c4nc(c(-c5c(F)cc(S(=O)(=O)[O-])cc5F)c5ccc([nH]5)c(-c5c(F)cc(S(=O)(=O)[O-])cc5F)c5nc(c(-c6c(F)cc(S(=O)(=O)[O-])cc6F)c6ccc3[nH]6)C=C5)C=C4)cc2)[NH+](C)C)cc1Cl
REMARK SMILES IDX 14 1 13 2 11 3 12 4 10 5 9 6 7 7 6 8 8 10 5 11 1 12 2 13
REMARK SMILES IDX 3 14 89 15 4 16 88 17 90 18 85 19 86 20 87 21 15 23 16 24
REMARK SMILES IDX 17 25 18 26 19 27 20 28 84 29 21 30 83 31 22 32 23 33 24 34
REMARK SMILES IDX 77 35 25 36 82 37 76 38 78 39 26 40 81 41 75 42 74 43 27 45
REMARK SMILES IDX 61 46 40 47 60 48 41 49 44 50 59 51 79 52 42 53 43 54 58 56
REMARK SMILES IDX 80 57 45 58 28 59 29 60 38 61 30 62 31 63 37 64 39 65 32 66
REMARK SMILES IDX 33 67 34 68 35 69 36 70 62 71 63 72 72 73 64 74 65 75 71 76
REMARK SMILES IDX 73 77 66 78 67 79 68 80 69 81 70 82 46 83 47 84 56 85 48 86
REMARK SMILES IDX 49 87 55 88 57 89 50 90 51 91 52 92 53 93 54 94
REMARK H PARENT 6 9 85 22 78 44 44 55
REMARK Flexibility Score: inf
ROOT
ATOM      1  C   UNL A   1      32.085  29.754  25.753  1.00  0.00     0.274 C 
ENDROOT
BRANCH   1   2
ATOM      2  O   UNL A   1      31.441  28.530  26.152  1.00  0.00    -0.458 OA
BRANCH   2   3
ATOM      3  C   UNL A   1      31.954  27.373  25.667  1.00  0.00     0.365 C 
ATOM      4  O   UNL A   1      33.147  27.090  25.744  1.00  0.00    -0.245 OA
BRANCH   3   5
ATOM      5  C   UNL A   1      30.886  26.466  24.987  1.00  0.00     0.304 C 
BRANCH   5   6
ATOM      6  C   UNL A   1      31.385  25.002  24.788  1.00  0.00     0.177 C 
BRANCH   6   7
ATOM      7  C   UNL A   1      31.352  24.239  26.097  1.00  0.00     0.231 C 
ATOM      8  N   UNL A   1      32.355  23.435  26.550  1.00  0.00    -0.326 N 
ATOM      9  H   UNL A   1      32.185  23.090  27.456  1.00  0.00     0.169 HD
ATOM     10  O   UNL A   1      30.396  24.400  26.868  1.00  0.00    -0.274 OA
BRANCH   8  11
ATOM     11  C   UNL A   1      33.574  22.988  26.016  1.00  0.00     0.042 A 
ATOM     12  C   UNL A   1      37.187  20.906  24.904  1.00  0.00     0.046 C 
ATOM     13  C   UNL A   1      35.951  21.738  25.118  1.00  0.00    -0.032 A 
ATOM     14  C   UNL A   1      34.705  21.130  24.924  1.00  0.00     0.007 A 
ATOM     15  C   UNL A   1      35.973  23.038  25.650  1.00  0.00     0.046 A 
ATOM     16  C   UNL A   1      33.531  21.763  25.339  1.00  0.00     0.026 A 
ATOM     17  C   UNL A   1      34.789  23.658  26.101  1.00  0.00     0.047 A 
ATOM     18  Cl  UNL A   1      37.462  23.903  25.839  1.00  0.00    -0.084 Cl
ENDBRANCH   8  11
ENDBRANCH   6   7
ENDBRANCH   5   6
BRANCH   5  19
ATOM     19  N   UNL A   1      30.259  27.094  23.772  1.00  0.00    -0.328 N 
ATOM     20  C   UNL A   1      30.971  26.935  22.508  1.00  0.00     0.333 C 
ATOM     21  C   UNL A   1      28.817  26.979  23.631  1.00  0.00     0.333 C 
ATOM     22  H   UNL A   1      30.398  28.074  24.022  1.00  0.00     0.348 HD
ENDBRANCH   5  19
ENDBRANCH   3   5
ENDBRANCH   2   3
ENDBRANCH   1   2
BRANCH   1  23
ATOM     23  C   UNL A   1      32.685  30.452  26.971  1.00  0.00     0.275 C 
BRANCH  23  24
ATOM     24  O   UNL A   1      34.012  29.986  27.263  1.00  0.00    -0.458 OA
BRANCH  24  25
ATOM     25  C   UNL A   1      34.640  30.715  28.208  1.00  0.00     0.338 C 
ATOM     26  O   UNL A   1      34.200  31.657  28.843  1.00  0.00    -0.246 OA
BRANCH  25  27
ATOM     27  C   UNL A   1      36.010  30.296  28.407  1.00  0.00     0.060 A 
ATOM     28  C   UNL A   1      36.876  30.299  27.321  1.00  0.00     0.016 A 
ATOM     29  C   UNL A   1      36.366  29.753  29.642  1.00  0.00     0.016 A 
ATOM     30  C   UNL A   1      38.132  29.744  27.471  1.00  0.00     0.010 A 
ATOM     31  C   UNL A   1      37.665  29.306  29.825  1.00  0.00     0.010 A 
ATOM     32  C   UNL A   1      38.557  29.325  28.745  1.00  0.00    -0.014 A 
BRANCH  32  33
ATOM     33  C   UNL A   1      39.995  29.081  28.960  1.00  0.00     0.031 A 
ATOM     34  C   UNL A   1      40.866  30.116  29.595  1.00  0.00     0.074 A 
ATOM     35  C   UNL A   1      40.467  27.890  28.542  1.00  0.00     0.049 A 
ATOM     36  N   UNL A   1      42.153  30.080  29.801  1.00  0.00    -0.248 NA
ATOM     37  C   UNL A   1      40.220  31.366  30.026  1.00  0.00     0.031 C 
ATOM     38  C   UNL A   1      39.662  26.861  27.866  1.00  0.00     0.029 A 
ATOM     39  N   UNL A   1      41.701  27.317  28.647  1.00  0.00    -0.354 N 
ATOM     40  C   UNL A   1      42.485  31.316  30.341  1.00  0.00     0.074 A 
ATOM     41  C   UNL A   1      41.262  32.082  30.430  1.00  0.00     0.031 C 
ATOM     42  C   UNL A   1      40.395  25.753  27.710  1.00  0.00     0.029 A 
ATOM     43  C   UNL A   1      41.742  26.021  28.184  1.00  0.00     0.049 A 
ATOM     44  H   UNL A   1      42.485  27.784  29.016  1.00  0.00     0.167 HD
ATOM     45  C   UNL A   1      43.712  31.754  30.711  1.00  0.00     0.037 A 
ATOM     46  C   UNL A   1      42.766  25.152  28.137  1.00  0.00     0.037 A 
ATOM     47  C   UNL A   1      44.894  30.931  30.622  1.00  0.00     0.049 A 
ATOM     48  C   UNL A   1      44.093  25.636  28.638  1.00  0.00     0.074 A 
ATOM     49  C   UNL A   1      46.198  31.245  30.955  1.00  0.00     0.029 A 
ATOM     50  N   UNL A   1      44.900  29.613  30.174  1.00  0.00    -0.354 N 
ATOM     51  N   UNL A   1      44.398  26.819  29.122  1.00  0.00    -0.248 NA
ATOM     52  C   UNL A   1      45.212  24.695  28.574  1.00  0.00     0.031 C 
ATOM     53  C   UNL A   1      46.994  30.124  30.689  1.00  0.00     0.029 A 
ATOM     54  C   UNL A   1      46.183  29.098  30.226  1.00  0.00     0.049 A 
ATOM     55  H   UNL A   1      44.107  29.119  29.866  1.00  0.00     0.167 HD
ATOM     56  C   UNL A   1      45.753  26.773  29.406  1.00  0.00     0.074 A 
ATOM     57  C   UNL A   1      46.196  25.428  29.077  1.00  0.00     0.031 C 
ATOM     58  C   UNL A   1      46.565  27.751  29.876  1.00  0.00     0.037 A 
BRANCH  45  59
ATOM     59  C   UNL A   1      43.832  33.174  31.199  1.00  0.00     0.058 A 
ATOM     60  C   UNL A   1      43.856  33.493  32.566  1.00  0.00     0.135 A 
ATOM     61  C   UNL A   1      43.918  34.236  30.284  1.00  0.00     0.135 A 
ATOM     62  F   UNL A   1      43.758  32.522  33.489  1.00  0.00    -0.206 F 
ATOM     63  C   UNL A   1      43.928  34.812  33.008  1.00  0.00     0.059 A 
ATOM     64  C   UNL A   1      44.014  35.562  30.703  1.00  0.00     0.059 A 
ATOM     65  F   UNL A   1      43.895  33.994  28.964  1.00  0.00    -0.206 F 
ATOM     66  C   UNL A   1      43.999  35.841  32.068  1.00  0.00     0.060 A 
BRANCH  66  67
ATOM     67  S   UNL A   1      44.074  37.549  32.653  1.00  0.00     0.124 S 
ATOM     68  O   UNL A   1      45.413  37.600  33.231  1.00  0.00    -0.237 OA
ATOM     69  O   UNL A   1      43.886  38.313  31.423  1.00  0.00    -0.237 OA
ATOM     70  O   UNL A   1      42.974  37.629  33.609  1.00  0.00    -0.744 OA
ENDBRANCH  66  67
ENDBRANCH  45  59
BRANCH  46  71
ATOM     71  C   UNL A   1      42.553  23.782  27.600  1.00  0.00     0.058 A 
ATOM     72  C   UNL A   1      42.620  23.524  26.224  1.00  0.00     0.135 A 
ATOM     73  C   UNL A   1      42.371  22.685  28.459  1.00  0.00     0.135 A 
ATOM     74  F   UNL A   1      42.797  24.535  25.360  1.00  0.00    -0.206 F 
ATOM     75  C   UNL A   1      42.514  22.231  25.716  1.00  0.00     0.059 A 
ATOM     76  C   UNL A   1      42.292  21.381  27.979  1.00  0.00     0.059 A 
ATOM     77  F   UNL A   1      42.328  22.870  29.788  1.00  0.00    -0.206 F 
ATOM     78  C   UNL A   1      42.358  21.164  26.604  1.00  0.00     0.060 A 
BRANCH  78  79
ATOM     79  S   UNL A   1      42.305  19.482  25.950  1.00  0.00     0.124 S 
ATOM     80  O   UNL A   1      43.202  19.585  24.804  1.00  0.00    -0.237 OA
ATOM     81  O   UNL A   1      42.795  18.693  27.075  1.00  0.00    -0.237 OA
ATOM     82  O   UNL A   1      40.892  19.292  25.631  1.00  0.00    -0.744 OA
ENDBRANCH  78  79
ENDBRANCH  46  71
BRANCH  58  83
ATOM     83  C   UNL A   1      48.005  27.381  30.051  1.00  0.00     0.058 A 
ATOM     84  C   UNL A   1      48.944  27.615  29.035  1.00  0.00     0.135 A 
ATOM     85  C   UNL A   1      48.450  26.814  31.254  1.00  0.00     0.135 A 
ATOM     86  F   UNL A   1      48.556  28.145  27.863  1.00  0.00    -0.206 F 
ATOM     87  C   UNL A   1      50.280  27.279  29.199  1.00  0.00     0.059 A 
ATOM     88  C   UNL A   1      49.786  26.490  31.447  1.00  0.00     0.059 A 
ATOM     89  F   UNL A   1      47.585  26.579  32.252  1.00  0.00    -0.206 F 
ATOM     90  C   UNL A   1      50.691  26.715  30.409  1.00  0.00     0.060 A 
BRANCH  90  91
ATOM     91  S   UNL A   1      52.435  26.304  30.622  1.00  0.00     0.124 S 
ATOM     92  O   UNL A   1      52.832  26.002  29.251  1.00  0.00    -0.237 OA
ATOM     93  O   UNL A   1      52.980  27.536  31.184  1.00  0.00    -0.237 OA
ATOM     94  O   UNL A   1      52.404  25.166  31.534  1.00  0.00    -0.744 OA
ENDBRANCH  90  91
ENDBRANCH  58  83
ENDBRANCH  32  33
ENDBRANCH  25  27
ENDBRANCH  24  25
ENDBRANCH  23  24
ENDBRANCH   1  23
TORSDOF 18
ENDMDL
MODEL 3
REMARK VINA RESULT:     -10.8      7.123     12.266
REMARK SMILES Cc1ccc(NC(=O)C[C@@H](C(=O)OCCOC(=O)c2ccc(-c3c4nc(c(-c5c(F)cc(S(=O)(=O)[O-])cc5F)c5ccc([nH]5)c(-c5c(F)cc(S(=O)(=O)[O-])cc5F)c5nc(c(-c6c(F)cc(S(=O)(=O)[O-])cc6F)c6ccc3[nH]6)C=C5)C=C4)cc2)[NH+](C)C)cc1Cl
REMARK SMILES IDX 14 1 13 2 11 3 12 4 10 5 9 6 7 7 6 8 8 10 5 11 1 12 2 13
REMARK SMILES IDX 3 14 89 15 4 16 88 17 90 18 85 19 86 20 87 21 15 23 16 24
REMARK SMILES IDX 17 25 18 26 19 27 20 28 84 29 21 30 83 31 22 32 23 33 24 34
REMARK SMILES IDX 77 35 25 36 82 37 76 38 78 39 26 40 81 41 75 42 74 43 27 45
REMARK SMILES IDX 61 46 40 47 60 48 41 49 44 50 59 51 79 52 42 53 43 54 58 56
REMARK SMILES IDX 80 57 45 58 28 59 29 60 38 61 30 62 31 63 37 64 39 65 32 66
REMARK SMILES IDX 33 67 34 68 35 69 36 70 62 71 63 72 72 73 64 74 65 75 71 76
REMARK SMILES IDX 73 77 66 78 67 79 68 80 69 81 70 82 46 83 47 84 56 85 48 86
REMARK SMILES IDX 49 87 55 88 57 89 50 90 51 91 52 92 53 93 54 94
REMARK H PARENT 6 9 85 22 78 44 44 55
REMARK Flexibility Score: inf
ROOT
ATOM      1  C   UNL A   1      33.805  29.960  26.680  1.00  0.00     0.274 C 
ENDROOT
BRANCH   1   2
ATOM      2  O   UNL A   1      32.702  29.103  27.029  1.00  0.00    -0.458 OA
BRANCH   2   3
ATOM      3  C   UNL A   1      32.642  27.893  26.421  1.00  0.00     0.365 C 
ATOM      4  O   UNL A   1      33.551  27.068  26.489  1.00  0.00    -0.245 OA
BRANCH   3   5
ATOM      5  C   UNL A   1      31.326  27.674  25.618  1.00  0.00     0.304 C 
BRANCH   5   6
ATOM      6  C   UNL A   1      30.751  26.235  25.795  1.00  0.00     0.177 C 
BRANCH   6   7
ATOM      7  C   UNL A   1      30.229  25.697  24.478  1.00  0.00     0.231 C 
ATOM      8  N   UNL A   1      30.805  24.683  23.774  1.00  0.00    -0.326 N 
ATOM      9  H   UNL A   1      30.278  24.420  22.986  1.00  0.00     0.169 HD
ATOM     10  O   UNL A   1      29.162  26.135  24.026  1.00  0.00    -0.274 OA
BRANCH   8  11
ATOM     11  C   UNL A   1      31.980  23.928  23.918  1.00  0.00     0.042 A 
ATOM     12  C   UNL A   1      35.081  21.082  24.870  1.00  0.00     0.046 C 
ATOM     13  C   UNL A   1      34.118  22.129  24.380  1.00  0.00    -0.032 A 
ATOM     14  C   UNL A   1      32.949  21.702  23.739  1.00  0.00     0.007 A 
ATOM     15  C   UNL A   1      34.248  23.498  24.667  1.00  0.00     0.046 A 
ATOM     16  C   UNL A   1      31.908  22.599  23.483  1.00  0.00     0.026 A 
ATOM     17  C   UNL A   1      33.182  24.392  24.441  1.00  0.00     0.047 A 
ATOM     18  Cl  UNL A   1      35.698  24.130  25.376  1.00  0.00    -0.084 Cl
ENDBRANCH   8  11
ENDBRANCH   6   7
ENDBRANCH   5   6
BRANCH   5  19
ATOM     19  N   UNL A   1      31.411  28.155  24.195  1.00  0.00    -0.328 N 
ATOM     20  C   UNL A   1      30.667  29.367  23.866  1.00  0.00     0.333 C 
ATOM     21  C   UNL A   1      32.709  28.090  23.547  1.00  0.00     0.333 C 
ATOM     22  H   UNL A   1      30.884  27.402  23.752  1.00  0.00     0.348 HD
ENDBRANCH   5  19
ENDBRANCH   3   5
ENDBRANCH   2   3
ENDBRANCH   1   2
BRANCH   1  23
ATOM     23  C   UNL A   1      34.603  30.322  27.930  1.00  0.00     0.275 C 
BRANCH  23  24
ATOM     24  O   UNL A   1      35.587  29.326  28.252  1.00  0.00    -0.458 OA
BRANCH  24  25
ATOM     25  C   UNL A   1      36.381  29.671  29.286  1.00  0.00     0.338 C 
ATOM     26  O   UNL A   1      36.049  30.134  30.363  1.00  0.00    -0.246 OA
BRANCH  25  27
ATOM     27  C   UNL A   1      37.784  29.482  28.990  1.00  0.00     0.060 A 
ATOM     28  C   UNL A   1      38.668  29.266  30.039  1.00  0.00     0.016 A 
ATOM     29  C   UNL A   1      38.219  29.684  27.679  1.00  0.00     0.016 A 
ATOM     30  C   UNL A   1      40.024  29.252  29.774  1.00  0.00     0.010 A 
ATOM     31  C   UNL A   1      39.569  29.552  27.396  1.00  0.00     0.010 A 
ATOM     32  C   UNL A   1      40.470  29.310  28.441  1.00  0.00    -0.014 A 
BRANCH  32  33
ATOM     33  C   UNL A   1      41.865  28.932  28.151  1.00  0.00     0.031 A 
ATOM     34  C   UNL A   1      42.973  29.929  28.262  1.00  0.00     0.074 A 
ATOM     35  C   UNL A   1      42.071  27.655  27.775  1.00  0.00     0.049 A 
ATOM     36  N   UNL A   1      44.238  29.772  27.988  1.00  0.00    -0.248 NA
ATOM     37  C   UNL A   1      42.615  31.286  28.705  1.00  0.00     0.031 C 
ATOM     38  C   UNL A   1      41.010  26.652  27.601  1.00  0.00     0.029 A 
ATOM     39  N   UNL A   1      43.217  26.962  27.507  1.00  0.00    -0.354 N 
ATOM     40  C   UNL A   1      44.824  31.017  28.177  1.00  0.00     0.074 A 
ATOM     41  C   UNL A   1      43.773  31.922  28.590  1.00  0.00     0.031 C 
ATOM     42  C   UNL A   1      41.561  25.457  27.358  1.00  0.00     0.029 A 
ATOM     43  C   UNL A   1      43.001  25.625  27.262  1.00  0.00     0.049 A 
ATOM     44  H   UNL A   1      44.109  27.378  27.491  1.00  0.00     0.167 HD
ATOM     45  C   UNL A   1      46.124  31.354  28.005  1.00  0.00     0.037 A 
ATOM     46  C   UNL A   1      43.877  24.646  26.977  1.00  0.00     0.037 A 
ATOM     47  C   UNL A   1      47.133  30.399  27.616  1.00  0.00     0.049 A 
ATOM     48  C   UNL A   1      45.321  25.032  26.881  1.00  0.00     0.074 A 
ATOM     49  C   UNL A   1      48.482  30.600  27.399  1.00  0.00     0.029 A 
ATOM     50  N   UNL A   1      46.889  29.045  27.400  1.00  0.00    -0.354 N 
ATOM     51  N   UNL A   1      45.858  26.222  27.036  1.00  0.00    -0.248 NA
ATOM     52  C   UNL A   1      46.274  23.970  26.556  1.00  0.00     0.031 C 
ATOM     53  C   UNL A   1      49.050  29.373  27.034  1.00  0.00     0.029 A 
ATOM     54  C   UNL A   1      48.063  28.398  27.058  1.00  0.00     0.049 A 
ATOM     55  H   UNL A   1      46.009  28.611  27.480  1.00  0.00     0.167 HD
ATOM     56  C   UNL A   1      47.215  26.056  26.810  1.00  0.00     0.074 A 
ATOM     57  C   UNL A   1      47.417  24.641  26.549  1.00  0.00     0.031 C 
ATOM     58  C   UNL A   1      48.202  26.985  26.799  1.00  0.00     0.037 A 
BRANCH  45  59
ATOM     59  C   UNL A   1      46.505  32.799  28.195  1.00  0.00     0.058 A 
ATOM     60  C   UNL A   1      46.297  33.763  27.196  1.00  0.00     0.135 A 
ATOM     61  C   UNL A   1      47.095  33.227  29.396  1.00  0.00     0.135 A 
ATOM     62  F   UNL A   1      45.755  33.411  26.019  1.00  0.00    -0.206 F 
ATOM     63  C   UNL A   1      46.688  35.089  27.367  1.00  0.00     0.059 A 
ATOM     64  C   UNL A   1      47.472  34.553  29.599  1.00  0.00     0.059 A 
ATOM     65  F   UNL A   1      47.323  32.351  30.387  1.00  0.00    -0.206 F 
ATOM     66  C   UNL A   1      47.282  35.474  28.570  1.00  0.00     0.060 A 
BRANCH  66  67
ATOM     67  S   UNL A   1      47.802  37.193  28.772  1.00  0.00     0.124 S 
ATOM     68  O   UNL A   1      46.557  37.823  29.202  1.00  0.00    -0.237 OA
ATOM     69  O   UNL A   1      48.843  37.090  29.790  1.00  0.00    -0.237 OA
ATOM     70  O   UNL A   1      48.267  37.566  27.440  1.00  0.00    -0.744 OA
ENDBRANCH  66  67
ENDBRANCH  45  59
BRANCH  46  71
ATOM     71  C   UNL A   1      43.394  23.256  26.767  1.00  0.00     0.058 A 
ATOM     72  C   UNL A   1      43.411  22.666  25.496  1.00  0.00     0.135 A 
ATOM     73  C   UNL A   1      42.992  22.455  27.849  1.00  0.00     0.135 A 
ATOM     74  F   UNL A   1      43.791  23.385  24.428  1.00  0.00    -0.206 F 
ATOM     75  C   UNL A   1      43.049  21.335  25.302  1.00  0.00     0.059 A 
ATOM     76  C   UNL A   1      42.652  21.115  27.686  1.00  0.00     0.059 A 
ATOM     77  F   UNL A   1      42.982  22.960  29.093  1.00  0.00    -0.206 F 
ATOM     78  C   UNL A   1      42.678  20.565  26.407  1.00  0.00     0.060 A 
BRANCH  78  79
ATOM     79  S   UNL A   1      42.289  18.818  26.164  1.00  0.00     0.124 S 
ATOM     80  O   UNL A   1      42.588  18.267  27.481  1.00  0.00    -0.237 OA
ATOM     81  O   UNL A   1      40.878  18.861  25.795  1.00  0.00    -0.237 OA
ATOM     82  O   UNL A   1      43.197  18.420  25.092  1.00  0.00    -0.744 OA
ENDBRANCH  78  79
ENDBRANCH  46  71
BRANCH  58  83
ATOM     83  C   UNL A   1      49.576  26.478  26.491  1.00  0.00     0.058 A 
ATOM     84  C   UNL A   1      50.078  26.489  25.181  1.00  0.00     0.135 A 
ATOM     85  C   UNL A   1      50.404  26.003  27.519  1.00  0.00     0.135 A 
ATOM     86  F   UNL A   1      49.313  26.925  24.167  1.00  0.00    -0.206 F 
ATOM     87  C   UNL A   1      51.355  26.026  24.896  1.00  0.00     0.059 A 
ATOM     88  C   UNL A   1      51.692  25.555  27.259  1.00  0.00     0.059 A 
ATOM     89  F   UNL A   1      49.964  25.980  28.787  1.00  0.00    -0.206 F 
ATOM     90  C   UNL A   1      52.153  25.559  25.942  1.00  0.00     0.060 A 
BRANCH  90  91
ATOM     91  S   UNL A   1      53.820  24.982  25.565  1.00  0.00     0.124 S 
ATOM     92  O   UNL A   1      54.534  25.335  26.787  1.00  0.00    -0.237 OA
ATOM     93  O   UNL A   1      53.614  23.554  25.340  1.00  0.00    -0.237 OA
ATOM     94  O   UNL A   1      54.183  25.750  24.379  1.00  0.00    -0.744 OA
ENDBRANCH  90  91
ENDBRANCH  58  83
ENDBRANCH  32  33
ENDBRANCH  25  27
ENDBRANCH  24  25
ENDBRANCH  23  24
ENDBRANCH   1  23
TORSDOF 18
ENDMDL
