MODEL 1
REMARK VINA RESULT:     -11.2      0.000      0.000
REMARK SMILES COc1ccc(/C=C/c2nc(C(=O)OCCOC(=O)c3ccc(-c4c5nc(c(-c6c(F)cc(S(=O)(=O)[O-])cc6F)c6ccc([nH]6)c(-c6c(F)cc(S(=O)(=O)[O-])cc6F)c6nc(c(-c7c(F)cc(S(=O)(=O)[O-])cc7F)c7ccc4[nH]7)C=C6)C=C5)cc3)ccc2C#N)cc1F
REMARK SMILES IDX 15 1 14 2 12 3 13 4 11 5 9 6 10 7 88 8 87 9 86 10 8 11 7 12
REMARK SMILES IDX 6 13 3 14 4 15 92 16 5 17 91 18 93 19 2 20 1 21 89 22 90 23
REMARK SMILES IDX 16 24 17 25 18 26 19 27 20 28 21 29 85 30 22 31 84 32 23 33
REMARK SMILES IDX 24 34 25 35 78 36 26 37 83 38 77 39 79 40 27 41 82 42 76 43
REMARK SMILES IDX 75 44 28 46 62 47 41 48 61 49 42 50 45 51 60 52 80 53 43 54
REMARK SMILES IDX 44 55 59 57 81 58 46 59 29 60 30 61 39 62 31 63 32 64 38 65
REMARK SMILES IDX 40 66 33 67 34 68 35 69 36 70 37 71 63 72 64 73 73 74 65 75
REMARK SMILES IDX 66 76 72 77 74 78 67 79 68 80 69 81 70 82 71 83 47 84 48 85
REMARK SMILES IDX 57 86 49 87 50 88 56 89 58 90 51 91 52 92 53 93 54 94 55 95
REMARK H PARENT 79 45 45 56
REMARK Flexibility Score: inf
ROOT
ATOM      1  C   UNL A   1      40.794  22.289  26.860  1.00  0.00     0.275 C 
ENDROOT
BRANCH   1   2
ATOM      2  O   UNL A   1      39.626  22.010  26.062  1.00  0.00    -0.457 OA
BRANCH   2   3
ATOM      3  C   UNL A   1      38.642  22.950  26.112  1.00  0.00     0.357 C 
ATOM      4  O   UNL A   1      38.803  24.126  26.399  1.00  0.00    -0.244 OA
BRANCH   3   5
ATOM      5  C   UNL A   1      37.332  22.372  25.664  1.00  0.00     0.149 A 
ATOM      6  C   UNL A   1      35.131  22.850  25.021  1.00  0.00     0.082 A 
ATOM      7  N   UNL A   1      36.329  23.276  25.483  1.00  0.00    -0.240 NA
ATOM      8  C   UNL A   1      34.873  21.502  24.786  1.00  0.00     0.078 A 
ATOM      9  C   UNL A   1      35.905  20.580  25.007  1.00  0.00     0.024 A 
ATOM     10  C   UNL A   1      37.160  21.017  25.438  1.00  0.00     0.037 A 
BRANCH   6  11
ATOM     11  C   UNL A   1      34.186  23.944  24.744  1.00  0.00     0.030 C 
ATOM     12  C   UNL A   1      34.340  25.177  25.253  1.00  0.00     0.010 C 
BRANCH  12  13
ATOM     13  C   UNL A   1      33.473  26.351  25.037  1.00  0.00    -0.022 A 
ATOM     14  C   UNL A   1      31.764  28.595  24.820  1.00  0.00     0.154 A 
ATOM     15  C   UNL A   1      32.516  28.174  23.724  1.00  0.00     0.050 A 
ATOM     16  C   UNL A   1      31.837  27.871  26.006  1.00  0.00     0.165 A 
ATOM     17  C   UNL A   1      33.373  27.066  23.833  1.00  0.00     0.012 A 
ATOM     18  C   UNL A   1      32.682  26.769  26.118  1.00  0.00     0.051 A 
ATOM     19  F   UNL A   1      31.081  28.198  27.065  1.00  0.00    -0.203 F 
BRANCH  14  20
ATOM     20  O   UNL A   1      30.939  29.671  24.633  1.00  0.00    -0.494 OA
ATOM     21  C   UNL A   1      30.096  29.524  23.491  1.00  0.00     0.278 C 
ENDBRANCH  14  20
ENDBRANCH  12  13
ENDBRANCH   6  11
BRANCH   8  22
ATOM     22  C   UNL A   1      33.600  21.033  24.327  1.00  0.00     0.101 C 
ATOM     23  N   UNL A   1      32.580  20.684  23.904  1.00  0.00    -0.192 NA
ENDBRANCH   8  22
ENDBRANCH   3   5
ENDBRANCH   2   3
ENDBRANCH   1   2
BRANCH   1  24
ATOM     24  C   UNL A   1      41.894  22.971  26.036  1.00  0.00     0.275 C 
BRANCH  24  25
ATOM     25  O   UNL A   1      42.467  24.098  26.722  1.00  0.00    -0.458 OA
BRANCH  25  26
ATOM     26  C   UNL A   1      42.100  25.308  26.240  1.00  0.00     0.338 C 
ATOM     27  O   UNL A   1      42.031  25.646  25.070  1.00  0.00    -0.246 OA
BRANCH  26  28
ATOM     28  C   UNL A   1      41.679  26.175  27.350  1.00  0.00     0.060 A 
ATOM     29  C   UNL A   1      42.370  27.368  27.547  1.00  0.00     0.016 A 
ATOM     30  C   UNL A   1      40.692  25.775  28.246  1.00  0.00     0.016 A 
ATOM     31  C   UNL A   1      42.135  28.144  28.674  1.00  0.00     0.010 A 
ATOM     32  C   UNL A   1      40.411  26.587  29.350  1.00  0.00     0.010 A 
ATOM     33  C   UNL A   1      41.145  27.767  29.583  1.00  0.00    -0.014 A 
BRANCH  33  34
ATOM     34  C   UNL A   1      40.888  28.590  30.790  1.00  0.00     0.031 A 
ATOM     35  C   UNL A   1      39.815  29.642  30.753  1.00  0.00     0.074 A 
ATOM     36  C   UNL A   1      41.611  28.390  31.908  1.00  0.00     0.049 A 
ATOM     37  N   UNL A   1      39.557  30.586  31.619  1.00  0.00    -0.248 NA
ATOM     38  C   UNL A   1      38.918  29.634  29.586  1.00  0.00     0.031 C 
ATOM     39  C   UNL A   1      42.621  27.343  32.090  1.00  0.00     0.029 A 
ATOM     40  N   UNL A   1      41.616  29.061  33.106  1.00  0.00    -0.354 N 
ATOM     41  C   UNL A   1      38.485  31.297  31.094  1.00  0.00     0.074 A 
ATOM     42  C   UNL A   1      38.157  30.695  29.821  1.00  0.00     0.031 C 
ATOM     43  C   UNL A   1      43.136  27.435  33.325  1.00  0.00     0.029 A 
ATOM     44  C   UNL A   1      42.558  28.595  33.994  1.00  0.00     0.049 A 
ATOM     45  H   UNL A   1      41.005  29.805  33.309  1.00  0.00     0.167 HD
ATOM     46  C   UNL A   1      37.832  32.351  31.637  1.00  0.00     0.037 A 
ATOM     47  C   UNL A   1      42.942  29.075  35.193  1.00  0.00     0.037 A 
ATOM     48  C   UNL A   1      38.165  32.924  32.915  1.00  0.00     0.049 A 
ATOM     49  C   UNL A   1      42.280  30.321  35.720  1.00  0.00     0.074 A 
ATOM     50  C   UNL A   1      37.580  34.007  33.548  1.00  0.00     0.029 A 
ATOM     51  N   UNL A   1      39.160  32.455  33.760  1.00  0.00    -0.354 N 
ATOM     52  N   UNL A   1      41.302  31.018  35.192  1.00  0.00    -0.248 NA
ATOM     53  C   UNL A   1      42.782  30.857  36.993  1.00  0.00     0.031 C 
ATOM     54  C   UNL A   1      38.255  34.225  34.751  1.00  0.00     0.029 A 
ATOM     55  C   UNL A   1      39.218  33.238  34.901  1.00  0.00     0.049 A 
ATOM     56  H   UNL A   1      39.741  31.682  33.576  1.00  0.00     0.167 HD
ATOM     57  C   UNL A   1      41.044  32.049  36.088  1.00  0.00     0.074 A 
ATOM     58  C   UNL A   1      41.969  31.886  37.191  1.00  0.00     0.031 C 
ATOM     59  C   UNL A   1      40.123  33.039  36.005  1.00  0.00     0.037 A 
BRANCH  46  60
ATOM     60  C   UNL A   1      36.698  32.965  30.863  1.00  0.00     0.058 A 
ATOM     61  C   UNL A   1      36.952  33.891  29.838  1.00  0.00     0.135 A 
ATOM     62  C   UNL A   1      35.358  32.710  31.197  1.00  0.00     0.135 A 
ATOM     63  F   UNL A   1      38.214  34.166  29.471  1.00  0.00    -0.206 F 
ATOM     64  C   UNL A   1      35.920  34.564  29.192  1.00  0.00     0.059 A 
ATOM     65  C   UNL A   1      34.308  33.350  30.544  1.00  0.00     0.059 A 
ATOM     66  F   UNL A   1      35.058  31.815  32.152  1.00  0.00    -0.206 F 
ATOM     67  C   UNL A   1      34.601  34.290  29.556  1.00  0.00     0.060 A 
BRANCH  67  68
ATOM     68  S   UNL A   1      33.275  35.172  28.705  1.00  0.00     0.124 S 
ATOM     69  O   UNL A   1      34.021  36.118  27.882  1.00  0.00    -0.237 OA
ATOM     70  O   UNL A   1      32.605  34.092  27.987  1.00  0.00    -0.237 OA
ATOM     71  O   UNL A   1      32.504  35.760  29.797  1.00  0.00    -0.744 OA
ENDBRANCH  67  68
ENDBRANCH  46  60
BRANCH  47  72
ATOM     72  C   UNL A   1      44.009  28.386  35.970  1.00  0.00     0.058 A 
ATOM     73  C   UNL A   1      45.364  28.723  35.822  1.00  0.00     0.135 A 
ATOM     74  C   UNL A   1      43.688  27.366  36.878  1.00  0.00     0.135 A 
ATOM     75  F   UNL A   1      45.731  29.687  34.964  1.00  0.00    -0.206 F 
ATOM     76  C   UNL A   1      46.363  28.062  36.530  1.00  0.00     0.059 A 
ATOM     77  C   UNL A   1      44.666  26.712  37.622  1.00  0.00     0.059 A 
ATOM     78  F   UNL A   1      42.407  27.014  37.064  1.00  0.00    -0.206 F 
ATOM     79  C   UNL A   1      46.003  27.059  37.431  1.00  0.00     0.060 A 
BRANCH  79  80
ATOM     80  S   UNL A   1      47.312  26.232  38.359  1.00  0.00     0.124 S 
ATOM     81  O   UNL A   1      47.359  24.929  37.704  1.00  0.00    -0.237 OA
ATOM     82  O   UNL A   1      48.454  27.107  38.119  1.00  0.00    -0.237 OA
ATOM     83  O   UNL A   1      46.804  26.227  39.728  1.00  0.00    -0.744 OA
ENDBRANCH  79  80
ENDBRANCH  47  72
BRANCH  59  84
ATOM     84  C   UNL A   1      40.013  34.004  37.153  1.00  0.00     0.058 A 
ATOM     85  C   UNL A   1      39.148  33.726  38.225  1.00  0.00     0.135 A 
ATOM     86  C   UNL A   1      40.652  35.252  37.132  1.00  0.00     0.135 A 
ATOM     87  F   UNL A   1      38.509  32.546  38.290  1.00  0.00    -0.206 F 
ATOM     88  C   UNL A   1      38.888  34.668  39.211  1.00  0.00     0.059 A 
ATOM     89  C   UNL A   1      40.430  36.199  38.126  1.00  0.00     0.059 A 
ATOM     90  F   UNL A   1      41.499  35.560  36.136  1.00  0.00    -0.206 F 
ATOM     91  C   UNL A   1      39.526  35.907  39.148  1.00  0.00     0.060 A 
BRANCH  91  92
ATOM     92  S   UNL A   1      39.142  37.134  40.416  1.00  0.00     0.124 S 
ATOM     93  O   UNL A   1      40.458  37.388  40.994  1.00  0.00    -0.237 OA
ATOM     94  O   UNL A   1      38.575  38.222  39.626  1.00  0.00    -0.237 OA
ATOM     95  O   UNL A   1      38.198  36.440  41.286  1.00  0.00    -0.744 OA
ENDBRANCH  91  92
ENDBRANCH  59  84
ENDBRANCH  33  34
ENDBRANCH  26  28
ENDBRANCH  25  26
ENDBRANCH  24  25
ENDBRANCH   1  24
TORSDOF 18
ENDMDL
MODEL 2
REMARK VINA RESULT:     -11.1      5.055     11.836
REMARK SMILES COc1ccc(/C=C/c2nc(C(=O)OCCOC(=O)c3ccc(-c4c5nc(c(-c6c(F)cc(S(=O)(=O)[O-])cc6F)c6ccc([nH]6)c(-c6c(F)cc(S(=O)(=O)[O-])cc6F)c6nc(c(-c7c(F)cc(S(=O)(=O)[O-])cc7F)c7ccc4[nH]7)C=C6)C=C5)cc3)ccc2C#N)cc1F
REMARK SMILES IDX 15 1 14 2 12 3 13 4 11 5 9 6 10 7 88 8 87 9 86 10 8 11 7 12
REMARK SMILES IDX 6 13 3 14 4 15 92 16 5 17 91 18 93 19 2 20 1 21 89 22 90 23
REMARK SMILES IDX 16 24 17 25 18 26 19 27 20 28 21 29 85 30 22 31 84 32 23 33
REMARK SMILES IDX 24 34 25 35 78 36 26 37 83 38 77 39 79 40 27 41 82 42 76 43
REMARK SMILES IDX 75 44 28 46 62 47 41 48 61 49 42 50 45 51 60 52 80 53 43 54
REMARK SMILES IDX 44 55 59 57 81 58 46 59 29 60 30 61 39 62 31 63 32 64 38 65
REMARK SMILES IDX 40 66 33 67 34 68 35 69 36 70 37 71 63 72 64 73 73 74 65 75
REMARK SMILES IDX 66 76 72 77 74 78 67 79 68 80 69 81 70 82 71 83 47 84 48 85
REMARK SMILES IDX 57 86 49 87 50 88 56 89 58 90 51 91 52 92 53 93 54 94 55 95
REMARK H PARENT 79 45 45 56
REMARK Flexibility Score: inf
ROOT
ATOM      1  C   UNL A   1      35.051  33.160  30.063  1.00  0.00     0.275 C 
ENDROOT
BRANCH   1   2
ATOM      2  O   UNL A   1      34.815  32.502  31.324  1.00  0.00    -0.457 OA
BRANCH   2   3
ATOM      3  C   UNL A   1      34.547  33.325  32.376  1.00  0.00     0.357 C 
ATOM      4  O   UNL A   1      33.588  34.076  32.458  1.00  0.00    -0.244 OA
BRANCH   3   5
ATOM      5  C   UNL A   1      35.539  33.114  33.481  1.00  0.00     0.149 A 
ATOM      6  C   UNL A   1      37.317  31.800  34.254  1.00  0.00     0.082 A 
ATOM      7  N   UNL A   1      36.352  32.031  33.334  1.00  0.00    -0.240 NA
ATOM      8  C   UNL A   1      37.463  32.603  35.382  1.00  0.00     0.078 A 
ATOM      9  C   UNL A   1      36.598  33.695  35.536  1.00  0.00     0.024 A 
ATOM     10  C   UNL A   1      35.630  33.969  34.567  1.00  0.00     0.037 A 
BRANCH   6  11
ATOM     11  C   UNL A   1      38.206  30.680  33.902  1.00  0.00     0.030 C 
ATOM     12  C   UNL A   1      39.471  30.863  33.493  1.00  0.00     0.010 C 
BRANCH  12  13
ATOM     13  C   UNL A   1      40.455  29.825  33.128  1.00  0.00    -0.022 A 
ATOM     14  C   UNL A   1      42.484  27.954  32.509  1.00  0.00     0.154 A 
ATOM     15  C   UNL A   1      41.146  27.649  32.265  1.00  0.00     0.050 A 
ATOM     16  C   UNL A   1      42.807  29.207  33.023  1.00  0.00     0.165 A 
ATOM     17  C   UNL A   1      40.136  28.572  32.581  1.00  0.00     0.012 A 
ATOM     18  C   UNL A   1      41.809  30.128  33.333  1.00  0.00     0.051 A 
ATOM     19  F   UNL A   1      44.084  29.571  33.210  1.00  0.00    -0.203 F 
BRANCH  14  20
ATOM     20  O   UNL A   1      43.413  27.012  32.159  1.00  0.00    -0.494 OA
ATOM     21  C   UNL A   1      43.888  26.266  33.278  1.00  0.00     0.278 C 
ENDBRANCH  14  20
ENDBRANCH  12  13
ENDBRANCH   6  11
BRANCH   8  22
ATOM     22  C   UNL A   1      38.460  32.351  36.379  1.00  0.00     0.101 C 
ATOM     23  N   UNL A   1      39.222  32.128  37.223  1.00  0.00    -0.192 NA
ENDBRANCH   8  22
ENDBRANCH   3   5
ENDBRANCH   2   3
ENDBRANCH   1   2
BRANCH   1  24
ATOM     24  C   UNL A   1      34.021  32.744  29.005  1.00  0.00     0.275 C 
BRANCH  24  25
ATOM     25  O   UNL A   1      34.626  32.051  27.899  1.00  0.00    -0.458 OA
BRANCH  25  26
ATOM     26  C   UNL A   1      34.592  30.701  27.982  1.00  0.00     0.338 C 
ATOM     27  O   UNL A   1      33.615  29.980  27.865  1.00  0.00    -0.246 OA
BRANCH  26  28
ATOM     28  C   UNL A   1      35.957  30.181  28.140  1.00  0.00     0.060 A 
ATOM     29  C   UNL A   1      36.355  29.758  29.406  1.00  0.00     0.016 A 
ATOM     30  C   UNL A   1      36.867  30.204  27.087  1.00  0.00     0.016 A 
ATOM     31  C   UNL A   1      37.677  29.419  29.656  1.00  0.00     0.010 A 
ATOM     32  C   UNL A   1      38.186  29.803  27.322  1.00  0.00     0.010 A 
ATOM     33  C   UNL A   1      38.606  29.428  28.614  1.00  0.00    -0.014 A 
BRANCH  33  34
ATOM     34  C   UNL A   1      40.021  29.066  28.872  1.00  0.00     0.031 A 
ATOM     35  C   UNL A   1      40.960  30.103  29.422  1.00  0.00     0.074 A 
ATOM     36  C   UNL A   1      40.454  27.817  28.618  1.00  0.00     0.049 A 
ATOM     37  N   UNL A   1      42.261  30.054  29.542  1.00  0.00    -0.248 NA
ATOM     38  C   UNL A   1      40.359  31.361  29.894  1.00  0.00     0.031 C 
ATOM     39  C   UNL A   1      39.616  26.704  28.162  1.00  0.00     0.029 A 
ATOM     40  N   UNL A   1      41.711  27.269  28.698  1.00  0.00    -0.354 N 
ATOM     41  C   UNL A   1      42.636  31.279  30.081  1.00  0.00     0.074 A 
ATOM     42  C   UNL A   1      41.431  32.062  30.240  1.00  0.00     0.031 C 
ATOM     43  C   UNL A   1      40.376  25.609  28.016  1.00  0.00     0.029 A 
ATOM     44  C   UNL A   1      41.767  25.958  28.285  1.00  0.00     0.049 A 
ATOM     45  H   UNL A   1      42.496  27.767  29.020  1.00  0.00     0.167 HD
ATOM     46  C   UNL A   1      43.876  31.701  30.420  1.00  0.00     0.037 A 
ATOM     47  C   UNL A   1      42.824  25.143  28.101  1.00  0.00     0.037 A 
ATOM     48  C   UNL A   1      45.062  30.898  30.269  1.00  0.00     0.049 A 
ATOM     49  C   UNL A   1      44.205  25.678  28.372  1.00  0.00     0.074 A 
ATOM     50  C   UNL A   1      46.371  31.238  30.562  1.00  0.00     0.029 A 
ATOM     51  N   UNL A   1      45.082  29.594  29.797  1.00  0.00    -0.354 N 
ATOM     52  N   UNL A   1      44.555  26.856  28.833  1.00  0.00    -0.248 NA
ATOM     53  C   UNL A   1      45.337  24.786  28.083  1.00  0.00     0.031 C 
ATOM     54  C   UNL A   1      47.188  30.158  30.219  1.00  0.00     0.029 A 
ATOM     55  C   UNL A   1      46.383  29.121  29.774  1.00  0.00     0.049 A 
ATOM     56  H   UNL A   1      44.290  29.080  29.518  1.00  0.00     0.167 HD
ATOM     57  C   UNL A   1      45.942  26.829  28.928  1.00  0.00     0.074 A 
ATOM     58  C   UNL A   1      46.367  25.521  28.477  1.00  0.00     0.031 C 
ATOM     59  C   UNL A   1      46.784  27.801  29.354  1.00  0.00     0.037 A 
BRANCH  46  60
ATOM     60  C   UNL A   1      44.032  33.088  30.981  1.00  0.00     0.058 A 
ATOM     61  C   UNL A   1      44.050  33.298  32.370  1.00  0.00     0.135 A 
ATOM     62  C   UNL A   1      44.068  34.218  30.148  1.00  0.00     0.135 A 
ATOM     63  F   UNL A   1      44.027  32.254  33.213  1.00  0.00    -0.206 F 
ATOM     64  C   UNL A   1      44.069  34.579  32.913  1.00  0.00     0.059 A 
ATOM     65  C   UNL A   1      44.116  35.508  30.670  1.00  0.00     0.059 A 
ATOM     66  F   UNL A   1      44.078  34.073  28.814  1.00  0.00    -0.206 F 
ATOM     67  C   UNL A   1      44.096  35.677  32.054  1.00  0.00     0.060 A 
BRANCH  67  68
ATOM     68  S   UNL A   1      44.122  37.332  32.777  1.00  0.00     0.124 S 
ATOM     69  O   UNL A   1      43.013  37.265  33.723  1.00  0.00    -0.237 OA
ATOM     70  O   UNL A   1      45.457  37.385  33.364  1.00  0.00    -0.237 OA
ATOM     71  O   UNL A   1      43.916  38.208  31.627  1.00  0.00    -0.744 OA
ENDBRANCH  67  68
ENDBRANCH  46  60
BRANCH  47  72
ATOM     72  C   UNL A   1      42.621  23.747  27.628  1.00  0.00     0.058 A 
ATOM     73  C   UNL A   1      42.629  22.657  28.513  1.00  0.00     0.135 A 
ATOM     74  C   UNL A   1      42.419  23.475  26.266  1.00  0.00     0.135 A 
ATOM     75  F   UNL A   1      42.825  22.856  29.826  1.00  0.00    -0.206 F 
ATOM     76  C   UNL A   1      42.464  21.351  28.067  1.00  0.00     0.059 A 
ATOM     77  C   UNL A   1      42.218  22.179  25.798  1.00  0.00     0.059 A 
ATOM     78  F   UNL A   1      42.391  24.482  25.379  1.00  0.00    -0.206 F 
ATOM     79  C   UNL A   1      42.256  21.122  26.706  1.00  0.00     0.060 A 
BRANCH  79  80
ATOM     80  S   UNL A   1      42.016  19.421  26.150  1.00  0.00     0.124 S 
ATOM     81  O   UNL A   1      40.582  19.397  25.884  1.00  0.00    -0.237 OA
ATOM     82  O   UNL A   1      42.882  19.359  24.978  1.00  0.00    -0.237 OA
ATOM     83  O   UNL A   1      42.455  18.627  27.294  1.00  0.00    -0.744 OA
ENDBRANCH  79  80
ENDBRANCH  47  72
BRANCH  59  84
ATOM     84  C   UNL A   1      48.254  27.489  29.413  1.00  0.00     0.058 A 
ATOM     85  C   UNL A   1      48.811  26.947  30.584  1.00  0.00     0.135 A 
ATOM     86  C   UNL A   1      49.127  27.846  28.375  1.00  0.00     0.135 A 
ATOM     87  F   UNL A   1      48.019  26.592  31.608  1.00  0.00    -0.206 F 
ATOM     88  C   UNL A   1      50.185  26.811  30.739  1.00  0.00     0.059 A 
ATOM     89  C   UNL A   1      50.504  27.689  28.497  1.00  0.00     0.059 A 
ATOM     90  F   UNL A   1      48.643  28.355  27.231  1.00  0.00    -0.206 F 
ATOM     91  C   UNL A   1      51.024  27.194  29.693  1.00  0.00     0.060 A 
BRANCH  91  92
ATOM     92  S   UNL A   1      52.808  27.049  29.930  1.00  0.00     0.124 S 
ATOM     93  O   UNL A   1      53.208  26.299  28.744  1.00  0.00    -0.237 OA
ATOM     94  O   UNL A   1      53.226  28.447  29.968  1.00  0.00    -0.237 OA
ATOM     95  O   UNL A   1      52.926  26.331  31.195  1.00  0.00    -0.744 OA
ENDBRANCH  91  92
ENDBRANCH  59  84
ENDBRANCH  33  34
ENDBRANCH  26  28
ENDBRANCH  25  26
ENDBRANCH  24  25
ENDBRANCH   1  24
TORSDOF 18
ENDMDL
MODEL 3
REMARK VINA RESULT:     -11.0      3.101     10.038
REMARK SMILES COc1ccc(/C=C/c2nc(C(=O)OCCOC(=O)c3ccc(-c4c5nc(c(-c6c(F)cc(S(=O)(=O)[O-])cc6F)c6ccc([nH]6)c(-c6c(F)cc(S(=O)(=O)[O-])cc6F)c6nc(c(-c7c(F)cc(S(=O)(=O)[O-])cc7F)c7ccc4[nH]7)C=C6)C=C5)cc3)ccc2C#N)cc1F
REMARK SMILES IDX 15 1 14 2 12 3 13 4 11 5 9 6 10 7 88 8 87 9 86 10 8 11 7 12
REMARK SMILES IDX 6 13 3 14 4 15 92 16 5 17 91 18 93 19 2 20 1 21 89 22 90 23
REMARK SMILES IDX 16 24 17 25 18 26 19 27 20 28 21 29 85 30 22 31 84 32 23 33
REMARK SMILES IDX 24 34 25 35 78 36 26 37 83 38 77 39 79 40 27 41 82 42 76 43
REMARK SMILES IDX 75 44 28 46 62 47 41 48 61 49 42 50 45 51 60 52 80 53 43 54
REMARK SMILES IDX 44 55 59 57 81 58 46 59 29 60 30 61 39 62 31 63 32 64 38 65
REMARK SMILES IDX 40 66 33 67 34 68 35 69 36 70 37 71 63 72 64 73 73 74 65 75
REMARK SMILES IDX 66 76 72 77 74 78 67 79 68 80 69 81 70 82 71 83 47 84 48 85
REMARK SMILES IDX 57 86 49 87 50 88 56 89 58 90 51 91 52 92 53 93 54 94 55 95
REMARK H PARENT 79 45 45 56
REMARK Flexibility Score: inf
ROOT
ATOM      1  C   UNL A   1      39.361  21.727  26.114  1.00  0.00     0.275 C 
ENDROOT
BRANCH   1   2
ATOM      2  O   UNL A   1      40.497  21.040  26.678  1.00  0.00    -0.457 OA
BRANCH   2   3
ATOM      3  C   UNL A   1      40.775  19.821  26.137  1.00  0.00     0.357 C 
ATOM      4  O   UNL A   1      39.951  18.956  25.886  1.00  0.00    -0.244 OA
BRANCH   3   5
ATOM      5  C   UNL A   1      42.231  19.714  25.789  1.00  0.00     0.149 A 
ATOM      6  C   UNL A   1      44.129  20.872  25.053  1.00  0.00     0.082 A 
ATOM      7  N   UNL A   1      42.805  20.861  25.332  1.00  0.00    -0.240 NA
ATOM      8  C   UNL A   1      44.909  19.724  25.159  1.00  0.00     0.078 A 
ATOM      9  C   UNL A   1      44.297  18.542  25.600  1.00  0.00     0.024 A 
ATOM     10  C   UNL A   1      42.942  18.535  25.936  1.00  0.00     0.037 A 
BRANCH   6  11
ATOM     11  C   UNL A   1      44.643  22.205  24.699  1.00  0.00     0.030 C 
ATOM     12  C   UNL A   1      44.876  23.156  25.618  1.00  0.00     0.010 C 
BRANCH  12  13
ATOM     13  C   UNL A   1      45.401  24.516  25.388  1.00  0.00    -0.022 A 
ATOM     14  C   UNL A   1      46.581  27.038  24.893  1.00  0.00     0.154 A 
ATOM     15  C   UNL A   1      45.234  26.947  25.239  1.00  0.00     0.050 A 
ATOM     16  C   UNL A   1      47.343  25.875  24.836  1.00  0.00     0.165 A 
ATOM     17  C   UNL A   1      44.643  25.694  25.474  1.00  0.00     0.012 A 
ATOM     18  C   UNL A   1      46.763  24.631  25.074  1.00  0.00     0.051 A 
ATOM     19  F   UNL A   1      48.658  25.920  24.575  1.00  0.00    -0.203 F 
BRANCH  14  20
ATOM     20  O   UNL A   1      47.090  28.293  24.696  1.00  0.00    -0.494 OA
ATOM     21  C   UNL A   1      46.574  29.248  25.622  1.00  0.00     0.278 C 
ENDBRANCH  14  20
ENDBRANCH  12  13
ENDBRANCH   6  11
BRANCH   8  22
ATOM     22  C   UNL A   1      46.305  19.712  24.836  1.00  0.00     0.101 C 
ATOM     23  N   UNL A   1      47.446  19.710  24.634  1.00  0.00    -0.192 NA
ENDBRANCH   8  22
ENDBRANCH   3   5
ENDBRANCH   2   3
ENDBRANCH   1   2
BRANCH   1  24
ATOM     24  C   UNL A   1      39.304  23.192  26.563  1.00  0.00     0.275 C 
BRANCH  24  25
ATOM     25  O   UNL A   1      40.548  23.635  27.134  1.00  0.00    -0.458 OA
BRANCH  25  26
ATOM     26  C   UNL A   1      40.978  24.842  26.701  1.00  0.00     0.338 C 
ATOM     27  O   UNL A   1      41.233  25.166  25.553  1.00  0.00    -0.246 OA
BRANCH  26  28
ATOM     28  C   UNL A   1      41.007  25.788  27.825  1.00  0.00     0.060 A 
ATOM     29  C   UNL A   1      39.907  25.826  28.678  1.00  0.00     0.016 A 
ATOM     30  C   UNL A   1      42.049  26.698  27.979  1.00  0.00     0.016 A 
ATOM     31  C   UNL A   1      39.798  26.809  29.651  1.00  0.00     0.010 A 
ATOM     32  C   UNL A   1      41.970  27.652  28.999  1.00  0.00     0.010 A 
ATOM     33  C   UNL A   1      40.834  27.728  29.829  1.00  0.00    -0.014 A 
BRANCH  33  34
ATOM     34  C   UNL A   1      40.726  28.783  30.866  1.00  0.00     0.031 A 
ATOM     35  C   UNL A   1      41.639  28.744  32.058  1.00  0.00     0.074 A 
ATOM     36  C   UNL A   1      39.815  29.767  30.733  1.00  0.00     0.049 A 
ATOM     37  N   UNL A   1      41.588  29.448  33.158  1.00  0.00    -0.248 NA
ATOM     38  C   UNL A   1      42.755  27.785  32.010  1.00  0.00     0.031 C 
ATOM     39  C   UNL A   1      38.932  29.956  29.580  1.00  0.00     0.029 A 
ATOM     40  N   UNL A   1      39.474  30.794  31.578  1.00  0.00    -0.354 N 
ATOM     41  C   UNL A   1      42.646  29.003  33.941  1.00  0.00     0.074 A 
ATOM     42  C   UNL A   1      43.309  27.950  33.204  1.00  0.00     0.031 C 
ATOM     43  C   UNL A   1      38.162  31.034  29.784  1.00  0.00     0.029 A 
ATOM     44  C   UNL A   1      38.435  31.566  31.114  1.00  0.00     0.049 A 
ATOM     45  H   UNL A   1      39.930  30.960  32.435  1.00  0.00     0.167 HD
ATOM     46  C   UNL A   1      43.032  29.447  35.160  1.00  0.00     0.037 A 
ATOM     47  C   UNL A   1      37.750  32.561  31.712  1.00  0.00     0.037 A 
ATOM     48  C   UNL A   1      42.368  30.509  35.869  1.00  0.00     0.049 A 
ATOM     49  C   UNL A   1      38.123  32.954  33.116  1.00  0.00     0.074 A 
ATOM     50  C   UNL A   1      42.665  31.022  37.120  1.00  0.00     0.029 A 
ATOM     51  N   UNL A   1      41.286  31.231  35.387  1.00  0.00    -0.354 N 
ATOM     52  N   UNL A   1      39.093  32.492  33.870  1.00  0.00    -0.248 NA
ATOM     53  C   UNL A   1      37.301  33.988  33.762  1.00  0.00     0.031 C 
ATOM     54  C   UNL A   1      41.731  32.017  37.416  1.00  0.00     0.029 A 
ATOM     55  C   UNL A   1      40.892  32.172  36.323  1.00  0.00     0.049 A 
ATOM     56  H   UNL A   1      40.860  31.094  34.510  1.00  0.00     0.167 HD
ATOM     57  C   UNL A   1      39.024  33.208  35.059  1.00  0.00     0.074 A 
ATOM     58  C   UNL A   1      37.917  34.133  34.927  1.00  0.00     0.031 C 
ATOM     59  C   UNL A   1      39.809  33.109  36.159  1.00  0.00     0.037 A 
BRANCH  46  60
ATOM     60  C   UNL A   1      44.216  28.792  35.818  1.00  0.00     0.058 A 
ATOM     61  C   UNL A   1      45.518  29.253  35.565  1.00  0.00     0.135 A 
ATOM     62  C   UNL A   1      44.070  27.652  36.625  1.00  0.00     0.135 A 
ATOM     63  F   UNL A   1      45.715  30.344  34.808  1.00  0.00    -0.206 F 
ATOM     64  C   UNL A   1      46.635  28.589  36.062  1.00  0.00     0.059 A 
ATOM     65  C   UNL A   1      45.173  26.989  37.157  1.00  0.00     0.059 A 
ATOM     66  F   UNL A   1      42.847  27.184  36.919  1.00  0.00    -0.206 F 
ATOM     67  C   UNL A   1      46.452  27.455  36.853  1.00  0.00     0.060 A 
BRANCH  67  68
ATOM     68  S   UNL A   1      47.913  26.608  37.491  1.00  0.00     0.124 S 
ATOM     69  O   UNL A   1      47.444  25.230  37.593  1.00  0.00    -0.237 OA
ATOM     70  O   UNL A   1      48.896  26.870  36.445  1.00  0.00    -0.237 OA
ATOM     71  O   UNL A   1      48.167  27.280  38.762  1.00  0.00    -0.744 OA
ENDBRANCH  67  68
ENDBRANCH  46  60
BRANCH  47  72
ATOM     72  C   UNL A   1      36.641  33.245  30.992  1.00  0.00     0.058 A 
ATOM     73  C   UNL A   1      35.294  32.957  31.266  1.00  0.00     0.135 A 
ATOM     74  C   UNL A   1      36.912  34.205  30.005  1.00  0.00     0.135 A 
ATOM     75  F   UNL A   1      34.974  32.043  32.196  1.00  0.00    -0.206 F 
ATOM     76  C   UNL A   1      34.259  33.578  30.576  1.00  0.00     0.059 A 
ATOM     77  C   UNL A   1      35.893  34.864  29.324  1.00  0.00     0.059 A 
ATOM     78  F   UNL A   1      38.182  34.525  29.714  1.00  0.00    -0.206 F 
ATOM     79  C   UNL A   1      34.569  34.534  29.608  1.00  0.00     0.060 A 
BRANCH  79  80
ATOM     80  S   UNL A   1      33.209  35.349  28.743  1.00  0.00     0.124 S 
ATOM     81  O   UNL A   1      33.927  36.272  27.870  1.00  0.00    -0.237 OA
ATOM     82  O   UNL A   1      32.554  34.226  28.081  1.00  0.00    -0.237 OA
ATOM     83  O   UNL A   1      32.446  35.970  29.821  1.00  0.00    -0.744 OA
ENDBRANCH  79  80
ENDBRANCH  47  72
BRANCH  59  84
ATOM     84  C   UNL A   1      39.552  34.053  37.301  1.00  0.00     0.058 A 
ATOM     85  C   UNL A   1      40.118  35.339  37.291  1.00  0.00     0.135 A 
ATOM     86  C   UNL A   1      38.865  33.647  38.454  1.00  0.00     0.135 A 
ATOM     87  F   UNL A   1      40.790  35.774  36.213  1.00  0.00    -0.206 F 
ATOM     88  C   UNL A   1      40.051  36.171  38.401  1.00  0.00     0.059 A 
ATOM     89  C   UNL A   1      38.757  34.477  39.566  1.00  0.00     0.059 A 
ATOM     90  F   UNL A   1      38.293  32.433  38.508  1.00  0.00    -0.206 F 
ATOM     91  C   UNL A   1      39.376  35.727  39.538  1.00  0.00     0.060 A 
BRANCH  91  92
ATOM     92  S   UNL A   1      39.335  36.806  40.986  1.00  0.00     0.124 S 
ATOM     93  O   UNL A   1      38.473  36.056  41.894  1.00  0.00    -0.237 OA
ATOM     94  O   UNL A   1      40.744  36.872  41.358  1.00  0.00    -0.237 OA
ATOM     95  O   UNL A   1      38.770  38.048  40.468  1.00  0.00    -0.744 OA
ENDBRANCH  91  92
ENDBRANCH  59  84
ENDBRANCH  33  34
ENDBRANCH  26  28
ENDBRANCH  25  26
ENDBRANCH  24  25
ENDBRANCH   1  24
TORSDOF 18
ENDMDL
