MODEL 1
REMARK VINA RESULT:     -11.4      0.000      0.000
REMARK SMILES C[C@H]1CC[C@H](CNC(=O)NCc2ccc(C(=O)OCCOC(=O)c3ccc(-c4c5nc(c(-c6c(F)cc(S(=O)(=O)[O-])cc6F)c6ccc([nH]6)c(-c6c(F)cc(S(=O)(=O)[O-])cc6F)c6nc(c(-c7c(F)cc(S(=O)(=O)[O-])cc7F)c7ccc4[nH]7)C=C6)C=C5)cc3)o2)CC1
REMARK SMILES IDX 19 1 18 2 16 3 17 4 15 5 12 6 13 7 90 8 14 9 11 10 10 11
REMARK SMILES IDX 7 12 8 13 9 15 6 17 5 18 1 19 2 20 92 21 3 22 91 23 4 24
REMARK SMILES IDX 20 25 21 26 22 27 23 28 24 29 25 30 89 31 26 32 88 33 27 34
REMARK SMILES IDX 28 35 29 36 82 37 30 38 87 39 81 40 83 41 31 42 86 43 80 44
REMARK SMILES IDX 79 45 32 47 66 48 45 49 65 50 46 51 49 52 64 53 84 54 47 55
REMARK SMILES IDX 48 56 63 58 85 59 50 60 33 61 34 62 43 63 35 64 36 65 42 66
REMARK SMILES IDX 44 67 37 68 38 69 39 70 40 71 41 72 67 73 68 74 77 75 69 76
REMARK SMILES IDX 70 77 76 78 78 79 71 80 72 81 73 82 74 83 75 84 51 85 52 86
REMARK SMILES IDX 61 87 53 88 54 89 60 90 62 91 55 92 56 93 57 94 58 95 59 96
REMARK H PARENT 7 14 10 16 83 46 49 57
REMARK Flexibility Score: inf
ROOT
ATOM      1  C   UNL A   1      38.923  21.500  25.758  1.00  0.00     0.275 C 
ENDROOT
BRANCH   1   2
ATOM      2  O   UNL A   1      37.791  22.328  25.431  1.00  0.00    -0.456 OA
BRANCH   2   3
ATOM      3  C   UNL A   1      36.585  21.688  25.340  1.00  0.00     0.374 C 
ATOM      4  O   UNL A   1      36.453  20.511  25.027  1.00  0.00    -0.242 OA
BRANCH   3   5
ATOM      5  C   UNL A   1      35.520  22.579  25.743  1.00  0.00     0.211 A 
ATOM      6  C   UNL A   1      34.053  24.202  25.391  1.00  0.00     0.124 A 
ATOM      7  C   UNL A   1      33.744  23.651  26.618  1.00  0.00     0.048 A 
ATOM      8  O   UNL A   1      35.169  23.594  24.889  1.00  0.00    -0.452 OA
ATOM      9  C   UNL A   1      34.679  22.610  26.841  1.00  0.00     0.058 A 
BRANCH   6  10
ATOM     10  C   UNL A   1      33.431  25.288  24.582  1.00  0.00     0.193 C 
BRANCH  10  11
ATOM     11  N   UNL A   1      33.729  25.109  23.180  1.00  0.00    -0.331 N 
ATOM     12  N   UNL A   1      32.086  23.665  22.296  1.00  0.00    -0.338 N 
ATOM     13  C   UNL A   1      33.047  24.584  22.160  1.00  0.00     0.315 C 
ATOM     14  H   UNL A   1      31.531  23.561  21.490  1.00  0.00     0.165 HD
ATOM     15  O   UNL A   1      33.345  24.949  21.023  1.00  0.00    -0.249 OA
ATOM     16  H   UNL A   1      34.618  25.445  22.925  1.00  0.00     0.165 HD
BRANCH  12  17
ATOM     17  C   UNL A   1      31.692  22.787  23.382  1.00  0.00     0.121 C 
BRANCH  17  18
ATOM     18  C   UNL A   1      32.433  21.443  23.291  1.00  0.00     0.008 C 
ATOM     19  C   UNL A   1      33.193  17.121  23.395  1.00  0.00     0.007 C 
ATOM     20  C   UNL A   1      32.476  18.468  23.478  1.00  0.00    -0.014 C 
ATOM     21  C   UNL A   1      32.513  19.193  22.128  1.00  0.00     0.003 C 
ATOM     22  C   UNL A   1      33.093  19.343  24.576  1.00  0.00     0.003 C 
ATOM     23  C   UNL A   1      31.820  20.553  22.201  1.00  0.00     0.006 C 
ATOM     24  C   UNL A   1      32.422  20.715  24.648  1.00  0.00     0.006 C 
ENDBRANCH  17  18
ENDBRANCH  12  17
ENDBRANCH  10  11
ENDBRANCH   6  10
ENDBRANCH   3   5
ENDBRANCH   2   3
ENDBRANCH   1   2
BRANCH   1  25
ATOM     25  C   UNL A   1      39.916  22.247  26.657  1.00  0.00     0.275 C 
BRANCH  25  26
ATOM     26  O   UNL A   1      39.806  23.674  26.505  1.00  0.00    -0.458 OA
BRANCH  26  27
ATOM     27  C   UNL A   1      40.964  24.365  26.648  1.00  0.00     0.338 C 
ATOM     28  O   UNL A   1      41.997  24.197  26.020  1.00  0.00    -0.246 OA
BRANCH  27  29
ATOM     29  C   UNL A   1      40.764  25.462  27.608  1.00  0.00     0.060 A 
ATOM     30  C   UNL A   1      41.747  26.450  27.691  1.00  0.00     0.016 A 
ATOM     31  C   UNL A   1      39.653  25.496  28.455  1.00  0.00     0.016 A 
ATOM     32  C   UNL A   1      41.623  27.476  28.624  1.00  0.00     0.010 A 
ATOM     33  C   UNL A   1      39.538  26.522  29.399  1.00  0.00     0.010 A 
ATOM     34  C   UNL A   1      40.531  27.511  29.497  1.00  0.00    -0.014 A 
BRANCH  34  35
ATOM     35  C   UNL A   1      40.472  28.547  30.555  1.00  0.00     0.031 A 
ATOM     36  C   UNL A   1      41.415  28.467  31.722  1.00  0.00     0.074 A 
ATOM     37  C   UNL A   1      39.599  29.566  30.457  1.00  0.00     0.049 A 
ATOM     38  N   UNL A   1      41.465  29.206  32.800  1.00  0.00    -0.248 NA
ATOM     39  C   UNL A   1      42.437  27.410  31.668  1.00  0.00     0.031 C 
ATOM     40  C   UNL A   1      38.683  29.787  29.339  1.00  0.00     0.029 A 
ATOM     41  N   UNL A   1      39.339  30.606  31.314  1.00  0.00    -0.354 N 
ATOM     42  C   UNL A   1      42.506  28.692  33.564  1.00  0.00     0.074 A 
ATOM     43  C   UNL A   1      43.053  27.569  32.831  1.00  0.00     0.031 C 
ATOM     44  C   UNL A   1      37.956  30.891  29.580  1.00  0.00     0.029 A 
ATOM     45  C   UNL A   1      38.326  31.430  30.887  1.00  0.00     0.049 A 
ATOM     46  H   UNL A   1      39.832  30.748  32.155  1.00  0.00     0.167 HD
ATOM     47  C   UNL A   1      42.959  29.118  34.766  1.00  0.00     0.037 A 
ATOM     48  C   UNL A   1      37.745  32.484  31.492  1.00  0.00     0.037 A 
ATOM     49  C   UNL A   1      42.418  30.246  35.479  1.00  0.00     0.049 A 
ATOM     50  C   UNL A   1      38.235  32.911  32.850  1.00  0.00     0.074 A 
ATOM     51  C   UNL A   1      42.802  30.756  36.707  1.00  0.00     0.029 A 
ATOM     52  N   UNL A   1      41.377  31.044  35.023  1.00  0.00    -0.354 N 
ATOM     53  N   UNL A   1      39.198  32.398  33.579  1.00  0.00    -0.248 NA
ATOM     54  C   UNL A   1      37.555  34.055  33.474  1.00  0.00     0.031 C 
ATOM     55  C   UNL A   1      41.973  31.842  37.009  1.00  0.00     0.029 A 
ATOM     56  C   UNL A   1      41.097  32.034  35.951  1.00  0.00     0.049 A 
ATOM     57  H   UNL A   1      40.907  30.924  34.167  1.00  0.00     0.167 HD
ATOM     58  C   UNL A   1      39.256  33.169  34.733  1.00  0.00     0.074 A 
ATOM     59  C   UNL A   1      38.233  34.188  34.606  1.00  0.00     0.031 C 
ATOM     60  C   UNL A   1      40.081  33.045  35.801  1.00  0.00     0.037 A 
BRANCH  47  61
ATOM     61  C   UNL A   1      44.075  28.339  35.402  1.00  0.00     0.058 A 
ATOM     62  C   UNL A   1      45.424  28.655  35.173  1.00  0.00     0.135 A 
ATOM     63  C   UNL A   1      43.789  27.269  36.266  1.00  0.00     0.135 A 
ATOM     64  F   UNL A   1      45.752  29.655  34.338  1.00  0.00    -0.206 F 
ATOM     65  C   UNL A   1      46.450  27.922  35.760  1.00  0.00     0.059 A 
ATOM     66  C   UNL A   1      44.800  26.536  36.880  1.00  0.00     0.059 A 
ATOM     67  F   UNL A   1      42.516  26.923  36.515  1.00  0.00    -0.206 F 
ATOM     68  C   UNL A   1      46.128  26.861  36.608  1.00  0.00     0.060 A 
BRANCH  68  69
ATOM     69  S   UNL A   1      47.470  25.910  37.355  1.00  0.00     0.124 S 
ATOM     70  O   UNL A   1      47.525  26.490  38.694  1.00  0.00    -0.237 OA
ATOM     71  O   UNL A   1      46.967  24.542  37.280  1.00  0.00    -0.237 OA
ATOM     72  O   UNL A   1      48.613  26.204  36.496  1.00  0.00    -0.744 OA
ENDBRANCH  68  69
ENDBRANCH  47  61
BRANCH  48  73
ATOM     73  C   UNL A   1      36.618  33.190  30.828  1.00  0.00     0.058 A 
ATOM     74  C   UNL A   1      35.291  32.976  31.226  1.00  0.00     0.135 A 
ATOM     75  C   UNL A   1      36.849  34.103  29.786  1.00  0.00     0.135 A 
ATOM     76  F   UNL A   1      35.018  32.102  32.207  1.00  0.00    -0.206 F 
ATOM     77  C   UNL A   1      34.231  33.634  30.610  1.00  0.00     0.059 A 
ATOM     78  C   UNL A   1      35.808  34.790  29.170  1.00  0.00     0.059 A 
ATOM     79  F   UNL A   1      38.102  34.348  29.373  1.00  0.00    -0.206 F 
ATOM     80  C   UNL A   1      34.500  34.540  29.583  1.00  0.00     0.060 A 
BRANCH  80  81
ATOM     81  S   UNL A   1      33.124  35.425  28.817  1.00  0.00     0.124 S 
ATOM     82  O   UNL A   1      33.825  36.426  28.022  1.00  0.00    -0.237 OA
ATOM     83  O   UNL A   1      32.453  34.369  28.066  1.00  0.00    -0.237 OA
ATOM     84  O   UNL A   1      32.377  35.938  29.961  1.00  0.00    -0.744 OA
ENDBRANCH  80  81
ENDBRANCH  48  73
BRANCH  60  85
ATOM     85  C   UNL A   1      39.940  34.056  36.904  1.00  0.00     0.058 A 
ATOM     86  C   UNL A   1      40.495  35.340  36.800  1.00  0.00     0.135 A 
ATOM     87  C   UNL A   1      39.188  33.754  38.052  1.00  0.00     0.135 A 
ATOM     88  F   UNL A   1      41.227  35.676  35.727  1.00  0.00    -0.206 F 
ATOM     89  C   UNL A   1      40.323  36.288  37.804  1.00  0.00     0.059 A 
ATOM     90  C   UNL A   1      38.986  34.693  39.058  1.00  0.00     0.059 A 
ATOM     91  F   UNL A   1      38.629  32.543  38.193  1.00  0.00    -0.206 F 
ATOM     92  C   UNL A   1      39.565  35.955  38.929  1.00  0.00     0.060 A 
BRANCH  92  93
ATOM     93  S   UNL A   1      39.308  37.206  40.206  1.00  0.00     0.124 S 
ATOM     94  O   UNL A   1      40.681  37.527  40.584  1.00  0.00    -0.237 OA
ATOM     95  O   UNL A   1      38.589  38.251  39.485  1.00  0.00    -0.237 OA
ATOM     96  O   UNL A   1      38.527  36.502  41.218  1.00  0.00    -0.744 OA
ENDBRANCH  92  93
ENDBRANCH  60  85
ENDBRANCH  34  35
ENDBRANCH  27  29
ENDBRANCH  26  27
ENDBRANCH  25  26
ENDBRANCH   1  25
TORSDOF 18
ENDMDL
MODEL 2
REMARK VINA RESULT:     -11.4      1.721      3.725
REMARK SMILES C[C@H]1CC[C@H](CNC(=O)NCc2ccc(C(=O)OCCOC(=O)c3ccc(-c4c5nc(c(-c6c(F)cc(S(=O)(=O)[O-])cc6F)c6ccc([nH]6)c(-c6c(F)cc(S(=O)(=O)[O-])cc6F)c6nc(c(-c7c(F)cc(S(=O)(=O)[O-])cc7F)c7ccc4[nH]7)C=C6)C=C5)cc3)o2)CC1
REMARK SMILES IDX 19 1 18 2 16 3 17 4 15 5 12 6 13 7 90 8 14 9 11 10 10 11
REMARK SMILES IDX 7 12 8 13 9 15 6 17 5 18 1 19 2 20 92 21 3 22 91 23 4 24
REMARK SMILES IDX 20 25 21 26 22 27 23 28 24 29 25 30 89 31 26 32 88 33 27 34
REMARK SMILES IDX 28 35 29 36 82 37 30 38 87 39 81 40 83 41 31 42 86 43 80 44
REMARK SMILES IDX 79 45 32 47 66 48 45 49 65 50 46 51 49 52 64 53 84 54 47 55
REMARK SMILES IDX 48 56 63 58 85 59 50 60 33 61 34 62 43 63 35 64 36 65 42 66
REMARK SMILES IDX 44 67 37 68 38 69 39 70 40 71 41 72 67 73 68 74 77 75 69 76
REMARK SMILES IDX 70 77 76 78 78 79 71 80 72 81 73 82 74 83 75 84 51 85 52 86
REMARK SMILES IDX 61 87 53 88 54 89 60 90 62 91 55 92 56 93 57 94 58 95 59 96
REMARK H PARENT 7 14 10 16 83 46 49 57
REMARK Flexibility Score: inf
ROOT
ATOM      1  C   UNL A   1      36.683  23.187  25.977  1.00  0.00     0.275 C 
ENDROOT
BRANCH   1   2
ATOM      2  O   UNL A   1      36.112  23.995  24.930  1.00  0.00    -0.456 OA
BRANCH   2   3
ATOM      3  C   UNL A   1      35.551  23.314  23.885  1.00  0.00     0.374 C 
ATOM      4  O   UNL A   1      35.929  22.216  23.498  1.00  0.00    -0.242 OA
BRANCH   3   5
ATOM      5  C   UNL A   1      34.412  24.044  23.374  1.00  0.00     0.211 A 
ATOM      6  C   UNL A   1      33.377  25.883  22.695  1.00  0.00     0.124 A 
ATOM      7  C   UNL A   1      32.550  24.825  22.378  1.00  0.00     0.048 A 
ATOM      8  O   UNL A   1      34.477  25.414  23.356  1.00  0.00    -0.452 OA
ATOM      9  C   UNL A   1      33.213  23.649  22.807  1.00  0.00     0.058 A 
BRANCH   6  10
ATOM     10  C   UNL A   1      33.274  27.353  22.473  1.00  0.00     0.193 C 
BRANCH  10  11
ATOM     11  N   UNL A   1      31.947  27.705  22.025  1.00  0.00    -0.331 N 
ATOM     12  N   UNL A   1      30.678  28.229  23.943  1.00  0.00    -0.338 N 
ATOM     13  C   UNL A   1      30.900  28.273  22.626  1.00  0.00     0.315 C 
ATOM     14  H   UNL A   1      30.009  28.884  24.247  1.00  0.00     0.165 HD
ATOM     15  O   UNL A   1      30.072  28.845  21.916  1.00  0.00    -0.249 OA
ATOM     16  H   UNL A   1      31.782  27.482  21.081  1.00  0.00     0.165 HD
BRANCH  12  17
ATOM     17  C   UNL A   1      31.217  27.418  25.019  1.00  0.00     0.121 C 
BRANCH  17  18
ATOM     18  C   UNL A   1      31.848  28.305  26.105  1.00  0.00     0.008 C 
ATOM     19  C   UNL A   1      34.435  31.284  28.027  1.00  0.00     0.007 C 
ATOM     20  C   UNL A   1      33.792  30.395  26.964  1.00  0.00    -0.014 C 
ATOM     21  C   UNL A   1      32.294  30.691  26.834  1.00  0.00     0.003 C 
ATOM     22  C   UNL A   1      34.023  28.913  27.285  1.00  0.00     0.003 C 
ATOM     23  C   UNL A   1      31.632  29.792  25.790  1.00  0.00     0.006 C 
ATOM     24  C   UNL A   1      33.350  28.001  26.260  1.00  0.00     0.006 C 
ENDBRANCH  17  18
ENDBRANCH  12  17
ENDBRANCH  10  11
ENDBRANCH   6  10
ENDBRANCH   3   5
ENDBRANCH   2   3
ENDBRANCH   1   2
BRANCH   1  25
ATOM     25  C   UNL A   1      38.215  23.256  25.959  1.00  0.00     0.275 C 
BRANCH  25  26
ATOM     26  O   UNL A   1      38.697  24.557  26.342  1.00  0.00    -0.458 OA
BRANCH  26  27
ATOM     27  C   UNL A   1      39.987  24.599  26.759  1.00  0.00     0.338 C 
ATOM     28  O   UNL A   1      40.933  24.005  26.268  1.00  0.00    -0.246 OA
BRANCH  27  29
ATOM     29  C   UNL A   1      40.119  25.587  27.842  1.00  0.00     0.060 A 
ATOM     30  C   UNL A   1      39.134  25.617  28.830  1.00  0.00     0.016 A 
ATOM     31  C   UNL A   1      41.169  26.509  27.862  1.00  0.00     0.016 A 
ATOM     32  C   UNL A   1      39.193  26.571  29.842  1.00  0.00     0.010 A 
ATOM     33  C   UNL A   1      41.219  27.474  28.874  1.00  0.00     0.010 A 
ATOM     34  C   UNL A   1      40.221  27.518  29.863  1.00  0.00    -0.014 A 
BRANCH  34  35
ATOM     35  C   UNL A   1      40.207  28.592  30.883  1.00  0.00     0.031 A 
ATOM     36  C   UNL A   1      41.165  28.528  32.038  1.00  0.00     0.074 A 
ATOM     37  C   UNL A   1      39.362  29.632  30.760  1.00  0.00     0.049 A 
ATOM     38  N   UNL A   1      41.252  29.303  33.088  1.00  0.00    -0.248 NA
ATOM     39  C   UNL A   1      42.155  27.439  32.009  1.00  0.00     0.031 C 
ATOM     40  C   UNL A   1      38.436  29.840  29.647  1.00  0.00     0.029 A 
ATOM     41  N   UNL A   1      39.145  30.710  31.581  1.00  0.00    -0.354 N 
ATOM     42  C   UNL A   1      42.289  28.787  33.856  1.00  0.00     0.074 A 
ATOM     43  C   UNL A   1      42.793  27.622  33.157  1.00  0.00     0.031 C 
ATOM     44  C   UNL A   1      37.745  30.972  29.858  1.00  0.00     0.029 A 
ATOM     45  C   UNL A   1      38.150  31.547  31.138  1.00  0.00     0.049 A 
ATOM     46  H   UNL A   1      39.654  30.867  32.410  1.00  0.00     0.167 HD
ATOM     47  C   UNL A   1      42.772  29.243  35.035  1.00  0.00     0.037 A 
ATOM     48  C   UNL A   1      37.608  32.639  31.713  1.00  0.00     0.037 A 
ATOM     49  C   UNL A   1      42.274  30.412  35.714  1.00  0.00     0.049 A 
ATOM     50  C   UNL A   1      38.130  33.100  33.047  1.00  0.00     0.074 A 
ATOM     51  C   UNL A   1      42.691  30.954  36.917  1.00  0.00     0.029 A 
ATOM     52  N   UNL A   1      41.250  31.223  35.244  1.00  0.00    -0.354 N 
ATOM     53  N   UNL A   1      39.089  32.586  33.781  1.00  0.00    -0.248 NA
ATOM     54  C   UNL A   1      37.493  34.285  33.638  1.00  0.00     0.031 C 
ATOM     55  C   UNL A   1      41.898  32.074  37.190  1.00  0.00     0.029 A 
ATOM     56  C   UNL A   1      41.012  32.253  36.138  1.00  0.00     0.049 A 
ATOM     57  H   UNL A   1      40.764  31.085  34.399  1.00  0.00     0.167 HD
ATOM     58  C   UNL A   1      39.186  33.396  34.905  1.00  0.00     0.074 A 
ATOM     59  C   UNL A   1      38.192  34.440  34.755  1.00  0.00     0.031 C 
ATOM     60  C   UNL A   1      40.024  33.287  35.966  1.00  0.00     0.037 A 
BRANCH  47  61
ATOM     61  C   UNL A   1      43.875  28.455  35.683  1.00  0.00     0.058 A 
ATOM     62  C   UNL A   1      43.610  27.408  36.579  1.00  0.00     0.135 A 
ATOM     63  C   UNL A   1      45.219  28.745  35.391  1.00  0.00     0.135 A 
ATOM     64  F   UNL A   1      42.344  27.104  36.908  1.00  0.00    -0.206 F 
ATOM     65  C   UNL A   1      44.638  26.690  37.181  1.00  0.00     0.059 A 
ATOM     66  C   UNL A   1      46.262  28.026  35.966  1.00  0.00     0.059 A 
ATOM     67  F   UNL A   1      45.527  29.740  34.545  1.00  0.00    -0.206 F 
ATOM     68  C   UNL A   1      45.962  27.010  36.872  1.00  0.00     0.060 A 
BRANCH  68  69
ATOM     69  S   UNL A   1      47.288  26.078  37.669  1.00  0.00     0.124 S 
ATOM     70  O   UNL A   1      46.533  25.224  38.582  1.00  0.00    -0.237 OA
ATOM     71  O   UNL A   1      47.916  25.397  36.542  1.00  0.00    -0.237 OA
ATOM     72  O   UNL A   1      48.098  27.114  38.303  1.00  0.00    -0.744 OA
ENDBRANCH  68  69
ENDBRANCH  47  61
BRANCH  48  73
ATOM     73  C   UNL A   1      36.492  33.353  31.039  1.00  0.00     0.058 A 
ATOM     74  C   UNL A   1      36.717  34.151  29.909  1.00  0.00     0.135 A 
ATOM     75  C   UNL A   1      35.174  33.241  31.510  1.00  0.00     0.135 A 
ATOM     76  F   UNL A   1      37.962  34.300  29.431  1.00  0.00    -0.206 F 
ATOM     77  C   UNL A   1      35.677  34.821  29.272  1.00  0.00     0.059 A 
ATOM     78  C   UNL A   1      34.114  33.884  30.877  1.00  0.00     0.059 A 
ATOM     79  F   UNL A   1      34.905  32.485  32.585  1.00  0.00    -0.206 F 
ATOM     80  C   UNL A   1      34.378  34.680  29.763  1.00  0.00     0.060 A 
BRANCH  80  81
ATOM     81  S   UNL A   1      33.026  35.516  28.906  1.00  0.00     0.124 S 
ATOM     82  O   UNL A   1      32.204  35.967  30.022  1.00  0.00    -0.237 OA
ATOM     83  O   UNL A   1      33.725  36.561  28.165  1.00  0.00    -0.237 OA
ATOM     84  O   UNL A   1      32.446  34.459  28.082  1.00  0.00    -0.744 OA
ENDBRANCH  80  81
ENDBRANCH  48  73
BRANCH  60  85
ATOM     85  C   UNL A   1      39.928  34.341  37.032  1.00  0.00     0.058 A 
ATOM     86  C   UNL A   1      40.556  35.588  36.893  1.00  0.00     0.135 A 
ATOM     87  C   UNL A   1      39.148  34.121  38.180  1.00  0.00     0.135 A 
ATOM     88  F   UNL A   1      41.317  35.846  35.819  1.00  0.00    -0.206 F 
ATOM     89  C   UNL A   1      40.426  36.577  37.863  1.00  0.00     0.059 A 
ATOM     90  C   UNL A   1      38.989  35.102  39.152  1.00  0.00     0.059 A 
ATOM     91  F   UNL A   1      38.520  32.947  38.354  1.00  0.00    -0.206 F 
ATOM     92  C   UNL A   1      39.639  36.326  38.989  1.00  0.00     0.060 A 
BRANCH  92  93
ATOM     93  S   UNL A   1      39.440  37.631  40.221  1.00  0.00     0.124 S 
ATOM     94  O   UNL A   1      38.468  38.504  39.570  1.00  0.00    -0.237 OA
ATOM     95  O   UNL A   1      38.952  36.896  41.384  1.00  0.00    -0.237 OA
ATOM     96  O   UNL A   1      40.786  38.178  40.355  1.00  0.00    -0.744 OA
ENDBRANCH  92  93
ENDBRANCH  60  85
ENDBRANCH  34  35
ENDBRANCH  27  29
ENDBRANCH  26  27
ENDBRANCH  25  26
ENDBRANCH   1  25
TORSDOF 18
ENDMDL
MODEL 3
REMARK VINA RESULT:     -11.4      1.483      3.194
REMARK SMILES C[C@H]1CC[C@H](CNC(=O)NCc2ccc(C(=O)OCCOC(=O)c3ccc(-c4c5nc(c(-c6c(F)cc(S(=O)(=O)[O-])cc6F)c6ccc([nH]6)c(-c6c(F)cc(S(=O)(=O)[O-])cc6F)c6nc(c(-c7c(F)cc(S(=O)(=O)[O-])cc7F)c7ccc4[nH]7)C=C6)C=C5)cc3)o2)CC1
REMARK SMILES IDX 19 1 18 2 16 3 17 4 15 5 12 6 13 7 90 8 14 9 11 10 10 11
REMARK SMILES IDX 7 12 8 13 9 15 6 17 5 18 1 19 2 20 92 21 3 22 91 23 4 24
REMARK SMILES IDX 20 25 21 26 22 27 23 28 24 29 25 30 89 31 26 32 88 33 27 34
REMARK SMILES IDX 28 35 29 36 82 37 30 38 87 39 81 40 83 41 31 42 86 43 80 44
REMARK SMILES IDX 79 45 32 47 66 48 45 49 65 50 46 51 49 52 64 53 84 54 47 55
REMARK SMILES IDX 48 56 63 58 85 59 50 60 33 61 34 62 43 63 35 64 36 65 42 66
REMARK SMILES IDX 44 67 37 68 38 69 39 70 40 71 41 72 67 73 68 74 77 75 69 76
REMARK SMILES IDX 70 77 76 78 78 79 71 80 72 81 73 82 74 83 75 84 51 85 52 86
REMARK SMILES IDX 61 87 53 88 54 89 60 90 62 91 55 92 56 93 57 94 58 95 59 96
REMARK H PARENT 7 14 10 16 83 46 49 57
REMARK Flexibility Score: inf
ROOT
ATOM      1  C   UNL A   1      38.730  21.793  25.739  1.00  0.00     0.275 C 
ENDROOT
BRANCH   1   2
ATOM      2  O   UNL A   1      37.437  22.406  25.571  1.00  0.00    -0.456 OA
BRANCH   2   3
ATOM      3  C   UNL A   1      36.443  21.593  25.101  1.00  0.00     0.374 C 
ATOM      4  O   UNL A   1      36.458  20.371  25.183  1.00  0.00    -0.242 OA
BRANCH   3   5
ATOM      5  C   UNL A   1      35.357  22.390  24.577  1.00  0.00     0.211 A 
ATOM      6  C   UNL A   1      33.215  22.893  24.309  1.00  0.00     0.124 A 
ATOM      7  C   UNL A   1      33.935  23.950  23.792  1.00  0.00     0.048 A 
ATOM      8  O   UNL A   1      34.078  21.919  24.727  1.00  0.00    -0.452 OA
ATOM      9  C   UNL A   1      35.305  23.631  23.968  1.00  0.00     0.058 A 
BRANCH   6  10
ATOM     10  C   UNL A   1      31.754  22.638  24.460  1.00  0.00     0.193 C 
BRANCH  10  11
ATOM     11  N   UNL A   1      31.382  22.644  25.855  1.00  0.00    -0.331 N 
ATOM     12  N   UNL A   1      30.295  24.694  26.280  1.00  0.00    -0.338 N 
ATOM     13  C   UNL A   1      30.584  23.426  26.585  1.00  0.00     0.315 C 
ATOM     14  H   UNL A   1      29.522  25.047  26.776  1.00  0.00     0.165 HD
ATOM     15  O   UNL A   1      30.112  22.955  27.621  1.00  0.00    -0.249 OA
ATOM     16  H   UNL A   1      31.802  21.921  26.374  1.00  0.00     0.165 HD
BRANCH  12  17
ATOM     17  C   UNL A   1      30.884  25.660  25.371  1.00  0.00     0.121 C 
BRANCH  17  18
ATOM     18  C   UNL A   1      31.989  26.466  26.074  1.00  0.00     0.008 C 
ATOM     19  C   UNL A   1      34.517  29.846  27.277  1.00  0.00     0.007 C 
ATOM     20  C   UNL A   1      33.425  29.027  26.591  1.00  0.00    -0.014 C 
ATOM     21  C   UNL A   1      32.470  28.414  27.622  1.00  0.00     0.003 C 
ATOM     22  C   UNL A   1      34.041  27.932  25.711  1.00  0.00     0.003 C 
ATOM     23  C   UNL A   1      31.385  27.572  26.951  1.00  0.00     0.006 C 
ATOM     24  C   UNL A   1      32.968  27.069  25.049  1.00  0.00     0.006 C 
ENDBRANCH  17  18
ENDBRANCH  12  17
ENDBRANCH  10  11
ENDBRANCH   6  10
ENDBRANCH   3   5
ENDBRANCH   2   3
ENDBRANCH   1   2
BRANCH   1  25
ATOM     25  C   UNL A   1      39.562  22.532  26.794  1.00  0.00     0.275 C 
BRANCH  25  26
ATOM     26  O   UNL A   1      39.405  23.959  26.696  1.00  0.00    -0.458 OA
BRANCH  26  27
ATOM     27  C   UNL A   1      40.558  24.668  26.626  1.00  0.00     0.338 C 
ATOM     28  O   UNL A   1      41.391  24.622  25.735  1.00  0.00    -0.246 OA
BRANCH  27  29
ATOM     29  C   UNL A   1      40.615  25.623  27.744  1.00  0.00     0.060 A 
ATOM     30  C   UNL A   1      39.505  25.718  28.586  1.00  0.00     0.016 A 
ATOM     31  C   UNL A   1      41.722  26.454  27.936  1.00  0.00     0.016 A 
ATOM     32  C   UNL A   1      39.497  26.647  29.622  1.00  0.00     0.010 A 
ATOM     33  C   UNL A   1      41.705  27.394  28.972  1.00  0.00     0.010 A 
ATOM     34  C   UNL A   1      40.585  27.504  29.813  1.00  0.00    -0.014 A 
BRANCH  34  35
ATOM     35  C   UNL A   1      40.513  28.560  30.852  1.00  0.00     0.031 A 
ATOM     36  C   UNL A   1      41.431  28.493  32.038  1.00  0.00     0.074 A 
ATOM     37  C   UNL A   1      39.650  29.584  30.718  1.00  0.00     0.049 A 
ATOM     38  N   UNL A   1      41.467  29.250  33.104  1.00  0.00    -0.248 NA
ATOM     39  C   UNL A   1      42.445  27.426  32.023  1.00  0.00     0.031 C 
ATOM     40  C   UNL A   1      38.759  29.793  29.577  1.00  0.00     0.029 A 
ATOM     41  N   UNL A   1      39.382  30.641  31.550  1.00  0.00    -0.354 N 
ATOM     42  C   UNL A   1      42.487  28.742  33.897  1.00  0.00     0.074 A 
ATOM     43  C   UNL A   1      43.040  27.601  33.195  1.00  0.00     0.031 C 
ATOM     44  C   UNL A   1      38.037  30.906  29.785  1.00  0.00     0.029 A 
ATOM     45  C   UNL A   1      38.385  31.466  31.088  1.00  0.00     0.049 A 
ATOM     46  H   UNL A   1      39.859  30.794  32.399  1.00  0.00     0.167 HD
ATOM     47  C   UNL A   1      42.920  29.186  35.100  1.00  0.00     0.037 A 
ATOM     48  C   UNL A   1      37.801  32.535  31.663  1.00  0.00     0.037 A 
ATOM     49  C   UNL A   1      42.374  30.331  35.782  1.00  0.00     0.049 A 
ATOM     50  C   UNL A   1      38.268  32.982  33.023  1.00  0.00     0.074 A 
ATOM     51  C   UNL A   1      42.738  30.859  37.009  1.00  0.00     0.029 A 
ATOM     52  N   UNL A   1      41.349  31.129  35.292  1.00  0.00    -0.354 N 
ATOM     53  N   UNL A   1      39.211  32.474  33.780  1.00  0.00    -0.248 NA
ATOM     54  C   UNL A   1      37.585  34.143  33.612  1.00  0.00     0.031 C 
ATOM     55  C   UNL A   1      41.912  31.957  37.275  1.00  0.00     0.029 A 
ATOM     56  C   UNL A   1      41.060  32.137  36.196  1.00  0.00     0.049 A 
ATOM     57  H   UNL A   1      40.896  30.997  34.428  1.00  0.00     0.167 HD
ATOM     58  C   UNL A   1      39.252  33.266  34.921  1.00  0.00     0.074 A 
ATOM     59  C   UNL A   1      38.242  34.291  34.755  1.00  0.00     0.031 C 
ATOM     60  C   UNL A   1      40.056  33.154  36.008  1.00  0.00     0.037 A 
BRANCH  47  61
ATOM     61  C   UNL A   1      44.016  28.409  35.772  1.00  0.00     0.058 A 
ATOM     62  C   UNL A   1      45.372  28.677  35.527  1.00  0.00     0.135 A 
ATOM     63  C   UNL A   1      43.704  27.391  36.689  1.00  0.00     0.135 A 
ATOM     64  F   UNL A   1      45.725  29.626  34.644  1.00  0.00    -0.206 F 
ATOM     65  C   UNL A   1      46.380  27.946  36.148  1.00  0.00     0.059 A 
ATOM     66  C   UNL A   1      44.696  26.662  37.337  1.00  0.00     0.059 A 
ATOM     67  F   UNL A   1      42.423  27.092  36.956  1.00  0.00    -0.206 F 
ATOM     68  C   UNL A   1      46.032  26.937  37.048  1.00  0.00     0.060 A 
BRANCH  68  69
ATOM     69  S   UNL A   1      47.350  25.989  37.838  1.00  0.00     0.124 S 
ATOM     70  O   UNL A   1      46.593  25.174  38.785  1.00  0.00    -0.237 OA
ATOM     71  O   UNL A   1      47.938  25.268  36.714  1.00  0.00    -0.237 OA
ATOM     72  O   UNL A   1      48.198  27.017  38.434  1.00  0.00    -0.744 OA
ENDBRANCH  68  69
ENDBRANCH  47  61
BRANCH  48  73
ATOM     73  C   UNL A   1      36.694  33.238  30.964  1.00  0.00     0.058 A 
ATOM     74  C   UNL A   1      36.951  34.179  29.957  1.00  0.00     0.135 A 
ATOM     75  C   UNL A   1      35.352  32.974  31.285  1.00  0.00     0.135 A 
ATOM     76  F   UNL A   1      38.217  34.476  29.625  1.00  0.00    -0.206 F 
ATOM     77  C   UNL A   1      35.919  34.840  29.297  1.00  0.00     0.059 A 
ATOM     78  C   UNL A   1      34.304  33.605  30.624  1.00  0.00     0.059 A 
ATOM     79  F   UNL A   1      35.053  32.078  32.238  1.00  0.00    -0.206 F 
ATOM     80  C   UNL A   1      34.598  34.545  29.637  1.00  0.00     0.060 A 
BRANCH  80  81
ATOM     81  S   UNL A   1      33.263  35.373  28.747  1.00  0.00     0.124 S 
ATOM     82  O   UNL A   1      34.006  36.241  27.842  1.00  0.00    -0.237 OA
ATOM     83  O   UNL A   1      32.562  34.253  28.124  1.00  0.00    -0.237 OA
ATOM     84  O   UNL A   1      32.522  36.051  29.806  1.00  0.00    -0.744 OA
ENDBRANCH  80  81
ENDBRANCH  48  73
BRANCH  60  85
ATOM     85  C   UNL A   1      39.901  34.186  37.089  1.00  0.00     0.058 A 
ATOM     86  C   UNL A   1      40.482  35.458  36.981  1.00  0.00     0.135 A 
ATOM     87  C   UNL A   1      39.111  33.916  38.220  1.00  0.00     0.135 A 
ATOM     88  F   UNL A   1      41.250  35.763  35.924  1.00  0.00    -0.206 F 
ATOM     89  C   UNL A   1      40.297  36.425  37.964  1.00  0.00     0.059 A 
ATOM     90  C   UNL A   1      38.897  34.875  39.204  1.00  0.00     0.059 A 
ATOM     91  F   UNL A   1      38.526  32.717  38.364  1.00  0.00    -0.206 F 
ATOM     92  C   UNL A   1      39.502  36.125  39.072  1.00  0.00     0.060 A 
BRANCH  92  93
ATOM     93  S   UNL A   1      39.231  37.401  40.320  1.00  0.00     0.124 S 
ATOM     94  O   UNL A   1      38.353  38.326  39.611  1.00  0.00    -0.237 OA
ATOM     95  O   UNL A   1      38.614  36.651  41.410  1.00  0.00    -0.237 OA
ATOM     96  O   UNL A   1      40.576  37.897  40.594  1.00  0.00    -0.744 OA
ENDBRANCH  92  93
ENDBRANCH  60  85
ENDBRANCH  34  35
ENDBRANCH  27  29
ENDBRANCH  26  27
ENDBRANCH  25  26
ENDBRANCH   1  25
TORSDOF 18
ENDMDL
