MODEL 1
REMARK VINA RESULT:     -11.0      0.000      0.000
REMARK SMILES C[C@@H](C(=O)OCCOC(=O)c1ccc(-c2c3nc(c(-c4c(F)cc(S(=O)(=O)[O-])cc4F)c4ccc([nH]4)c(-c4c(F)cc(S(=O)(=O)[O-])cc4F)c4nc(c(-c5c(F)cc(S(=O)(=O)[O-])cc5F)c5ccc2[nH]5)C=C4)C=C3)cc1)c1ccc(C[C@@H]2CCC[C@@H]2O)cc1F
REMARK SMILES IDX 6 1 5 2 3 3 4 4 2 5 1 6 77 7 78 8 89 9 79 10 88 11 90 12
REMARK SMILES IDX 80 13 81 14 82 15 83 16 86 17 84 18 85 19 87 20 7 22 8 23
REMARK SMILES IDX 9 24 10 25 11 26 12 27 76 28 13 29 75 30 14 31 15 32 16 33
REMARK SMILES IDX 69 34 17 35 74 36 68 37 70 38 18 39 73 40 67 41 66 42 19 44
REMARK SMILES IDX 53 45 32 46 52 47 33 48 36 49 51 50 71 51 34 52 35 53 50 55
REMARK SMILES IDX 72 56 37 57 20 58 21 59 30 60 22 61 23 62 29 63 31 64 24 65
REMARK SMILES IDX 25 66 26 67 27 68 28 69 54 70 55 71 64 72 56 73 57 74 63 75
REMARK SMILES IDX 65 76 58 77 59 78 60 79 61 80 62 81 38 82 39 83 48 84 40 85
REMARK SMILES IDX 41 86 47 87 49 88 42 89 43 90 44 91 45 92 46 93
REMARK H PARENT 87 21 70 43 36 54
REMARK Flexibility Score: inf
ROOT
ATOM      1  C   UNL A   1      32.786  27.308  26.221  1.00  0.00     0.274 C 
ENDROOT
BRANCH   1   2
ATOM      2  O   UNL A   1      33.402  26.279  25.416  1.00  0.00    -0.462 OA
BRANCH   2   3
ATOM      3  C   UNL A   1      32.636  25.739  24.428  1.00  0.00     0.313 C 
ATOM      4  O   UNL A   1      31.419  25.612  24.507  1.00  0.00    -0.252 OA
BRANCH   3   5
ATOM      5  C   UNL A   1      33.478  25.246  23.233  1.00  0.00     0.129 C 
ATOM      6  C   UNL A   1      32.910  25.640  21.869  1.00  0.00     0.025 C 
BRANCH   5   7
ATOM      7  C   UNL A   1      33.699  23.747  23.370  1.00  0.00     0.002 A 
ATOM      8  C   UNL A   1      32.781  22.819  22.866  1.00  0.00     0.008 A 
ATOM      9  C   UNL A   1      34.717  23.282  24.210  1.00  0.00     0.127 A 
ATOM     10  C   UNL A   1      32.780  21.506  23.345  1.00  0.00     0.004 A 
ATOM     11  C   UNL A   1      34.722  21.975  24.689  1.00  0.00     0.043 A 
ATOM     12  F   UNL A   1      35.659  24.130  24.647  1.00  0.00    -0.207 F 
ATOM     13  C   UNL A   1      33.682  21.110  24.343  1.00  0.00    -0.045 A 
BRANCH  13  14
ATOM     14  C   UNL A   1      33.421  19.854  25.145  1.00  0.00     0.041 C 
BRANCH  14  15
ATOM     15  C   UNL A   1      33.456  18.523  24.340  1.00  0.00     0.022 C 
ATOM     16  C   UNL A   1      32.407  17.462  24.733  1.00  0.00     0.007 C 
ATOM     17  C   UNL A   1      34.783  17.737  24.295  1.00  0.00     0.117 C 
ATOM     18  C   UNL A   1      33.087  16.108  24.623  1.00  0.00     0.003 C 
ATOM     19  C   UNL A   1      34.511  16.425  25.023  1.00  0.00     0.032 C 
BRANCH  17  20
ATOM     20  O   UNL A   1      35.888  18.416  24.850  1.00  0.00    -0.393 OA
ATOM     21  H   UNL A   1      36.604  18.459  24.197  1.00  0.00     0.210 HD
ENDBRANCH  17  20
ENDBRANCH  14  15
ENDBRANCH  13  14
ENDBRANCH   5   7
ENDBRANCH   3   5
ENDBRANCH   2   3
ENDBRANCH   1   2
BRANCH   1  22
ATOM     22  C   UNL A   1      33.687  28.539  26.298  1.00  0.00     0.275 C 
BRANCH  22  23
ATOM     23  O   UNL A   1      34.255  28.634  27.616  1.00  0.00    -0.458 OA
BRANCH  23  24
ATOM     24  C   UNL A   1      34.719  29.854  27.977  1.00  0.00     0.338 C 
ATOM     25  O   UNL A   1      34.091  30.894  28.047  1.00  0.00    -0.246 OA
BRANCH  24  26
ATOM     26  C   UNL A   1      36.144  29.733  28.332  1.00  0.00     0.060 A 
ATOM     27  C   UNL A   1      37.086  29.930  27.330  1.00  0.00     0.016 A 
ATOM     28  C   UNL A   1      36.550  29.330  29.609  1.00  0.00     0.016 A 
ATOM     29  C   UNL A   1      38.430  29.683  27.593  1.00  0.00     0.010 A 
ATOM     30  C   UNL A   1      37.918  29.147  29.886  1.00  0.00     0.010 A 
ATOM     31  C   UNL A   1      38.868  29.319  28.873  1.00  0.00    -0.014 A 
BRANCH  31  32
ATOM     32  C   UNL A   1      40.325  29.065  29.039  1.00  0.00     0.031 A 
ATOM     33  C   UNL A   1      40.904  27.785  28.512  1.00  0.00     0.074 A 
ATOM     34  C   UNL A   1      41.150  30.054  29.436  1.00  0.00     0.049 A 
ATOM     35  N   UNL A   1      42.151  27.396  28.485  1.00  0.00    -0.248 NA
ATOM     36  C   UNL A   1      39.956  26.823  27.930  1.00  0.00     0.031 C 
ATOM     37  C   UNL A   1      40.720  31.386  29.854  1.00  0.00     0.029 A 
ATOM     38  N   UNL A   1      42.524  30.131  29.457  1.00  0.00    -0.354 N 
ATOM     39  C   UNL A   1      42.132  26.112  27.957  1.00  0.00     0.074 A 
ATOM     40  C   UNL A   1      40.760  25.822  27.598  1.00  0.00     0.031 C 
ATOM     41  C   UNL A   1      41.798  32.185  29.947  1.00  0.00     0.029 A 
ATOM     42  C   UNL A   1      43.004  31.400  29.699  1.00  0.00     0.049 A 
ATOM     43  H   UNL A   1      43.108  29.352  29.312  1.00  0.00     0.167 HD
ATOM     44  C   UNL A   1      43.158  25.236  27.849  1.00  0.00     0.037 A 
ATOM     45  C   UNL A   1      44.270  31.870  29.720  1.00  0.00     0.037 A 
ATOM     46  C   UNL A   1      44.516  25.536  28.222  1.00  0.00     0.049 A 
ATOM     47  C   UNL A   1      45.405  30.888  29.569  1.00  0.00     0.074 A 
ATOM     48  C   UNL A   1      45.599  24.679  28.309  1.00  0.00     0.029 A 
ATOM     49  N   UNL A   1      44.978  26.798  28.558  1.00  0.00    -0.354 N 
ATOM     50  N   UNL A   1      45.359  29.618  29.243  1.00  0.00    -0.248 NA
ATOM     51  C   UNL A   1      46.760  31.385  29.858  1.00  0.00     0.031 C 
ATOM     52  C   UNL A   1      46.710  25.419  28.732  1.00  0.00     0.029 A 
ATOM     53  C   UNL A   1      46.328  26.745  28.862  1.00  0.00     0.049 A 
ATOM     54  H   UNL A   1      44.427  27.614  28.578  1.00  0.00     0.167 HD
ATOM     55  C   UNL A   1      46.667  29.152  29.346  1.00  0.00     0.074 A 
ATOM     56  C   UNL A   1      47.492  30.292  29.683  1.00  0.00     0.031 C 
ATOM     57  C   UNL A   1      47.133  27.884  29.221  1.00  0.00     0.037 A 
BRANCH  44  58
ATOM     58  C   UNL A   1      42.809  23.831  27.460  1.00  0.00     0.058 A 
ATOM     59  C   UNL A   1      42.518  22.833  28.400  1.00  0.00     0.135 A 
ATOM     60  C   UNL A   1      42.792  23.481  26.099  1.00  0.00     0.135 A 
ATOM     61  F   UNL A   1      42.554  23.108  29.713  1.00  0.00    -0.206 F 
ATOM     62  C   UNL A   1      42.242  21.526  28.003  1.00  0.00     0.059 A 
ATOM     63  C   UNL A   1      42.500  22.190  25.680  1.00  0.00     0.059 A 
ATOM     64  F   UNL A   1      43.079  24.399  25.163  1.00  0.00    -0.206 F 
ATOM     65  C   UNL A   1      42.241  21.214  26.640  1.00  0.00     0.060 A 
BRANCH  65  66
ATOM     66  S   UNL A   1      41.906  19.515  26.135  1.00  0.00     0.124 S 
ATOM     67  O   UNL A   1      42.277  18.775  27.337  1.00  0.00    -0.237 OA
ATOM     68  O   UNL A   1      40.480  19.554  25.829  1.00  0.00    -0.237 OA
ATOM     69  O   UNL A   1      42.785  19.323  24.986  1.00  0.00    -0.744 OA
ENDBRANCH  65  66
ENDBRANCH  44  58
BRANCH  45  70
ATOM     70  C   UNL A   1      44.556  33.318  29.943  1.00  0.00     0.058 A 
ATOM     71  C   UNL A   1      44.685  34.204  28.861  1.00  0.00     0.135 A 
ATOM     72  C   UNL A   1      44.734  33.845  31.232  1.00  0.00     0.135 A 
ATOM     73  F   UNL A   1      44.545  33.752  27.604  1.00  0.00    -0.206 F 
ATOM     74  C   UNL A   1      44.984  35.552  29.045  1.00  0.00     0.059 A 
ATOM     75  C   UNL A   1      44.997  35.195  31.444  1.00  0.00     0.059 A 
ATOM     76  F   UNL A   1      44.633  33.048  32.306  1.00  0.00    -0.206 F 
ATOM     77  C   UNL A   1      45.133  36.039  30.343  1.00  0.00     0.060 A 
BRANCH  77  78
ATOM     78  S   UNL A   1      45.452  37.800  30.601  1.00  0.00     0.124 S 
ATOM     79  O   UNL A   1      45.982  38.193  29.301  1.00  0.00    -0.237 OA
ATOM     80  O   UNL A   1      44.128  38.316  30.933  1.00  0.00    -0.237 OA
ATOM     81  O   UNL A   1      46.409  37.800  31.704  1.00  0.00    -0.744 OA
ENDBRANCH  77  78
ENDBRANCH  45  70
BRANCH  57  82
ATOM     82  C   UNL A   1      48.590  27.653  29.509  1.00  0.00     0.058 A 
ATOM     83  C   UNL A   1      49.023  27.291  30.796  1.00  0.00     0.135 A 
ATOM     84  C   UNL A   1      49.551  27.729  28.491  1.00  0.00     0.135 A 
ATOM     85  F   UNL A   1      48.142  27.203  31.806  1.00  0.00    -0.206 F 
ATOM     86  C   UNL A   1      50.361  27.034  31.067  1.00  0.00     0.059 A 
ATOM     87  C   UNL A   1      50.894  27.456  28.735  1.00  0.00     0.059 A 
ATOM     88  F   UNL A   1      49.186  28.059  27.241  1.00  0.00    -0.206 F 
ATOM     89  C   UNL A   1      51.292  27.120  30.029  1.00  0.00     0.060 A 
BRANCH  89  90
ATOM     90  S   UNL A   1      53.023  26.755  30.388  1.00  0.00     0.124 S 
ATOM     91  O   UNL A   1      53.510  26.328  29.082  1.00  0.00    -0.237 OA
ATOM     92  O   UNL A   1      53.524  28.041  30.863  1.00  0.00    -0.237 OA
ATOM     93  O   UNL A   1      52.944  25.707  31.403  1.00  0.00    -0.744 OA
ENDBRANCH  89  90
ENDBRANCH  57  82
ENDBRANCH  31  32
ENDBRANCH  24  26
ENDBRANCH  23  24
ENDBRANCH  22  23
ENDBRANCH   1  22
TORSDOF 18
ENDMDL
MODEL 2
REMARK VINA RESULT:     -11.0      2.368      4.758
REMARK SMILES C[C@@H](C(=O)OCCOC(=O)c1ccc(-c2c3nc(c(-c4c(F)cc(S(=O)(=O)[O-])cc4F)c4ccc([nH]4)c(-c4c(F)cc(S(=O)(=O)[O-])cc4F)c4nc(c(-c5c(F)cc(S(=O)(=O)[O-])cc5F)c5ccc2[nH]5)C=C4)C=C3)cc1)c1ccc(C[C@@H]2CCC[C@@H]2O)cc1F
REMARK SMILES IDX 6 1 5 2 3 3 4 4 2 5 1 6 77 7 78 8 89 9 79 10 88 11 90 12
REMARK SMILES IDX 80 13 81 14 82 15 83 16 86 17 84 18 85 19 87 20 7 22 8 23
REMARK SMILES IDX 9 24 10 25 11 26 12 27 76 28 13 29 75 30 14 31 15 32 16 33
REMARK SMILES IDX 69 34 17 35 74 36 68 37 70 38 18 39 73 40 67 41 66 42 19 44
REMARK SMILES IDX 53 45 32 46 52 47 33 48 36 49 51 50 71 51 34 52 35 53 50 55
REMARK SMILES IDX 72 56 37 57 20 58 21 59 30 60 22 61 23 62 29 63 31 64 24 65
REMARK SMILES IDX 25 66 26 67 27 68 28 69 54 70 55 71 64 72 56 73 57 74 63 75
REMARK SMILES IDX 65 76 58 77 59 78 60 79 61 80 62 81 38 82 39 83 48 84 40 85
REMARK SMILES IDX 41 86 47 87 49 88 42 89 43 90 44 91 45 92 46 93
REMARK H PARENT 87 21 70 43 36 54
REMARK Flexibility Score: inf
ROOT
ATOM      1  C   UNL A   1      31.844  27.900  26.543  1.00  0.00     0.274 C 
ENDROOT
BRANCH   1   2
ATOM      2  O   UNL A   1      31.240  26.626  26.860  1.00  0.00    -0.462 OA
BRANCH   2   3
ATOM      3  C   UNL A   1      31.694  25.547  26.162  1.00  0.00     0.313 C 
ATOM      4  O   UNL A   1      32.847  25.137  26.223  1.00  0.00    -0.252 OA
BRANCH   3   5
ATOM      5  C   UNL A   1      30.613  24.947  25.238  1.00  0.00     0.129 C 
ATOM      6  C   UNL A   1      30.903  23.513  24.796  1.00  0.00     0.025 C 
BRANCH   5   7
ATOM      7  C   UNL A   1      30.384  25.892  24.068  1.00  0.00     0.002 A 
ATOM      8  C   UNL A   1      31.420  26.249  23.196  1.00  0.00     0.008 A 
ATOM      9  C   UNL A   1      29.179  26.601  23.989  1.00  0.00     0.127 A 
ATOM     10  C   UNL A   1      31.306  27.397  22.408  1.00  0.00     0.004 A 
ATOM     11  C   UNL A   1      29.060  27.743  23.204  1.00  0.00     0.043 A 
ATOM     12  F   UNL A   1      28.141  26.235  24.754  1.00  0.00    -0.207 F 
ATOM     13  C   UNL A   1      30.167  28.211  22.494  1.00  0.00    -0.045 A 
BRANCH  13  14
ATOM     14  C   UNL A   1      30.214  29.634  21.980  1.00  0.00     0.041 C 
BRANCH  14  15
ATOM     15  C   UNL A   1      28.916  30.466  22.187  1.00  0.00     0.022 C 
ATOM     16  C   UNL A   1      28.447  31.309  20.981  1.00  0.00     0.007 C 
ATOM     17  C   UNL A   1      28.866  31.452  23.373  1.00  0.00     0.117 C 
ATOM     18  C   UNL A   1      27.895  32.608  21.540  1.00  0.00     0.003 C 
ATOM     19  C   UNL A   1      28.772  32.841  22.751  1.00  0.00     0.032 C 
BRANCH  17  20
ATOM     20  O   UNL A   1      29.958  31.357  24.262  1.00  0.00    -0.393 OA
ATOM     21  H   UNL A   1      30.787  31.425  23.765  1.00  0.00     0.210 HD
ENDBRANCH  17  20
ENDBRANCH  14  15
ENDBRANCH  13  14
ENDBRANCH   5   7
ENDBRANCH   3   5
ENDBRANCH   2   3
ENDBRANCH   1   2
BRANCH   1  22
ATOM     22  C   UNL A   1      32.557  28.473  27.767  1.00  0.00     0.275 C 
BRANCH  22  23
ATOM     23  O   UNL A   1      33.961  28.606  27.481  1.00  0.00    -0.458 OA
BRANCH  23  24
ATOM     24  C   UNL A   1      34.476  29.853  27.598  1.00  0.00     0.338 C 
ATOM     25  O   UNL A   1      33.910  30.910  27.390  1.00  0.00    -0.246 OA
BRANCH  24  26
ATOM     26  C   UNL A   1      35.865  29.750  28.078  1.00  0.00     0.060 A 
ATOM     27  C   UNL A   1      36.888  30.061  27.189  1.00  0.00     0.016 A 
ATOM     28  C   UNL A   1      36.168  29.254  29.351  1.00  0.00     0.016 A 
ATOM     29  C   UNL A   1      38.210  29.837  27.558  1.00  0.00     0.010 A 
ATOM     30  C   UNL A   1      37.510  29.094  29.741  1.00  0.00     0.010 A 
ATOM     31  C   UNL A   1      38.542  29.382  28.841  1.00  0.00    -0.014 A 
BRANCH  31  32
ATOM     32  C   UNL A   1      39.986  29.163  29.125  1.00  0.00     0.031 A 
ATOM     33  C   UNL A   1      40.651  27.923  28.602  1.00  0.00     0.074 A 
ATOM     34  C   UNL A   1      40.742  30.158  29.632  1.00  0.00     0.049 A 
ATOM     35  N   UNL A   1      41.907  27.571  28.669  1.00  0.00    -0.248 NA
ATOM     36  C   UNL A   1      39.788  26.959  27.901  1.00  0.00     0.031 C 
ATOM     37  C   UNL A   1      40.235  31.458  30.062  1.00  0.00     0.029 A 
ATOM     38  N   UNL A   1      42.106  30.273  29.776  1.00  0.00    -0.354 N 
ATOM     39  C   UNL A   1      41.975  26.311  28.092  1.00  0.00     0.074 A 
ATOM     40  C   UNL A   1      40.649  25.997  27.602  1.00  0.00     0.031 C 
ATOM     41  C   UNL A   1      41.274  32.283  30.280  1.00  0.00     0.029 A 
ATOM     42  C   UNL A   1      42.522  31.544  30.109  1.00  0.00     0.049 A 
ATOM     43  H   UNL A   1      42.725  29.518  29.653  1.00  0.00     0.167 HD
ATOM     44  C   UNL A   1      43.035  25.470  28.040  1.00  0.00     0.037 A 
ATOM     45  C   UNL A   1      43.766  32.048  30.260  1.00  0.00     0.037 A 
ATOM     46  C   UNL A   1      44.344  25.792  28.543  1.00  0.00     0.049 A 
ATOM     47  C   UNL A   1      44.941  31.107  30.171  1.00  0.00     0.074 A 
ATOM     48  C   UNL A   1      45.443  24.964  28.692  1.00  0.00     0.029 A 
ATOM     49  N   UNL A   1      44.734  27.052  28.967  1.00  0.00    -0.354 N 
ATOM     50  N   UNL A   1      44.964  29.850  29.793  1.00  0.00    -0.248 NA
ATOM     51  C   UNL A   1      46.248  31.629  30.597  1.00  0.00     0.031 C 
ATOM     52  C   UNL A   1      46.488  25.717  29.240  1.00  0.00     0.029 A 
ATOM     53  C   UNL A   1      46.054  27.025  29.387  1.00  0.00     0.049 A 
ATOM     54  H   UNL A   1      44.158  27.850  28.970  1.00  0.00     0.167 HD
ATOM     55  C   UNL A   1      46.272  29.419  29.993  1.00  0.00     0.074 A 
ATOM     56  C   UNL A   1      47.027  30.567  30.446  1.00  0.00     0.031 C 
ATOM     57  C   UNL A   1      46.788  28.171  29.860  1.00  0.00     0.037 A 
BRANCH  44  58
ATOM     58  C   UNL A   1      42.766  24.073  27.568  1.00  0.00     0.058 A 
ATOM     59  C   UNL A   1      42.719  23.724  26.211  1.00  0.00     0.135 A 
ATOM     60  C   UNL A   1      42.525  23.064  28.516  1.00  0.00     0.135 A 
ATOM     61  F   UNL A   1      42.909  24.659  25.265  1.00  0.00    -0.206 F 
ATOM     62  C   UNL A   1      42.422  22.424  25.809  1.00  0.00     0.059 A 
ATOM     63  C   UNL A   1      42.246  21.757  28.139  1.00  0.00     0.059 A 
ATOM     64  F   UNL A   1      42.543  23.352  29.827  1.00  0.00    -0.206 F 
ATOM     65  C   UNL A   1      42.181  21.449  26.781  1.00  0.00     0.060 A 
BRANCH  65  66
ATOM     66  S   UNL A   1      41.773  19.773  26.253  1.00  0.00     0.124 S 
ATOM     67  O   UNL A   1      42.201  18.991  27.409  1.00  0.00    -0.237 OA
ATOM     68  O   UNL A   1      40.333  19.853  26.039  1.00  0.00    -0.237 OA
ATOM     69  O   UNL A   1      42.574  19.593  25.045  1.00  0.00    -0.744 OA
ENDBRANCH  65  66
ENDBRANCH  44  58
BRANCH  45  70
ATOM     70  C   UNL A   1      43.984  33.493  30.564  1.00  0.00     0.058 A 
ATOM     71  C   UNL A   1      44.166  34.429  29.532  1.00  0.00     0.135 A 
ATOM     72  C   UNL A   1      44.045  33.969  31.883  1.00  0.00     0.135 A 
ATOM     73  F   UNL A   1      44.138  34.028  28.251  1.00  0.00    -0.206 F 
ATOM     74  C   UNL A   1      44.403  35.777  29.794  1.00  0.00     0.059 A 
ATOM     75  C   UNL A   1      44.245  35.317  32.170  1.00  0.00     0.059 A 
ATOM     76  F   UNL A   1      43.889  33.123  32.912  1.00  0.00    -0.206 F 
ATOM     77  C   UNL A   1      44.437  36.211  31.119  1.00  0.00     0.060 A 
BRANCH  77  78
ATOM     78  S   UNL A   1      44.675  37.968  31.473  1.00  0.00     0.124 S 
ATOM     79  O   UNL A   1      44.174  38.582  30.249  1.00  0.00    -0.237 OA
ATOM     80  O   UNL A   1      43.858  38.164  32.666  1.00  0.00    -0.237 OA
ATOM     81  O   UNL A   1      46.116  38.064  31.688  1.00  0.00    -0.744 OA
ENDBRANCH  77  78
ENDBRANCH  45  70
BRANCH  57  82
ATOM     82  C   UNL A   1      48.220  27.969  30.266  1.00  0.00     0.058 A 
ATOM     83  C   UNL A   1      48.555  27.626  31.586  1.00  0.00     0.135 A 
ATOM     84  C   UNL A   1      49.258  28.056  29.328  1.00  0.00     0.135 A 
ATOM     85  F   UNL A   1      47.598  27.529  32.523  1.00  0.00    -0.206 F 
ATOM     86  C   UNL A   1      49.872  27.396  31.967  1.00  0.00     0.059 A 
ATOM     87  C   UNL A   1      50.583  27.810  29.681  1.00  0.00     0.059 A 
ATOM     88  F   UNL A   1      48.990  28.368  28.050  1.00  0.00    -0.206 F 
ATOM     89  C   UNL A   1      50.881  27.492  31.006  1.00  0.00     0.060 A 
BRANCH  89  90
ATOM     90  S   UNL A   1      52.585  27.162  31.506  1.00  0.00     0.124 S 
ATOM     91  O   UNL A   1      52.514  27.377  32.947  1.00  0.00    -0.237 OA
ATOM     92  O   UNL A   1      52.777  25.780  31.079  1.00  0.00    -0.237 OA
ATOM     93  O   UNL A   1      53.354  28.154  30.759  1.00  0.00    -0.744 OA
ENDBRANCH  89  90
ENDBRANCH  57  82
ENDBRANCH  31  32
ENDBRANCH  24  26
ENDBRANCH  23  24
ENDBRANCH  22  23
ENDBRANCH   1  22
TORSDOF 18
ENDMDL
MODEL 3
REMARK VINA RESULT:     -11.0      3.724      5.840
REMARK SMILES C[C@@H](C(=O)OCCOC(=O)c1ccc(-c2c3nc(c(-c4c(F)cc(S(=O)(=O)[O-])cc4F)c4ccc([nH]4)c(-c4c(F)cc(S(=O)(=O)[O-])cc4F)c4nc(c(-c5c(F)cc(S(=O)(=O)[O-])cc5F)c5ccc2[nH]5)C=C4)C=C3)cc1)c1ccc(C[C@@H]2CCC[C@@H]2O)cc1F
REMARK SMILES IDX 6 1 5 2 3 3 4 4 2 5 1 6 77 7 78 8 89 9 79 10 88 11 90 12
REMARK SMILES IDX 80 13 81 14 82 15 83 16 86 17 84 18 85 19 87 20 7 22 8 23
REMARK SMILES IDX 9 24 10 25 11 26 12 27 76 28 13 29 75 30 14 31 15 32 16 33
REMARK SMILES IDX 69 34 17 35 74 36 68 37 70 38 18 39 73 40 67 41 66 42 19 44
REMARK SMILES IDX 53 45 32 46 52 47 33 48 36 49 51 50 71 51 34 52 35 53 50 55
REMARK SMILES IDX 72 56 37 57 20 58 21 59 30 60 22 61 23 62 29 63 31 64 24 65
REMARK SMILES IDX 25 66 26 67 27 68 28 69 54 70 55 71 64 72 56 73 57 74 63 75
REMARK SMILES IDX 65 76 58 77 59 78 60 79 61 80 62 81 38 82 39 83 48 84 40 85
REMARK SMILES IDX 41 86 47 87 49 88 42 89 43 90 44 91 45 92 46 93
REMARK H PARENT 87 21 70 43 36 54
REMARK Flexibility Score: inf
ROOT
ATOM      1  C   UNL A   1      34.804  32.924  31.731  1.00  0.00     0.274 C 
ENDROOT
BRANCH   1   2
ATOM      2  O   UNL A   1      34.957  34.299  31.315  1.00  0.00    -0.462 OA
BRANCH   2   3
ATOM      3  C   UNL A   1      34.013  34.784  30.460  1.00  0.00     0.313 C 
ATOM      4  O   UNL A   1      32.839  34.952  30.772  1.00  0.00    -0.252 OA
BRANCH   3   5
ATOM      5  C   UNL A   1      34.572  35.031  29.044  1.00  0.00     0.129 C 
ATOM      6  C   UNL A   1      34.022  36.288  28.370  1.00  0.00     0.025 C 
BRANCH   5   7
ATOM      7  C   UNL A   1      34.370  33.775  28.208  1.00  0.00     0.002 A 
ATOM      8  C   UNL A   1      33.096  33.358  27.804  1.00  0.00     0.008 A 
ATOM      9  C   UNL A   1      35.442  32.894  28.029  1.00  0.00     0.127 A 
ATOM     10  C   UNL A   1      32.886  32.033  27.411  1.00  0.00     0.004 A 
ATOM     11  C   UNL A   1      35.239  31.575  27.636  1.00  0.00     0.043 A 
ATOM     12  F   UNL A   1      36.687  33.291  28.332  1.00  0.00    -0.207 F 
ATOM     13  C   UNL A   1      33.940  31.108  27.433  1.00  0.00    -0.045 A 
BRANCH  13  14
ATOM     14  C   UNL A   1      33.643  29.623  27.418  1.00  0.00     0.041 C 
BRANCH  14  15
ATOM     15  C   UNL A   1      32.276  29.218  26.796  1.00  0.00     0.022 C 
ATOM     16  C   UNL A   1      31.699  27.860  27.248  1.00  0.00     0.007 C 
ATOM     17  C   UNL A   1      32.161  29.179  25.258  1.00  0.00     0.117 C 
ATOM     18  C   UNL A   1      31.038  27.235  26.032  1.00  0.00     0.003 C 
ATOM     19  C   UNL A   1      31.917  27.717  24.899  1.00  0.00     0.032 C 
BRANCH  17  20
ATOM     20  O   UNL A   1      33.278  29.700  24.571  1.00  0.00    -0.393 OA
ATOM     21  H   UNL A   1      32.976  30.259  23.839  1.00  0.00     0.210 HD
ENDBRANCH  17  20
ENDBRANCH  14  15
ENDBRANCH  13  14
ENDBRANCH   5   7
ENDBRANCH   3   5
ENDBRANCH   2   3
ENDBRANCH   1   2
BRANCH   1  22
ATOM     22  C   UNL A   1      36.140  32.360  32.212  1.00  0.00     0.275 C 
BRANCH  22  23
ATOM     23  O   UNL A   1      36.854  31.805  31.092  1.00  0.00    -0.458 OA
BRANCH  23  24
ATOM     24  C   UNL A   1      36.827  30.456  30.980  1.00  0.00     0.338 C 
ATOM     25  O   UNL A   1      35.907  29.707  31.256  1.00  0.00    -0.246 OA
BRANCH  24  26
ATOM     26  C   UNL A   1      38.108  30.001  30.411  1.00  0.00     0.060 A 
ATOM     27  C   UNL A   1      39.038  29.429  31.271  1.00  0.00     0.016 A 
ATOM     28  C   UNL A   1      38.437  30.227  29.070  1.00  0.00     0.016 A 
ATOM     29  C   UNL A   1      40.310  29.121  30.799  1.00  0.00     0.010 A 
ATOM     30  C   UNL A   1      39.703  29.852  28.585  1.00  0.00     0.010 A 
ATOM     31  C   UNL A   1      40.652  29.298  29.452  1.00  0.00    -0.014 A 
BRANCH  31  32
ATOM     32  C   UNL A   1      42.044  28.951  29.059  1.00  0.00     0.031 A 
ATOM     33  C   UNL A   1      42.306  27.624  28.408  1.00  0.00     0.074 A 
ATOM     34  C   UNL A   1      43.011  29.890  29.067  1.00  0.00     0.049 A 
ATOM     35  N   UNL A   1      43.423  27.152  27.923  1.00  0.00    -0.248 NA
ATOM     36  C   UNL A   1      41.156  26.716  28.276  1.00  0.00     0.031 C 
ATOM     37  C   UNL A   1      42.847  31.256  29.558  1.00  0.00     0.029 A 
ATOM     38  N   UNL A   1      44.289  29.874  28.556  1.00  0.00    -0.354 N 
ATOM     39  C   UNL A   1      43.132  25.862  27.500  1.00  0.00     0.074 A 
ATOM     40  C   UNL A   1      41.714  25.658  27.706  1.00  0.00     0.031 C 
ATOM     41  C   UNL A   1      43.920  31.982  29.196  1.00  0.00     0.029 A 
ATOM     42  C   UNL A   1      44.894  31.113  28.540  1.00  0.00     0.049 A 
ATOM     43  H   UNL A   1      44.729  29.056  28.233  1.00  0.00     0.167 HD
ATOM     44  C   UNL A   1      43.989  24.918  27.045  1.00  0.00     0.037 A 
ATOM     45  C   UNL A   1      46.093  31.497  28.054  1.00  0.00     0.037 A 
ATOM     46  C   UNL A   1      45.400  25.133  26.857  1.00  0.00     0.049 A 
ATOM     47  C   UNL A   1      47.028  30.439  27.523  1.00  0.00     0.074 A 
ATOM     48  C   UNL A   1      46.385  24.207  26.561  1.00  0.00     0.029 A 
ATOM     49  N   UNL A   1      46.023  26.368  26.934  1.00  0.00    -0.354 N 
ATOM     50  N   UNL A   1      46.791  29.168  27.296  1.00  0.00    -0.248 NA
ATOM     51  C   UNL A   1      48.414  30.849  27.250  1.00  0.00     0.031 C 
ATOM     52  C   UNL A   1      47.612  24.880  26.493  1.00  0.00     0.029 A 
ATOM     53  C   UNL A   1      47.382  26.231  26.700  1.00  0.00     0.049 A 
ATOM     54  H   UNL A   1      45.567  27.219  27.128  1.00  0.00     0.167 HD
ATOM     55  C   UNL A   1      48.011  28.619  26.912  1.00  0.00     0.074 A 
ATOM     56  C   UNL A   1      48.962  29.707  26.857  1.00  0.00     0.031 C 
ATOM     57  C   UNL A   1      48.323  27.320  26.674  1.00  0.00     0.037 A 
BRANCH  44  58
ATOM     58  C   UNL A   1      43.442  23.532  26.882  1.00  0.00     0.058 A 
ATOM     59  C   UNL A   1      43.172  22.688  27.969  1.00  0.00     0.135 A 
ATOM     60  C   UNL A   1      43.207  23.036  25.588  1.00  0.00     0.135 A 
ATOM     61  F   UNL A   1      43.411  23.103  29.223  1.00  0.00    -0.206 F 
ATOM     62  C   UNL A   1      42.706  21.390  27.776  1.00  0.00     0.059 A 
ATOM     63  C   UNL A   1      42.724  21.752  25.374  1.00  0.00     0.059 A 
ATOM     64  F   UNL A   1      43.465  23.801  24.516  1.00  0.00    -0.206 F 
ATOM     65  C   UNL A   1      42.490  20.929  26.474  1.00  0.00     0.060 A 
BRANCH  65  66
ATOM     66  S   UNL A   1      41.909  19.238  26.232  1.00  0.00     0.124 S 
ATOM     67  O   UNL A   1      40.477  19.447  26.042  1.00  0.00    -0.237 OA
ATOM     68  O   UNL A   1      42.652  18.818  25.049  1.00  0.00    -0.237 OA
ATOM     69  O   UNL A   1      42.285  18.569  27.474  1.00  0.00    -0.744 OA
ENDBRANCH  65  66
ENDBRANCH  44  58
BRANCH  45  70
ATOM     70  C   UNL A   1      46.521  32.927  28.087  1.00  0.00     0.058 A 
ATOM     71  C   UNL A   1      46.259  33.785  27.006  1.00  0.00     0.135 A 
ATOM     72  C   UNL A   1      47.222  33.463  29.179  1.00  0.00     0.135 A 
ATOM     73  F   UNL A   1      45.610  33.321  25.925  1.00  0.00    -0.206 F 
ATOM     74  C   UNL A   1      46.678  35.114  27.001  1.00  0.00     0.059 A 
ATOM     75  C   UNL A   1      47.619  34.797  29.215  1.00  0.00     0.059 A 
ATOM     76  F   UNL A   1      47.511  32.692  30.238  1.00  0.00    -0.206 F 
ATOM     77  C   UNL A   1      47.354  35.611  28.115  1.00  0.00     0.060 A 
BRANCH  77  78
ATOM     78  S   UNL A   1      47.842  37.352  28.154  1.00  0.00     0.124 S 
ATOM     79  O   UNL A   1      46.588  37.998  28.520  1.00  0.00    -0.237 OA
ATOM     80  O   UNL A   1      48.889  37.365  29.171  1.00  0.00    -0.237 OA
ATOM     81  O   UNL A   1      48.305  37.590  26.789  1.00  0.00    -0.744 OA
ENDBRANCH  77  78
ENDBRANCH  45  70
BRANCH  57  82
ATOM     82  C   UNL A   1      49.764  26.997  26.392  1.00  0.00     0.058 A 
ATOM     83  C   UNL A   1      50.629  26.597  27.424  1.00  0.00     0.135 A 
ATOM     84  C   UNL A   1      50.270  27.025  25.085  1.00  0.00     0.135 A 
ATOM     85  F   UNL A   1      50.192  26.553  28.693  1.00  0.00    -0.206 F 
ATOM     86  C   UNL A   1      51.953  26.256  27.172  1.00  0.00     0.059 A 
ATOM     87  C   UNL A   1      51.587  26.668  24.806  1.00  0.00     0.059 A 
ATOM     88  F   UNL A   1      49.481  27.389  24.062  1.00  0.00    -0.206 F 
ATOM     89  C   UNL A   1      52.424  26.295  25.858  1.00  0.00     0.060 A 
BRANCH  89  90
ATOM     90  S   UNL A   1      54.137  25.822  25.540  1.00  0.00     0.124 S 
ATOM     91  O   UNL A   1      54.867  26.901  26.196  1.00  0.00    -0.237 OA
ATOM     92  O   UNL A   1      54.227  24.514  26.182  1.00  0.00    -0.237 OA
ATOM     93  O   UNL A   1      54.218  25.804  24.082  1.00  0.00    -0.744 OA
ENDBRANCH  89  90
ENDBRANCH  57  82
ENDBRANCH  31  32
ENDBRANCH  24  26
ENDBRANCH  23  24
ENDBRANCH  22  23
ENDBRANCH   1  22
TORSDOF 18
ENDMDL
