MODEL 1
REMARK VINA RESULT:     -10.1      0.000      0.000
REMARK SMILES CCCC[C@@H](C(=O)OCCOC(=O)c1ccc(-c2c3nc(c(-c4c(F)cc(S(=O)(=O)[O-])cc4F)c4ccc([nH]4)c(-c4c(F)cc(S(=O)(=O)[O-])cc4F)c4nc(c(-c5c(F)cc(S(=O)(=O)[O-])cc5F)c5ccc2[nH]5)C=C4)C=C3)cc1)[C@](C)(O)c1cccc(Br)c1
REMARK SMILES IDX 9 1 8 2 6 3 7 4 5 5 4 6 3 7 2 8 1 9 80 10 81 11 82 12 83 14
REMARK SMILES IDX 84 15 89 16 85 17 87 18 86 19 88 20 10 21 11 22 12 23 13 24
REMARK SMILES IDX 14 25 15 26 79 27 16 28 78 29 17 30 18 31 19 32 72 33 20 34
REMARK SMILES IDX 77 35 71 36 73 37 21 38 76 39 70 40 69 41 22 43 56 44 35 45
REMARK SMILES IDX 55 46 36 47 39 48 54 49 74 50 37 51 38 52 53 54 75 55 40 56
REMARK SMILES IDX 23 57 24 58 33 59 25 60 26 61 32 62 34 63 27 64 28 65 29 66
REMARK SMILES IDX 30 67 31 68 57 69 58 70 67 71 59 72 60 73 66 74 68 75 61 76
REMARK SMILES IDX 62 77 63 78 64 79 65 80 41 81 42 82 51 83 43 84 44 85 50 86
REMARK SMILES IDX 52 87 45 88 46 89 47 90 48 91 49 92
REMARK H PARENT 82 13 73 42 39 53
REMARK Flexibility Score: inf
ROOT
ATOM      1  C   UNL A   1      32.470  30.450  25.724  1.00  0.00     0.274 C 
ENDROOT
BRANCH   1   2
ATOM      2  O   UNL A   1      32.956  29.473  24.763  1.00  0.00    -0.462 OA
BRANCH   2   3
ATOM      3  C   UNL A   1      32.138  28.530  24.226  1.00  0.00     0.312 C 
ATOM      4  O   UNL A   1      31.015  28.742  23.788  1.00  0.00    -0.252 OA
BRANCH   3   5
ATOM      5  C   UNL A   1      32.839  27.194  24.101  1.00  0.00     0.135 C 
BRANCH   5   6
ATOM      6  C   UNL A   1      32.220  26.594  22.792  1.00  0.00     0.019 C 
BRANCH   6   7
ATOM      7  C   UNL A   1      33.194  25.731  21.955  1.00  0.00     0.001 C 
BRANCH   7   8
ATOM      8  C   UNL A   1      32.738  24.291  21.758  1.00  0.00    -0.003 C 
ATOM      9  C   UNL A   1      33.653  23.313  22.473  1.00  0.00     0.004 C 
ENDBRANCH   7   8
ENDBRANCH   6   7
ENDBRANCH   5   6
BRANCH   5  10
ATOM     10  C   UNL A   1      32.752  26.213  25.354  1.00  0.00     0.100 C 
ATOM     11  C   UNL A   1      31.326  25.590  25.324  1.00  0.00     0.048 C 
BRANCH  10  12
ATOM     12  O   UNL A   1      32.811  26.990  26.561  1.00  0.00    -0.385 OA
ATOM     13  H   UNL A   1      33.538  27.631  26.498  1.00  0.00     0.211 HD
ENDBRANCH  10  12
BRANCH  10  14
ATOM     14  C   UNL A   1      33.770  25.066  25.585  1.00  0.00    -0.015 A 
ATOM     15  C   UNL A   1      35.109  25.090  25.180  1.00  0.00     0.007 A 
ATOM     16  C   UNL A   1      33.406  23.914  26.317  1.00  0.00     0.022 A 
ATOM     17  C   UNL A   1      36.043  24.094  25.496  1.00  0.00     0.002 A 
ATOM     18  C   UNL A   1      34.312  22.867  26.563  1.00  0.00     0.018 A 
ATOM     19  C   UNL A   1      35.644  22.971  26.191  1.00  0.00     0.016 A 
ATOM     20  Br  UNL A   1      33.697  21.267  27.358  1.00  0.00    -0.051 Br
ENDBRANCH  10  14
ENDBRANCH   5  10
ENDBRANCH   3   5
ENDBRANCH   2   3
ENDBRANCH   1   2
BRANCH   1  21
ATOM     21  C   UNL A   1      32.443  30.094  27.221  1.00  0.00     0.275 C 
BRANCH  21  22
ATOM     22  O   UNL A   1      33.738  29.646  27.668  1.00  0.00    -0.458 OA
BRANCH  22  23
ATOM     23  C   UNL A   1      34.511  30.624  28.221  1.00  0.00     0.338 C 
ATOM     24  O   UNL A   1      34.173  31.771  28.455  1.00  0.00    -0.246 OA
BRANCH  23  25
ATOM     25  C   UNL A   1      35.880  30.112  28.458  1.00  0.00     0.060 A 
ATOM     26  C   UNL A   1      36.281  29.679  29.726  1.00  0.00     0.016 A 
ATOM     27  C   UNL A   1      36.807  30.146  27.421  1.00  0.00     0.016 A 
ATOM     28  C   UNL A   1      37.586  29.225  29.955  1.00  0.00     0.010 A 
ATOM     29  C   UNL A   1      38.115  29.705  27.649  1.00  0.00     0.010 A 
ATOM     30  C   UNL A   1      38.515  29.239  28.915  1.00  0.00    -0.014 A 
BRANCH  30  31
ATOM     31  C   UNL A   1      39.943  28.889  29.130  1.00  0.00     0.031 A 
ATOM     32  C   UNL A   1      40.895  29.973  29.529  1.00  0.00     0.074 A 
ATOM     33  C   UNL A   1      40.405  27.649  28.891  1.00  0.00     0.049 A 
ATOM     34  N   UNL A   1      42.200  29.987  29.478  1.00  0.00    -0.248 NA
ATOM     35  C   UNL A   1      40.291  31.212  30.044  1.00  0.00     0.031 C 
ATOM     36  C   UNL A   1      39.571  26.493  28.588  1.00  0.00     0.029 A 
ATOM     37  N   UNL A   1      41.689  27.161  28.828  1.00  0.00    -0.354 N 
ATOM     38  C   UNL A   1      42.577  31.250  29.912  1.00  0.00     0.074 A 
ATOM     39  C   UNL A   1      41.361  31.970  30.232  1.00  0.00     0.031 C 
ATOM     40  C   UNL A   1      40.361  25.437  28.338  1.00  0.00     0.029 A 
ATOM     41  C   UNL A   1      41.758  25.855  28.396  1.00  0.00     0.049 A 
ATOM     42  H   UNL A   1      42.483  27.693  29.067  1.00  0.00     0.167 HD
ATOM     43  C   UNL A   1      43.826  31.761  30.009  1.00  0.00     0.037 A 
ATOM     44  C   UNL A   1      42.813  25.098  28.030  1.00  0.00     0.037 A 
ATOM     45  C   UNL A   1      45.020  31.030  29.673  1.00  0.00     0.049 A 
ATOM     46  C   UNL A   1      44.188  25.717  28.050  1.00  0.00     0.074 A 
ATOM     47  C   UNL A   1      46.333  31.464  29.712  1.00  0.00     0.029 A 
ATOM     48  N   UNL A   1      45.046  29.715  29.228  1.00  0.00    -0.354 N 
ATOM     49  N   UNL A   1      44.539  26.927  28.415  1.00  0.00    -0.248 NA
ATOM     50  C   UNL A   1      45.308  24.883  27.590  1.00  0.00     0.031 C 
ATOM     51  C   UNL A   1      47.148  30.431  29.239  1.00  0.00     0.029 A 
ATOM     52  C   UNL A   1      46.351  29.328  28.970  1.00  0.00     0.049 A 
ATOM     53  H   UNL A   1      44.255  29.141  29.113  1.00  0.00     0.167 HD
ATOM     54  C   UNL A   1      45.919  26.988  28.260  1.00  0.00     0.074 A 
ATOM     55  C   UNL A   1      46.342  25.694  27.769  1.00  0.00     0.031 C 
ATOM     56  C   UNL A   1      46.758  28.024  28.506  1.00  0.00     0.037 A 
BRANCH  43  57
ATOM     57  C   UNL A   1      43.953  33.197  30.432  1.00  0.00     0.058 A 
ATOM     58  C   UNL A   1      44.146  33.566  31.772  1.00  0.00     0.135 A 
ATOM     59  C   UNL A   1      43.890  34.222  29.473  1.00  0.00     0.135 A 
ATOM     60  F   UNL A   1      44.191  32.628  32.732  1.00  0.00    -0.206 F 
ATOM     61  C   UNL A   1      44.244  34.901  32.151  1.00  0.00     0.059 A 
ATOM     62  C   UNL A   1      44.015  35.561  29.825  1.00  0.00     0.059 A 
ATOM     63  F   UNL A   1      43.700  33.925  28.177  1.00  0.00    -0.206 F 
ATOM     64  C   UNL A   1      44.176  35.891  31.170  1.00  0.00     0.060 A 
BRANCH  64  65
ATOM     65  S   UNL A   1      44.305  37.618  31.677  1.00  0.00     0.124 S 
ATOM     66  O   UNL A   1      43.747  38.306  30.516  1.00  0.00    -0.237 OA
ATOM     67  O   UNL A   1      43.487  37.649  32.885  1.00  0.00    -0.237 OA
ATOM     68  O   UNL A   1      45.736  37.807  31.888  1.00  0.00    -0.744 OA
ENDBRANCH  64  65
ENDBRANCH  43  57
BRANCH  44  69
ATOM     69  C   UNL A   1      42.615  23.695  27.560  1.00  0.00     0.058 A 
ATOM     70  C   UNL A   1      42.501  23.396  26.193  1.00  0.00     0.135 A 
ATOM     71  C   UNL A   1      42.526  22.623  28.464  1.00  0.00     0.135 A 
ATOM     72  F   UNL A   1      42.560  24.382  25.285  1.00  0.00    -0.206 F 
ATOM     73  C   UNL A   1      42.295  22.095  25.741  1.00  0.00     0.059 A 
ATOM     74  C   UNL A   1      42.353  21.309  28.035  1.00  0.00     0.059 A 
ATOM     75  F   UNL A   1      42.629  22.844  29.784  1.00  0.00    -0.206 F 
ATOM     76  C   UNL A   1      42.226  21.056  26.672  1.00  0.00     0.060 A 
BRANCH  76  77
ATOM     77  S   UNL A   1      41.993  19.368  26.072  1.00  0.00     0.124 S 
ATOM     78  O   UNL A   1      42.439  18.583  27.217  1.00  0.00    -0.237 OA
ATOM     79  O   UNL A   1      40.561  19.335  25.794  1.00  0.00    -0.237 OA
ATOM     80  O   UNL A   1      42.855  19.307  24.894  1.00  0.00    -0.744 OA
ENDBRANCH  76  77
ENDBRANCH  44  69
BRANCH  56  81
ATOM     81  C   UNL A   1      48.233  27.795  28.319  1.00  0.00     0.058 A 
ATOM     82  C   UNL A   1      49.051  27.320  29.354  1.00  0.00     0.135 A 
ATOM     83  C   UNL A   1      48.810  27.956  27.047  1.00  0.00     0.135 A 
ATOM     84  F   UNL A   1      48.553  27.161  30.590  1.00  0.00    -0.206 F 
ATOM     85  C   UNL A   1      50.390  27.007  29.135  1.00  0.00     0.059 A 
ATOM     86  C   UNL A   1      50.136  27.622  26.798  1.00  0.00     0.059 A 
ATOM     87  F   UNL A   1      48.069  28.404  26.021  1.00  0.00    -0.206 F 
ATOM     88  C   UNL A   1      50.919  27.148  27.850  1.00  0.00     0.060 A 
BRANCH  88  89
ATOM     89  S   UNL A   1      52.632  26.655  27.560  1.00  0.00     0.124 S 
ATOM     90  O   UNL A   1      53.114  26.447  28.921  1.00  0.00    -0.237 OA
ATOM     91  O   UNL A   1      52.475  25.449  26.752  1.00  0.00    -0.237 OA
ATOM     92  O   UNL A   1      53.203  27.801  26.860  1.00  0.00    -0.744 OA
ENDBRANCH  88  89
ENDBRANCH  56  81
ENDBRANCH  30  31
ENDBRANCH  23  25
ENDBRANCH  22  23
ENDBRANCH  21  22
ENDBRANCH   1  21
TORSDOF 20
ENDMDL
MODEL 2
REMARK VINA RESULT:     -10.1      1.014      2.041
REMARK SMILES CCCC[C@@H](C(=O)OCCOC(=O)c1ccc(-c2c3nc(c(-c4c(F)cc(S(=O)(=O)[O-])cc4F)c4ccc([nH]4)c(-c4c(F)cc(S(=O)(=O)[O-])cc4F)c4nc(c(-c5c(F)cc(S(=O)(=O)[O-])cc5F)c5ccc2[nH]5)C=C4)C=C3)cc1)[C@](C)(O)c1cccc(Br)c1
REMARK SMILES IDX 9 1 8 2 6 3 7 4 5 5 4 6 3 7 2 8 1 9 80 10 81 11 82 12 83 14
REMARK SMILES IDX 84 15 89 16 85 17 87 18 86 19 88 20 10 21 11 22 12 23 13 24
REMARK SMILES IDX 14 25 15 26 79 27 16 28 78 29 17 30 18 31 19 32 72 33 20 34
REMARK SMILES IDX 77 35 71 36 73 37 21 38 76 39 70 40 69 41 22 43 56 44 35 45
REMARK SMILES IDX 55 46 36 47 39 48 54 49 74 50 37 51 38 52 53 54 75 55 40 56
REMARK SMILES IDX 23 57 24 58 33 59 25 60 26 61 32 62 34 63 27 64 28 65 29 66
REMARK SMILES IDX 30 67 31 68 57 69 58 70 67 71 59 72 60 73 66 74 68 75 61 76
REMARK SMILES IDX 62 77 63 78 64 79 65 80 41 81 42 82 51 83 43 84 44 85 50 86
REMARK SMILES IDX 52 87 45 88 46 89 47 90 48 91 49 92
REMARK H PARENT 82 13 73 42 39 53
REMARK Flexibility Score: inf
ROOT
ATOM      1  C   UNL A   1      32.023  29.288  25.947  1.00  0.00     0.274 C 
ENDROOT
BRANCH   1   2
ATOM      2  O   UNL A   1      32.193  27.862  25.719  1.00  0.00    -0.462 OA
BRANCH   2   3
ATOM      3  C   UNL A   1      31.616  26.934  26.526  1.00  0.00     0.312 C 
ATOM      4  O   UNL A   1      30.754  27.171  27.362  1.00  0.00    -0.252 OA
BRANCH   3   5
ATOM      5  C   UNL A   1      32.066  25.533  26.172  1.00  0.00     0.135 C 
BRANCH   5   6
ATOM      6  C   UNL A   1      33.337  25.785  25.289  1.00  0.00     0.019 C 
BRANCH   6   7
ATOM      7  C   UNL A   1      34.603  25.025  25.750  1.00  0.00     0.001 C 
BRANCH   7   8
ATOM      8  C   UNL A   1      35.273  24.209  24.651  1.00  0.00    -0.003 C 
ATOM      9  C   UNL A   1      34.555  24.366  23.322  1.00  0.00     0.004 C 
ENDBRANCH   7   8
ENDBRANCH   6   7
ENDBRANCH   5   6
BRANCH   5  10
ATOM     10  C   UNL A   1      30.990  24.582  25.483  1.00  0.00     0.100 C 
ATOM     11  C   UNL A   1      30.160  25.484  24.524  1.00  0.00     0.048 C 
BRANCH  10  12
ATOM     12  O   UNL A   1      30.065  24.121  26.482  1.00  0.00    -0.385 OA
ATOM     13  H   UNL A   1      30.478  23.414  27.004  1.00  0.00     0.211 HD
ENDBRANCH  10  12
BRANCH  10  14
ATOM     14  C   UNL A   1      31.389  23.299  24.708  1.00  0.00    -0.015 A 
ATOM     15  C   UNL A   1      31.270  23.129  23.324  1.00  0.00     0.007 A 
ATOM     16  C   UNL A   1      31.992  22.210  25.376  1.00  0.00     0.022 A 
ATOM     17  C   UNL A   1      31.739  22.008  22.627  1.00  0.00     0.002 A 
ATOM     18  C   UNL A   1      32.386  21.043  24.699  1.00  0.00     0.018 A 
ATOM     19  C   UNL A   1      32.300  20.953  23.317  1.00  0.00     0.016 A 
ATOM     20  Br  UNL A   1      32.985  19.546  25.686  1.00  0.00    -0.051 Br
ENDBRANCH  10  14
ENDBRANCH   5  10
ENDBRANCH   3   5
ENDBRANCH   2   3
ENDBRANCH   1   2
BRANCH   1  21
ATOM     21  C   UNL A   1      33.242  30.146  26.328  1.00  0.00     0.275 C 
BRANCH  21  22
ATOM     22  O   UNL A   1      33.828  29.692  27.564  1.00  0.00    -0.458 OA
BRANCH  22  23
ATOM     23  C   UNL A   1      34.571  30.633  28.213  1.00  0.00     0.338 C 
ATOM     24  O   UNL A   1      34.211  31.754  28.524  1.00  0.00    -0.246 OA
BRANCH  23  25
ATOM     25  C   UNL A   1      35.940  30.120  28.450  1.00  0.00     0.060 A 
ATOM     26  C   UNL A   1      36.342  29.694  29.719  1.00  0.00     0.016 A 
ATOM     27  C   UNL A   1      36.865  30.147  27.411  1.00  0.00     0.016 A 
ATOM     28  C   UNL A   1      37.647  29.239  29.949  1.00  0.00     0.010 A 
ATOM     29  C   UNL A   1      38.173  29.706  27.639  1.00  0.00     0.010 A 
ATOM     30  C   UNL A   1      38.575  29.246  28.906  1.00  0.00    -0.014 A 
BRANCH  30  31
ATOM     31  C   UNL A   1      40.002  28.895  29.121  1.00  0.00     0.031 A 
ATOM     32  C   UNL A   1      40.953  29.976  29.529  1.00  0.00     0.074 A 
ATOM     33  C   UNL A   1      40.465  27.657  28.873  1.00  0.00     0.049 A 
ATOM     34  N   UNL A   1      42.258  29.991  29.479  1.00  0.00    -0.248 NA
ATOM     35  C   UNL A   1      40.348  31.211  30.052  1.00  0.00     0.031 C 
ATOM     36  C   UNL A   1      39.632  26.503  28.561  1.00  0.00     0.029 A 
ATOM     37  N   UNL A   1      41.750  27.169  28.808  1.00  0.00    -0.354 N 
ATOM     38  C   UNL A   1      42.634  31.251  29.923  1.00  0.00     0.074 A 
ATOM     39  C   UNL A   1      41.418  31.968  30.247  1.00  0.00     0.031 C 
ATOM     40  C   UNL A   1      40.422  25.448  28.305  1.00  0.00     0.029 A 
ATOM     41  C   UNL A   1      41.819  25.867  28.368  1.00  0.00     0.049 A 
ATOM     42  H   UNL A   1      42.543  27.700  29.052  1.00  0.00     0.167 HD
ATOM     43  C   UNL A   1      43.883  31.762  30.025  1.00  0.00     0.037 A 
ATOM     44  C   UNL A   1      42.875  25.113  27.997  1.00  0.00     0.037 A 
ATOM     45  C   UNL A   1      45.078  31.034  29.686  1.00  0.00     0.049 A 
ATOM     46  C   UNL A   1      44.250  25.732  28.023  1.00  0.00     0.074 A 
ATOM     47  C   UNL A   1      46.391  31.468  29.729  1.00  0.00     0.029 A 
ATOM     48  N   UNL A   1      45.105  29.722  29.231  1.00  0.00    -0.354 N 
ATOM     49  N   UNL A   1      44.600  26.940  28.397  1.00  0.00    -0.248 NA
ATOM     50  C   UNL A   1      45.371  24.902  27.559  1.00  0.00     0.031 C 
ATOM     51  C   UNL A   1      47.206  30.439  29.249  1.00  0.00     0.029 A 
ATOM     52  C   UNL A   1      46.410  29.338  28.971  1.00  0.00     0.049 A 
ATOM     53  H   UNL A   1      44.314  29.149  29.111  1.00  0.00     0.167 HD
ATOM     54  C   UNL A   1      45.980  27.003  28.244  1.00  0.00     0.074 A 
ATOM     55  C   UNL A   1      46.404  25.712  27.745  1.00  0.00     0.031 C 
ATOM     56  C   UNL A   1      46.819  28.037  28.499  1.00  0.00     0.037 A 
BRANCH  43  57
ATOM     57  C   UNL A   1      44.009  33.195  30.459  1.00  0.00     0.058 A 
ATOM     58  C   UNL A   1      44.062  33.563  31.811  1.00  0.00     0.135 A 
ATOM     59  C   UNL A   1      44.088  34.217  29.498  1.00  0.00     0.135 A 
ATOM     60  F   UNL A   1      43.968  32.629  32.772  1.00  0.00    -0.206 F 
ATOM     61  C   UNL A   1      44.161  34.896  32.198  1.00  0.00     0.059 A 
ATOM     62  C   UNL A   1      44.217  35.553  29.861  1.00  0.00     0.059 A 
ATOM     63  F   UNL A   1      44.036  33.920  28.189  1.00  0.00    -0.206 F 
ATOM     64  C   UNL A   1      44.237  35.884  31.215  1.00  0.00     0.060 A 
BRANCH  64  65
ATOM     65  S   UNL A   1      44.365  37.608  31.731  1.00  0.00     0.124 S 
ATOM     66  O   UNL A   1      43.727  38.296  30.614  1.00  0.00    -0.237 OA
ATOM     67  O   UNL A   1      43.619  37.612  32.986  1.00  0.00    -0.237 OA
ATOM     68  O   UNL A   1      45.803  37.821  31.860  1.00  0.00    -0.744 OA
ENDBRANCH  64  65
ENDBRANCH  43  57
BRANCH  44  69
ATOM     69  C   UNL A   1      42.678  23.714  27.517  1.00  0.00     0.058 A 
ATOM     70  C   UNL A   1      42.577  22.643  28.418  1.00  0.00     0.135 A 
ATOM     71  C   UNL A   1      42.595  23.412  26.146  1.00  0.00     0.135 A 
ATOM     72  F   UNL A   1      42.668  22.868  29.738  1.00  0.00    -0.206 F 
ATOM     73  C   UNL A   1      42.414  21.329  27.984  1.00  0.00     0.059 A 
ATOM     74  C   UNL A   1      42.400  22.112  25.688  1.00  0.00     0.059 A 
ATOM     75  F   UNL A   1      42.684  24.393  25.234  1.00  0.00    -0.206 F 
ATOM     76  C   UNL A   1      42.323  21.075  26.614  1.00  0.00     0.060 A 
BRANCH  76  77
ATOM     77  S   UNL A   1      42.077  19.372  26.062  1.00  0.00     0.124 S 
ATOM     78  O   UNL A   1      42.505  18.617  27.234  1.00  0.00    -0.237 OA
ATOM     79  O   UNL A   1      40.646  19.346  25.775  1.00  0.00    -0.237 OA
ATOM     80  O   UNL A   1      42.945  19.267  24.893  1.00  0.00    -0.744 OA
ENDBRANCH  76  77
ENDBRANCH  44  69
BRANCH  56  81
ATOM     81  C   UNL A   1      48.294  27.810  28.311  1.00  0.00     0.058 A 
ATOM     82  C   UNL A   1      48.946  28.107  27.106  1.00  0.00     0.135 A 
ATOM     83  C   UNL A   1      49.080  27.387  29.398  1.00  0.00     0.135 A 
ATOM     84  F   UNL A   1      48.241  28.501  26.035  1.00  0.00    -0.206 F 
ATOM     85  C   UNL A   1      50.329  27.997  26.984  1.00  0.00     0.059 A 
ATOM     86  C   UNL A   1      50.464  27.298  29.307  1.00  0.00     0.059 A 
ATOM     87  F   UNL A   1      48.504  27.095  30.575  1.00  0.00    -0.206 F 
ATOM     88  C   UNL A   1      51.080  27.606  28.094  1.00  0.00     0.060 A 
BRANCH  88  89
ATOM     89  S   UNL A   1      52.879  27.553  27.948  1.00  0.00     0.124 S 
ATOM     90  O   UNL A   1      53.199  28.959  27.724  1.00  0.00    -0.237 OA
ATOM     91  O   UNL A   1      53.280  27.010  29.243  1.00  0.00    -0.237 OA
ATOM     92  O   UNL A   1      53.103  26.669  26.808  1.00  0.00    -0.744 OA
ENDBRANCH  88  89
ENDBRANCH  56  81
ENDBRANCH  30  31
ENDBRANCH  23  25
ENDBRANCH  22  23
ENDBRANCH  21  22
ENDBRANCH   1  21
TORSDOF 20
ENDMDL
MODEL 3
REMARK VINA RESULT:      -9.8      4.077     10.000
REMARK SMILES CCCC[C@@H](C(=O)OCCOC(=O)c1ccc(-c2c3nc(c(-c4c(F)cc(S(=O)(=O)[O-])cc4F)c4ccc([nH]4)c(-c4c(F)cc(S(=O)(=O)[O-])cc4F)c4nc(c(-c5c(F)cc(S(=O)(=O)[O-])cc5F)c5ccc2[nH]5)C=C4)C=C3)cc1)[C@](C)(O)c1cccc(Br)c1
REMARK SMILES IDX 9 1 8 2 6 3 7 4 5 5 4 6 3 7 2 8 1 9 80 10 81 11 82 12 83 14
REMARK SMILES IDX 84 15 89 16 85 17 87 18 86 19 88 20 10 21 11 22 12 23 13 24
REMARK SMILES IDX 14 25 15 26 79 27 16 28 78 29 17 30 18 31 19 32 72 33 20 34
REMARK SMILES IDX 77 35 71 36 73 37 21 38 76 39 70 40 69 41 22 43 56 44 35 45
REMARK SMILES IDX 55 46 36 47 39 48 54 49 74 50 37 51 38 52 53 54 75 55 40 56
REMARK SMILES IDX 23 57 24 58 33 59 25 60 26 61 32 62 34 63 27 64 28 65 29 66
REMARK SMILES IDX 30 67 31 68 57 69 58 70 67 71 59 72 60 73 66 74 68 75 61 76
REMARK SMILES IDX 62 77 63 78 64 79 65 80 41 81 42 82 51 83 43 84 44 85 50 86
REMARK SMILES IDX 52 87 45 88 46 89 47 90 48 91 49 92
REMARK H PARENT 82 13 73 42 39 53
REMARK Flexibility Score: inf
ROOT
ATOM      1  C   UNL A   1      35.946  24.114  25.191  1.00  0.00     0.274 C 
ENDROOT
BRANCH   1   2
ATOM      2  O   UNL A   1      34.860  23.959  24.236  1.00  0.00    -0.462 OA
BRANCH   2   3
ATOM      3  C   UNL A   1      33.622  24.466  24.472  1.00  0.00     0.312 C 
ATOM      4  O   UNL A   1      32.676  23.830  24.917  1.00  0.00    -0.252 OA
BRANCH   3   5
ATOM      5  C   UNL A   1      33.584  25.962  24.249  1.00  0.00     0.135 C 
BRANCH   5   6
ATOM      6  C   UNL A   1      33.059  26.509  25.621  1.00  0.00     0.019 C 
BRANCH   6   7
ATOM      7  C   UNL A   1      33.435  27.980  25.915  1.00  0.00     0.001 C 
BRANCH   7   8
ATOM      8  C   UNL A   1      32.262  28.846  26.360  1.00  0.00    -0.003 C 
ATOM      9  C   UNL A   1      31.550  28.246  27.560  1.00  0.00     0.004 C 
ENDBRANCH   7   8
ENDBRANCH   6   7
ENDBRANCH   5   6
BRANCH   5  10
ATOM     10  C   UNL A   1      32.751  26.484  22.994  1.00  0.00     0.100 C 
ATOM     11  C   UNL A   1      32.865  25.379  21.904  1.00  0.00     0.048 C 
BRANCH  10  12
ATOM     12  O   UNL A   1      33.405  27.641  22.447  1.00  0.00    -0.385 OA
ATOM     13  H   UNL A   1      34.161  27.880  23.006  1.00  0.00     0.211 HD
ENDBRANCH  10  12
BRANCH  10  14
ATOM     14  C   UNL A   1      31.260  26.900  23.100  1.00  0.00    -0.015 A 
ATOM     15  C   UNL A   1      30.248  26.115  23.663  1.00  0.00     0.007 A 
ATOM     16  C   UNL A   1      30.837  28.181  22.683  1.00  0.00     0.022 A 
ATOM     17  C   UNL A   1      28.930  26.552  23.852  1.00  0.00     0.002 A 
ATOM     18  C   UNL A   1      29.498  28.597  22.787  1.00  0.00     0.018 A 
ATOM     19  C   UNL A   1      28.547  27.801  23.410  1.00  0.00     0.016 A 
ATOM     20  Br  UNL A   1      28.966  30.237  22.014  1.00  0.00    -0.051 Br
ENDBRANCH  10  14
ENDBRANCH   5  10
ENDBRANCH   3   5
ENDBRANCH   2   3
ENDBRANCH   1   2
BRANCH   1  21
ATOM     21  C   UNL A   1      36.808  22.896  25.565  1.00  0.00     0.275 C 
BRANCH  21  22
ATOM     22  O   UNL A   1      38.171  23.074  25.130  1.00  0.00    -0.458 OA
BRANCH  22  23
ATOM     23  C   UNL A   1      39.103  22.870  26.104  1.00  0.00     0.338 C 
ATOM     24  O   UNL A   1      39.592  21.803  26.428  1.00  0.00    -0.246 OA
BRANCH  23  25
ATOM     25  C   UNL A   1      39.416  24.151  26.778  1.00  0.00     0.060 A 
ATOM     26  C   UNL A   1      40.241  25.104  26.174  1.00  0.00     0.016 A 
ATOM     27  C   UNL A   1      38.952  24.368  28.072  1.00  0.00     0.016 A 
ATOM     28  C   UNL A   1      40.562  26.300  26.827  1.00  0.00     0.010 A 
ATOM     29  C   UNL A   1      39.281  25.556  28.733  1.00  0.00     0.010 A 
ATOM     30  C   UNL A   1      40.085  26.532  28.118  1.00  0.00    -0.014 A 
BRANCH  30  31
ATOM     31  C   UNL A   1      40.495  27.723  28.905  1.00  0.00     0.031 A 
ATOM     32  C   UNL A   1      41.750  27.649  29.718  1.00  0.00     0.074 A 
ATOM     33  C   UNL A   1      39.722  28.822  28.971  1.00  0.00     0.049 A 
ATOM     34  N   UNL A   1      42.145  28.414  30.699  1.00  0.00    -0.248 NA
ATOM     35  C   UNL A   1      42.677  26.556  29.384  1.00  0.00     0.031 C 
ATOM     36  C   UNL A   1      38.531  29.051  28.162  1.00  0.00     0.029 A 
ATOM     37  N   UNL A   1      39.799  29.934  29.776  1.00  0.00    -0.354 N 
ATOM     38  C   UNL A   1      43.347  27.873  31.133  1.00  0.00     0.074 A 
ATOM     39  C   UNL A   1      43.620  26.720  30.300  1.00  0.00     0.031 C 
ATOM     40  C   UNL A   1      37.968  30.213  28.532  1.00  0.00     0.029 A 
ATOM     41  C   UNL A   1      38.718  30.778  29.649  1.00  0.00     0.049 A 
ATOM     42  H   UNL A   1      40.552  30.110  30.385  1.00  0.00     0.167 HD
ATOM     43  C   UNL A   1      44.133  28.294  32.151  1.00  0.00     0.037 A 
ATOM     44  C   UNL A   1      38.338  31.845  30.382  1.00  0.00     0.037 A 
ATOM     45  C   UNL A   1      43.837  29.437  32.974  1.00  0.00     0.049 A 
ATOM     46  C   UNL A   1      39.174  32.239  31.573  1.00  0.00     0.074 A 
ATOM     47  C   UNL A   1      44.555  29.933  34.048  1.00  0.00     0.029 A 
ATOM     48  N   UNL A   1      42.726  30.257  32.822  1.00  0.00    -0.354 N 
ATOM     49  N   UNL A   1      40.285  31.697  32.013  1.00  0.00    -0.248 NA
ATOM     50  C   UNL A   1      38.700  33.371  32.383  1.00  0.00     0.031 C 
ATOM     51  C   UNL A   1      43.851  31.019  34.578  1.00  0.00     0.029 A 
ATOM     52  C   UNL A   1      42.730  31.243  33.794  1.00  0.00     0.049 A 
ATOM     53  H   UNL A   1      42.038  30.153  32.126  1.00  0.00     0.167 HD
ATOM     54  C   UNL A   1      40.658  32.440  33.127  1.00  0.00     0.074 A 
ATOM     55  C   UNL A   1      39.657  33.471  33.296  1.00  0.00     0.031 C 
ATOM     56  C   UNL A   1      41.737  32.281  33.933  1.00  0.00     0.037 A 
BRANCH  43  57
ATOM     57  C   UNL A   1      45.351  27.472  32.468  1.00  0.00     0.058 A 
ATOM     58  C   UNL A   1      45.299  26.359  33.319  1.00  0.00     0.135 A 
ATOM     59  C   UNL A   1      46.592  27.804  31.898  1.00  0.00     0.135 A 
ATOM     60  F   UNL A   1      44.144  26.011  33.908  1.00  0.00    -0.206 F 
ATOM     61  C   UNL A   1      46.439  25.619  33.617  1.00  0.00     0.059 A 
ATOM     62  C   UNL A   1      47.738  27.061  32.158  1.00  0.00     0.059 A 
ATOM     63  F   UNL A   1      46.699  28.864  31.081  1.00  0.00    -0.206 F 
ATOM     64  C   UNL A   1      47.654  25.979  33.032  1.00  0.00     0.060 A 
BRANCH  64  65
ATOM     65  S   UNL A   1      49.123  25.008  33.428  1.00  0.00     0.124 S 
ATOM     66  O   UNL A   1      48.533  23.818  34.033  1.00  0.00    -0.237 OA
ATOM     67  O   UNL A   1      49.731  24.816  32.115  1.00  0.00    -0.237 OA
ATOM     68  O   UNL A   1      49.867  25.870  34.340  1.00  0.00    -0.744 OA
ENDBRANCH  64  65
ENDBRANCH  43  57
BRANCH  44  69
ATOM     69  C   UNL A   1      37.083  32.584  30.053  1.00  0.00     0.058 A 
ATOM     70  C   UNL A   1      37.108  33.740  29.258  1.00  0.00     0.135 A 
ATOM     71  C   UNL A   1      35.832  32.158  30.532  1.00  0.00     0.135 A 
ATOM     72  F   UNL A   1      38.276  34.205  28.787  1.00  0.00    -0.206 F 
ATOM     73  C   UNL A   1      35.949  34.453  28.960  1.00  0.00     0.059 A 
ATOM     74  C   UNL A   1      34.655  32.834  30.221  1.00  0.00     0.059 A 
ATOM     75  F   UNL A   1      35.743  31.059  31.296  1.00  0.00    -0.206 F 
ATOM     76  C   UNL A   1      34.724  33.988  29.444  1.00  0.00     0.060 A 
BRANCH  76  77
ATOM     77  S   UNL A   1      33.222  34.899  29.023  1.00  0.00     0.124 S 
ATOM     78  O   UNL A   1      33.769  36.150  28.511  1.00  0.00    -0.237 OA
ATOM     79  O   UNL A   1      32.599  34.024  28.035  1.00  0.00    -0.237 OA
ATOM     80  O   UNL A   1      32.517  34.994  30.298  1.00  0.00    -0.744 OA
ENDBRANCH  76  77
ENDBRANCH  44  69
BRANCH  56  81
ATOM     81  C   UNL A   1      41.942  33.280  35.038  1.00  0.00     0.058 A 
ATOM     82  C   UNL A   1      42.569  34.515  34.819  1.00  0.00     0.135 A 
ATOM     83  C   UNL A   1      41.404  33.033  36.313  1.00  0.00     0.135 A 
ATOM     84  F   UNL A   1      43.111  34.796  33.624  1.00  0.00    -0.206 F 
ATOM     85  C   UNL A   1      42.652  35.475  35.825  1.00  0.00     0.059 A 
ATOM     86  C   UNL A   1      41.449  33.988  37.323  1.00  0.00     0.059 A 
ATOM     87  F   UNL A   1      40.790  31.868  36.573  1.00  0.00    -0.206 F 
ATOM     88  C   UNL A   1      42.076  35.207  37.069  1.00  0.00     0.060 A 
BRANCH  88  89
ATOM     89  S   UNL A   1      42.113  36.493  38.335  1.00  0.00     0.124 S 
ATOM     90  O   UNL A   1      42.415  35.719  39.535  1.00  0.00    -0.237 OA
ATOM     91  O   UNL A   1      43.182  37.367  37.860  1.00  0.00    -0.237 OA
ATOM     92  O   UNL A   1      40.772  37.066  38.279  1.00  0.00    -0.744 OA
ENDBRANCH  88  89
ENDBRANCH  56  81
ENDBRANCH  30  31
ENDBRANCH  23  25
ENDBRANCH  22  23
ENDBRANCH  21  22
ENDBRANCH   1  21
TORSDOF 20
ENDMDL
