MODEL 1
REMARK VINA RESULT:     -11.7      0.000      0.000
REMARK SMILES C[N@@H+]1[C@H]2CC[C@@H]1[C@@H](C(=O)OCCOC(=O)c1ccc(-c3c4nc(c(-c5c(F)cc(S(=O)(=O)[O-])cc5F)c5ccc([nH]5)c(-c5c(F)cc(S(=O)(=O)[O-])cc5F)c5nc(c(-c6c(F)cc(S(=O)(=O)[O-])cc6F)c6ccc3[nH]6)C=C5)C=C4)cc1)[C@@H](OC(=O)c1ccccc1)C2
REMARK SMILES IDX 11 1 10 2 8 3 9 4 7 5 1 6 2 7 3 8 6 9 4 11 92 12 5 13 82 14
REMARK SMILES IDX 83 15 84 16 85 17 86 18 87 19 91 20 88 21 90 22 89 23 12 24
REMARK SMILES IDX 13 25 14 26 15 27 16 28 17 29 81 30 18 31 80 32 19 33 20 34
REMARK SMILES IDX 21 35 74 36 22 37 79 38 73 39 75 40 23 41 78 42 72 43 71 44
REMARK SMILES IDX 24 46 58 47 37 48 57 49 38 50 41 51 56 52 76 53 39 54 40 55
REMARK SMILES IDX 55 57 77 58 42 59 25 60 26 61 35 62 27 63 28 64 34 65 36 66
REMARK SMILES IDX 29 67 30 68 31 69 32 70 33 71 59 72 60 73 69 74 61 75 62 76
REMARK SMILES IDX 68 77 70 78 63 79 64 80 65 81 66 82 67 83 43 84 44 85 53 86
REMARK SMILES IDX 45 87 46 88 52 89 54 90 47 91 48 92 49 93 50 94 51 95
REMARK H PARENT 2 10 75 45 41 56
REMARK Flexibility Score: inf
ROOT
ATOM      1  C   UNL A   1      37.609  22.451  25.302  1.00  0.00     0.274 C 
ENDROOT
BRANCH   1   2
ATOM      2  O   UNL A   1      36.774  23.593  25.000  1.00  0.00    -0.462 OA
BRANCH   2   3
ATOM      3  C   UNL A   1      35.899  23.417  23.982  1.00  0.00     0.318 C 
ATOM      4  O   UNL A   1      36.224  22.997  22.872  1.00  0.00    -0.252 OA
BRANCH   3   5
ATOM      5  C   UNL A   1      34.459  23.785  24.280  1.00  0.00     0.198 C 
ATOM      6  C   UNL A   1      34.381  20.686  24.738  1.00  0.00     0.333 C 
ATOM      7  N   UNL A   1      33.469  21.669  25.287  1.00  0.00    -0.332 N 
ATOM      8  C   UNL A   1      32.245  21.915  24.523  1.00  0.00     0.188 C 
ATOM      9  C   UNL A   1      34.011  23.010  25.548  1.00  0.00     0.202 C 
ATOM     10  H   UNL A   1      33.273  21.183  26.162  1.00  0.00     0.348 HD
ATOM     11  C   UNL A   1      31.581  22.948  25.446  1.00  0.00     0.071 C 
ATOM     12  C   UNL A   1      32.553  22.477  23.121  1.00  0.00     0.111 C 
ATOM     13  C   UNL A   1      32.751  23.648  26.157  1.00  0.00     0.072 C 
ATOM     14  C   UNL A   1      33.368  23.777  23.186  1.00  0.00     0.203 C 
BRANCH  14  15
ATOM     15  O   UNL A   1      33.756  24.421  21.950  1.00  0.00    -0.457 OA
BRANCH  15  16
ATOM     16  C   UNL A   1      33.044  25.388  21.333  1.00  0.00     0.338 C 
ATOM     17  O   UNL A   1      32.980  25.603  20.132  1.00  0.00    -0.246 OA
BRANCH  16  18
ATOM     18  C   UNL A   1      32.362  26.258  22.337  1.00  0.00     0.060 A 
ATOM     19  C   UNL A   1      33.075  27.350  22.852  1.00  0.00     0.015 A 
ATOM     20  C   UNL A   1      31.084  25.976  22.844  1.00  0.00     0.015 A 
ATOM     21  C   UNL A   1      32.543  28.113  23.894  1.00  0.00     0.001 A 
ATOM     22  C   UNL A   1      30.561  26.733  23.897  1.00  0.00     0.001 A 
ATOM     23  C   UNL A   1      31.294  27.795  24.425  1.00  0.00     0.000 A 
ENDBRANCH  16  18
ENDBRANCH  15  16
ENDBRANCH  14  15
ENDBRANCH   3   5
ENDBRANCH   2   3
ENDBRANCH   1   2
BRANCH   1  24
ATOM     24  C   UNL A   1      38.753  22.769  26.280  1.00  0.00     0.275 C 
BRANCH  24  25
ATOM     25  O   UNL A   1      38.939  24.178  26.534  1.00  0.00    -0.458 OA
BRANCH  25  26
ATOM     26  C   UNL A   1      40.219  24.501  26.815  1.00  0.00     0.338 C 
ATOM     27  O   UNL A   1      41.205  24.116  26.215  1.00  0.00    -0.246 OA
BRANCH  26  28
ATOM     28  C   UNL A   1      40.384  25.461  27.898  1.00  0.00     0.060 A 
ATOM     29  C   UNL A   1      39.297  25.628  28.763  1.00  0.00     0.016 A 
ATOM     30  C   UNL A   1      41.461  26.346  27.914  1.00  0.00     0.016 A 
ATOM     31  C   UNL A   1      39.279  26.689  29.654  1.00  0.00     0.010 A 
ATOM     32  C   UNL A   1      41.453  27.401  28.829  1.00  0.00     0.010 A 
ATOM     33  C   UNL A   1      40.363  27.575  29.698  1.00  0.00    -0.014 A 
BRANCH  33  34
ATOM     34  C   UNL A   1      40.385  28.631  30.728  1.00  0.00     0.031 A 
ATOM     35  C   UNL A   1      41.351  28.576  31.869  1.00  0.00     0.074 A 
ATOM     36  C   UNL A   1      39.516  29.649  30.595  1.00  0.00     0.049 A 
ATOM     37  N   UNL A   1      41.427  29.356  32.916  1.00  0.00    -0.248 NA
ATOM     38  C   UNL A   1      42.368  27.513  31.832  1.00  0.00     0.031 C 
ATOM     39  C   UNL A   1      38.574  29.809  29.483  1.00  0.00     0.029 A 
ATOM     40  N   UNL A   1      39.280  30.733  31.394  1.00  0.00    -0.354 N 
ATOM     41  C   UNL A   1      42.487  28.874  33.673  1.00  0.00     0.074 A 
ATOM     42  C   UNL A   1      43.027  27.731  32.964  1.00  0.00     0.031 C 
ATOM     43  C   UNL A   1      37.860  30.928  29.672  1.00  0.00     0.029 A 
ATOM     44  C   UNL A   1      38.257  31.530  30.939  1.00  0.00     0.049 A 
ATOM     45  H   UNL A   1      39.793  30.926  32.212  1.00  0.00     0.167 HD
ATOM     46  C   UNL A   1      42.956  29.347  34.852  1.00  0.00     0.037 A 
ATOM     47  C   UNL A   1      37.678  32.604  31.504  1.00  0.00     0.037 A 
ATOM     48  C   UNL A   1      42.395  30.483  35.539  1.00  0.00     0.049 A 
ATOM     49  C   UNL A   1      38.180  33.073  32.837  1.00  0.00     0.074 A 
ATOM     50  C   UNL A   1      42.765  31.027  36.758  1.00  0.00     0.029 A 
ATOM     51  N   UNL A   1      41.345  31.256  35.062  1.00  0.00    -0.354 N 
ATOM     52  N   UNL A   1      39.148  32.575  33.569  1.00  0.00    -0.248 NA
ATOM     53  C   UNL A   1      37.508  34.237  33.425  1.00  0.00     0.031 C 
ATOM     54  C   UNL A   1      41.924  32.114  37.025  1.00  0.00     0.029 A 
ATOM     55  C   UNL A   1      41.050  32.266  35.960  1.00  0.00     0.049 A 
ATOM     56  H   UNL A   1      40.879  31.107  34.207  1.00  0.00     0.167 HD
ATOM     57  C   UNL A   1      39.205  33.368  34.706  1.00  0.00     0.074 A 
ATOM     58  C   UNL A   1      38.184  34.388  34.556  1.00  0.00     0.031 C 
ATOM     59  C   UNL A   1      40.023  33.262  35.782  1.00  0.00     0.037 A 
BRANCH  46  60
ATOM     60  C   UNL A   1      44.105  28.621  35.488  1.00  0.00     0.058 A 
ATOM     61  C   UNL A   1      43.900  27.535  36.353  1.00  0.00     0.135 A 
ATOM     62  C   UNL A   1      45.429  28.990  35.200  1.00  0.00     0.135 A 
ATOM     63  F   UNL A   1      42.654  27.152  36.674  1.00  0.00    -0.206 F 
ATOM     64  C   UNL A   1      44.969  26.849  36.924  1.00  0.00     0.059 A 
ATOM     65  C   UNL A   1      46.512  28.309  35.749  1.00  0.00     0.059 A 
ATOM     66  F   UNL A   1      45.679  30.024  34.383  1.00  0.00    -0.206 F 
ATOM     67  C   UNL A   1      46.272  27.247  36.620  1.00  0.00     0.060 A 
BRANCH  67  68
ATOM     68  S   UNL A   1      47.652  26.352  37.366  1.00  0.00     0.124 S 
ATOM     69  O   UNL A   1      47.596  26.831  38.744  1.00  0.00    -0.237 OA
ATOM     70  O   UNL A   1      47.273  24.958  37.164  1.00  0.00    -0.237 OA
ATOM     71  O   UNL A   1      48.806  26.803  36.592  1.00  0.00    -0.744 OA
ENDBRANCH  67  68
ENDBRANCH  46  60
BRANCH  47  72
ATOM     72  C   UNL A   1      36.544  33.269  30.819  1.00  0.00     0.058 A 
ATOM     73  C   UNL A   1      35.230  33.107  31.278  1.00  0.00     0.135 A 
ATOM     74  C   UNL A   1      36.760  34.118  29.723  1.00  0.00     0.135 A 
ATOM     75  F   UNL A   1      34.978  32.304  32.322  1.00  0.00    -0.206 F 
ATOM     76  C   UNL A   1      34.164  33.763  30.670  1.00  0.00     0.059 A 
ATOM     77  C   UNL A   1      35.714  34.800  29.112  1.00  0.00     0.059 A 
ATOM     78  F   UNL A   1      38.005  34.318  29.262  1.00  0.00    -0.206 F 
ATOM     79  C   UNL A   1      34.418  34.609  29.588  1.00  0.00     0.060 A 
BRANCH  79  80
ATOM     80  S   UNL A   1      33.044  35.511  28.839  1.00  0.00     0.124 S 
ATOM     81  O   UNL A   1      32.328  35.983  30.018  1.00  0.00    -0.237 OA
ATOM     82  O   UNL A   1      33.730  36.534  28.055  1.00  0.00    -0.237 OA
ATOM     83  O   UNL A   1      32.364  34.484  28.054  1.00  0.00    -0.744 OA
ENDBRANCH  79  80
ENDBRANCH  47  72
BRANCH  59  84
ATOM     84  C   UNL A   1      39.845  34.285  36.861  1.00  0.00     0.058 A 
ATOM     85  C   UNL A   1      39.040  34.029  37.981  1.00  0.00     0.135 A 
ATOM     86  C   UNL A   1      40.496  35.526  36.781  1.00  0.00     0.135 A 
ATOM     87  F   UNL A   1      38.391  32.860  38.094  1.00  0.00    -0.206 F 
ATOM     88  C   UNL A   1      38.869  34.981  38.980  1.00  0.00     0.059 A 
ATOM     89  C   UNL A   1      40.353  36.485  37.776  1.00  0.00     0.059 A 
ATOM     90  F   UNL A   1      41.279  35.811  35.729  1.00  0.00    -0.206 F 
ATOM     91  C   UNL A   1      39.525  36.208  38.866  1.00  0.00     0.060 A 
BRANCH  91  92
ATOM     92  S   UNL A   1      39.316  37.434  40.174  1.00  0.00     0.124 S 
ATOM     93  O   UNL A   1      40.665  37.981  40.281  1.00  0.00    -0.237 OA
ATOM     94  O   UNL A   1      38.312  38.332  39.611  1.00  0.00    -0.237 OA
ATOM     95  O   UNL A   1      38.866  36.638  41.312  1.00  0.00    -0.744 OA
ENDBRANCH  91  92
ENDBRANCH  59  84
ENDBRANCH  33  34
ENDBRANCH  26  28
ENDBRANCH  25  26
ENDBRANCH  24  25
ENDBRANCH   1  24
TORSDOF 17
ENDMDL
MODEL 2
REMARK VINA RESULT:     -11.6      4.960     10.494
REMARK SMILES C[N@@H+]1[C@H]2CC[C@@H]1[C@@H](C(=O)OCCOC(=O)c1ccc(-c3c4nc(c(-c5c(F)cc(S(=O)(=O)[O-])cc5F)c5ccc([nH]5)c(-c5c(F)cc(S(=O)(=O)[O-])cc5F)c5nc(c(-c6c(F)cc(S(=O)(=O)[O-])cc6F)c6ccc3[nH]6)C=C5)C=C4)cc1)[C@@H](OC(=O)c1ccccc1)C2
REMARK SMILES IDX 11 1 10 2 8 3 9 4 7 5 1 6 2 7 3 8 6 9 4 11 92 12 5 13 82 14
REMARK SMILES IDX 83 15 84 16 85 17 86 18 87 19 91 20 88 21 90 22 89 23 12 24
REMARK SMILES IDX 13 25 14 26 15 27 16 28 17 29 81 30 18 31 80 32 19 33 20 34
REMARK SMILES IDX 21 35 74 36 22 37 79 38 73 39 75 40 23 41 78 42 72 43 71 44
REMARK SMILES IDX 24 46 58 47 37 48 57 49 38 50 41 51 56 52 76 53 39 54 40 55
REMARK SMILES IDX 55 57 77 58 42 59 25 60 26 61 35 62 27 63 28 64 34 65 36 66
REMARK SMILES IDX 29 67 30 68 31 69 32 70 33 71 59 72 60 73 69 74 61 75 62 76
REMARK SMILES IDX 68 77 70 78 63 79 64 80 65 81 66 82 67 83 43 84 44 85 53 86
REMARK SMILES IDX 45 87 46 88 52 89 54 90 47 91 48 92 49 93 50 94 51 95
REMARK H PARENT 2 10 75 45 41 56
REMARK Flexibility Score: inf
ROOT
ATOM      1  C   UNL A   1      31.552  27.813  27.576  1.00  0.00     0.274 C 
ENDROOT
BRANCH   1   2
ATOM      2  O   UNL A   1      30.754  27.365  26.456  1.00  0.00    -0.462 OA
BRANCH   2   3
ATOM      3  C   UNL A   1      30.869  26.051  26.152  1.00  0.00     0.318 C 
ATOM      4  O   UNL A   1      30.088  25.190  26.555  1.00  0.00    -0.252 OA
BRANCH   3   5
ATOM      5  C   UNL A   1      32.047  25.678  25.274  1.00  0.00     0.198 C 
ATOM      6  C   UNL A   1      30.018  26.719  23.125  1.00  0.00     0.333 C 
ATOM      7  N   UNL A   1      31.459  26.645  22.996  1.00  0.00    -0.332 N 
ATOM      8  C   UNL A   1      31.994  25.431  22.377  1.00  0.00     0.188 C 
ATOM      9  C   UNL A   1      32.248  26.805  24.226  1.00  0.00     0.202 C 
ATOM     10  H   UNL A   1      31.572  27.457  22.388  1.00  0.00     0.348 HD
ATOM     11  C   UNL A   1      33.490  25.779  22.402  1.00  0.00     0.071 C 
ATOM     12  C   UNL A   1      31.658  24.176  23.206  1.00  0.00     0.111 C 
ATOM     13  C   UNL A   1      33.653  26.723  23.604  1.00  0.00     0.072 C 
ATOM     14  C   UNL A   1      32.187  24.274  24.644  1.00  0.00     0.203 C 
BRANCH  14  15
ATOM     15  O   UNL A   1      31.936  23.181  25.557  1.00  0.00    -0.457 OA
BRANCH  15  16
ATOM     16  C   UNL A   1      32.731  22.855  26.598  1.00  0.00     0.338 C 
ATOM     17  O   UNL A   1      32.419  22.814  27.779  1.00  0.00    -0.246 OA
BRANCH  16  18
ATOM     18  C   UNL A   1      34.127  22.602  26.133  1.00  0.00     0.060 A 
ATOM     19  C   UNL A   1      34.434  21.326  25.640  1.00  0.00     0.015 A 
ATOM     20  C   UNL A   1      35.153  23.552  26.253  1.00  0.00     0.015 A 
ATOM     21  C   UNL A   1      35.752  20.987  25.324  1.00  0.00     0.001 A 
ATOM     22  C   UNL A   1      36.473  23.206  25.951  1.00  0.00     0.001 A 
ATOM     23  C   UNL A   1      36.771  21.923  25.494  1.00  0.00     0.000 A 
ENDBRANCH  16  18
ENDBRANCH  15  16
ENDBRANCH  14  15
ENDBRANCH   3   5
ENDBRANCH   2   3
ENDBRANCH   1   2
BRANCH   1  24
ATOM     24  C   UNL A   1      32.394  29.063  27.268  1.00  0.00     0.275 C 
BRANCH  24  25
ATOM     25  O   UNL A   1      33.801  28.913  27.556  1.00  0.00    -0.458 OA
BRANCH  25  26
ATOM     26  C   UNL A   1      34.396  30.072  27.905  1.00  0.00     0.338 C 
ATOM     27  O   UNL A   1      33.859  31.161  27.987  1.00  0.00    -0.246 OA
BRANCH  26  28
ATOM     28  C   UNL A   1      35.798  29.949  28.285  1.00  0.00     0.060 A 
ATOM     29  C   UNL A   1      36.742  30.095  27.264  1.00  0.00     0.016 A 
ATOM     30  C   UNL A   1      36.160  29.458  29.539  1.00  0.00     0.016 A 
ATOM     31  C   UNL A   1      38.064  29.747  27.490  1.00  0.00     0.010 A 
ATOM     32  C   UNL A   1      37.497  29.131  29.773  1.00  0.00     0.010 A 
ATOM     33  C   UNL A   1      38.450  29.272  28.750  1.00  0.00    -0.014 A 
BRANCH  33  34
ATOM     34  C   UNL A   1      39.878  29.015  29.014  1.00  0.00     0.031 A 
ATOM     35  C   UNL A   1      40.760  30.075  29.596  1.00  0.00     0.074 A 
ATOM     36  C   UNL A   1      40.354  27.790  28.725  1.00  0.00     0.049 A 
ATOM     37  N   UNL A   1      42.054  30.053  29.782  1.00  0.00    -0.248 NA
ATOM     38  C   UNL A   1      40.107  31.320  30.030  1.00  0.00     0.031 C 
ATOM     39  C   UNL A   1      39.552  26.679  28.203  1.00  0.00     0.029 A 
ATOM     40  N   UNL A   1      41.617  27.275  28.823  1.00  0.00    -0.354 N 
ATOM     41  C   UNL A   1      42.378  31.282  30.342  1.00  0.00     0.074 A 
ATOM     42  C   UNL A   1      41.143  32.029  30.465  1.00  0.00     0.031 C 
ATOM     43  C   UNL A   1      40.344  25.612  28.026  1.00  0.00     0.029 A 
ATOM     44  C   UNL A   1      41.712  25.982  28.370  1.00  0.00     0.049 A 
ATOM     45  H   UNL A   1      42.381  27.780  29.184  1.00  0.00     0.167 HD
ATOM     46  C   UNL A   1      43.599  31.736  30.710  1.00  0.00     0.037 A 
ATOM     47  C   UNL A   1      42.792  25.196  28.213  1.00  0.00     0.037 A 
ATOM     48  C   UNL A   1      44.814  30.973  30.571  1.00  0.00     0.049 A 
ATOM     49  C   UNL A   1      44.139  25.744  28.577  1.00  0.00     0.074 A 
ATOM     50  C   UNL A   1      46.112  31.349  30.876  1.00  0.00     0.029 A 
ATOM     51  N   UNL A   1      44.880  29.673  30.089  1.00  0.00    -0.354 N 
ATOM     52  N   UNL A   1      44.440  26.929  29.054  1.00  0.00    -0.248 NA
ATOM     53  C   UNL A   1      45.291  24.859  28.372  1.00  0.00     0.031 C 
ATOM     54  C   UNL A   1      46.961  30.281  30.557  1.00  0.00     0.029 A 
ATOM     55  C   UNL A   1      46.191  29.232  30.082  1.00  0.00     0.049 A 
ATOM     56  H   UNL A   1      44.104  29.141  29.795  1.00  0.00     0.167 HD
ATOM     57  C   UNL A   1      45.818  26.932  29.211  1.00  0.00     0.074 A 
ATOM     58  C   UNL A   1      46.289  25.624  28.793  1.00  0.00     0.031 C 
ATOM     59  C   UNL A   1      46.625  27.927  29.655  1.00  0.00     0.037 A 
BRANCH  46  60
ATOM     60  C   UNL A   1      43.687  33.128  31.266  1.00  0.00     0.058 A 
ATOM     61  C   UNL A   1      43.664  33.370  32.649  1.00  0.00     0.135 A 
ATOM     62  C   UNL A   1      43.831  34.230  30.409  1.00  0.00     0.135 A 
ATOM     63  F   UNL A   1      43.512  32.352  33.511  1.00  0.00    -0.206 F 
ATOM     64  C   UNL A   1      43.767  34.660  33.162  1.00  0.00     0.059 A 
ATOM     65  C   UNL A   1      43.950  35.527  30.901  1.00  0.00     0.059 A 
ATOM     66  F   UNL A   1      43.853  34.053  29.080  1.00  0.00    -0.206 F 
ATOM     67  C   UNL A   1      43.905  35.733  32.280  1.00  0.00     0.060 A 
BRANCH  67  68
ATOM     68  S   UNL A   1      44.037  37.403  32.955  1.00  0.00     0.124 S 
ATOM     69  O   UNL A   1      43.906  38.215  31.748  1.00  0.00    -0.237 OA
ATOM     70  O   UNL A   1      42.912  37.460  33.882  1.00  0.00    -0.237 OA
ATOM     71  O   UNL A   1      45.358  37.414  33.577  1.00  0.00    -0.744 OA
ENDBRANCH  67  68
ENDBRANCH  46  60
BRANCH  47  72
ATOM     72  C   UNL A   1      42.629  23.833  27.654  1.00  0.00     0.058 A 
ATOM     73  C   UNL A   1      42.624  23.617  26.270  1.00  0.00     0.135 A 
ATOM     74  C   UNL A   1      42.526  22.714  28.496  1.00  0.00     0.135 A 
ATOM     75  F   UNL A   1      42.721  24.657  25.429  1.00  0.00    -0.206 F 
ATOM     76  C   UNL A   1      42.518  22.337  25.736  1.00  0.00     0.059 A 
ATOM     77  C   UNL A   1      42.439  21.424  27.986  1.00  0.00     0.059 A 
ATOM     78  F   UNL A   1      42.546  22.872  29.829  1.00  0.00    -0.206 F 
ATOM     79  C   UNL A   1      42.427  21.246  26.604  1.00  0.00     0.060 A 
BRANCH  79  80
ATOM     80  S   UNL A   1      42.354  19.579  25.912  1.00  0.00     0.124 S 
ATOM     81  O   UNL A   1      42.650  18.765  27.085  1.00  0.00    -0.237 OA
ATOM     82  O   UNL A   1      40.984  19.506  25.414  1.00  0.00    -0.237 OA
ATOM     83  O   UNL A   1      43.386  19.604  24.880  1.00  0.00    -0.744 OA
ENDBRANCH  79  80
ENDBRANCH  47  72
BRANCH  59  84
ATOM     84  C   UNL A   1      48.090  27.620  29.719  1.00  0.00     0.058 A 
ATOM     85  C   UNL A   1      48.941  27.903  28.639  1.00  0.00     0.135 A 
ATOM     86  C   UNL A   1      48.650  27.053  30.873  1.00  0.00     0.135 A 
ATOM     87  F   UNL A   1      48.447  28.436  27.511  1.00  0.00    -0.206 F 
ATOM     88  C   UNL A   1      50.299  27.613  28.695  1.00  0.00     0.059 A 
ATOM     89  C   UNL A   1      50.009  26.771  30.957  1.00  0.00     0.059 A 
ATOM     90  F   UNL A   1      47.874  26.770  31.931  1.00  0.00    -0.206 F 
ATOM     91  C   UNL A   1      50.823  27.042  29.856  1.00  0.00     0.060 A 
BRANCH  91  92
ATOM     92  S   UNL A   1      52.591  26.685  29.932  1.00  0.00     0.124 S 
ATOM     93  O   UNL A   1      53.147  28.014  30.162  1.00  0.00    -0.237 OA
ATOM     94  O   UNL A   1      52.680  25.758  31.055  1.00  0.00    -0.237 OA
ATOM     95  O   UNL A   1      52.871  26.102  28.624  1.00  0.00    -0.744 OA
ENDBRANCH  91  92
ENDBRANCH  59  84
ENDBRANCH  33  34
ENDBRANCH  26  28
ENDBRANCH  25  26
ENDBRANCH  24  25
ENDBRANCH   1  24
TORSDOF 17
ENDMDL
MODEL 3
REMARK VINA RESULT:     -11.5      0.698      1.772
REMARK SMILES C[N@@H+]1[C@H]2CC[C@@H]1[C@@H](C(=O)OCCOC(=O)c1ccc(-c3c4nc(c(-c5c(F)cc(S(=O)(=O)[O-])cc5F)c5ccc([nH]5)c(-c5c(F)cc(S(=O)(=O)[O-])cc5F)c5nc(c(-c6c(F)cc(S(=O)(=O)[O-])cc6F)c6ccc3[nH]6)C=C5)C=C4)cc1)[C@@H](OC(=O)c1ccccc1)C2
REMARK SMILES IDX 11 1 10 2 8 3 9 4 7 5 1 6 2 7 3 8 6 9 4 11 92 12 5 13 82 14
REMARK SMILES IDX 83 15 84 16 85 17 86 18 87 19 91 20 88 21 90 22 89 23 12 24
REMARK SMILES IDX 13 25 14 26 15 27 16 28 17 29 81 30 18 31 80 32 19 33 20 34
REMARK SMILES IDX 21 35 74 36 22 37 79 38 73 39 75 40 23 41 78 42 72 43 71 44
REMARK SMILES IDX 24 46 58 47 37 48 57 49 38 50 41 51 56 52 76 53 39 54 40 55
REMARK SMILES IDX 55 57 77 58 42 59 25 60 26 61 35 62 27 63 28 64 34 65 36 66
REMARK SMILES IDX 29 67 30 68 31 69 32 70 33 71 59 72 60 73 69 74 61 75 62 76
REMARK SMILES IDX 68 77 70 78 63 79 64 80 65 81 66 82 67 83 43 84 44 85 53 86
REMARK SMILES IDX 45 87 46 88 52 89 54 90 47 91 48 92 49 93 50 94 51 95
REMARK H PARENT 2 10 75 45 41 56
REMARK Flexibility Score: inf
ROOT
ATOM      1  C   UNL A   1      38.206  22.094  25.718  1.00  0.00     0.274 C 
ENDROOT
BRANCH   1   2
ATOM      2  O   UNL A   1      36.910  22.684  25.968  1.00  0.00    -0.462 OA
BRANCH   2   3
ATOM      3  C   UNL A   1      36.192  22.997  24.864  1.00  0.00     0.318 C 
ATOM      4  O   UNL A   1      36.679  23.069  23.736  1.00  0.00    -0.252 OA
BRANCH   3   5
ATOM      5  C   UNL A   1      34.720  23.276  25.091  1.00  0.00     0.198 C 
ATOM      6  C   UNL A   1      34.693  20.154  24.817  1.00  0.00     0.333 C 
ATOM      7  N   UNL A   1      33.702  20.977  25.482  1.00  0.00    -0.332 N 
ATOM      8  C   UNL A   1      32.550  21.384  24.676  1.00  0.00     0.188 C 
ATOM      9  C   UNL A   1      34.176  22.226  26.097  1.00  0.00     0.202 C 
ATOM     10  H   UNL A   1      33.438  20.301  26.198  1.00  0.00     0.348 HD
ATOM     11  C   UNL A   1      31.770  22.171  25.739  1.00  0.00     0.071 C 
ATOM     12  C   UNL A   1      32.975  22.257  23.478  1.00  0.00     0.111 C 
ATOM     13  C   UNL A   1      32.844  22.696  26.705  1.00  0.00     0.072 C 
ATOM     14  C   UNL A   1      33.740  23.513  23.921  1.00  0.00     0.203 C 
BRANCH  14  15
ATOM     15  O   UNL A   1      34.225  24.428  22.911  1.00  0.00    -0.457 OA
BRANCH  15  16
ATOM     16  C   UNL A   1      33.661  25.620  22.622  1.00  0.00     0.338 C 
ATOM     17  O   UNL A   1      33.717  26.223  21.561  1.00  0.00    -0.246 OA
BRANCH  16  18
ATOM     18  C   UNL A   1      32.983  26.184  23.826  1.00  0.00     0.060 A 
ATOM     19  C   UNL A   1      33.781  26.798  24.802  1.00  0.00     0.015 A 
ATOM     20  C   UNL A   1      31.606  26.047  24.058  1.00  0.00     0.015 A 
ATOM     21  C   UNL A   1      33.222  27.217  26.012  1.00  0.00     0.001 A 
ATOM     22  C   UNL A   1      31.052  26.454  25.275  1.00  0.00     0.001 A 
ATOM     23  C   UNL A   1      31.861  27.032  26.253  1.00  0.00     0.000 A 
ENDBRANCH  16  18
ENDBRANCH  15  16
ENDBRANCH  14  15
ENDBRANCH   3   5
ENDBRANCH   2   3
ENDBRANCH   1   2
BRANCH   1  24
ATOM     24  C   UNL A   1      39.344  22.751  26.517  1.00  0.00     0.275 C 
BRANCH  24  25
ATOM     25  O   UNL A   1      39.243  24.187  26.620  1.00  0.00    -0.458 OA
BRANCH  25  26
ATOM     26  C   UNL A   1      40.443  24.799  26.690  1.00  0.00     0.338 C 
ATOM     27  O   UNL A   1      41.350  24.697  25.886  1.00  0.00    -0.246 OA
BRANCH  26  28
ATOM     28  C   UNL A   1      40.596  25.717  27.811  1.00  0.00     0.060 A 
ATOM     29  C   UNL A   1      39.550  25.759  28.739  1.00  0.00     0.016 A 
ATOM     30  C   UNL A   1      41.605  26.680  27.817  1.00  0.00     0.016 A 
ATOM     31  C   UNL A   1      39.503  26.772  29.683  1.00  0.00     0.010 A 
ATOM     32  C   UNL A   1      41.570  27.687  28.783  1.00  0.00     0.010 A 
ATOM     33  C   UNL A   1      40.519  27.736  29.716  1.00  0.00    -0.014 A 
BRANCH  33  34
ATOM     34  C   UNL A   1      40.521  28.741  30.796  1.00  0.00     0.031 A 
ATOM     35  C   UNL A   1      41.465  28.631  31.952  1.00  0.00     0.074 A 
ATOM     36  C   UNL A   1      39.654  29.764  30.696  1.00  0.00     0.049 A 
ATOM     37  N   UNL A   1      41.520  29.359  33.036  1.00  0.00    -0.248 NA
ATOM     38  C   UNL A   1      42.484  27.571  31.882  1.00  0.00     0.031 C 
ATOM     39  C   UNL A   1      38.732  29.977  29.575  1.00  0.00     0.029 A 
ATOM     40  N   UNL A   1      39.401  30.808  31.541  1.00  0.00    -0.354 N 
ATOM     41  C   UNL A   1      42.566  28.842  33.789  1.00  0.00     0.074 A 
ATOM     42  C   UNL A   1      43.121  27.735  33.036  1.00  0.00     0.031 C 
ATOM     43  C   UNL A   1      38.013  31.085  29.805  1.00  0.00     0.029 A 
ATOM     44  C   UNL A   1      38.386  31.625  31.107  1.00  0.00     0.049 A 
ATOM     45  H   UNL A   1      39.897  30.961  32.378  1.00  0.00     0.167 HD
ATOM     46  C   UNL A   1      43.011  29.257  34.998  1.00  0.00     0.037 A 
ATOM     47  C   UNL A   1      37.795  32.670  31.712  1.00  0.00     0.037 A 
ATOM     48  C   UNL A   1      42.437  30.359  35.729  1.00  0.00     0.049 A 
ATOM     49  C   UNL A   1      38.271  33.075  33.075  1.00  0.00     0.074 A 
ATOM     50  C   UNL A   1      42.783  30.842  36.979  1.00  0.00     0.029 A 
ATOM     51  N   UNL A   1      41.395  31.153  35.270  1.00  0.00    -0.354 N 
ATOM     52  N   UNL A   1      39.225  32.542  33.801  1.00  0.00    -0.248 NA
ATOM     53  C   UNL A   1      37.585  34.209  33.706  1.00  0.00     0.031 C 
ATOM     54  C   UNL A   1      41.935  31.916  37.283  1.00  0.00     0.029 A 
ATOM     55  C   UNL A   1      41.081  32.119  36.210  1.00  0.00     0.049 A 
ATOM     56  H   UNL A   1      40.945  31.046  34.400  1.00  0.00     0.167 HD
ATOM     57  C   UNL A   1      39.259  33.280  34.976  1.00  0.00     0.074 A 
ATOM     58  C   UNL A   1      38.240  34.305  34.856  1.00  0.00     0.031 C 
ATOM     59  C   UNL A   1      40.057  33.121  36.061  1.00  0.00     0.037 A 
BRANCH  46  60
ATOM     60  C   UNL A   1      44.149  28.501  35.620  1.00  0.00     0.058 A 
ATOM     61  C   UNL A   1      45.486  28.860  35.385  1.00  0.00     0.135 A 
ATOM     62  C   UNL A   1      43.902  27.427  36.490  1.00  0.00     0.135 A 
ATOM     63  F   UNL A   1      45.778  29.869  34.549  1.00  0.00    -0.206 F 
ATOM     64  C   UNL A   1      46.538  28.170  35.980  1.00  0.00     0.059 A 
ATOM     65  C   UNL A   1      44.939  26.733  37.106  1.00  0.00     0.059 A 
ATOM     66  F   UNL A   1      42.642  27.041  36.743  1.00  0.00    -0.206 F 
ATOM     67  C   UNL A   1      46.255  27.104  36.836  1.00  0.00     0.060 A 
BRANCH  67  68
ATOM     68  S   UNL A   1      47.627  26.215  37.602  1.00  0.00     0.124 S 
ATOM     69  O   UNL A   1      47.635  26.794  38.943  1.00  0.00    -0.237 OA
ATOM     70  O   UNL A   1      47.193  24.825  37.515  1.00  0.00    -0.237 OA
ATOM     71  O   UNL A   1      48.769  26.564  36.762  1.00  0.00    -0.744 OA
ENDBRANCH  67  68
ENDBRANCH  46  60
BRANCH  47  72
ATOM     72  C   UNL A   1      36.673  33.367  31.039  1.00  0.00     0.058 A 
ATOM     73  C   UNL A   1      36.908  34.267  29.991  1.00  0.00     0.135 A 
ATOM     74  C   UNL A   1      35.341  33.107  31.399  1.00  0.00     0.135 A 
ATOM     75  F   UNL A   1      38.165  34.544  29.615  1.00  0.00    -0.206 F 
ATOM     76  C   UNL A   1      35.860  34.891  29.322  1.00  0.00     0.059 A 
ATOM     77  C   UNL A   1      34.277  33.704  30.733  1.00  0.00     0.059 A 
ATOM     78  F   UNL A   1      35.068  32.238  32.384  1.00  0.00    -0.206 F 
ATOM     79  C   UNL A   1      34.547  34.601  29.701  1.00  0.00     0.060 A 
BRANCH  79  80
ATOM     80  S   UNL A   1      33.184  35.362  28.791  1.00  0.00     0.124 S 
ATOM     81  O   UNL A   1      33.894  36.313  27.945  1.00  0.00    -0.237 OA
ATOM     82  O   UNL A   1      32.588  34.219  28.106  1.00  0.00    -0.237 OA
ATOM     83  O   UNL A   1      32.365  35.943  29.850  1.00  0.00    -0.744 OA
ENDBRANCH  79  80
ENDBRANCH  47  72
BRANCH  59  84
ATOM     84  C   UNL A   1      39.857  34.091  37.184  1.00  0.00     0.058 A 
ATOM     85  C   UNL A   1      40.548  35.312  37.223  1.00  0.00     0.135 A 
ATOM     86  C   UNL A   1      38.957  33.805  38.222  1.00  0.00     0.135 A 
ATOM     87  F   UNL A   1      41.425  35.623  36.257  1.00  0.00    -0.206 F 
ATOM     88  C   UNL A   1      40.368  36.210  38.268  1.00  0.00     0.059 A 
ATOM     89  C   UNL A   1      38.750  34.695  39.268  1.00  0.00     0.059 A 
ATOM     90  F   UNL A   1      38.273  32.650  38.222  1.00  0.00    -0.206 F 
ATOM     91  C   UNL A   1      39.470  35.891  39.289  1.00  0.00     0.060 A 
BRANCH  91  92
ATOM     92  S   UNL A   1      39.225  37.068  40.636  1.00  0.00     0.124 S 
ATOM     93  O   UNL A   1      38.682  36.206  41.681  1.00  0.00    -0.237 OA
ATOM     94  O   UNL A   1      40.575  37.571  40.868  1.00  0.00    -0.237 OA
ATOM     95  O   UNL A   1      38.292  38.036  40.070  1.00  0.00    -0.744 OA
ENDBRANCH  91  92
ENDBRANCH  59  84
ENDBRANCH  33  34
ENDBRANCH  26  28
ENDBRANCH  25  26
ENDBRANCH  24  25
ENDBRANCH   1  24
TORSDOF 17
ENDMDL
