MODEL 1
REMARK VINA RESULT:     -11.6      0.000      0.000
REMARK SMILES Cc1ccc(NC(=O)C[N@H+]2CC[C@@H](C(=O)OCCOC(=O)c3ccc(-c4c5nc(c(-c6c(F)cc(S(=O)(=O)[O-])cc6F)c6ccc([nH]6)c(-c6c(F)cc(S(=O)(=O)[O-])cc6F)c6nc(c(-c7c(F)cc(S(=O)(=O)[O-])cc7F)c7ccc4[nH]7)C=C6)C=C5)cc3)[C@@H]2C)cc1
REMARK SMILES IDX 17 1 16 2 14 3 15 4 13 5 10 6 11 7 88 8 12 10 89 11 9 12
REMARK SMILES IDX 7 13 6 14 8 16 5 17 1 18 2 19 3 20 91 21 4 22 90 23 18 24
REMARK SMILES IDX 19 25 20 26 21 27 22 28 23 29 87 30 24 31 86 32 25 33 26 34
REMARK SMILES IDX 27 35 80 36 28 37 85 38 79 39 81 40 29 41 84 42 78 43 77 44
REMARK SMILES IDX 30 46 64 47 43 48 63 49 44 50 47 51 62 52 82 53 45 54 46 55
REMARK SMILES IDX 61 57 83 58 48 59 31 60 32 61 41 62 33 63 34 64 40 65 42 66
REMARK SMILES IDX 35 67 36 68 37 69 38 70 39 71 65 72 66 73 75 74 67 75 68 76
REMARK SMILES IDX 74 77 76 78 69 79 70 80 71 81 72 82 73 83 49 84 50 85 59 86
REMARK SMILES IDX 51 87 52 88 58 89 60 90 53 91 54 92 55 93 56 94 57 95
REMARK H PARENT 10 9 6 15 81 45 47 56
REMARK Flexibility Score: inf
ROOT
ATOM      1  C   UNL A   1      31.903  30.477  25.761  1.00  0.00     0.274 C 
ENDROOT
BRANCH   1   2
ATOM      2  O   UNL A   1      31.044  29.342  25.473  1.00  0.00    -0.462 OA
BRANCH   2   3
ATOM      3  C   UNL A   1      31.450  28.062  25.589  1.00  0.00     0.315 C 
ATOM      4  O   UNL A   1      31.594  27.560  26.700  1.00  0.00    -0.252 OA
BRANCH   3   5
ATOM      5  C   UNL A   1      31.597  27.182  24.258  1.00  0.00     0.162 C 
ATOM      6  N   UNL A   1      31.669  24.778  24.482  1.00  0.00    -0.324 N 
ATOM      7  C   UNL A   1      31.203  24.951  23.120  1.00  0.00     0.264 C 
ATOM      8  C   UNL A   1      32.497  26.046  24.708  1.00  0.00     0.195 C 
ATOM      9  H   UNL A   1      32.226  23.939  24.634  1.00  0.00     0.348 HD
ATOM     10  C   UNL A   1      30.863  26.444  23.045  1.00  0.00     0.083 C 
ATOM     11  C   UNL A   1      33.763  26.333  23.836  1.00  0.00     0.076 C 
BRANCH   6  12
ATOM     12  C   UNL A   1      30.502  24.534  25.498  1.00  0.00     0.364 C 
BRANCH  12  13
ATOM     13  C   UNL A   1      30.550  23.348  26.688  1.00  0.00     0.279 C 
ATOM     14  N   UNL A   1      31.466  22.241  26.845  1.00  0.00    -0.321 N 
ATOM     15  H   UNL A   1      31.070  21.446  27.269  1.00  0.00     0.170 HD
ATOM     16  O   UNL A   1      29.592  23.341  27.484  1.00  0.00    -0.268 OA
BRANCH  14  17
ATOM     17  C   UNL A   1      32.868  22.090  26.487  1.00  0.00     0.041 A 
ATOM     18  C   UNL A   1      37.680  20.977  24.684  1.00  0.00     0.044 C 
ATOM     19  C   UNL A   1      36.171  21.292  25.025  1.00  0.00    -0.051 A 
ATOM     20  C   UNL A   1      34.471  20.191  24.940  1.00  0.00     0.005 A 
ATOM     21  C   UNL A   1      35.953  22.835  26.029  1.00  0.00     0.005 A 
ATOM     22  C   UNL A   1      33.013  20.734  25.718  1.00  0.00     0.026 A 
ATOM     23  C   UNL A   1      34.269  23.195  26.663  1.00  0.00     0.026 A 
ENDBRANCH  14  17
ENDBRANCH  12  13
ENDBRANCH   6  12
ENDBRANCH   3   5
ENDBRANCH   2   3
ENDBRANCH   1   2
BRANCH   1  24
ATOM     24  C   UNL A   1      32.734  30.638  27.087  1.00  0.00     0.275 C 
BRANCH  24  25
ATOM     25  O   UNL A   1      34.183  30.524  27.183  1.00  0.00    -0.458 OA
BRANCH  25  26
ATOM     26  C   UNL A   1      35.001  29.449  27.301  1.00  0.00     0.338 C 
ATOM     27  O   UNL A   1      34.792  28.368  26.773  1.00  0.00    -0.246 OA
BRANCH  26  28
ATOM     28  C   UNL A   1      36.236  29.671  28.026  1.00  0.00     0.060 A 
ATOM     29  C   UNL A   1      36.189  29.604  29.808  1.00  0.00     0.016 A 
ATOM     30  C   UNL A   1      37.725  29.628  27.094  1.00  0.00     0.016 A 
ATOM     31  C   UNL A   1      37.598  29.417  30.800  1.00  0.00     0.010 A 
ATOM     32  C   UNL A   1      39.272  29.373  27.959  1.00  0.00     0.010 A 
ATOM     33  C   UNL A   1      39.210  29.382  30.011  1.00  0.00    -0.014 A 
BRANCH  33  34
ATOM     34  C   UNL A   1      39.925  30.233  31.188  1.00  0.00     0.031 A 
ATOM     35  C   UNL A   1      39.909  31.714  31.005  1.00  0.00     0.074 A 
ATOM     36  C   UNL A   1      40.583  29.549  32.202  1.00  0.00     0.049 A 
ATOM     37  N   UNL A   1      39.909  32.562  31.962  1.00  0.00    -0.248 NA
ATOM     38  C   UNL A   1      39.510  32.412  29.773  1.00  0.00     0.031 C 
ATOM     39  C   UNL A   1      40.169  29.222  33.607  1.00  0.00     0.029 A 
ATOM     40  N   UNL A   1      41.389  28.420  32.026  1.00  0.00    -0.354 N 
ATOM     41  C   UNL A   1      38.775  33.321  31.695  1.00  0.00     0.074 A 
ATOM     42  C   UNL A   1      38.777  33.433  30.263  1.00  0.00     0.031 C 
ATOM     43  C   UNL A   1      41.019  28.340  34.194  1.00  0.00     0.029 A 
ATOM     44  C   UNL A   1      41.985  27.941  33.188  1.00  0.00     0.049 A 
ATOM     45  H   UNL A   1      41.525  27.997  31.147  1.00  0.00     0.167 HD
ATOM     46  C   UNL A   1      37.872  33.477  32.718  1.00  0.00     0.037 A 
ATOM     47  C   UNL A   1      43.334  28.076  33.156  1.00  0.00     0.037 A 
ATOM     48  C   UNL A   1      38.370  32.738  33.900  1.00  0.00     0.049 A 
ATOM     49  C   UNL A   1      43.494  29.509  33.716  1.00  0.00     0.074 A 
ATOM     50  C   UNL A   1      37.993  31.692  34.713  1.00  0.00     0.029 A 
ATOM     51  N   UNL A   1      39.680  32.984  34.247  1.00  0.00    -0.354 N 
ATOM     52  N   UNL A   1      42.557  30.435  33.674  1.00  0.00    -0.248 NA
ATOM     53  C   UNL A   1      44.592  29.919  34.569  1.00  0.00     0.031 C 
ATOM     54  C   UNL A   1      39.172  31.317  35.489  1.00  0.00     0.029 A 
ATOM     55  C   UNL A   1      40.281  32.013  35.004  1.00  0.00     0.049 A 
ATOM     56  H   UNL A   1      40.152  33.802  33.969  1.00  0.00     0.167 HD
ATOM     57  C   UNL A   1      42.729  31.354  34.662  1.00  0.00     0.074 A 
ATOM     58  C   UNL A   1      44.139  31.112  35.008  1.00  0.00     0.031 C 
ATOM     59  C   UNL A   1      41.743  32.161  35.220  1.00  0.00     0.037 A 
BRANCH  46  60
ATOM     60  C   UNL A   1      36.514  34.161  32.742  1.00  0.00     0.058 A 
ATOM     61  C   UNL A   1      35.773  34.171  31.535  1.00  0.00     0.135 A 
ATOM     62  C   UNL A   1      35.879  34.802  33.826  1.00  0.00     0.135 A 
ATOM     63  F   UNL A   1      36.240  33.574  30.429  1.00  0.00    -0.206 F 
ATOM     64  C   UNL A   1      34.520  34.763  31.398  1.00  0.00     0.059 A 
ATOM     65  C   UNL A   1      34.594  35.387  33.717  1.00  0.00     0.059 A 
ATOM     66  F   UNL A   1      36.487  34.907  35.019  1.00  0.00    -0.206 F 
ATOM     67  C   UNL A   1      33.924  35.361  32.494  1.00  0.00     0.060 A 
BRANCH  67  68
ATOM     68  S   UNL A   1      32.270  36.056  32.257  1.00  0.00     0.124 S 
ATOM     69  O   UNL A   1      31.413  34.935  32.627  1.00  0.00    -0.237 OA
ATOM     70  O   UNL A   1      32.272  37.181  33.189  1.00  0.00    -0.237 OA
ATOM     71  O   UNL A   1      32.246  36.418  30.844  1.00  0.00    -0.744 OA
ENDBRANCH  67  68
ENDBRANCH  46  60
BRANCH  47  72
ATOM     72  C   UNL A   1      43.814  27.429  31.833  1.00  0.00     0.058 A 
ATOM     73  C   UNL A   1      44.254  28.260  30.745  1.00  0.00     0.135 A 
ATOM     74  C   UNL A   1      44.202  26.090  31.728  1.00  0.00     0.135 A 
ATOM     75  F   UNL A   1      43.998  29.582  30.779  1.00  0.00    -0.206 F 
ATOM     76  C   UNL A   1      45.048  27.800  29.665  1.00  0.00     0.059 A 
ATOM     77  C   UNL A   1      44.992  25.608  30.656  1.00  0.00     0.059 A 
ATOM     78  F   UNL A   1      43.909  25.234  32.715  1.00  0.00    -0.206 F 
ATOM     79  C   UNL A   1      45.421  26.459  29.630  1.00  0.00     0.060 A 
BRANCH  79  80
ATOM     80  S   UNL A   1      46.450  25.788  28.253  1.00  0.00     0.124 S 
ATOM     81  O   UNL A   1      46.492  26.908  27.320  1.00  0.00    -0.237 OA
ATOM     82  O   UNL A   1      47.719  25.445  28.884  1.00  0.00    -0.237 OA
ATOM     83  O   UNL A   1      45.672  24.635  27.814  1.00  0.00    -0.744 OA
ENDBRANCH  79  80
ENDBRANCH  47  72
BRANCH  59  84
ATOM     84  C   UNL A   1      42.177  33.401  35.951  1.00  0.00     0.058 A 
ATOM     85  C   UNL A   1      42.277  33.429  37.337  1.00  0.00     0.135 A 
ATOM     86  C   UNL A   1      42.579  34.587  35.279  1.00  0.00     0.135 A 
ATOM     87  F   UNL A   1      41.698  32.480  38.089  1.00  0.00    -0.206 F 
ATOM     88  C   UNL A   1      42.977  34.430  37.988  1.00  0.00     0.059 A 
ATOM     89  C   UNL A   1      43.143  35.661  35.923  1.00  0.00     0.059 A 
ATOM     90  F   UNL A   1      42.488  34.776  33.959  1.00  0.00    -0.206 F 
ATOM     91  C   UNL A   1      43.406  35.541  37.268  1.00  0.00     0.060 A 
BRANCH  91  92
ATOM     92  S   UNL A   1      44.218  36.879  38.125  1.00  0.00     0.124 S 
ATOM     93  O   UNL A   1      44.029  37.984  37.190  1.00  0.00    -0.237 OA
ATOM     94  O   UNL A   1      43.443  36.946  39.360  1.00  0.00    -0.237 OA
ATOM     95  O   UNL A   1      45.592  36.409  38.265  1.00  0.00    -0.744 OA
ENDBRANCH  91  92
ENDBRANCH  59  84
ENDBRANCH  33  34
ENDBRANCH  26  28
ENDBRANCH  25  26
ENDBRANCH  24  25
ENDBRANCH   1  24
TORSDOF 17
ENDMDL
MODEL 2
REMARK VINA RESULT:     -11.3      1.193      2.038
REMARK SMILES Cc1ccc(NC(=O)C[N@H+]2CC[C@@H](C(=O)OCCOC(=O)c3ccc(-c4c5nc(c(-c6c(F)cc(S(=O)(=O)[O-])cc6F)c6ccc([nH]6)c(-c6c(F)cc(S(=O)(=O)[O-])cc6F)c6nc(c(-c7c(F)cc(S(=O)(=O)[O-])cc7F)c7ccc4[nH]7)C=C6)C=C5)cc3)[C@@H]2C)cc1
REMARK SMILES IDX 17 1 16 2 14 3 15 4 13 5 10 6 11 7 88 8 12 10 89 11 9 12
REMARK SMILES IDX 7 13 6 14 8 16 5 17 1 18 2 19 3 20 91 21 4 22 90 23 18 24
REMARK SMILES IDX 19 25 20 26 21 27 22 28 23 29 87 30 24 31 86 32 25 33 26 34
REMARK SMILES IDX 27 35 80 36 28 37 85 38 79 39 81 40 29 41 84 42 78 43 77 44
REMARK SMILES IDX 30 46 64 47 43 48 63 49 44 50 47 51 62 52 82 53 45 54 46 55
REMARK SMILES IDX 61 57 83 58 48 59 31 60 32 61 41 62 33 63 34 64 40 65 42 66
REMARK SMILES IDX 35 67 36 68 37 69 38 70 39 71 65 72 66 73 75 74 67 75 68 76
REMARK SMILES IDX 74 77 76 78 69 79 70 80 71 81 72 82 73 83 49 84 50 85 59 86
REMARK SMILES IDX 51 87 52 88 58 89 60 90 53 91 54 92 55 93 56 94 57 95
REMARK H PARENT 10 9 6 15 81 45 47 56
REMARK Flexibility Score: inf
ROOT
ATOM      1  C   UNL A   1      31.622  30.087  25.868  1.00  0.00     0.274 C 
ENDROOT
BRANCH   1   2
ATOM      2  O   UNL A   1      31.606  29.460  24.557  1.00  0.00    -0.462 OA
BRANCH   2   3
ATOM      3  C   UNL A   1      31.986  28.185  24.345  1.00  0.00     0.315 C 
ATOM      4  O   UNL A   1      33.021  27.943  23.732  1.00  0.00    -0.252 OA
BRANCH   3   5
ATOM      5  C   UNL A   1      31.139  27.010  25.033  1.00  0.00     0.162 C 
ATOM      6  N   UNL A   1      31.278  24.795  24.081  1.00  0.00    -0.324 N 
ATOM      7  C   UNL A   1      30.889  24.522  25.450  1.00  0.00     0.264 C 
ATOM      8  C   UNL A   1      30.685  26.186  23.843  1.00  0.00     0.195 C 
ATOM      9  H   UNL A   1      30.929  24.121  23.401  1.00  0.00     0.348 HD
ATOM     10  C   UNL A   1      31.083  25.871  26.153  1.00  0.00     0.083 C 
ATOM     11  C   UNL A   1      29.140  26.414  23.922  1.00  0.00     0.076 C 
BRANCH   6  12
ATOM     12  C   UNL A   1      32.821  24.662  23.849  1.00  0.00     0.364 C 
BRANCH  12  13
ATOM     13  C   UNL A   1      33.896  24.186  25.050  1.00  0.00     0.279 C 
ATOM     14  N   UNL A   1      34.081  22.886  25.655  1.00  0.00    -0.321 N 
ATOM     15  H   UNL A   1      34.373  22.915  26.594  1.00  0.00     0.170 HD
ATOM     16  O   UNL A   1      34.547  25.102  25.589  1.00  0.00    -0.268 OA
BRANCH  14  17
ATOM     17  C   UNL A   1      33.911  21.542  25.124  1.00  0.00     0.041 A 
ATOM     18  C   UNL A   1      34.031  16.541  23.508  1.00  0.00     0.044 C 
ATOM     19  C   UNL A   1      34.086  17.972  24.171  1.00  0.00    -0.051 A 
ATOM     20  C   UNL A   1      35.610  19.195  24.710  1.00  0.00     0.005 A 
ATOM     21  C   UNL A   1      32.460  18.863  24.125  1.00  0.00     0.005 A 
ATOM     22  C   UNL A   1      35.323  20.864  25.104  1.00  0.00     0.026 A 
ATOM     23  C   UNL A   1      32.444  20.613  24.677  1.00  0.00     0.026 A 
ENDBRANCH  14  17
ENDBRANCH  12  13
ENDBRANCH   6  12
ENDBRANCH   3   5
ENDBRANCH   2   3
ENDBRANCH   1   2
BRANCH   1  24
ATOM     24  C   UNL A   1      32.855  30.869  26.453  1.00  0.00     0.275 C 
BRANCH  24  25
ATOM     25  O   UNL A   1      33.789  30.339  27.437  1.00  0.00    -0.458 OA
BRANCH  25  26
ATOM     26  C   UNL A   1      34.700  29.338  27.374  1.00  0.00     0.338 C 
ATOM     27  O   UNL A   1      34.535  28.299  26.752  1.00  0.00    -0.246 OA
BRANCH  26  28
ATOM     28  C   UNL A   1      35.973  29.598  28.016  1.00  0.00     0.060 A 
ATOM     29  C   UNL A   1      36.052  29.503  29.795  1.00  0.00     0.016 A 
ATOM     30  C   UNL A   1      37.395  29.630  26.984  1.00  0.00     0.016 A 
ATOM     31  C   UNL A   1      37.533  29.358  30.685  1.00  0.00     0.010 A 
ATOM     32  C   UNL A   1      39.006  29.425  27.735  1.00  0.00     0.010 A 
ATOM     33  C   UNL A   1      39.087  29.401  29.787  1.00  0.00    -0.014 A 
BRANCH  33  34
ATOM     34  C   UNL A   1      39.847  30.263  30.928  1.00  0.00     0.031 A 
ATOM     35  C   UNL A   1      39.816  31.742  30.737  1.00  0.00     0.074 A 
ATOM     36  C   UNL A   1      40.551  29.588  31.915  1.00  0.00     0.049 A 
ATOM     37  N   UNL A   1      39.852  32.596  31.688  1.00  0.00    -0.248 NA
ATOM     38  C   UNL A   1      39.360  32.431  29.519  1.00  0.00     0.031 C 
ATOM     39  C   UNL A   1      40.200  29.267  33.339  1.00  0.00     0.029 A 
ATOM     40  N   UNL A   1      41.355  28.462  31.712  1.00  0.00    -0.354 N 
ATOM     41  C   UNL A   1      38.703  33.347  31.466  1.00  0.00     0.074 A 
ATOM     42  C   UNL A   1      38.643  33.451  30.034  1.00  0.00     0.031 C 
ATOM     43  C   UNL A   1      41.079  28.393  33.894  1.00  0.00     0.029 A 
ATOM     44  C   UNL A   1      42.003  27.992  32.850  1.00  0.00     0.049 A 
ATOM     45  H   UNL A   1      41.455  28.034  30.830  1.00  0.00     0.167 HD
ATOM     46  C   UNL A   1      37.844  33.505  32.525  1.00  0.00     0.037 A 
ATOM     47  C   UNL A   1      43.348  28.134  32.759  1.00  0.00     0.037 A 
ATOM     48  C   UNL A   1      38.397  32.775  33.689  1.00  0.00     0.049 A 
ATOM     49  C   UNL A   1      43.525  29.571  33.303  1.00  0.00     0.074 A 
ATOM     50  C   UNL A   1      38.061  31.732  34.524  1.00  0.00     0.029 A 
ATOM     51  N   UNL A   1      39.719  33.030  33.978  1.00  0.00    -0.354 N 
ATOM     52  N   UNL A   1      42.582  30.492  33.297  1.00  0.00    -0.248 NA
ATOM     53  C   UNL A   1      44.657  29.992  34.106  1.00  0.00     0.031 C 
ATOM     54  C   UNL A   1      39.274  31.368  35.251  1.00  0.00     0.029 A 
ATOM     55  C   UNL A   1      40.358  32.067  34.714  1.00  0.00     0.049 A 
ATOM     56  H   UNL A   1      40.175  33.848  33.675  1.00  0.00     0.167 HD
ATOM     57  C   UNL A   1      42.792  31.417  34.271  1.00  0.00     0.074 A 
ATOM     58  C   UNL A   1      44.217  31.185  34.557  1.00  0.00     0.031 C 
ATOM     59  C   UNL A   1      41.827  32.223  34.866  1.00  0.00     0.037 A 
BRANCH  46  60
ATOM     60  C   UNL A   1      36.486  34.182  32.604  1.00  0.00     0.058 A 
ATOM     61  C   UNL A   1      35.689  34.173  31.433  1.00  0.00     0.135 A 
ATOM     62  C   UNL A   1      35.898  34.835  33.709  1.00  0.00     0.135 A 
ATOM     63  F   UNL A   1      36.108  33.564  30.314  1.00  0.00    -0.206 F 
ATOM     64  C   UNL A   1      34.427  34.756  31.348  1.00  0.00     0.059 A 
ATOM     65  C   UNL A   1      34.606  35.412  33.652  1.00  0.00     0.059 A 
ATOM     66  F   UNL A   1      36.561  34.959  34.870  1.00  0.00    -0.206 F 
ATOM     67  C   UNL A   1      33.880  35.366  32.462  1.00  0.00     0.060 A 
BRANCH  67  68
ATOM     68  S   UNL A   1      32.213  36.050  32.293  1.00  0.00     0.124 S 
ATOM     69  O   UNL A   1      31.379  34.923  32.700  1.00  0.00    -0.237 OA
ATOM     70  O   UNL A   1      32.246  37.175  33.223  1.00  0.00    -0.237 OA
ATOM     71  O   UNL A   1      32.127  36.410  30.882  1.00  0.00    -0.744 OA
ENDBRANCH  67  68
ENDBRANCH  46  60
BRANCH  47  72
ATOM     72  C   UNL A   1      43.775  27.481  31.420  1.00  0.00     0.058 A 
ATOM     73  C   UNL A   1      43.892  26.051  31.324  1.00  0.00     0.135 A 
ATOM     74  C   UNL A   1      43.706  28.138  30.188  1.00  0.00     0.135 A 
ATOM     75  F   UNL A   1      43.895  25.311  32.449  1.00  0.00    -0.206 F 
ATOM     76  C   UNL A   1      43.901  25.336  30.100  1.00  0.00     0.059 A 
ATOM     77  C   UNL A   1      43.716  27.444  28.954  1.00  0.00     0.059 A 
ATOM     78  F   UNL A   1      43.526  29.464  30.152  1.00  0.00    -0.206 F 
ATOM     79  C   UNL A   1      43.806  26.047  28.907  1.00  0.00     0.060 A 
BRANCH  79  80
ATOM     80  S   UNL A   1      43.813  25.184  27.276  1.00  0.00     0.124 S 
ATOM     81  O   UNL A   1      42.526  24.500  27.279  1.00  0.00    -0.237 OA
ATOM     82  O   UNL A   1      43.957  26.256  26.299  1.00  0.00    -0.237 OA
ATOM     83  O   UNL A   1      44.983  24.318  27.386  1.00  0.00    -0.744 OA
ENDBRANCH  79  80
ENDBRANCH  47  72
BRANCH  59  84
ATOM     84  C   UNL A   1      42.286  33.469  35.571  1.00  0.00     0.058 A 
ATOM     85  C   UNL A   1      42.340  33.541  36.958  1.00  0.00     0.135 A 
ATOM     86  C   UNL A   1      42.756  34.615  34.874  1.00  0.00     0.135 A 
ATOM     87  F   UNL A   1      41.699  32.641  37.720  1.00  0.00    -0.206 F 
ATOM     88  C   UNL A   1      43.057  34.536  37.599  1.00  0.00     0.059 A 
ATOM     89  C   UNL A   1      43.341  35.688  35.502  1.00  0.00     0.059 A 
ATOM     90  F   UNL A   1      42.718  34.762  33.546  1.00  0.00    -0.206 F 
ATOM     91  C   UNL A   1      43.554  35.604  36.859  1.00  0.00     0.060 A 
BRANCH  91  92
ATOM     92  S   UNL A   1      44.389  36.938  37.699  1.00  0.00     0.124 S 
ATOM     93  O   UNL A   1      45.786  36.530  37.582  1.00  0.00    -0.237 OA
ATOM     94  O   UNL A   1      43.988  38.086  36.893  1.00  0.00    -0.237 OA
ATOM     95  O   UNL A   1      43.837  36.889  39.049  1.00  0.00    -0.744 OA
ENDBRANCH  91  92
ENDBRANCH  59  84
ENDBRANCH  33  34
ENDBRANCH  26  28
ENDBRANCH  25  26
ENDBRANCH  24  25
ENDBRANCH   1  24
TORSDOF 17
ENDMDL
MODEL 3
REMARK VINA RESULT:     -11.2      2.112      4.307
REMARK SMILES Cc1ccc(NC(=O)C[N@H+]2CC[C@@H](C(=O)OCCOC(=O)c3ccc(-c4c5nc(c(-c6c(F)cc(S(=O)(=O)[O-])cc6F)c6ccc([nH]6)c(-c6c(F)cc(S(=O)(=O)[O-])cc6F)c6nc(c(-c7c(F)cc(S(=O)(=O)[O-])cc7F)c7ccc4[nH]7)C=C6)C=C5)cc3)[C@@H]2C)cc1
REMARK SMILES IDX 17 1 16 2 14 3 15 4 13 5 10 6 11 7 88 8 12 10 89 11 9 12
REMARK SMILES IDX 7 13 6 14 8 16 5 17 1 18 2 19 3 20 91 21 4 22 90 23 18 24
REMARK SMILES IDX 19 25 20 26 21 27 22 28 23 29 87 30 24 31 86 32 25 33 26 34
REMARK SMILES IDX 27 35 80 36 28 37 85 38 79 39 81 40 29 41 84 42 78 43 77 44
REMARK SMILES IDX 30 46 64 47 43 48 63 49 44 50 47 51 62 52 82 53 45 54 46 55
REMARK SMILES IDX 61 57 83 58 48 59 31 60 32 61 41 62 33 63 34 64 40 65 42 66
REMARK SMILES IDX 35 67 36 68 37 69 38 70 39 71 65 72 66 73 75 74 67 75 68 76
REMARK SMILES IDX 74 77 76 78 69 79 70 80 71 81 72 82 73 83 49 84 50 85 59 86
REMARK SMILES IDX 51 87 52 88 58 89 60 90 53 91 54 92 55 93 56 94 57 95
REMARK H PARENT 10 9 6 15 81 45 47 56
REMARK Flexibility Score: inf
ROOT
ATOM      1  C   UNL A   1      38.390  23.653  25.966  1.00  0.00     0.274 C 
ENDROOT
BRANCH   1   2
ATOM      2  O   UNL A   1      37.115  22.956  25.957  1.00  0.00    -0.462 OA
BRANCH   2   3
ATOM      3  C   UNL A   1      36.966  21.699  25.497  1.00  0.00     0.315 C 
ATOM      4  O   UNL A   1      37.950  21.044  25.165  1.00  0.00    -0.252 OA
BRANCH   3   5
ATOM      5  C   UNL A   1      35.506  21.039  25.530  1.00  0.00     0.162 C 
ATOM      6  N   UNL A   1      33.628  22.388  24.831  1.00  0.00    -0.324 N 
ATOM      7  C   UNL A   1      33.142  21.040  24.614  1.00  0.00     0.264 C 
ATOM      8  C   UNL A   1      34.629  22.194  25.974  1.00  0.00     0.195 C 
ATOM      9  H   UNL A   1      32.905  23.062  25.080  1.00  0.00     0.348 HD
ATOM     10  C   UNL A   1      34.401  20.177  24.760  1.00  0.00     0.083 C 
ATOM     11  C   UNL A   1      34.152  21.661  27.365  1.00  0.00     0.076 C 
BRANCH   6  12
ATOM     12  C   UNL A   1      34.197  23.047  23.530  1.00  0.00     0.364 C 
BRANCH  12  13
ATOM     13  C   UNL A   1      33.232  23.814  22.388  1.00  0.00     0.279 C 
ATOM     14  N   UNL A   1      32.250  24.860  22.568  1.00  0.00    -0.321 N 
ATOM     15  H   UNL A   1      31.504  24.829  21.927  1.00  0.00     0.170 HD
ATOM     16  O   UNL A   1      33.272  23.338  21.237  1.00  0.00    -0.268 OA
BRANCH  14  17
ATOM     17  C   UNL A   1      32.166  25.950  23.529  1.00  0.00     0.041 A 
ATOM     18  C   UNL A   1      31.915  30.373  26.358  1.00  0.00     0.044 C 
ATOM     19  C   UNL A   1      31.865  29.144  25.370  1.00  0.00    -0.051 A 
ATOM     20  C   UNL A   1      32.542  28.852  23.482  1.00  0.00     0.005 A 
ATOM     21  C   UNL A   1      31.425  27.548  26.207  1.00  0.00     0.005 A 
ATOM     22  C   UNL A   1      32.628  27.255  22.798  1.00  0.00     0.026 A 
ATOM     23  C   UNL A   1      31.536  26.015  25.206  1.00  0.00     0.026 A 
ENDBRANCH  14  17
ENDBRANCH  12  13
ENDBRANCH   6  12
ENDBRANCH   3   5
ENDBRANCH   2   3
ENDBRANCH   1   2
BRANCH   1  24
ATOM     24  C   UNL A   1      39.400  23.625  27.172  1.00  0.00     0.275 C 
BRANCH  24  25
ATOM     25  O   UNL A   1      40.655  24.361  27.226  1.00  0.00    -0.458 OA
BRANCH  25  26
ATOM     26  C   UNL A   1      40.983  25.620  26.846  1.00  0.00     0.338 C 
ATOM     27  O   UNL A   1      41.455  25.906  25.756  1.00  0.00    -0.246 OA
BRANCH  26  28
ATOM     28  C   UNL A   1      40.647  26.673  27.784  1.00  0.00     0.060 A 
ATOM     29  C   UNL A   1      41.924  27.831  28.242  1.00  0.00     0.016 A 
ATOM     30  C   UNL A   1      38.940  26.935  28.109  1.00  0.00     0.016 A 
ATOM     31  C   UNL A   1      41.608  29.364  28.987  1.00  0.00     0.010 A 
ATOM     32  C   UNL A   1      38.431  28.498  28.817  1.00  0.00     0.010 A 
ATOM     33  C   UNL A   1      39.916  29.783  29.415  1.00  0.00    -0.014 A 
BRANCH  33  34
ATOM     34  C   UNL A   1      40.332  30.511  30.800  1.00  0.00     0.031 A 
ATOM     35  C   UNL A   1      40.253  32.001  30.787  1.00  0.00     0.074 A 
ATOM     36  C   UNL A   1      40.825  29.734  31.840  1.00  0.00     0.049 A 
ATOM     37  N   UNL A   1      40.012  32.722  31.815  1.00  0.00    -0.248 NA
ATOM     38  C   UNL A   1      40.054  32.829  29.587  1.00  0.00     0.031 C 
ATOM     39  C   UNL A   1      40.171  29.218  33.088  1.00  0.00     0.029 A 
ATOM     40  N   UNL A   1      41.723  28.671  31.701  1.00  0.00    -0.354 N 
ATOM     41  C   UNL A   1      38.902  33.459  31.415  1.00  0.00     0.074 A 
ATOM     42  C   UNL A   1      39.173  33.749  30.034  1.00  0.00     0.031 C 
ATOM     43  C   UNL A   1      40.947  28.306  33.729  1.00  0.00     0.029 A 
ATOM     44  C   UNL A   1      42.114  28.077  32.897  1.00  0.00     0.049 A 
ATOM     45  H   UNL A   1      42.054  28.368  30.825  1.00  0.00     0.167 HD
ATOM     46  C   UNL A   1      37.811  33.448  32.248  1.00  0.00     0.037 A 
ATOM     47  C   UNL A   1      43.432  28.272  33.151  1.00  0.00     0.037 A 
ATOM     48  C   UNL A   1      38.120  32.589  33.413  1.00  0.00     0.049 A 
ATOM     49  C   UNL A   1      43.385  29.630  33.890  1.00  0.00     0.074 A 
ATOM     50  C   UNL A   1      37.663  31.435  34.011  1.00  0.00     0.029 A 
ATOM     51  N   UNL A   1      39.318  32.846  34.040  1.00  0.00    -0.354 N 
ATOM     52  N   UNL A   1      42.414  30.513  33.768  1.00  0.00    -0.248 NA
ATOM     53  C   UNL A   1      44.268  29.977  34.987  1.00  0.00     0.031 C 
ATOM     54  C   UNL A   1      38.691  31.017  34.959  1.00  0.00     0.029 A 
ATOM     55  C   UNL A   1      39.825  31.815  34.787  1.00  0.00     0.049 A 
ATOM     56  H   UNL A   1      39.780  33.711  33.958  1.00  0.00     0.167 HD
ATOM     57  C   UNL A   1      42.331  31.308  34.868  1.00  0.00     0.074 A 
ATOM     58  C   UNL A   1      43.661  31.086  35.459  1.00  0.00     0.031 C 
ATOM     59  C   UNL A   1      41.205  31.997  35.306  1.00  0.00     0.037 A 
BRANCH  46  60
ATOM     60  C   UNL A   1      36.432  34.065  32.078  1.00  0.00     0.058 A 
ATOM     61  C   UNL A   1      35.931  34.837  33.155  1.00  0.00     0.135 A 
ATOM     62  C   UNL A   1      35.563  33.970  30.971  1.00  0.00     0.135 A 
ATOM     63  F   UNL A   1      36.660  35.037  34.263  1.00  0.00    -0.206 F 
ATOM     64  C   UNL A   1      34.684  35.457  33.152  1.00  0.00     0.059 A 
ATOM     65  C   UNL A   1      34.302  34.615  30.935  1.00  0.00     0.059 A 
ATOM     66  F   UNL A   1      35.890  33.232  29.898  1.00  0.00    -0.206 F 
ATOM     67  C   UNL A   1      33.874  35.356  32.036  1.00  0.00     0.060 A 
BRANCH  67  68
ATOM     68  S   UNL A   1      32.294  36.238  32.080  1.00  0.00     0.124 S 
ATOM     69  O   UNL A   1      31.386  35.210  32.578  1.00  0.00    -0.237 OA
ATOM     70  O   UNL A   1      32.577  37.331  33.007  1.00  0.00    -0.237 OA
ATOM     71  O   UNL A   1      32.082  36.637  30.692  1.00  0.00    -0.744 OA
ENDBRANCH  67  68
ENDBRANCH  46  60
BRANCH  47  72
ATOM     72  C   UNL A   1      44.200  27.816  31.886  1.00  0.00     0.058 A 
ATOM     73  C   UNL A   1      44.871  28.787  31.064  1.00  0.00     0.135 A 
ATOM     74  C   UNL A   1      44.607  26.497  31.666  1.00  0.00     0.135 A 
ATOM     75  F   UNL A   1      44.609  30.096  31.240  1.00  0.00    -0.206 F 
ATOM     76  C   UNL A   1      45.889  28.470  30.130  1.00  0.00     0.059 A 
ATOM     77  C   UNL A   1      45.620  26.156  30.737  1.00  0.00     0.059 A 
ATOM     78  F   UNL A   1      44.102  25.512  32.420  1.00  0.00    -0.206 F 
ATOM     79  C   UNL A   1      46.266  27.138  29.975  1.00  0.00     0.060 A 
BRANCH  79  80
ATOM     80  S   UNL A   1      47.582  26.650  28.777  1.00  0.00     0.124 S 
ATOM     81  O   UNL A   1      47.255  25.255  28.506  1.00  0.00    -0.237 OA
ATOM     82  O   UNL A   1      47.411  27.568  27.657  1.00  0.00    -0.237 OA
ATOM     83  O   UNL A   1      48.802  26.869  29.547  1.00  0.00    -0.744 OA
ENDBRANCH  79  80
ENDBRANCH  47  72
BRANCH  59  84
ATOM     84  C   UNL A   1      41.406  33.153  36.245  1.00  0.00     0.058 A 
ATOM     85  C   UNL A   1      41.552  34.453  35.775  1.00  0.00     0.135 A 
ATOM     86  C   UNL A   1      41.390  33.006  37.658  1.00  0.00     0.135 A 
ATOM     87  F   UNL A   1      41.834  34.692  34.485  1.00  0.00    -0.206 F 
ATOM     88  C   UNL A   1      41.407  35.543  36.616  1.00  0.00     0.059 A 
ATOM     89  C   UNL A   1      41.395  34.073  38.524  1.00  0.00     0.059 A 
ATOM     90  F   UNL A   1      41.330  31.833  38.297  1.00  0.00    -0.206 F 
ATOM     91  C   UNL A   1      41.328  35.338  37.990  1.00  0.00     0.060 A 
BRANCH  91  92
ATOM     92  S   UNL A   1      41.245  36.747  39.082  1.00  0.00     0.124 S 
ATOM     93  O   UNL A   1      42.450  37.480  38.707  1.00  0.00    -0.237 OA
ATOM     94  O   UNL A   1      39.978  37.351  38.682  1.00  0.00    -0.237 OA
ATOM     95  O   UNL A   1      41.269  36.148  40.413  1.00  0.00    -0.744 OA
ENDBRANCH  91  92
ENDBRANCH  59  84
ENDBRANCH  33  34
ENDBRANCH  26  28
ENDBRANCH  25  26
ENDBRANCH  24  25
ENDBRANCH   1  24
TORSDOF 17
ENDMDL
