MODEL 1
REMARK VINA RESULT:     -11.9      0.000      0.000
REMARK SMILES COc1ccc(-c2cccc(Cl)c2C(=O)OCCOC(=O)c2ccc(-c3c4nc(c(-c5c(F)cc(S(=O)(=O)[O-])cc5F)c5ccc([nH]5)c(-c5c(F)cc(S(=O)(=O)[O-])cc5F)c5nc(c(-c6c(F)cc(S(=O)(=O)[O-])cc6F)c6ccc3[nH]6)C=C5)C=C4)cc2)c(F)c1
REMARK SMILES IDX 18 1 17 2 16 3 14 4 15 5 13 6 7 7 8 8 9 9 11 10 10 11 12 12
REMARK SMILES IDX 6 13 3 14 4 15 90 16 5 17 88 18 89 19 2 20 1 21 19 22 20 23
REMARK SMILES IDX 21 24 22 25 23 26 87 27 24 28 86 29 25 30 26 31 27 32 80 33
REMARK SMILES IDX 28 34 85 35 79 36 81 37 29 38 84 39 78 40 77 41 30 43 64 44
REMARK SMILES IDX 43 45 63 46 44 47 47 48 62 49 82 50 45 51 46 52 61 54 83 55
REMARK SMILES IDX 48 56 31 57 32 58 41 59 33 60 34 61 40 62 42 63 35 64 36 65
REMARK SMILES IDX 37 66 38 67 39 68 65 69 66 70 75 71 67 72 68 73 74 74 76 75
REMARK SMILES IDX 69 76 70 77 71 78 72 79 73 80 49 81 50 82 59 83 51 84 52 85
REMARK SMILES IDX 58 86 60 87 53 88 54 89 55 90 56 91 57 92
REMARK H PARENT 81 42 47 53
REMARK Flexibility Score: inf
ROOT
ATOM      1  C   UNL A   1      37.581  22.561  25.757  1.00  0.00     0.275 C 
ENDROOT
BRANCH   1   2
ATOM      2  C   UNL A   1      36.497  22.446  24.692  1.00  0.00     0.275 C 
BRANCH   2   3
ATOM      3  O   UNL A   1      35.400  23.335  25.002  1.00  0.00    -0.458 OA
BRANCH   3   4
ATOM      4  C   UNL A   1      34.637  23.715  23.947  1.00  0.00     0.340 C 
ATOM      5  O   UNL A   1      35.020  23.867  22.799  1.00  0.00    -0.246 OA
BRANCH   4   6
ATOM      6  C   UNL A   1      33.251  24.002  24.378  1.00  0.00     0.086 A 
ATOM      7  C   UNL A   1      32.269  22.975  24.476  1.00  0.00     0.001 A 
ATOM      8  C   UNL A   1      30.934  23.353  24.680  1.00  0.00     0.010 A 
ATOM      9  C   UNL A   1      30.575  24.701  24.779  1.00  0.00     0.002 A 
ATOM     10  C   UNL A   1      32.885  25.353  24.498  1.00  0.00     0.056 A 
ATOM     11  C   UNL A   1      31.548  25.696  24.696  1.00  0.00     0.021 A 
ATOM     12  Cl  UNL A   1      34.016  26.656  24.329  1.00  0.00    -0.083 Cl
BRANCH   7  13
ATOM     13  C   UNL A   1      32.573  21.569  24.177  1.00  0.00     0.019 A 
ATOM     14  C   UNL A   1      32.685  17.850  24.090  1.00  0.00     0.121 A 
ATOM     15  C   UNL A   1      32.231  18.712  22.591  1.00  0.00     0.047 A 
ATOM     16  C   UNL A   1      33.053  18.786  25.517  1.00  0.00     0.086 A 
ATOM     17  C   UNL A   1      32.211  20.739  22.603  1.00  0.00     0.015 A 
ATOM     18  C   UNL A   1      33.001  20.549  25.560  1.00  0.00     0.134 A 
ATOM     19  F   UNL A   1      33.335  21.154  26.712  1.00  0.00    -0.206 F 
BRANCH  14  20
ATOM     20  O   UNL A   1      32.876  16.502  24.172  1.00  0.00    -0.497 OA
ATOM     21  C   UNL A   1      34.245  16.123  24.273  1.00  0.00     0.278 C 
ENDBRANCH  14  20
ENDBRANCH   7  13
ENDBRANCH   4   6
ENDBRANCH   3   4
ENDBRANCH   2   3
ENDBRANCH   1   2
BRANCH   1  22
ATOM     22  O   UNL A   1      38.125  23.890  25.704  1.00  0.00    -0.458 OA
BRANCH  22  23
ATOM     23  C   UNL A   1      39.303  24.008  26.344  1.00  0.00     0.338 C 
ATOM     24  O   UNL A   1      40.245  23.231  26.321  1.00  0.00    -0.246 OA
BRANCH  23  25
ATOM     25  C   UNL A   1      39.413  25.295  27.026  1.00  0.00     0.060 A 
ATOM     26  C   UNL A   1      40.764  26.414  26.634  1.00  0.00     0.016 A 
ATOM     27  C   UNL A   1      38.757  25.322  28.653  1.00  0.00     0.016 A 
ATOM     28  C   UNL A   1      41.480  27.588  28.120  1.00  0.00     0.010 A 
ATOM     29  C   UNL A   1      39.345  26.411  29.924  1.00  0.00     0.010 A 
ATOM     30  C   UNL A   1      40.678  27.569  29.734  1.00  0.00    -0.014 A 
BRANCH  30  31
ATOM     31  C   UNL A   1      40.761  28.747  30.714  1.00  0.00     0.031 A 
ATOM     32  C   UNL A   1      41.549  28.604  32.012  1.00  0.00     0.074 A 
ATOM     33  C   UNL A   1      39.953  29.837  30.611  1.00  0.00     0.049 A 
ATOM     34  N   UNL A   1      41.411  29.240  33.153  1.00  0.00    -0.248 NA
ATOM     35  C   UNL A   1      42.621  27.596  32.037  1.00  0.00     0.031 C 
ATOM     36  C   UNL A   1      39.183  30.272  29.452  1.00  0.00     0.029 A 
ATOM     37  N   UNL A   1      39.561  30.760  31.569  1.00  0.00    -0.354 N 
ATOM     38  C   UNL A   1      42.355  28.691  34.021  1.00  0.00     0.074 A 
ATOM     39  C   UNL A   1      42.960  27.580  33.320  1.00  0.00     0.031 C 
ATOM     40  C   UNL A   1      38.310  31.225  29.780  1.00  0.00     0.029 A 
ATOM     41  C   UNL A   1      38.497  31.550  31.172  1.00  0.00     0.049 A 
ATOM     42  H   UNL A   1      39.998  30.845  32.447  1.00  0.00     0.167 HD
ATOM     43  C   UNL A   1      42.754  29.120  35.247  1.00  0.00     0.037 A 
ATOM     44  C   UNL A   1      37.739  32.473  31.793  1.00  0.00     0.037 A 
ATOM     45  C   UNL A   1      42.246  30.305  35.892  1.00  0.00     0.049 A 
ATOM     46  C   UNL A   1      38.149  32.917  33.151  1.00  0.00     0.074 A 
ATOM     47  C   UNL A   1      42.680  30.900  37.067  1.00  0.00     0.029 A 
ATOM     48  N   UNL A   1      41.218  31.098  35.404  1.00  0.00    -0.354 N 
ATOM     49  N   UNL A   1      39.078  32.411  33.920  1.00  0.00    -0.248 NA
ATOM     50  C   UNL A   1      37.484  34.108  33.691  1.00  0.00     0.031 C 
ATOM     51  C   UNL A   1      41.897  32.035  37.301  1.00  0.00     0.029 A 
ATOM     52  C   UNL A   1      41.000  32.170  36.256  1.00  0.00     0.049 A 
ATOM     53  H   UNL A   1      40.718  30.927  34.573  1.00  0.00     0.167 HD
ATOM     54  C   UNL A   1      39.166  33.267  35.005  1.00  0.00     0.074 A 
ATOM     55  C   UNL A   1      38.178  34.309  34.803  1.00  0.00     0.031 C 
ATOM     56  C   UNL A   1      40.016  33.204  36.054  1.00  0.00     0.037 A 
BRANCH  43  57
ATOM     57  C   UNL A   1      43.877  28.374  35.935  1.00  0.00     0.058 A 
ATOM     58  C   UNL A   1      43.617  27.346  36.857  1.00  0.00     0.135 A 
ATOM     59  C   UNL A   1      45.222  28.739  35.738  1.00  0.00     0.135 A 
ATOM     60  F   UNL A   1      42.355  26.961  37.103  1.00  0.00    -0.206 F 
ATOM     61  C   UNL A   1      44.644  26.707  37.550  1.00  0.00     0.059 A 
ATOM     62  C   UNL A   1      46.264  28.090  36.393  1.00  0.00     0.059 A 
ATOM     63  F   UNL A   1      45.537  29.714  34.871  1.00  0.00    -0.206 F 
ATOM     64  C   UNL A   1      45.965  27.083  37.307  1.00  0.00     0.060 A 
BRANCH  64  65
ATOM     65  S   UNL A   1      47.292  26.216  38.174  1.00  0.00     0.124 S 
ATOM     66  O   UNL A   1      48.482  26.836  37.602  1.00  0.00    -0.237 OA
ATOM     67  O   UNL A   1      47.009  26.542  39.568  1.00  0.00    -0.237 OA
ATOM     68  O   UNL A   1      47.075  24.818  37.812  1.00  0.00    -0.744 OA
ENDBRANCH  64  65
ENDBRANCH  43  57
BRANCH  44  69
ATOM     69  C   UNL A   1      36.637  33.142  31.045  1.00  0.00     0.058 A 
ATOM     70  C   UNL A   1      36.895  34.107  30.057  1.00  0.00     0.135 A 
ATOM     71  C   UNL A   1      35.297  32.897  31.382  1.00  0.00     0.135 A 
ATOM     72  F   UNL A   1      38.161  34.409  29.725  1.00  0.00    -0.206 F 
ATOM     73  C   UNL A   1      35.862  34.802  29.430  1.00  0.00     0.059 A 
ATOM     74  C   UNL A   1      34.248  33.566  30.758  1.00  0.00     0.059 A 
ATOM     75  F   UNL A   1      35.002  32.001  32.336  1.00  0.00    -0.206 F 
ATOM     76  C   UNL A   1      34.541  34.523  29.787  1.00  0.00     0.060 A 
BRANCH  76  77
ATOM     77  S   UNL A   1      33.211  35.430  28.965  1.00  0.00     0.124 S 
ATOM     78  O   UNL A   1      32.574  34.377  28.183  1.00  0.00    -0.237 OA
ATOM     79  O   UNL A   1      32.444  35.934  30.099  1.00  0.00    -0.237 OA
ATOM     80  O   UNL A   1      33.922  36.443  28.190  1.00  0.00    -0.744 OA
ENDBRANCH  76  77
ENDBRANCH  44  69
BRANCH  56  81
ATOM     81  C   UNL A   1      39.936  34.304  37.066  1.00  0.00     0.058 A 
ATOM     82  C   UNL A   1      39.153  34.152  38.220  1.00  0.00     0.135 A 
ATOM     83  C   UNL A   1      40.584  35.531  36.861  1.00  0.00     0.135 A 
ATOM     84  F   UNL A   1      38.521  32.992  38.465  1.00  0.00    -0.206 F 
ATOM     85  C   UNL A   1      38.988  35.194  39.123  1.00  0.00     0.059 A 
ATOM     86  C   UNL A   1      40.457  36.577  37.766  1.00  0.00     0.059 A 
ATOM     87  F   UNL A   1      41.366  35.711  35.784  1.00  0.00    -0.206 F 
ATOM     88  C   UNL A   1      39.637  36.406  38.882  1.00  0.00     0.060 A 
BRANCH  88  89
ATOM     89  S   UNL A   1      39.393  37.757  40.050  1.00  0.00     0.124 S 
ATOM     90  O   UNL A   1      39.047  37.035  41.270  1.00  0.00    -0.237 OA
ATOM     91  O   UNL A   1      40.700  38.408  40.046  1.00  0.00    -0.237 OA
ATOM     92  O   UNL A   1      38.312  38.533  39.451  1.00  0.00    -0.744 OA
ENDBRANCH  88  89
ENDBRANCH  56  81
ENDBRANCH  30  31
ENDBRANCH  23  25
ENDBRANCH  22  23
ENDBRANCH   1  22
TORSDOF 16
ENDMDL
MODEL 2
REMARK VINA RESULT:     -11.8      7.248     12.521
REMARK SMILES COc1ccc(-c2cccc(Cl)c2C(=O)OCCOC(=O)c2ccc(-c3c4nc(c(-c5c(F)cc(S(=O)(=O)[O-])cc5F)c5ccc([nH]5)c(-c5c(F)cc(S(=O)(=O)[O-])cc5F)c5nc(c(-c6c(F)cc(S(=O)(=O)[O-])cc6F)c6ccc3[nH]6)C=C5)C=C4)cc2)c(F)c1
REMARK SMILES IDX 18 1 17 2 16 3 14 4 15 5 13 6 7 7 8 8 9 9 11 10 10 11 12 12
REMARK SMILES IDX 6 13 3 14 4 15 90 16 5 17 88 18 89 19 2 20 1 21 19 22 20 23
REMARK SMILES IDX 21 24 22 25 23 26 87 27 24 28 86 29 25 30 26 31 27 32 80 33
REMARK SMILES IDX 28 34 85 35 79 36 81 37 29 38 84 39 78 40 77 41 30 43 64 44
REMARK SMILES IDX 43 45 63 46 44 47 47 48 62 49 82 50 45 51 46 52 61 54 83 55
REMARK SMILES IDX 48 56 31 57 32 58 41 59 33 60 34 61 40 62 42 63 35 64 36 65
REMARK SMILES IDX 37 66 38 67 39 68 65 69 66 70 75 71 67 72 68 73 74 74 76 75
REMARK SMILES IDX 69 76 70 77 71 78 72 79 73 80 49 81 50 82 59 83 51 84 52 85
REMARK SMILES IDX 58 86 60 87 53 88 54 89 55 90 56 91 57 92
REMARK H PARENT 81 42 47 53
REMARK Flexibility Score: inf
ROOT
ATOM      1  C   UNL A   1      33.320  29.677  27.297  1.00  0.00     0.275 C 
ENDROOT
BRANCH   1   2
ATOM      2  C   UNL A   1      32.329  28.569  26.959  1.00  0.00     0.275 C 
BRANCH   2   3
ATOM      3  O   UNL A   1      33.036  27.390  26.511  1.00  0.00    -0.458 OA
BRANCH   3   4
ATOM      4  C   UNL A   1      32.257  26.347  26.132  1.00  0.00     0.340 C 
ATOM      5  O   UNL A   1      31.330  25.873  26.768  1.00  0.00    -0.246 OA
BRANCH   4   6
ATOM      6  C   UNL A   1      32.723  25.783  24.847  1.00  0.00     0.086 A 
ATOM      7  C   UNL A   1      32.132  26.159  23.607  1.00  0.00     0.001 A 
ATOM      8  C   UNL A   1      32.477  25.428  22.460  1.00  0.00     0.010 A 
ATOM      9  C   UNL A   1      33.371  24.355  22.534  1.00  0.00     0.002 A 
ATOM     10  C   UNL A   1      33.636  24.718  24.908  1.00  0.00     0.056 A 
ATOM     11  C   UNL A   1      33.954  24.007  23.752  1.00  0.00     0.021 A 
ATOM     12  Cl  UNL A   1      34.346  24.167  26.391  1.00  0.00    -0.083 Cl
BRANCH   7  13
ATOM     13  C   UNL A   1      31.042  27.140  23.523  1.00  0.00     0.019 A 
ATOM     14  C   UNL A   1      28.509  29.619  22.386  1.00  0.00     0.121 A 
ATOM     15  C   UNL A   1      27.926  28.120  23.167  1.00  0.00     0.047 A 
ATOM     16  C   UNL A   1      30.228  29.851  22.195  1.00  0.00     0.086 A 
ATOM     17  C   UNL A   1      29.290  26.779  23.837  1.00  0.00     0.015 A 
ATOM     18  C   UNL A   1      31.431  28.677  22.733  1.00  0.00     0.134 A 
ATOM     19  F   UNL A   1      32.725  28.986  22.555  1.00  0.00    -0.206 F 
BRANCH  14  20
ATOM     20  O   UNL A   1      27.703  30.659  22.026  1.00  0.00    -0.497 OA
ATOM     21  C   UNL A   1      27.627  31.691  23.006  1.00  0.00     0.278 C 
ENDBRANCH  14  20
ENDBRANCH   7  13
ENDBRANCH   4   6
ENDBRANCH   3   4
ENDBRANCH   2   3
ENDBRANCH   1   2
BRANCH   1  22
ATOM     22  O   UNL A   1      34.569  29.067  27.664  1.00  0.00    -0.458 OA
BRANCH  22  23
ATOM     23  C   UNL A   1      35.417  29.918  28.269  1.00  0.00     0.338 C 
ATOM     24  O   UNL A   1      35.166  31.021  28.728  1.00  0.00    -0.246 OA
BRANCH  23  25
ATOM     25  C   UNL A   1      36.738  29.317  28.447  1.00  0.00     0.060 A 
ATOM     26  C   UNL A   1      37.498  29.274  30.074  1.00  0.00     0.016 A 
ATOM     27  C   UNL A   1      37.783  29.414  27.043  1.00  0.00     0.016 A 
ATOM     28  C   UNL A   1      39.517  29.404  30.178  1.00  0.00     0.010 A 
ATOM     29  C   UNL A   1      39.554  29.451  27.145  1.00  0.00     0.010 A 
ATOM     30  C   UNL A   1      40.485  29.436  28.658  1.00  0.00    -0.014 A 
BRANCH  30  31
ATOM     31  C   UNL A   1      41.953  28.991  28.602  1.00  0.00     0.031 A 
ATOM     32  C   UNL A   1      43.059  30.033  28.469  1.00  0.00     0.074 A 
ATOM     33  C   UNL A   1      42.314  27.694  28.406  1.00  0.00     0.049 A 
ATOM     34  N   UNL A   1      44.269  29.915  27.970  1.00  0.00    -0.248 NA
ATOM     35  C   UNL A   1      42.757  31.394  28.939  1.00  0.00     0.031 C 
ATOM     36  C   UNL A   1      41.492  26.502  28.577  1.00  0.00     0.029 A 
ATOM     37  N   UNL A   1      43.489  27.153  27.906  1.00  0.00    -0.354 N 
ATOM     38  C   UNL A   1      44.847  31.182  28.049  1.00  0.00     0.074 A 
ATOM     39  C   UNL A   1      43.810  32.078  28.510  1.00  0.00     0.031 C 
ATOM     40  C   UNL A   1      42.081  25.428  28.054  1.00  0.00     0.029 A 
ATOM     41  C   UNL A   1      43.381  25.816  27.566  1.00  0.00     0.049 A 
ATOM     42  H   UNL A   1      44.320  27.669  27.805  1.00  0.00     0.167 HD
ATOM     43  C   UNL A   1      46.138  31.556  27.850  1.00  0.00     0.037 A 
ATOM     44  C   UNL A   1      44.205  24.938  26.964  1.00  0.00     0.037 A 
ATOM     45  C   UNL A   1      47.201  30.641  27.518  1.00  0.00     0.049 A 
ATOM     46  C   UNL A   1      45.608  25.357  26.708  1.00  0.00     0.074 A 
ATOM     47  C   UNL A   1      48.561  30.896  27.429  1.00  0.00     0.029 A 
ATOM     48  N   UNL A   1      47.036  29.289  27.255  1.00  0.00    -0.354 N 
ATOM     49  N   UNL A   1      46.133  26.547  26.842  1.00  0.00    -0.248 NA
ATOM     50  C   UNL A   1      46.554  24.308  26.313  1.00  0.00     0.031 C 
ATOM     51  C   UNL A   1      49.212  29.706  27.088  1.00  0.00     0.029 A 
ATOM     52  C   UNL A   1      48.264  28.701  26.998  1.00  0.00     0.049 A 
ATOM     53  H   UNL A   1      46.172  28.816  27.253  1.00  0.00     0.167 HD
ATOM     54  C   UNL A   1      47.489  26.379  26.624  1.00  0.00     0.074 A 
ATOM     55  C   UNL A   1      47.699  24.976  26.325  1.00  0.00     0.031 C 
ATOM     56  C   UNL A   1      48.470  27.306  26.699  1.00  0.00     0.037 A 
BRANCH  43  57
ATOM     57  C   UNL A   1      46.509  33.003  28.095  1.00  0.00     0.058 A 
ATOM     58  C   UNL A   1      46.479  33.953  27.059  1.00  0.00     0.135 A 
ATOM     59  C   UNL A   1      46.977  33.432  29.350  1.00  0.00     0.135 A 
ATOM     60  F   UNL A   1      46.058  33.604  25.833  1.00  0.00    -0.206 F 
ATOM     61  C   UNL A   1      46.891  35.269  27.261  1.00  0.00     0.059 A 
ATOM     62  C   UNL A   1      47.360  34.750  29.583  1.00  0.00     0.059 A 
ATOM     63  F   UNL A   1      47.031  32.573  30.380  1.00  0.00    -0.206 F 
ATOM     64  C   UNL A   1      47.326  35.659  28.528  1.00  0.00     0.060 A 
BRANCH  64  65
ATOM     65  S   UNL A   1      47.813  37.379  28.792  1.00  0.00     0.124 S 
ATOM     66  O   UNL A   1      46.736  38.103  28.128  1.00  0.00    -0.237 OA
ATOM     67  O   UNL A   1      47.841  37.468  30.248  1.00  0.00    -0.237 OA
ATOM     68  O   UNL A   1      49.120  37.462  28.145  1.00  0.00    -0.744 OA
ENDBRANCH  64  65
ENDBRANCH  43  57
BRANCH  44  69
ATOM     69  C   UNL A   1      43.747  23.537  26.741  1.00  0.00     0.058 A 
ATOM     70  C   UNL A   1      43.255  23.111  25.496  1.00  0.00     0.135 A 
ATOM     71  C   UNL A   1      43.700  22.625  27.807  1.00  0.00     0.135 A 
ATOM     72  F   UNL A   1      43.241  23.956  24.453  1.00  0.00    -0.206 F 
ATOM     73  C   UNL A   1      42.737  21.829  25.317  1.00  0.00     0.059 A 
ATOM     74  C   UNL A   1      43.202  21.335  27.649  1.00  0.00     0.059 A 
ATOM     75  F   UNL A   1      44.137  22.995  29.020  1.00  0.00    -0.206 F 
ATOM     76  C   UNL A   1      42.715  20.948  26.401  1.00  0.00     0.060 A 
BRANCH  76  77
ATOM     77  S   UNL A   1      42.040  19.289  26.156  1.00  0.00     0.124 S 
ATOM     78  O   UNL A   1      42.764  18.848  24.968  1.00  0.00    -0.237 OA
ATOM     79  O   UNL A   1      42.403  18.628  27.404  1.00  0.00    -0.237 OA
ATOM     80  O   UNL A   1      40.613  19.530  25.966  1.00  0.00    -0.744 OA
ENDBRANCH  76  77
ENDBRANCH  44  69
BRANCH  56  81
ATOM     81  C   UNL A   1      49.874  26.836  26.474  1.00  0.00     0.058 A 
ATOM     82  C   UNL A   1      50.445  26.896  25.194  1.00  0.00     0.135 A 
ATOM     83  C   UNL A   1      50.628  26.269  27.511  1.00  0.00     0.135 A 
ATOM     84  F   UNL A   1      49.766  27.439  24.171  1.00  0.00    -0.206 F 
ATOM     85  C   UNL A   1      51.709  26.378  24.943  1.00  0.00     0.059 A 
ATOM     86  C   UNL A   1      51.905  25.771  27.289  1.00  0.00     0.059 A 
ATOM     87  F   UNL A   1      50.130  26.216  28.757  1.00  0.00    -0.206 F 
ATOM     88  C   UNL A   1      52.427  25.810  25.996  1.00  0.00     0.060 A 
BRANCH  88  89
ATOM     89  S   UNL A   1      54.056  25.119  25.649  1.00  0.00     0.124 S 
ATOM     90  O   UNL A   1      54.337  25.670  24.327  1.00  0.00    -0.237 OA
ATOM     91  O   UNL A   1      54.858  25.655  26.745  1.00  0.00    -0.237 OA
ATOM     92  O   UNL A   1      53.830  23.678  25.693  1.00  0.00    -0.744 OA
ENDBRANCH  88  89
ENDBRANCH  56  81
ENDBRANCH  30  31
ENDBRANCH  23  25
ENDBRANCH  22  23
ENDBRANCH   1  22
TORSDOF 16
ENDMDL
MODEL 3
REMARK VINA RESULT:     -11.7      7.063     12.123
REMARK SMILES COc1ccc(-c2cccc(Cl)c2C(=O)OCCOC(=O)c2ccc(-c3c4nc(c(-c5c(F)cc(S(=O)(=O)[O-])cc5F)c5ccc([nH]5)c(-c5c(F)cc(S(=O)(=O)[O-])cc5F)c5nc(c(-c6c(F)cc(S(=O)(=O)[O-])cc6F)c6ccc3[nH]6)C=C5)C=C4)cc2)c(F)c1
REMARK SMILES IDX 18 1 17 2 16 3 14 4 15 5 13 6 7 7 8 8 9 9 11 10 10 11 12 12
REMARK SMILES IDX 6 13 3 14 4 15 90 16 5 17 88 18 89 19 2 20 1 21 19 22 20 23
REMARK SMILES IDX 21 24 22 25 23 26 87 27 24 28 86 29 25 30 26 31 27 32 80 33
REMARK SMILES IDX 28 34 85 35 79 36 81 37 29 38 84 39 78 40 77 41 30 43 64 44
REMARK SMILES IDX 43 45 63 46 44 47 47 48 62 49 82 50 45 51 46 52 61 54 83 55
REMARK SMILES IDX 48 56 31 57 32 58 41 59 33 60 34 61 40 62 42 63 35 64 36 65
REMARK SMILES IDX 37 66 38 67 39 68 65 69 66 70 75 71 67 72 68 73 74 74 76 75
REMARK SMILES IDX 69 76 70 77 71 78 72 79 73 80 49 81 50 82 59 83 51 84 52 85
REMARK SMILES IDX 58 86 60 87 53 88 54 89 55 90 56 91 57 92
REMARK H PARENT 81 42 47 53
REMARK Flexibility Score: inf
ROOT
ATOM      1  C   UNL A   1      34.266  29.166  26.629  1.00  0.00     0.275 C 
ENDROOT
BRANCH   1   2
ATOM      2  C   UNL A   1      32.791  28.892  26.362  1.00  0.00     0.275 C 
BRANCH   2   3
ATOM      3  O   UNL A   1      32.368  29.577  25.162  1.00  0.00    -0.458 OA
BRANCH   3   4
ATOM      4  C   UNL A   1      32.290  28.811  24.045  1.00  0.00     0.340 C 
ATOM      5  O   UNL A   1      33.070  28.822  23.108  1.00  0.00    -0.246 OA
BRANCH   4   6
ATOM      6  C   UNL A   1      31.066  27.980  24.063  1.00  0.00     0.086 A 
ATOM      7  C   UNL A   1      31.123  26.565  24.215  1.00  0.00     0.001 A 
ATOM      8  C   UNL A   1      29.947  25.829  24.007  1.00  0.00     0.010 A 
ATOM      9  C   UNL A   1      28.753  26.466  23.654  1.00  0.00     0.002 A 
ATOM     10  C   UNL A   1      29.858  28.614  23.729  1.00  0.00     0.056 A 
ATOM     11  C   UNL A   1      28.707  27.853  23.524  1.00  0.00     0.021 A 
ATOM     12  Cl  UNL A   1      29.728  30.322  23.469  1.00  0.00    -0.083 Cl
BRANCH   7  13
ATOM     13  C   UNL A   1      32.392  25.846  24.383  1.00  0.00     0.019 A 
ATOM     14  C   UNL A   1      35.035  23.332  25.126  1.00  0.00     0.121 A 
ATOM     15  C   UNL A   1      34.876  23.911  23.442  1.00  0.00     0.047 A 
ATOM     16  C   UNL A   1      33.951  23.968  26.337  1.00  0.00     0.086 A 
ATOM     17  C   UNL A   1      33.476  25.316  23.025  1.00  0.00     0.015 A 
ATOM     18  C   UNL A   1      32.698  25.160  25.988  1.00  0.00     0.134 A 
ATOM     19  F   UNL A   1      31.946  25.593  27.013  1.00  0.00    -0.206 F 
BRANCH  14  20
ATOM     20  O   UNL A   1      36.027  22.503  25.562  1.00  0.00    -0.497 OA
ATOM     21  C   UNL A   1      35.741  21.120  25.377  1.00  0.00     0.278 C 
ENDBRANCH  14  20
ENDBRANCH   7  13
ENDBRANCH   4   6
ENDBRANCH   3   4
ENDBRANCH   2   3
ENDBRANCH   1   2
BRANCH   1  22
ATOM     22  O   UNL A   1      34.479  29.134  28.051  1.00  0.00    -0.458 OA
BRANCH  22  23
ATOM     23  C   UNL A   1      35.402  30.020  28.469  1.00  0.00     0.338 C 
ATOM     24  O   UNL A   1      35.223  31.179  28.809  1.00  0.00    -0.246 OA
BRANCH  23  25
ATOM     25  C   UNL A   1      36.717  29.396  28.602  1.00  0.00     0.060 A 
ATOM     26  C   UNL A   1      37.478  29.231  30.221  1.00  0.00     0.016 A 
ATOM     27  C   UNL A   1      37.763  29.583  27.207  1.00  0.00     0.016 A 
ATOM     28  C   UNL A   1      39.498  29.335  30.332  1.00  0.00     0.010 A 
ATOM     29  C   UNL A   1      39.534  29.598  27.310  1.00  0.00     0.010 A 
ATOM     30  C   UNL A   1      40.465  29.466  28.817  1.00  0.00    -0.014 A 
BRANCH  30  31
ATOM     31  C   UNL A   1      41.930  29.014  28.728  1.00  0.00     0.031 A 
ATOM     32  C   UNL A   1      43.038  30.050  28.574  1.00  0.00     0.074 A 
ATOM     33  C   UNL A   1      42.279  27.715  28.519  1.00  0.00     0.049 A 
ATOM     34  N   UNL A   1      44.237  29.927  28.049  1.00  0.00    -0.248 NA
ATOM     35  C   UNL A   1      42.754  31.411  29.056  1.00  0.00     0.031 C 
ATOM     36  C   UNL A   1      41.454  26.528  28.704  1.00  0.00     0.029 A 
ATOM     37  N   UNL A   1      43.440  27.170  27.992  1.00  0.00    -0.354 N 
ATOM     38  C   UNL A   1      44.823  31.191  28.120  1.00  0.00     0.074 A 
ATOM     39  C   UNL A   1      43.801  32.091  28.607  1.00  0.00     0.031 C 
ATOM     40  C   UNL A   1      42.026  25.452  28.164  1.00  0.00     0.029 A 
ATOM     41  C   UNL A   1      43.317  25.834  27.650  1.00  0.00     0.049 A 
ATOM     42  H   UNL A   1      44.272  27.682  27.875  1.00  0.00     0.167 HD
ATOM     43  C   UNL A   1      46.112  31.559  27.895  1.00  0.00     0.037 A 
ATOM     44  C   UNL A   1      44.123  24.954  27.028  1.00  0.00     0.037 A 
ATOM     45  C   UNL A   1      47.163  30.638  27.537  1.00  0.00     0.049 A 
ATOM     46  C   UNL A   1      45.523  25.366  26.743  1.00  0.00     0.074 A 
ATOM     47  C   UNL A   1      48.521  30.887  27.420  1.00  0.00     0.029 A 
ATOM     48  N   UNL A   1      46.984  29.289  27.273  1.00  0.00    -0.354 N 
ATOM     49  N   UNL A   1      46.057  26.553  26.870  1.00  0.00    -0.248 NA
ATOM     50  C   UNL A   1      46.454  24.313  26.323  1.00  0.00     0.031 C 
ATOM     51  C   UNL A   1      49.158  29.694  27.060  1.00  0.00     0.029 A 
ATOM     52  C   UNL A   1      48.203  28.695  26.988  1.00  0.00     0.049 A 
ATOM     53  H   UNL A   1      46.117  28.821  27.287  1.00  0.00     0.167 HD
ATOM     54  C   UNL A   1      47.407  26.378  26.622  1.00  0.00     0.074 A 
ATOM     55  C   UNL A   1      47.603  24.975  26.314  1.00  0.00     0.031 C 
ATOM     56  C   UNL A   1      48.395  27.300  26.679  1.00  0.00     0.037 A 
BRANCH  43  57
ATOM     57  C   UNL A   1      46.496  33.002  28.137  1.00  0.00     0.058 A 
ATOM     58  C   UNL A   1      46.470  33.951  27.100  1.00  0.00     0.135 A 
ATOM     59  C   UNL A   1      46.972  33.429  29.390  1.00  0.00     0.135 A 
ATOM     60  F   UNL A   1      46.042  33.605  25.876  1.00  0.00    -0.206 F 
ATOM     61  C   UNL A   1      46.895  35.264  27.299  1.00  0.00     0.059 A 
ATOM     62  C   UNL A   1      47.367  34.743  29.620  1.00  0.00     0.059 A 
ATOM     63  F   UNL A   1      47.022  32.570  30.421  1.00  0.00    -0.206 F 
ATOM     64  C   UNL A   1      47.337  35.652  28.565  1.00  0.00     0.060 A 
BRANCH  64  65
ATOM     65  S   UNL A   1      47.840  37.367  28.825  1.00  0.00     0.124 S 
ATOM     66  O   UNL A   1      48.451  37.700  27.543  1.00  0.00    -0.237 OA
ATOM     67  O   UNL A   1      46.567  38.018  29.114  1.00  0.00    -0.237 OA
ATOM     68  O   UNL A   1      48.759  37.281  29.957  1.00  0.00    -0.744 OA
ENDBRANCH  64  65
ENDBRANCH  43  57
BRANCH  44  69
ATOM     69  C   UNL A   1      43.653  23.556  26.809  1.00  0.00     0.058 A 
ATOM     70  C   UNL A   1      43.121  23.141  25.577  1.00  0.00     0.135 A 
ATOM     71  C   UNL A   1      43.635  22.638  27.870  1.00  0.00     0.135 A 
ATOM     72  F   UNL A   1      43.078  23.993  24.541  1.00  0.00    -0.206 F 
ATOM     73  C   UNL A   1      42.592  21.863  25.406  1.00  0.00     0.059 A 
ATOM     74  C   UNL A   1      43.126  21.351  27.719  1.00  0.00     0.059 A 
ATOM     75  F   UNL A   1      44.110  22.998  29.072  1.00  0.00    -0.206 F 
ATOM     76  C   UNL A   1      42.600  20.974  26.484  1.00  0.00     0.060 A 
BRANCH  76  77
ATOM     77  S   UNL A   1      41.911  19.320  26.249  1.00  0.00     0.124 S 
ATOM     78  O   UNL A   1      42.669  18.845  25.096  1.00  0.00    -0.237 OA
ATOM     79  O   UNL A   1      42.222  18.680  27.522  1.00  0.00    -0.237 OA
ATOM     80  O   UNL A   1      40.495  19.575  26.005  1.00  0.00    -0.744 OA
ENDBRANCH  76  77
ENDBRANCH  44  69
BRANCH  56  81
ATOM     81  C   UNL A   1      49.790  26.823  26.422  1.00  0.00     0.058 A 
ATOM     82  C   UNL A   1      50.357  26.942  25.144  1.00  0.00     0.135 A 
ATOM     83  C   UNL A   1      50.542  26.193  27.424  1.00  0.00     0.135 A 
ATOM     84  F   UNL A   1      49.680  27.546  24.154  1.00  0.00    -0.206 F 
ATOM     85  C   UNL A   1      51.611  26.420  24.859  1.00  0.00     0.059 A 
ATOM     86  C   UNL A   1      51.811  25.690  27.170  1.00  0.00     0.059 A 
ATOM     87  F   UNL A   1      50.049  26.082  28.669  1.00  0.00    -0.206 F 
ATOM     88  C   UNL A   1      52.327  25.788  25.877  1.00  0.00     0.060 A 
BRANCH  88  89
ATOM     89  S   UNL A   1      53.945  25.094  25.486  1.00  0.00     0.124 S 
ATOM     90  O   UNL A   1      54.737  25.526  26.633  1.00  0.00    -0.237 OA
ATOM     91  O   UNL A   1      53.657  23.664  25.414  1.00  0.00    -0.237 OA
ATOM     92  O   UNL A   1      54.286  25.723  24.215  1.00  0.00    -0.744 OA
ENDBRANCH  88  89
ENDBRANCH  56  81
ENDBRANCH  30  31
ENDBRANCH  23  25
ENDBRANCH  22  23
ENDBRANCH   1  22
TORSDOF 16
ENDMDL
