MODEL 1
REMARK VINA RESULT:     -10.4      0.000      0.000
REMARK SMILES COc1nc(Cl)nc(N(CC(=O)OCCOC(=O)c2ccc(-c3c4nc(c(-c5c(F)cc(S(=O)(=O)[O-])cc5F)c5ccc([nH]5)c(-c5c(F)cc(S(=O)(=O)[O-])cc5F)c5nc(c(-c6c(F)cc(S(=O)(=O)[O-])cc6F)c6ccc3[nH]6)C=C5)C=C4)cc2)C(C)(C)C)n1
REMARK SMILES IDX 14 1 13 2 11 3 12 4 10 5 9 6 8 7 3 8 4 9 89 10 5 11 6 12
REMARK SMILES IDX 7 13 2 14 1 15 85 16 86 17 87 18 88 19 15 20 16 21 17 22
REMARK SMILES IDX 18 23 19 24 20 25 84 26 21 27 83 28 22 29 23 30 24 31 77 32
REMARK SMILES IDX 25 33 82 34 76 35 78 36 26 37 81 38 75 39 74 40 27 42 61 43
REMARK SMILES IDX 40 44 60 45 41 46 44 47 59 48 79 49 42 50 43 51 58 53 80 54
REMARK SMILES IDX 45 55 28 56 29 57 38 58 30 59 31 60 37 61 39 62 32 63 33 64
REMARK SMILES IDX 34 65 35 66 36 67 62 68 63 69 72 70 64 71 65 72 71 73 73 74
REMARK SMILES IDX 66 75 67 76 68 77 69 78 70 79 46 80 47 81 56 82 48 83 49 84
REMARK SMILES IDX 55 85 57 86 50 87 51 88 52 89 53 90 54 91
REMARK H PARENT 78 41 44 52
REMARK Flexibility Score: inf
ROOT
ATOM      1  C   UNL A   1      37.555  22.124  25.731  1.00  0.00     0.274 C 
ENDROOT
BRANCH   1   2
ATOM      2  O   UNL A   1      36.962  23.263  25.073  1.00  0.00    -0.461 OA
BRANCH   2   3
ATOM      3  C   UNL A   1      36.248  22.988  23.943  1.00  0.00     0.325 C 
ATOM      4  O   UNL A   1      36.651  23.205  22.802  1.00  0.00    -0.250 OA
BRANCH   3   5
ATOM      5  C   UNL A   1      34.953  22.226  24.213  1.00  0.00     0.242 C 
BRANCH   5   6
ATOM      6  N   UNL A   1      34.003  22.896  25.120  1.00  0.00    -0.325 N 
BRANCH   6   7
ATOM      7  C   UNL A   1      33.537  24.123  24.660  1.00  0.00     0.233 A 
ATOM      8  C   UNL A   1      32.566  25.389  23.062  1.00  0.00     0.322 A 
ATOM      9  N   UNL A   1      32.864  26.544  23.622  1.00  0.00    -0.164 NA
ATOM     10  N   UNL A   1      32.848  24.181  23.530  1.00  0.00    -0.158 NA
ATOM     11  C   UNL A   1      33.496  26.365  24.766  1.00  0.00     0.230 A 
ATOM     12  Cl  UNL A   1      33.978  27.787  25.583  1.00  0.00    -0.041 Cl
ATOM     13  N   UNL A   1      33.854  25.220  25.336  1.00  0.00    -0.182 NA
BRANCH   8  14
ATOM     14  O   UNL A   1      31.900  25.419  21.859  1.00  0.00    -0.467 OA
ATOM     15  C   UNL A   1      32.787  25.922  20.867  1.00  0.00     0.282 C 
ENDBRANCH   8  14
ENDBRANCH   6   7
BRANCH   6  16
ATOM     16  C   UNL A   1      33.427  22.228  26.323  1.00  0.00     0.035 C 
ATOM     17  C   UNL A   1      34.237  22.591  27.584  1.00  0.00     0.034 C 
ATOM     18  C   UNL A   1      31.938  22.592  26.492  1.00  0.00     0.034 C 
ATOM     19  C   UNL A   1      33.473  20.686  26.229  1.00  0.00     0.034 C 
ENDBRANCH   6  16
ENDBRANCH   5   6
ENDBRANCH   3   5
ENDBRANCH   2   3
ENDBRANCH   1   2
BRANCH   1  20
ATOM     20  C   UNL A   1      38.979  22.466  26.165  1.00  0.00     0.275 C 
BRANCH  20  21
ATOM     21  O   UNL A   1      39.052  23.866  26.488  1.00  0.00    -0.458 OA
BRANCH  21  22
ATOM     22  C   UNL A   1      40.301  24.358  26.671  1.00  0.00     0.338 C 
ATOM     23  O   UNL A   1      41.318  23.977  26.115  1.00  0.00    -0.246 OA
BRANCH  22  24
ATOM     24  C   UNL A   1      40.278  25.490  27.632  1.00  0.00     0.060 A 
ATOM     25  C   UNL A   1      41.250  26.495  27.607  1.00  0.00     0.016 A 
ATOM     26  C   UNL A   1      39.315  25.492  28.644  1.00  0.00     0.016 A 
ATOM     27  C   UNL A   1      41.305  27.444  28.630  1.00  0.00     0.010 A 
ATOM     28  C   UNL A   1      39.311  26.505  29.611  1.00  0.00     0.010 A 
ATOM     29  C   UNL A   1      40.320  27.481  29.631  1.00  0.00    -0.014 A 
BRANCH  29  30
ATOM     30  C   UNL A   1      40.322  28.552  30.670  1.00  0.00     0.031 A 
ATOM     31  C   UNL A   1      41.293  28.517  31.826  1.00  0.00     0.074 A 
ATOM     32  C   UNL A   1      39.423  29.555  30.597  1.00  0.00     0.049 A 
ATOM     33  N   UNL A   1      41.335  29.279  32.890  1.00  0.00    -0.248 NA
ATOM     34  C   UNL A   1      42.338  27.482  31.789  1.00  0.00     0.031 C 
ATOM     35  C   UNL A   1      38.417  29.716  29.544  1.00  0.00     0.029 A 
ATOM     36  N   UNL A   1      39.208  30.629  31.423  1.00  0.00    -0.354 N 
ATOM     37  C   UNL A   1      42.375  28.788  33.674  1.00  0.00     0.074 A 
ATOM     38  C   UNL A   1      42.937  27.659  32.961  1.00  0.00     0.031 C 
ATOM     39  C   UNL A   1      37.725  30.843  29.764  1.00  0.00     0.029 A 
ATOM     40  C   UNL A   1      38.183  31.447  31.010  1.00  0.00     0.049 A 
ATOM     41  H   UNL A   1      39.738  30.800  32.235  1.00  0.00     0.167 HD
ATOM     42  C   UNL A   1      42.820  29.234  34.875  1.00  0.00     0.037 A 
ATOM     43  C   UNL A   1      37.644  32.543  31.577  1.00  0.00     0.037 A 
ATOM     44  C   UNL A   1      42.297  30.386  35.565  1.00  0.00     0.049 A 
ATOM     45  C   UNL A   1      38.170  33.031  32.892  1.00  0.00     0.074 A 
ATOM     46  C   UNL A   1      42.708  30.928  36.773  1.00  0.00     0.029 A 
ATOM     47  N   UNL A   1      41.261  31.186  35.106  1.00  0.00    -0.354 N 
ATOM     48  N   UNL A   1      39.129  32.529  33.633  1.00  0.00    -0.248 NA
ATOM     49  C   UNL A   1      37.530  34.227  33.458  1.00  0.00     0.031 C 
ATOM     50  C   UNL A   1      41.907  32.042  37.053  1.00  0.00     0.029 A 
ATOM     51  C   UNL A   1      41.018  32.212  36.005  1.00  0.00     0.049 A 
ATOM     52  H   UNL A   1      40.771  31.045  34.264  1.00  0.00     0.167 HD
ATOM     53  C   UNL A   1      39.206  33.347  34.753  1.00  0.00     0.074 A 
ATOM     54  C   UNL A   1      38.215  34.390  34.581  1.00  0.00     0.031 C 
ATOM     55  C   UNL A   1      40.020  33.236  35.832  1.00  0.00     0.037 A 
BRANCH  42  56
ATOM     56  C   UNL A   1      43.925  28.462  35.540  1.00  0.00     0.058 A 
ATOM     57  C   UNL A   1      43.660  27.397  36.415  1.00  0.00     0.135 A 
ATOM     58  C   UNL A   1      45.269  28.758  35.257  1.00  0.00     0.135 A 
ATOM     59  F   UNL A   1      42.395  27.081  36.731  1.00  0.00    -0.206 F 
ATOM     60  C   UNL A   1      44.689  26.664  37.000  1.00  0.00     0.059 A 
ATOM     61  C   UNL A   1      46.313  28.027  35.815  1.00  0.00     0.059 A 
ATOM     62  F   UNL A   1      45.577  29.767  34.426  1.00  0.00    -0.206 F 
ATOM     63  C   UNL A   1      46.013  26.989  36.695  1.00  0.00     0.060 A 
BRANCH  63  64
ATOM     64  S   UNL A   1      47.340  26.024  37.451  1.00  0.00     0.124 S 
ATOM     65  O   UNL A   1      47.956  27.016  38.327  1.00  0.00    -0.237 OA
ATOM     66  O   UNL A   1      46.610  24.953  38.122  1.00  0.00    -0.237 OA
ATOM     67  O   UNL A   1      48.147  25.607  36.309  1.00  0.00    -0.744 OA
ENDBRANCH  63  64
ENDBRANCH  42  56
BRANCH  43  68
ATOM     68  C   UNL A   1      36.525  33.242  30.895  1.00  0.00     0.058 A 
ATOM     69  C   UNL A   1      35.210  33.113  31.362  1.00  0.00     0.135 A 
ATOM     70  C   UNL A   1      36.755  34.084  29.797  1.00  0.00     0.135 A 
ATOM     71  F   UNL A   1      34.944  32.311  32.405  1.00  0.00    -0.206 F 
ATOM     72  C   UNL A   1      34.158  33.798  30.766  1.00  0.00     0.059 A 
ATOM     73  C   UNL A   1      35.724  34.797  29.199  1.00  0.00     0.059 A 
ATOM     74  F   UNL A   1      38.002  34.249  29.326  1.00  0.00    -0.206 F 
ATOM     75  C   UNL A   1      34.426  34.643  29.687  1.00  0.00     0.060 A 
BRANCH  75  76
ATOM     76  S   UNL A   1      33.074  35.600  28.969  1.00  0.00     0.124 S 
ATOM     77  O   UNL A   1      32.451  34.615  28.092  1.00  0.00    -0.237 OA
ATOM     78  O   UNL A   1      32.302  35.986  30.147  1.00  0.00    -0.237 OA
ATOM     79  O   UNL A   1      33.766  36.699  28.300  1.00  0.00    -0.744 OA
ENDBRANCH  75  76
ENDBRANCH  43  68
BRANCH  55  80
ATOM     80  C   UNL A   1      39.870  34.281  36.900  1.00  0.00     0.058 A 
ATOM     81  C   UNL A   1      39.097  34.045  38.048  1.00  0.00     0.135 A 
ATOM     82  C   UNL A   1      40.489  35.532  36.767  1.00  0.00     0.135 A 
ATOM     83  F   UNL A   1      38.479  32.866  38.216  1.00  0.00    -0.206 F 
ATOM     84  C   UNL A   1      38.912  35.030  39.013  1.00  0.00     0.059 A 
ATOM     85  C   UNL A   1      40.334  36.526  37.729  1.00  0.00     0.059 A 
ATOM     86  F   UNL A   1      41.244  35.803  35.691  1.00  0.00    -0.206 F 
ATOM     87  C   UNL A   1      39.526  36.273  38.838  1.00  0.00     0.060 A 
BRANCH  87  88
ATOM     88  S   UNL A   1      39.270  37.556  40.082  1.00  0.00     0.124 S 
ATOM     89  O   UNL A   1      38.956  36.759  41.262  1.00  0.00    -0.237 OA
ATOM     90  O   UNL A   1      40.559  38.240  40.104  1.00  0.00    -0.237 OA
ATOM     91  O   UNL A   1      38.163  38.336  39.536  1.00  0.00    -0.744 OA
ENDBRANCH  87  88
ENDBRANCH  55  80
ENDBRANCH  29  30
ENDBRANCH  22  24
ENDBRANCH  21  22
ENDBRANCH  20  21
ENDBRANCH   1  20
TORSDOF 18
ENDMDL
MODEL 2
REMARK VINA RESULT:     -10.3      1.717      2.700
REMARK SMILES COc1nc(Cl)nc(N(CC(=O)OCCOC(=O)c2ccc(-c3c4nc(c(-c5c(F)cc(S(=O)(=O)[O-])cc5F)c5ccc([nH]5)c(-c5c(F)cc(S(=O)(=O)[O-])cc5F)c5nc(c(-c6c(F)cc(S(=O)(=O)[O-])cc6F)c6ccc3[nH]6)C=C5)C=C4)cc2)C(C)(C)C)n1
REMARK SMILES IDX 14 1 13 2 11 3 12 4 10 5 9 6 8 7 3 8 4 9 89 10 5 11 6 12
REMARK SMILES IDX 7 13 2 14 1 15 85 16 86 17 87 18 88 19 15 20 16 21 17 22
REMARK SMILES IDX 18 23 19 24 20 25 84 26 21 27 83 28 22 29 23 30 24 31 77 32
REMARK SMILES IDX 25 33 82 34 76 35 78 36 26 37 81 38 75 39 74 40 27 42 61 43
REMARK SMILES IDX 40 44 60 45 41 46 44 47 59 48 79 49 42 50 43 51 58 53 80 54
REMARK SMILES IDX 45 55 28 56 29 57 38 58 30 59 31 60 37 61 39 62 32 63 33 64
REMARK SMILES IDX 34 65 35 66 36 67 62 68 63 69 72 70 64 71 65 72 71 73 73 74
REMARK SMILES IDX 66 75 67 76 68 77 69 78 70 79 46 80 47 81 56 82 48 83 49 84
REMARK SMILES IDX 55 85 57 86 50 87 51 88 52 89 53 90 54 91
REMARK H PARENT 78 41 44 52
REMARK Flexibility Score: inf
ROOT
ATOM      1  C   UNL A   1      37.402  22.805  25.486  1.00  0.00     0.274 C 
ENDROOT
BRANCH   1   2
ATOM      2  O   UNL A   1      36.966  23.081  24.138  1.00  0.00    -0.461 OA
BRANCH   2   3
ATOM      3  C   UNL A   1      35.655  22.814  23.874  1.00  0.00     0.325 C 
ATOM      4  O   UNL A   1      35.132  22.947  22.769  1.00  0.00    -0.250 OA
BRANCH   3   5
ATOM      5  C   UNL A   1      34.917  22.171  25.046  1.00  0.00     0.242 C 
BRANCH   5   6
ATOM      6  N   UNL A   1      33.461  22.021  24.870  1.00  0.00    -0.325 N 
BRANCH   6   7
ATOM      7  C   UNL A   1      33.048  20.726  24.576  1.00  0.00     0.233 A 
ATOM      8  C   UNL A   1      32.800  18.557  25.156  1.00  0.00     0.322 A 
ATOM      9  N   UNL A   1      32.505  18.139  23.942  1.00  0.00    -0.164 NA
ATOM     10  N   UNL A   1      33.052  19.805  25.528  1.00  0.00    -0.158 NA
ATOM     11  C   UNL A   1      32.473  19.146  23.090  1.00  0.00     0.230 A 
ATOM     12  Cl  UNL A   1      32.138  18.737  21.463  1.00  0.00    -0.041 Cl
ATOM     13  N   UNL A   1      32.721  20.428  23.325  1.00  0.00    -0.182 NA
BRANCH   8  14
ATOM     14  O   UNL A   1      32.867  17.614  26.155  1.00  0.00    -0.467 OA
ATOM     15  C   UNL A   1      32.593  16.338  25.586  1.00  0.00     0.282 C 
ENDBRANCH   8  14
ENDBRANCH   6   7
BRANCH   6  16
ATOM     16  C   UNL A   1      32.493  23.111  25.186  1.00  0.00     0.035 C 
ATOM     17  C   UNL A   1      31.208  22.531  25.811  1.00  0.00     0.034 C 
ATOM     18  C   UNL A   1      33.137  24.165  26.111  1.00  0.00     0.034 C 
ATOM     19  C   UNL A   1      32.032  23.884  23.930  1.00  0.00     0.034 C 
ENDBRANCH   6  16
ENDBRANCH   5   6
ENDBRANCH   3   5
ENDBRANCH   2   3
ENDBRANCH   1   2
BRANCH   1  20
ATOM     20  C   UNL A   1      38.122  24.026  26.053  1.00  0.00     0.275 C 
BRANCH  20  21
ATOM     21  O   UNL A   1      39.208  23.588  26.889  1.00  0.00    -0.458 OA
BRANCH  21  22
ATOM     22  C   UNL A   1      40.336  24.335  26.820  1.00  0.00     0.338 C 
ATOM     23  O   UNL A   1      41.214  24.244  25.979  1.00  0.00    -0.246 OA
BRANCH  22  24
ATOM     24  C   UNL A   1      40.355  25.349  27.906  1.00  0.00     0.060 A 
ATOM     25  C   UNL A   1      39.299  25.472  28.813  1.00  0.00     0.016 A 
ATOM     26  C   UNL A   1      41.413  26.261  27.955  1.00  0.00     0.016 A 
ATOM     27  C   UNL A   1      39.263  26.544  29.707  1.00  0.00     0.010 A 
ATOM     28  C   UNL A   1      41.423  27.275  28.920  1.00  0.00     0.010 A 
ATOM     29  C   UNL A   1      40.337  27.445  29.793  1.00  0.00    -0.014 A 
BRANCH  29  30
ATOM     30  C   UNL A   1      40.344  28.535  30.813  1.00  0.00     0.031 A 
ATOM     31  C   UNL A   1      41.318  28.521  31.966  1.00  0.00     0.074 A 
ATOM     32  C   UNL A   1      39.446  29.538  30.723  1.00  0.00     0.049 A 
ATOM     33  N   UNL A   1      41.365  29.302  33.016  1.00  0.00    -0.248 NA
ATOM     34  C   UNL A   1      42.362  27.484  31.945  1.00  0.00     0.031 C 
ATOM     35  C   UNL A   1      38.436  29.681  29.671  1.00  0.00     0.029 A 
ATOM     36  N   UNL A   1      39.235  30.628  31.530  1.00  0.00    -0.354 N 
ATOM     37  C   UNL A   1      42.407  28.825  33.805  1.00  0.00     0.074 A 
ATOM     38  C   UNL A   1      42.965  27.681  33.111  1.00  0.00     0.031 C 
ATOM     39  C   UNL A   1      37.747  30.813  29.872  1.00  0.00     0.029 A 
ATOM     40  C   UNL A   1      38.210  31.439  31.105  1.00  0.00     0.049 A 
ATOM     41  H   UNL A   1      39.768  30.813  32.337  1.00  0.00     0.167 HD
ATOM     42  C   UNL A   1      42.856  29.292  34.996  1.00  0.00     0.037 A 
ATOM     43  C   UNL A   1      37.674  32.546  31.653  1.00  0.00     0.037 A 
ATOM     44  C   UNL A   1      42.337  30.458  35.666  1.00  0.00     0.049 A 
ATOM     45  C   UNL A   1      38.205  33.058  32.957  1.00  0.00     0.074 A 
ATOM     46  C   UNL A   1      42.752  31.022  36.862  1.00  0.00     0.029 A 
ATOM     47  N   UNL A   1      41.300  31.250  35.195  1.00  0.00    -0.354 N 
ATOM     48  N   UNL A   1      39.165  32.569  33.704  1.00  0.00    -0.248 NA
ATOM     49  C   UNL A   1      37.568  34.265  33.503  1.00  0.00     0.031 C 
ATOM     50  C   UNL A   1      41.953  32.142  37.124  1.00  0.00     0.029 A 
ATOM     51  C   UNL A   1      41.061  32.294  36.076  1.00  0.00     0.049 A 
ATOM     52  H   UNL A   1      40.807  31.095  34.358  1.00  0.00     0.167 HD
ATOM     53  C   UNL A   1      39.248  33.407  34.809  1.00  0.00     0.074 A 
ATOM     54  C   UNL A   1      38.257  34.449  34.620  1.00  0.00     0.031 C 
ATOM     55  C   UNL A   1      40.064  33.315  35.887  1.00  0.00     0.037 A 
BRANCH  42  56
ATOM     56  C   UNL A   1      43.962  28.531  35.672  1.00  0.00     0.058 A 
ATOM     57  C   UNL A   1      43.699  27.481  36.565  1.00  0.00     0.135 A 
ATOM     58  C   UNL A   1      45.305  28.822  35.381  1.00  0.00     0.135 A 
ATOM     59  F   UNL A   1      42.434  27.171  36.889  1.00  0.00    -0.206 F 
ATOM     60  C   UNL A   1      44.728  26.758  37.160  1.00  0.00     0.059 A 
ATOM     61  C   UNL A   1      46.351  28.100  35.950  1.00  0.00     0.059 A 
ATOM     62  F   UNL A   1      45.612  29.817  34.533  1.00  0.00    -0.206 F 
ATOM     63  C   UNL A   1      46.051  27.077  36.848  1.00  0.00     0.060 A 
BRANCH  63  64
ATOM     64  S   UNL A   1      47.381  26.125  37.617  1.00  0.00     0.124 S 
ATOM     65  O   UNL A   1      48.002  25.503  36.453  1.00  0.00    -0.237 OA
ATOM     66  O   UNL A   1      48.169  27.161  38.278  1.00  0.00    -0.237 OA
ATOM     67  O   UNL A   1      46.671  25.217  38.513  1.00  0.00    -0.744 OA
ENDBRANCH  63  64
ENDBRANCH  42  56
BRANCH  43  68
ATOM     68  C   UNL A   1      36.554  33.234  30.962  1.00  0.00     0.058 A 
ATOM     69  C   UNL A   1      35.247  33.154  31.462  1.00  0.00     0.135 A 
ATOM     70  C   UNL A   1      36.776  34.018  29.820  1.00  0.00     0.135 A 
ATOM     71  F   UNL A   1      34.988  32.408  32.547  1.00  0.00    -0.206 F 
ATOM     72  C   UNL A   1      34.195  33.831  30.856  1.00  0.00     0.059 A 
ATOM     73  C   UNL A   1      35.746  34.722  29.209  1.00  0.00     0.059 A 
ATOM     74  F   UNL A   1      38.015  34.136  29.315  1.00  0.00    -0.206 F 
ATOM     75  C   UNL A   1      34.456  34.618  29.731  1.00  0.00     0.060 A 
BRANCH  75  76
ATOM     76  S   UNL A   1      33.107  35.566  28.997  1.00  0.00     0.124 S 
ATOM     77  O   UNL A   1      32.492  34.572  28.124  1.00  0.00    -0.237 OA
ATOM     78  O   UNL A   1      32.327  35.960  30.166  1.00  0.00    -0.237 OA
ATOM     79  O   UNL A   1      33.801  36.660  28.323  1.00  0.00    -0.744 OA
ENDBRANCH  75  76
ENDBRANCH  43  68
BRANCH  55  80
ATOM     80  C   UNL A   1      39.919  34.380  36.936  1.00  0.00     0.058 A 
ATOM     81  C   UNL A   1      39.056  34.214  38.029  1.00  0.00     0.135 A 
ATOM     82  C   UNL A   1      40.636  35.582  36.838  1.00  0.00     0.135 A 
ATOM     83  F   UNL A   1      38.343  33.085  38.162  1.00  0.00    -0.206 F 
ATOM     84  C   UNL A   1      38.878  35.221  38.973  1.00  0.00     0.059 A 
ATOM     85  C   UNL A   1      40.489  36.595  37.781  1.00  0.00     0.059 A 
ATOM     86  F   UNL A   1      41.479  35.786  35.814  1.00  0.00    -0.206 F 
ATOM     87  C   UNL A   1      39.592  36.413  38.833  1.00  0.00     0.060 A 
BRANCH  87  88
ATOM     88  S   UNL A   1      39.346  37.726  40.049  1.00  0.00     0.124 S 
ATOM     89  O   UNL A   1      40.590  38.476  39.924  1.00  0.00    -0.237 OA
ATOM     90  O   UNL A   1      38.149  38.398  39.554  1.00  0.00    -0.237 OA
ATOM     91  O   UNL A   1      39.173  36.995  41.301  1.00  0.00    -0.744 OA
ENDBRANCH  87  88
ENDBRANCH  55  80
ENDBRANCH  29  30
ENDBRANCH  22  24
ENDBRANCH  21  22
ENDBRANCH  20  21
ENDBRANCH   1  20
TORSDOF 18
ENDMDL
MODEL 3
REMARK VINA RESULT:      -9.8      2.680      3.677
REMARK SMILES COc1nc(Cl)nc(N(CC(=O)OCCOC(=O)c2ccc(-c3c4nc(c(-c5c(F)cc(S(=O)(=O)[O-])cc5F)c5ccc([nH]5)c(-c5c(F)cc(S(=O)(=O)[O-])cc5F)c5nc(c(-c6c(F)cc(S(=O)(=O)[O-])cc6F)c6ccc3[nH]6)C=C5)C=C4)cc2)C(C)(C)C)n1
REMARK SMILES IDX 14 1 13 2 11 3 12 4 10 5 9 6 8 7 3 8 4 9 89 10 5 11 6 12
REMARK SMILES IDX 7 13 2 14 1 15 85 16 86 17 87 18 88 19 15 20 16 21 17 22
REMARK SMILES IDX 18 23 19 24 20 25 84 26 21 27 83 28 22 29 23 30 24 31 77 32
REMARK SMILES IDX 25 33 82 34 76 35 78 36 26 37 81 38 75 39 74 40 27 42 61 43
REMARK SMILES IDX 40 44 60 45 41 46 44 47 59 48 79 49 42 50 43 51 58 53 80 54
REMARK SMILES IDX 45 55 28 56 29 57 38 58 30 59 31 60 37 61 39 62 32 63 33 64
REMARK SMILES IDX 34 65 35 66 36 67 62 68 63 69 72 70 64 71 65 72 71 73 73 74
REMARK SMILES IDX 66 75 67 76 68 77 69 78 70 79 46 80 47 81 56 82 48 83 49 84
REMARK SMILES IDX 55 85 57 86 50 87 51 88 52 89 53 90 54 91
REMARK H PARENT 78 41 44 52
REMARK Flexibility Score: inf
ROOT
ATOM      1  C   UNL A   1      35.467  22.530  24.296  1.00  0.00     0.274 C 
ENDROOT
BRANCH   1   2
ATOM      2  O   UNL A   1      34.872  23.035  23.083  1.00  0.00    -0.461 OA
BRANCH   2   3
ATOM      3  C   UNL A   1      34.307  24.274  23.172  1.00  0.00     0.325 C 
ATOM      4  O   UNL A   1      33.914  24.925  22.207  1.00  0.00    -0.250 OA
BRANCH   3   5
ATOM      5  C   UNL A   1      34.051  24.723  24.610  1.00  0.00     0.242 C 
BRANCH   5   6
ATOM      6  N   UNL A   1      32.708  25.272  24.870  1.00  0.00    -0.325 N 
BRANCH   6   7
ATOM      7  C   UNL A   1      32.604  26.646  24.689  1.00  0.00     0.233 A 
ATOM      8  C   UNL A   1      32.933  28.760  25.413  1.00  0.00     0.322 A 
ATOM      9  N   UNL A   1      32.174  29.324  24.496  1.00  0.00    -0.164 NA
ATOM     10  N   UNL A   1      33.195  27.467  25.544  1.00  0.00    -0.158 NA
ATOM     11  C   UNL A   1      31.685  28.421  23.667  1.00  0.00     0.230 A 
ATOM     12  Cl  UNL A   1      30.647  29.014  22.444  1.00  0.00    -0.041 Cl
ATOM     13  N   UNL A   1      31.853  27.104  23.695  1.00  0.00    -0.182 NA
BRANCH   8  14
ATOM     14  O   UNL A   1      33.515  29.582  26.350  1.00  0.00    -0.467 OA
ATOM     15  C   UNL A   1      32.519  30.465  26.853  1.00  0.00     0.282 C 
ENDBRANCH   8  14
ENDBRANCH   6   7
BRANCH   6  16
ATOM     16  C   UNL A   1      31.514  24.407  25.101  1.00  0.00     0.035 C 
ATOM     17  C   UNL A   1      30.827  24.063  23.764  1.00  0.00     0.034 C 
ATOM     18  C   UNL A   1      31.904  23.129  25.873  1.00  0.00     0.034 C 
ATOM     19  C   UNL A   1      30.432  25.100  25.959  1.00  0.00     0.034 C 
ENDBRANCH   6  16
ENDBRANCH   5   6
ENDBRANCH   3   5
ENDBRANCH   2   3
ENDBRANCH   1   2
BRANCH   1  20
ATOM     20  C   UNL A   1      36.989  22.582  24.183  1.00  0.00     0.275 C 
BRANCH  20  21
ATOM     21  O   UNL A   1      37.503  23.521  25.142  1.00  0.00    -0.458 OA
BRANCH  21  22
ATOM     22  C   UNL A   1      38.598  23.113  25.830  1.00  0.00     0.338 C 
ATOM     23  O   UNL A   1      39.137  22.023  25.751  1.00  0.00    -0.246 OA
BRANCH  22  24
ATOM     24  C   UNL A   1      39.108  24.210  26.692  1.00  0.00     0.060 A 
ATOM     25  C   UNL A   1      38.706  24.344  28.025  1.00  0.00     0.016 A 
ATOM     26  C   UNL A   1      39.933  25.183  26.123  1.00  0.00     0.016 A 
ATOM     27  C   UNL A   1      39.060  25.481  28.754  1.00  0.00     0.010 A 
ATOM     28  C   UNL A   1      40.370  26.271  26.888  1.00  0.00     0.010 A 
ATOM     29  C   UNL A   1      39.921  26.447  28.207  1.00  0.00    -0.014 A 
BRANCH  29  30
ATOM     30  C   UNL A   1      40.378  27.614  29.017  1.00  0.00     0.031 A 
ATOM     31  C   UNL A   1      41.724  27.613  29.699  1.00  0.00     0.074 A 
ATOM     32  C   UNL A   1      39.564  28.679  29.170  1.00  0.00     0.049 A 
ATOM     33  N   UNL A   1      42.216  28.473  30.556  1.00  0.00    -0.248 NA
ATOM     34  C   UNL A   1      42.627  26.493  29.392  1.00  0.00     0.031 C 
ATOM     35  C   UNL A   1      38.230  28.820  28.580  1.00  0.00     0.029 A 
ATOM     36  N   UNL A   1      39.737  29.848  29.870  1.00  0.00    -0.354 N 
ATOM     37  C   UNL A   1      43.460  27.976  30.930  1.00  0.00     0.074 A 
ATOM     38  C   UNL A   1      43.647  26.735  30.206  1.00  0.00     0.031 C 
ATOM     39  C   UNL A   1      37.728  30.020  28.905  1.00  0.00     0.029 A 
ATOM     40  C   UNL A   1      38.666  30.705  29.786  1.00  0.00     0.049 A 
ATOM     41  H   UNL A   1      40.552  30.053  30.383  1.00  0.00     0.167 HD
ATOM     42  C   UNL A   1      44.362  28.502  31.795  1.00  0.00     0.037 A 
ATOM     43  C   UNL A   1      38.440  31.896  30.372  1.00  0.00     0.037 A 
ATOM     44  C   UNL A   1      44.202  29.760  32.480  1.00  0.00     0.049 A 
ATOM     45  C   UNL A   1      39.463  32.468  31.305  1.00  0.00     0.074 A 
ATOM     46  C   UNL A   1      45.079  30.384  33.353  1.00  0.00     0.029 A 
ATOM     47  N   UNL A   1      43.101  30.596  32.361  1.00  0.00    -0.354 N 
ATOM     48  N   UNL A   1      40.616  31.963  31.673  1.00  0.00    -0.248 NA
ATOM     49  C   UNL A   1      39.148  33.767  31.917  1.00  0.00     0.031 C 
ATOM     50  C   UNL A   1      44.500  31.587  33.777  1.00  0.00     0.029 A 
ATOM     51  C   UNL A   1      43.276  31.726  33.144  1.00  0.00     0.049 A 
ATOM     52  H   UNL A   1      42.313  30.413  31.801  1.00  0.00     0.167 HD
ATOM     53  C   UNL A   1      41.164  32.881  32.560  1.00  0.00     0.074 A 
ATOM     54  C   UNL A   1      40.228  33.984  32.654  1.00  0.00     0.031 C 
ATOM     55  C   UNL A   1      42.333  32.810  33.242  1.00  0.00     0.037 A 
BRANCH  42  56
ATOM     56  C   UNL A   1      45.608  27.708  32.072  1.00  0.00     0.058 A 
ATOM     57  C   UNL A   1      45.685  26.801  33.141  1.00  0.00     0.135 A 
ATOM     58  C   UNL A   1      46.723  27.817  31.224  1.00  0.00     0.135 A 
ATOM     59  F   UNL A   1      44.655  26.668  33.989  1.00  0.00    -0.206 F 
ATOM     60  C   UNL A   1      46.830  26.043  33.369  1.00  0.00     0.059 A 
ATOM     61  C   UNL A   1      47.871  27.057  31.423  1.00  0.00     0.059 A 
ATOM     62  F   UNL A   1      46.701  28.670  30.187  1.00  0.00    -0.206 F 
ATOM     63  C   UNL A   1      47.919  26.181  32.506  1.00  0.00     0.060 A 
BRANCH  63  64
ATOM     64  S   UNL A   1      49.397  25.185  32.806  1.00  0.00     0.124 S 
ATOM     65  O   UNL A   1      48.849  24.084  33.592  1.00  0.00    -0.237 OA
ATOM     66  O   UNL A   1      49.828  24.844  31.453  1.00  0.00    -0.237 OA
ATOM     67  O   UNL A   1      50.278  26.097  33.528  1.00  0.00    -0.744 OA
ENDBRANCH  63  64
ENDBRANCH  42  56
BRANCH  43  68
ATOM     68  C   UNL A   1      37.172  32.617  30.095  1.00  0.00     0.058 A 
ATOM     69  C   UNL A   1      36.030  32.382  30.873  1.00  0.00     0.135 A 
ATOM     70  C   UNL A   1      37.091  33.583  29.081  1.00  0.00     0.135 A 
ATOM     71  F   UNL A   1      36.060  31.460  31.848  1.00  0.00    -0.206 F 
ATOM     72  C   UNL A   1      34.849  33.082  30.659  1.00  0.00     0.059 A 
ATOM     73  C   UNL A   1      35.929  34.313  28.862  1.00  0.00     0.059 A 
ATOM     74  F   UNL A   1      38.165  33.852  28.321  1.00  0.00    -0.206 F 
ATOM     75  C   UNL A   1      34.810  34.051  29.653  1.00  0.00     0.060 A 
BRANCH  75  76
ATOM     76  S   UNL A   1      33.304  35.022  29.433  1.00  0.00     0.124 S 
ATOM     77  O   UNL A   1      32.569  34.208  28.472  1.00  0.00    -0.237 OA
ATOM     78  O   UNL A   1      32.757  35.064  30.786  1.00  0.00    -0.237 OA
ATOM     79  O   UNL A   1      33.805  36.299  28.932  1.00  0.00    -0.744 OA
ENDBRANCH  75  76
ENDBRANCH  43  68
BRANCH  55  80
ATOM     80  C   UNL A   1      42.660  33.968  34.141  1.00  0.00     0.058 A 
ATOM     81  C   UNL A   1      43.345  35.094  33.660  1.00  0.00     0.135 A 
ATOM     82  C   UNL A   1      42.301  33.943  35.497  1.00  0.00     0.135 A 
ATOM     83  F   UNL A   1      43.716  35.160  32.372  1.00  0.00    -0.206 F 
ATOM     84  C   UNL A   1      43.698  36.143  34.503  1.00  0.00     0.059 A 
ATOM     85  C   UNL A   1      42.627  34.990  36.355  1.00  0.00     0.059 A 
ATOM     86  F   UNL A   1      41.639  32.892  36.003  1.00  0.00    -0.206 F 
ATOM     87  C   UNL A   1      43.344  36.076  35.852  1.00  0.00     0.060 A 
BRANCH  87  88
ATOM     88  S   UNL A   1      43.819  37.431  36.948  1.00  0.00     0.124 S 
ATOM     89  O   UNL A   1      43.882  38.551  36.016  1.00  0.00    -0.237 OA
ATOM     90  O   UNL A   1      42.720  37.465  37.907  1.00  0.00    -0.237 OA
ATOM     91  O   UNL A   1      45.101  36.989  37.490  1.00  0.00    -0.744 OA
ENDBRANCH  87  88
ENDBRANCH  55  80
ENDBRANCH  29  30
ENDBRANCH  22  24
ENDBRANCH  21  22
ENDBRANCH  20  21
ENDBRANCH   1  20
TORSDOF 18
ENDMDL
