MODEL 1
REMARK VINA RESULT:     -11.0      0.000      0.000
REMARK SMILES O=C(OCCOC(=O)[C@@H]1CC[C@H](CNC(=O)C2CCOCC2)O1)c1ccc(-c2c3nc(c(-c4c(F)cc(S(=O)(=O)[O-])cc4F)c4ccc([nH]4)c(-c4c(F)cc(S(=O)(=O)[O-])cc4F)c4nc(c(-c5c(F)cc(S(=O)(=O)[O-])cc5F)c5ccc2[nH]5)C=C4)C=C3)cc1
REMARK SMILES IDX 4 1 3 2 2 3 1 4 24 5 25 6 89 7 26 8 88 9 27 10 28 11 29 12
REMARK SMILES IDX 82 13 30 14 87 15 81 16 83 17 31 18 86 19 80 20 79 21 32 23
REMARK SMILES IDX 66 24 45 25 65 26 46 27 49 28 64 29 84 30 47 31 48 32 63 34
REMARK SMILES IDX 85 35 50 36 33 37 34 38 43 39 35 40 36 41 42 42 44 43 37 44
REMARK SMILES IDX 38 45 39 46 40 47 41 48 67 49 68 50 77 51 69 52 70 53 76 54
REMARK SMILES IDX 78 55 71 56 72 57 73 58 74 59 75 60 51 61 52 62 61 63 53 64
REMARK SMILES IDX 54 65 60 66 62 67 55 68 56 69 57 70 58 71 59 72 5 73 6 74
REMARK SMILES IDX 7 75 8 76 9 77 10 78 23 79 11 80 12 81 13 82 14 83 15 84
REMARK SMILES IDX 16 86 17 87 18 88 22 89 19 90 21 91 20 92
REMARK H PARENT 83 22 49 33 14 85
REMARK Flexibility Score: inf
ROOT
ATOM      1  C   UNL A   1      38.830  19.558  25.744  1.00  0.00     0.275 C 
ENDROOT
BRANCH   1   2
ATOM      2  O   UNL A   1      40.123  19.426  25.187  1.00  0.00    -0.458 OA
BRANCH   2   3
ATOM      3  C   UNL A   1      41.255  19.662  25.875  1.00  0.00     0.338 C 
ATOM      4  O   UNL A   1      42.099  18.764  25.900  1.00  0.00    -0.246 OA
BRANCH   3   5
ATOM      5  C   UNL A   1      41.490  20.921  26.680  1.00  0.00     0.060 A 
ATOM      6  C   UNL A   1      41.799  21.151  28.050  1.00  0.00     0.016 A 
ATOM      7  C   UNL A   1      41.534  22.020  25.871  1.00  0.00     0.016 A 
ATOM      8  C   UNL A   1      42.240  22.396  28.574  1.00  0.00     0.010 A 
ATOM      9  C   UNL A   1      42.010  23.200  26.397  1.00  0.00     0.010 A 
ATOM     10  C   UNL A   1      42.378  23.472  27.734  1.00  0.00    -0.014 A 
BRANCH  10  11
ATOM     11  C   UNL A   1      42.880  24.852  28.126  1.00  0.00     0.031 A 
ATOM     12  C   UNL A   1      41.818  25.853  28.485  1.00  0.00     0.074 A 
ATOM     13  C   UNL A   1      44.090  25.346  27.772  1.00  0.00     0.049 A 
ATOM     14  N   UNL A   1      41.819  27.415  28.680  1.00  0.00    -0.248 NA
ATOM     15  C   UNL A   1      40.038  25.097  28.407  1.00  0.00     0.031 C 
ATOM     16  C   UNL A   1      45.140  24.579  27.102  1.00  0.00     0.029 A 
ATOM     17  N   UNL A   1      44.573  26.643  27.745  1.00  0.00    -0.354 N 
ATOM     18  C   UNL A   1      40.082  28.058  28.747  1.00  0.00     0.074 A 
ATOM     19  C   UNL A   1      39.091  26.278  28.410  1.00  0.00     0.031 C 
ATOM     20  C   UNL A   1      46.075  25.419  26.625  1.00  0.00     0.029 A 
ATOM     21  C   UNL A   1      45.727  26.788  26.994  1.00  0.00     0.049 A 
ATOM     22  H   UNL A   1      44.137  27.391  28.214  1.00  0.00     0.167 HD
ATOM     23  C   UNL A   1      39.878  29.342  29.311  1.00  0.00     0.037 A 
ATOM     24  C   UNL A   1      46.427  27.885  26.626  1.00  0.00     0.037 A 
ATOM     25  C   UNL A   1      40.965  30.305  29.476  1.00  0.00     0.049 A 
ATOM     26  C   UNL A   1      46.026  29.240  27.152  1.00  0.00     0.074 A 
ATOM     27  C   UNL A   1      40.916  31.483  30.211  1.00  0.00     0.029 A 
ATOM     28  N   UNL A   1      42.228  30.261  28.893  1.00  0.00    -0.354 N 
ATOM     29  N   UNL A   1      44.936  29.587  27.788  1.00  0.00    -0.248 NA
ATOM     30  C   UNL A   1      46.990  30.338  26.974  1.00  0.00     0.031 C 
ATOM     31  C   UNL A   1      42.120  32.158  30.063  1.00  0.00     0.029 A 
ATOM     32  C   UNL A   1      42.950  31.394  29.264  1.00  0.00     0.049 A 
ATOM     33  H   UNL A   1      42.560  29.541  28.309  1.00  0.00     0.167 HD
ATOM     34  C   UNL A   1      45.110  30.920  28.142  1.00  0.00     0.074 A 
ATOM     35  C   UNL A   1      46.409  31.321  27.647  1.00  0.00     0.031 C 
ATOM     36  C   UNL A   1      44.282  31.736  28.835  1.00  0.00     0.037 A 
BRANCH  23  37
ATOM     37  C   UNL A   1      38.621  29.825  30.055  1.00  0.00     0.058 A 
ATOM     38  C   UNL A   1      37.640  30.569  29.361  1.00  0.00     0.135 A 
ATOM     39  C   UNL A   1      38.378  29.603  31.414  1.00  0.00     0.135 A 
ATOM     40  F   UNL A   1      37.688  30.662  28.020  1.00  0.00    -0.206 F 
ATOM     41  C   UNL A   1      36.706  31.358  30.030  1.00  0.00     0.059 A 
ATOM     42  C   UNL A   1      37.435  30.367  32.110  1.00  0.00     0.059 A 
ATOM     43  F   UNL A   1      39.144  28.744  32.104  1.00  0.00    -0.206 F 
ATOM     44  C   UNL A   1      36.680  31.317  31.419  1.00  0.00     0.060 A 
BRANCH  44  45
ATOM     45  S   UNL A   1      35.726  32.554  32.327  1.00  0.00     0.124 S 
ATOM     46  O   UNL A   1      36.031  32.219  33.715  1.00  0.00    -0.237 OA
ATOM     47  O   UNL A   1      36.284  33.819  31.857  1.00  0.00    -0.237 OA
ATOM     48  O   UNL A   1      34.354  32.287  31.904  1.00  0.00    -0.744 OA
ENDBRANCH  44  45
ENDBRANCH  23  37
BRANCH  24  49
ATOM     49  C   UNL A   1      47.657  27.767  25.789  1.00  0.00     0.058 A 
ATOM     50  C   UNL A   1      47.561  27.730  24.388  1.00  0.00     0.135 A 
ATOM     51  C   UNL A   1      48.935  27.644  26.356  1.00  0.00     0.135 A 
ATOM     52  F   UNL A   1      46.360  27.824  23.798  1.00  0.00    -0.206 F 
ATOM     53  C   UNL A   1      48.680  27.555  23.580  1.00  0.00     0.059 A 
ATOM     54  C   UNL A   1      50.074  27.485  25.565  1.00  0.00     0.059 A 
ATOM     55  F   UNL A   1      49.086  27.686  27.690  1.00  0.00    -0.206 F 
ATOM     56  C   UNL A   1      49.935  27.438  24.178  1.00  0.00     0.060 A 
BRANCH  56  57
ATOM     57  S   UNL A   1      51.380  27.278  23.102  1.00  0.00     0.124 S 
ATOM     58  O   UNL A   1      50.787  26.746  21.881  1.00  0.00    -0.237 OA
ATOM     59  O   UNL A   1      51.855  28.657  23.033  1.00  0.00    -0.237 OA
ATOM     60  O   UNL A   1      52.245  26.360  23.838  1.00  0.00    -0.744 OA
ENDBRANCH  56  57
ENDBRANCH  24  49
BRANCH  36  61
ATOM     61  C   UNL A   1      44.812  33.088  29.247  1.00  0.00     0.058 A 
ATOM     62  C   UNL A   1      44.547  34.255  28.518  1.00  0.00     0.135 A 
ATOM     63  C   UNL A   1      45.523  33.221  30.456  1.00  0.00     0.135 A 
ATOM     64  F   UNL A   1      43.887  34.188  27.350  1.00  0.00    -0.206 F 
ATOM     65  C   UNL A   1      44.970  35.505  28.965  1.00  0.00     0.059 A 
ATOM     66  C   UNL A   1      45.924  34.462  30.939  1.00  0.00     0.059 A 
ATOM     67  F   UNL A   1      45.795  32.139  31.202  1.00  0.00    -0.206 F 
ATOM     68  C   UNL A   1      45.648  35.599  30.183  1.00  0.00     0.060 A 
BRANCH  68  69
ATOM     69  S   UNL A   1      46.132  37.232  30.785  1.00  0.00     0.124 S 
ATOM     70  O   UNL A   1      46.359  36.969  32.202  1.00  0.00    -0.237 OA
ATOM     71  O   UNL A   1      47.325  37.516  29.994  1.00  0.00    -0.237 OA
ATOM     72  O   UNL A   1      44.973  38.066  30.480  1.00  0.00    -0.744 OA
ENDBRANCH  68  69
ENDBRANCH  36  61
ENDBRANCH  10  11
ENDBRANCH   3   5
ENDBRANCH   2   3
ENDBRANCH   1   2
BRANCH   1  73
ATOM     73  C   UNL A   1      37.895  20.467  24.913  1.00  0.00     0.274 C 
BRANCH  73  74
ATOM     74  O   UNL A   1      36.458  20.167  24.951  1.00  0.00    -0.460 OA
BRANCH  74  75
ATOM     75  C   UNL A   1      35.603  21.152  25.373  1.00  0.00     0.335 C 
ATOM     76  O   UNL A   1      35.496  21.454  26.559  1.00  0.00    -0.249 OA
BRANCH  75  77
ATOM     77  C   UNL A   1      34.733  21.855  24.236  1.00  0.00     0.228 C 
ATOM     78  C   UNL A   1      34.951  23.349  24.123  1.00  0.00     0.047 C 
ATOM     79  O   UNL A   1      33.307  21.723  24.113  1.00  0.00    -0.361 OA
ATOM     80  C   UNL A   1      33.893  23.790  23.112  1.00  0.00     0.037 C 
ATOM     81  C   UNL A   1      32.755  22.778  23.210  1.00  0.00     0.138 C 
BRANCH  81  82
ATOM     82  C   UNL A   1      31.358  23.218  23.790  1.00  0.00     0.147 C 
BRANCH  82  83
ATOM     83  N   UNL A   1      30.775  23.151  25.134  1.00  0.00    -0.353 N 
ATOM     84  C   UNL A   1      30.655  24.143  26.152  1.00  0.00     0.223 C 
ATOM     85  H   UNL A   1      30.404  22.272  25.374  1.00  0.00     0.163 HD
ATOM     86  O   UNL A   1      30.056  23.780  27.171  1.00  0.00    -0.275 OA
BRANCH  84  87
ATOM     87  C   UNL A   1      31.465  25.707  26.074  1.00  0.00     0.083 C 
ATOM     88  C   UNL A   1      30.297  26.635  24.893  1.00  0.00     0.042 C 
ATOM     89  C   UNL A   1      33.628  26.397  25.767  1.00  0.00     0.042 C 
ATOM     90  C   UNL A   1      30.886  28.097  24.138  1.00  0.00     0.161 C 
ATOM     91  C   UNL A   1      33.733  28.046  24.813  1.00  0.00     0.161 C 
ATOM     92  O   UNL A   1      32.430  28.498  23.961  1.00  0.00    -0.381 OA
ENDBRANCH  84  87
ENDBRANCH  82  83
ENDBRANCH  81  82
ENDBRANCH  75  77
ENDBRANCH  74  75
ENDBRANCH  73  74
ENDBRANCH   1  73
TORSDOF 17
ENDMDL
MODEL 2
REMARK VINA RESULT:     -10.9      3.915     10.748
REMARK SMILES O=C(OCCOC(=O)[C@@H]1CC[C@H](CNC(=O)C2CCOCC2)O1)c1ccc(-c2c3nc(c(-c4c(F)cc(S(=O)(=O)[O-])cc4F)c4ccc([nH]4)c(-c4c(F)cc(S(=O)(=O)[O-])cc4F)c4nc(c(-c5c(F)cc(S(=O)(=O)[O-])cc5F)c5ccc2[nH]5)C=C4)C=C3)cc1
REMARK SMILES IDX 4 1 3 2 2 3 1 4 24 5 25 6 89 7 26 8 88 9 27 10 28 11 29 12
REMARK SMILES IDX 82 13 30 14 87 15 81 16 83 17 31 18 86 19 80 20 79 21 32 23
REMARK SMILES IDX 66 24 45 25 65 26 46 27 49 28 64 29 84 30 47 31 48 32 63 34
REMARK SMILES IDX 85 35 50 36 33 37 34 38 43 39 35 40 36 41 42 42 44 43 37 44
REMARK SMILES IDX 38 45 39 46 40 47 41 48 67 49 68 50 77 51 69 52 70 53 76 54
REMARK SMILES IDX 78 55 71 56 72 57 73 58 74 59 75 60 51 61 52 62 61 63 53 64
REMARK SMILES IDX 54 65 60 66 62 67 55 68 56 69 57 70 58 71 59 72 5 73 6 74
REMARK SMILES IDX 7 75 8 76 9 77 10 78 23 79 11 80 12 81 13 82 14 83 15 84
REMARK SMILES IDX 16 86 17 87 18 88 22 89 19 90 21 91 20 92
REMARK H PARENT 83 22 49 33 14 85
REMARK Flexibility Score: inf
ROOT
ATOM      1  C   UNL A   1      40.398  20.292  26.304  1.00  0.00     0.275 C 
ENDROOT
BRANCH   1   2
ATOM      2  O   UNL A   1      40.364  21.686  26.072  1.00  0.00    -0.458 OA
BRANCH   2   3
ATOM      3  C   UNL A   1      39.307  22.462  26.374  1.00  0.00     0.338 C 
ATOM      4  O   UNL A   1      38.186  22.015  26.124  1.00  0.00    -0.246 OA
BRANCH   3   5
ATOM      5  C   UNL A   1      39.438  23.872  26.909  1.00  0.00     0.060 A 
ATOM      6  C   UNL A   1      39.227  24.443  28.195  1.00  0.00     0.016 A 
ATOM      7  C   UNL A   1      39.994  24.701  25.977  1.00  0.00     0.016 A 
ATOM      8  C   UNL A   1      39.650  25.745  28.573  1.00  0.00     0.010 A 
ATOM      9  C   UNL A   1      40.437  25.939  26.386  1.00  0.00     0.010 A 
ATOM     10  C   UNL A   1      40.299  26.537  27.660  1.00  0.00    -0.014 A 
BRANCH  10  11
ATOM     11  C   UNL A   1      40.854  27.927  27.918  1.00  0.00     0.031 A 
ATOM     12  C   UNL A   1      42.328  27.997  28.208  1.00  0.00     0.074 A 
ATOM     13  C   UNL A   1      40.103  28.980  28.319  1.00  0.00     0.049 A 
ATOM     14  N   UNL A   1      43.270  29.118  28.784  1.00  0.00    -0.248 NA
ATOM     15  C   UNL A   1      43.176  26.259  28.125  1.00  0.00     0.031 C 
ATOM     16  C   UNL A   1      38.644  28.974  28.414  1.00  0.00     0.029 A 
ATOM     17  N   UNL A   1      40.458  30.183  28.906  1.00  0.00    -0.354 N 
ATOM     18  C   UNL A   1      44.920  28.405  29.237  1.00  0.00     0.074 A 
ATOM     19  C   UNL A   1      44.521  26.427  28.797  1.00  0.00     0.031 C 
ATOM     20  C   UNL A   1      38.236  30.043  29.121  1.00  0.00     0.029 A 
ATOM     21  C   UNL A   1      39.395  30.848  29.493  1.00  0.00     0.049 A 
ATOM     22  H   UNL A   1      41.379  30.533  28.905  1.00  0.00     0.167 HD
ATOM     23  C   UNL A   1      46.006  29.304  29.382  1.00  0.00     0.037 A 
ATOM     24  C   UNL A   1      39.344  31.964  30.255  1.00  0.00     0.037 A 
ATOM     25  C   UNL A   1      45.813  30.740  29.570  1.00  0.00     0.049 A 
ATOM     26  C   UNL A   1      40.599  32.767  30.490  1.00  0.00     0.074 A 
ATOM     27  C   UNL A   1      46.796  31.719  29.498  1.00  0.00     0.029 A 
ATOM     28  N   UNL A   1      44.633  31.396  29.908  1.00  0.00    -0.354 N 
ATOM     29  N   UNL A   1      41.841  32.449  30.231  1.00  0.00    -0.248 NA
ATOM     30  C   UNL A   1      40.431  34.116  31.056  1.00  0.00     0.031 C 
ATOM     31  C   UNL A   1      46.233  32.949  29.807  1.00  0.00     0.029 A 
ATOM     32  C   UNL A   1      44.883  32.761  30.041  1.00  0.00     0.049 A 
ATOM     33  H   UNL A   1      43.758  30.963  30.034  1.00  0.00     0.167 HD
ATOM     34  C   UNL A   1      42.594  33.576  30.537  1.00  0.00     0.074 A 
ATOM     35  C   UNL A   1      41.670  34.585  31.007  1.00  0.00     0.031 C 
ATOM     36  C   UNL A   1      43.928  33.771  30.421  1.00  0.00     0.037 A 
BRANCH  23  37
ATOM     37  C   UNL A   1      47.489  28.997  29.113  1.00  0.00     0.058 A 
ATOM     38  C   UNL A   1      48.336  28.638  30.186  1.00  0.00     0.135 A 
ATOM     39  C   UNL A   1      48.092  29.074  27.853  1.00  0.00     0.135 A 
ATOM     40  F   UNL A   1      47.811  28.347  31.390  1.00  0.00    -0.206 F 
ATOM     41  C   UNL A   1      49.723  28.735  30.093  1.00  0.00     0.059 A 
ATOM     42  C   UNL A   1      49.483  29.156  27.725  1.00  0.00     0.059 A 
ATOM     43  F   UNL A   1      47.337  29.208  26.752  1.00  0.00    -0.206 F 
ATOM     44  C   UNL A   1      50.279  29.091  28.870  1.00  0.00     0.060 A 
BRANCH  44  45
ATOM     45  S   UNL A   1      52.026  29.547  28.788  1.00  0.00     0.124 S 
ATOM     46  O   UNL A   1      52.358  29.749  30.195  1.00  0.00    -0.237 OA
ATOM     47  O   UNL A   1      52.648  28.383  28.163  1.00  0.00    -0.237 OA
ATOM     48  O   UNL A   1      52.012  30.756  27.968  1.00  0.00    -0.744 OA
ENDBRANCH  44  45
ENDBRANCH  23  37
BRANCH  24  49
ATOM     49  C   UNL A   1      38.045  32.475  30.783  1.00  0.00     0.058 A 
ATOM     50  C   UNL A   1      37.240  33.314  29.994  1.00  0.00     0.135 A 
ATOM     51  C   UNL A   1      37.602  32.184  32.082  1.00  0.00     0.135 A 
ATOM     52  F   UNL A   1      37.630  33.638  28.752  1.00  0.00    -0.206 F 
ATOM     53  C   UNL A   1      36.056  33.860  30.478  1.00  0.00     0.059 A 
ATOM     54  C   UNL A   1      36.409  32.707  32.583  1.00  0.00     0.059 A 
ATOM     55  F   UNL A   1      38.327  31.377  32.874  1.00  0.00    -0.206 F 
ATOM     56  C   UNL A   1      35.645  33.548  31.773  1.00  0.00     0.060 A 
BRANCH  56  57
ATOM     57  S   UNL A   1      34.069  34.219  32.353  1.00  0.00     0.124 S 
ATOM     58  O   UNL A   1      33.415  34.574  31.100  1.00  0.00    -0.237 OA
ATOM     59  O   UNL A   1      33.504  33.078  33.068  1.00  0.00    -0.237 OA
ATOM     60  O   UNL A   1      34.472  35.340  33.196  1.00  0.00    -0.744 OA
ENDBRANCH  56  57
ENDBRANCH  24  49
BRANCH  36  61
ATOM     61  C   UNL A   1      44.456  35.168  30.645  1.00  0.00     0.058 A 
ATOM     62  C   UNL A   1      44.450  36.145  29.641  1.00  0.00     0.135 A 
ATOM     63  C   UNL A   1      44.890  35.552  31.929  1.00  0.00     0.135 A 
ATOM     64  F   UNL A   1      44.061  35.832  28.394  1.00  0.00    -0.206 F 
ATOM     65  C   UNL A   1      44.858  37.453  29.896  1.00  0.00     0.059 A 
ATOM     66  C   UNL A   1      45.268  36.861  32.214  1.00  0.00     0.059 A 
ATOM     67  F   UNL A   1      44.906  34.662  32.933  1.00  0.00    -0.206 F 
ATOM     68  C   UNL A   1      45.256  37.803  31.189  1.00  0.00     0.060 A 
BRANCH  68  69
ATOM     69  S   UNL A   1      45.718  39.517  31.522  1.00  0.00     0.124 S 
ATOM     70  O   UNL A   1      45.748  40.081  30.177  1.00  0.00    -0.237 OA
ATOM     71  O   UNL A   1      44.629  39.975  32.378  1.00  0.00    -0.237 OA
ATOM     72  O   UNL A   1      47.016  39.398  32.180  1.00  0.00    -0.744 OA
ENDBRANCH  68  69
ENDBRANCH  36  61
ENDBRANCH  10  11
ENDBRANCH   3   5
ENDBRANCH   2   3
ENDBRANCH   1   2
BRANCH   1  73
ATOM     73  C   UNL A   1      41.833  19.720  26.384  1.00  0.00     0.274 C 
BRANCH  73  74
ATOM     74  O   UNL A   1      42.418  19.199  25.142  1.00  0.00    -0.460 OA
BRANCH  74  75
ATOM     75  C   UNL A   1      43.785  19.137  25.048  1.00  0.00     0.335 C 
ATOM     76  O   UNL A   1      44.413  18.135  25.379  1.00  0.00    -0.249 OA
BRANCH  75  77
ATOM     77  C   UNL A   1      44.508  20.456  24.518  1.00  0.00     0.228 C 
ATOM     78  C   UNL A   1      45.901  20.664  25.073  1.00  0.00     0.047 C 
ATOM     79  O   UNL A   1      43.933  21.772  24.576  1.00  0.00    -0.361 OA
ATOM     80  C   UNL A   1      46.287  22.052  24.562  1.00  0.00     0.037 C 
ATOM     81  C   UNL A   1      44.981  22.816  24.362  1.00  0.00     0.138 C 
BRANCH  81  82
ATOM     82  C   UNL A   1      44.633  24.038  25.293  1.00  0.00     0.147 C 
BRANCH  82  83
ATOM     83  N   UNL A   1      44.777  25.487  25.125  1.00  0.00    -0.353 N 
ATOM     84  C   UNL A   1      45.940  26.303  25.001  1.00  0.00     0.223 C 
ATOM     85  H   UNL A   1      43.927  25.980  25.092  1.00  0.00     0.163 HD
ATOM     86  O   UNL A   1      45.722  27.506  24.817  1.00  0.00    -0.275 OA
BRANCH  84  87
ATOM     87  C   UNL A   1      47.574  25.703  25.290  1.00  0.00     0.083 C 
ATOM     88  C   UNL A   1      47.517  25.463  27.177  1.00  0.00     0.042 C 
ATOM     89  C   UNL A   1      49.672  26.335  24.624  1.00  0.00     0.042 C 
ATOM     90  C   UNL A   1      49.035  25.299  28.028  1.00  0.00     0.161 C 
ATOM     91  C   UNL A   1      50.989  25.997  25.964  1.00  0.00     0.161 C 
ATOM     92  O   UNL A   1      50.467  25.777  27.483  1.00  0.00    -0.381 OA
ENDBRANCH  84  87
ENDBRANCH  82  83
ENDBRANCH  81  82
ENDBRANCH  75  77
ENDBRANCH  74  75
ENDBRANCH  73  74
ENDBRANCH   1  73
TORSDOF 17
ENDMDL
MODEL 3
REMARK VINA RESULT:     -10.9      3.846      9.547
REMARK SMILES O=C(OCCOC(=O)[C@@H]1CC[C@H](CNC(=O)C2CCOCC2)O1)c1ccc(-c2c3nc(c(-c4c(F)cc(S(=O)(=O)[O-])cc4F)c4ccc([nH]4)c(-c4c(F)cc(S(=O)(=O)[O-])cc4F)c4nc(c(-c5c(F)cc(S(=O)(=O)[O-])cc5F)c5ccc2[nH]5)C=C4)C=C3)cc1
REMARK SMILES IDX 4 1 3 2 2 3 1 4 24 5 25 6 89 7 26 8 88 9 27 10 28 11 29 12
REMARK SMILES IDX 82 13 30 14 87 15 81 16 83 17 31 18 86 19 80 20 79 21 32 23
REMARK SMILES IDX 66 24 45 25 65 26 46 27 49 28 64 29 84 30 47 31 48 32 63 34
REMARK SMILES IDX 85 35 50 36 33 37 34 38 43 39 35 40 36 41 42 42 44 43 37 44
REMARK SMILES IDX 38 45 39 46 40 47 41 48 67 49 68 50 77 51 69 52 70 53 76 54
REMARK SMILES IDX 78 55 71 56 72 57 73 58 74 59 75 60 51 61 52 62 61 63 53 64
REMARK SMILES IDX 54 65 60 66 62 67 55 68 56 69 57 70 58 71 59 72 5 73 6 74
REMARK SMILES IDX 7 75 8 76 9 77 10 78 23 79 11 80 12 81 13 82 14 83 15 84
REMARK SMILES IDX 16 86 17 87 18 88 22 89 19 90 21 91 20 92
REMARK H PARENT 83 22 49 33 14 85
REMARK Flexibility Score: inf
ROOT
ATOM      1  C   UNL A   1      33.927  28.489  25.692  1.00  0.00     0.275 C 
ENDROOT
BRANCH   1   2
ATOM      2  O   UNL A   1      33.835  28.810  27.066  1.00  0.00    -0.458 OA
BRANCH   2   3
ATOM      3  C   UNL A   1      34.451  29.869  27.623  1.00  0.00     0.338 C 
ATOM      4  O   UNL A   1      33.872  30.955  27.565  1.00  0.00    -0.246 OA
BRANCH   3   5
ATOM      5  C   UNL A   1      35.839  29.802  28.223  1.00  0.00     0.060 A 
ATOM      6  C   UNL A   1      36.327  29.379  29.490  1.00  0.00     0.016 A 
ATOM      7  C   UNL A   1      36.792  30.089  27.287  1.00  0.00     0.016 A 
ATOM      8  C   UNL A   1      37.697  29.145  29.784  1.00  0.00     0.010 A 
ATOM      9  C   UNL A   1      38.106  29.806  27.586  1.00  0.00     0.010 A 
ATOM     10  C   UNL A   1      38.641  29.339  28.808  1.00  0.00    -0.014 A 
BRANCH  10  11
ATOM     11  C   UNL A   1      40.133  29.090  28.946  1.00  0.00     0.031 A 
ATOM     12  C   UNL A   1      40.612  27.739  28.492  1.00  0.00     0.074 A 
ATOM     13  C   UNL A   1      40.939  29.769  29.797  1.00  0.00     0.049 A 
ATOM     14  N   UNL A   1      41.957  26.943  28.681  1.00  0.00    -0.248 NA
ATOM     15  C   UNL A   1      39.178  26.652  27.780  1.00  0.00     0.031 C 
ATOM     16  C   UNL A   1      40.528  30.930  30.585  1.00  0.00     0.029 A 
ATOM     17  N   UNL A   1      42.199  29.474  30.291  1.00  0.00    -0.354 N 
ATOM     18  C   UNL A   1      41.735  25.173  28.179  1.00  0.00     0.074 A 
ATOM     19  C   UNL A   1      39.720  25.240  27.731  1.00  0.00     0.031 C 
ATOM     20  C   UNL A   1      41.448  31.175  31.535  1.00  0.00     0.029 A 
ATOM     21  C   UNL A   1      42.546  30.224  31.402  1.00  0.00     0.049 A 
ATOM     22  H   UNL A   1      42.790  28.797  29.890  1.00  0.00     0.167 HD
ATOM     23  C   UNL A   1      42.901  24.419  27.897  1.00  0.00     0.037 A 
ATOM     24  C   UNL A   1      43.611  30.156  32.233  1.00  0.00     0.037 A 
ATOM     25  C   UNL A   1      44.229  24.836  28.343  1.00  0.00     0.049 A 
ATOM     26  C   UNL A   1      44.733  29.195  31.935  1.00  0.00     0.074 A 
ATOM     27  C   UNL A   1      45.442  24.297  27.934  1.00  0.00     0.029 A 
ATOM     28  N   UNL A   1      44.534  25.806  29.295  1.00  0.00    -0.354 N 
ATOM     29  N   UNL A   1      44.771  28.217  31.066  1.00  0.00    -0.248 NA
ATOM     30  C   UNL A   1      45.987  29.379  32.683  1.00  0.00     0.031 C 
ATOM     31  C   UNL A   1      46.470  24.911  28.637  1.00  0.00     0.029 A 
ATOM     32  C   UNL A   1      45.915  25.866  29.469  1.00  0.00     0.049 A 
ATOM     33  H   UNL A   1      43.876  26.363  29.770  1.00  0.00     0.167 HD
ATOM     34  C   UNL A   1      46.066  27.714  31.115  1.00  0.00     0.074 A 
ATOM     35  C   UNL A   1      46.783  28.492  32.103  1.00  0.00     0.031 C 
ATOM     36  C   UNL A   1      46.624  26.714  30.394  1.00  0.00     0.037 A 
BRANCH  23  37
ATOM     37  C   UNL A   1      43.017  23.249  26.905  1.00  0.00     0.058 A 
ATOM     38  C   UNL A   1      42.626  21.951  27.305  1.00  0.00     0.135 A 
ATOM     39  C   UNL A   1      43.520  23.367  25.605  1.00  0.00     0.135 A 
ATOM     40  F   UNL A   1      41.951  21.775  28.455  1.00  0.00    -0.206 F 
ATOM     41  C   UNL A   1      43.060  20.812  26.629  1.00  0.00     0.059 A 
ATOM     42  C   UNL A   1      43.949  22.241  24.895  1.00  0.00     0.059 A 
ATOM     43  F   UNL A   1      43.727  24.581  25.070  1.00  0.00    -0.206 F 
ATOM     44  C   UNL A   1      43.808  20.976  25.469  1.00  0.00     0.060 A 
BRANCH  44  45
ATOM     45  S   UNL A   1      44.662  19.553  24.754  1.00  0.00     0.124 S 
ATOM     46  O   UNL A   1      46.011  19.703  25.293  1.00  0.00    -0.237 OA
ATOM     47  O   UNL A   1      43.909  18.415  25.271  1.00  0.00    -0.237 OA
ATOM     48  O   UNL A   1      44.533  19.780  23.317  1.00  0.00    -0.744 OA
ENDBRANCH  44  45
ENDBRANCH  23  37
BRANCH  24  49
ATOM     49  C   UNL A   1      43.746  31.094  33.386  1.00  0.00     0.058 A 
ATOM     50  C   UNL A   1      44.332  32.358  33.209  1.00  0.00     0.135 A 
ATOM     51  C   UNL A   1      43.341  30.742  34.683  1.00  0.00     0.135 A 
ATOM     52  F   UNL A   1      44.754  32.733  31.992  1.00  0.00    -0.206 F 
ATOM     53  C   UNL A   1      44.532  33.230  34.274  1.00  0.00     0.059 A 
ATOM     54  C   UNL A   1      43.516  31.607  35.765  1.00  0.00     0.059 A 
ATOM     55  F   UNL A   1      42.762  29.551  34.908  1.00  0.00    -0.206 F 
ATOM     56  C   UNL A   1      44.116  32.849  35.549  1.00  0.00     0.060 A 
BRANCH  56  57
ATOM     57  S   UNL A   1      44.329  34.028  36.904  1.00  0.00     0.124 S 
ATOM     58  O   UNL A   1      45.273  33.326  37.766  1.00  0.00    -0.237 OA
ATOM     59  O   UNL A   1      44.850  35.197  36.202  1.00  0.00    -0.237 OA
ATOM     60  O   UNL A   1      42.977  34.175  37.435  1.00  0.00    -0.744 OA
ENDBRANCH  56  57
ENDBRANCH  24  49
BRANCH  36  61
ATOM     61  C   UNL A   1      48.114  26.506  30.517  1.00  0.00     0.058 A 
ATOM     62  C   UNL A   1      49.032  27.095  29.636  1.00  0.00     0.135 A 
ATOM     63  C   UNL A   1      48.629  25.773  31.604  1.00  0.00     0.135 A 
ATOM     64  F   UNL A   1      48.597  27.792  28.574  1.00  0.00    -0.206 F 
ATOM     65  C   UNL A   1      50.406  26.962  29.822  1.00  0.00     0.059 A 
ATOM     66  C   UNL A   1      49.997  25.657  31.828  1.00  0.00     0.059 A 
ATOM     67  F   UNL A   1      47.798  25.196  32.486  1.00  0.00    -0.206 F 
ATOM     68  C   UNL A   1      50.879  26.250  30.928  1.00  0.00     0.060 A 
BRANCH  68  69
ATOM     69  S   UNL A   1      52.662  26.143  31.195  1.00  0.00     0.124 S 
ATOM     70  O   UNL A   1      53.169  26.202  29.827  1.00  0.00    -0.237 OA
ATOM     71  O   UNL A   1      52.926  27.316  32.021  1.00  0.00    -0.237 OA
ATOM     72  O   UNL A   1      52.830  24.859  31.869  1.00  0.00    -0.744 OA
ENDBRANCH  68  69
ENDBRANCH  36  61
ENDBRANCH  10  11
ENDBRANCH   3   5
ENDBRANCH   2   3
ENDBRANCH   1   2
BRANCH   1  73
ATOM     73  C   UNL A   1      33.486  27.042  25.371  1.00  0.00     0.274 C 
BRANCH  73  74
ATOM     74  O   UNL A   1      33.680  26.571  23.994  1.00  0.00    -0.460 OA
BRANCH  74  75
ATOM     75  C   UNL A   1      34.193  25.313  23.808  1.00  0.00     0.335 C 
ATOM     76  O   UNL A   1      34.190  24.768  22.707  1.00  0.00    -0.249 OA
BRANCH  75  77
ATOM     77  C   UNL A   1      34.759  24.589  25.111  1.00  0.00     0.228 C 
ATOM     78  C   UNL A   1      35.926  23.662  24.847  1.00  0.00     0.047 C 
ATOM     79  O   UNL A   1      33.950  23.842  26.035  1.00  0.00    -0.361 OA
ATOM     80  C   UNL A   1      36.152  22.978  26.195  1.00  0.00     0.037 C 
ATOM     81  C   UNL A   1      34.806  22.989  26.915  1.00  0.00     0.138 C 
BRANCH  81  82
ATOM     82  C   UNL A   1      34.034  21.638  27.164  1.00  0.00     0.147 C 
BRANCH  82  83
ATOM     83  N   UNL A   1      33.489  20.624  26.256  1.00  0.00    -0.353 N 
ATOM     84  C   UNL A   1      32.378  20.668  25.365  1.00  0.00     0.223 C 
ATOM     85  H   UNL A   1      33.973  19.767  26.265  1.00  0.00     0.163 HD
ATOM     86  O   UNL A   1      32.206  19.647  24.687  1.00  0.00    -0.275 OA
BRANCH  84  87
ATOM     87  C   UNL A   1      31.200  21.981  25.356  1.00  0.00     0.083 C 
ATOM     88  C   UNL A   1      31.477  22.671  23.604  1.00  0.00     0.042 C 
ATOM     89  C   UNL A   1      30.644  23.667  26.803  1.00  0.00     0.042 C 
ATOM     90  C   UNL A   1      30.862  24.267  23.246  1.00  0.00     0.161 C 
ATOM     91  C   UNL A   1      30.089  25.250  25.892  1.00  0.00     0.161 C 
ATOM     92  O   UNL A   1      30.502  25.394  24.331  1.00  0.00    -0.381 OA
ENDBRANCH  84  87
ENDBRANCH  82  83
ENDBRANCH  81  82
ENDBRANCH  75  77
ENDBRANCH  74  75
ENDBRANCH  73  74
ENDBRANCH   1  73
TORSDOF 17
ENDMDL
