MODEL 1
REMARK VINA RESULT:     -12.1      0.000      0.000
REMARK SMILES CCc1ccc2c(CC(=O)OCCOC(=O)c3ccc(-c4c5nc(c(-c6c(F)cc(S(=O)(=O)[O-])cc6F)c6ccc([nH]6)c(-c6c(F)cc(S(=O)(=O)[O-])cc6F)c6nc(c(-c7c(F)cc(S(=O)(=O)[O-])cc7F)c7ccc4[nH]7)C=C6)C=C5)cc3)c(C(=O)c3cc(C)ccn3)[nH]c2c1
REMARK SMILES IDX 12 1 11 2 9 3 10 4 8 5 7 6 3 7 4 8 95 9 5 10 94 11 6 12
REMARK SMILES IDX 93 13 83 14 2 16 1 17 84 18 85 19 86 20 87 21 92 22 88 23
REMARK SMILES IDX 91 24 89 25 90 26 13 27 14 28 15 29 16 30 17 31 18 32 82 33
REMARK SMILES IDX 19 34 81 35 20 36 21 37 22 38 75 39 23 40 80 41 74 42 76 43
REMARK SMILES IDX 24 44 79 45 73 46 72 47 25 49 59 50 38 51 58 52 39 53 42 54
REMARK SMILES IDX 57 55 77 56 40 57 41 58 56 60 78 61 43 62 26 63 27 64 36 65
REMARK SMILES IDX 28 66 29 67 35 68 37 69 30 70 31 71 32 72 33 73 34 74 60 75
REMARK SMILES IDX 61 76 70 77 62 78 63 79 69 80 71 81 64 82 65 83 66 84 67 85
REMARK SMILES IDX 68 86 44 87 45 88 54 89 46 90 47 91 53 92 55 93 48 94 49 95
REMARK SMILES IDX 50 96 51 97 52 98
REMARK H PARENT 93 15 76 48 42 59
REMARK Flexibility Score: inf
ROOT
ATOM      1  C   UNL A   1      33.388  29.993  26.564  1.00  0.00     0.274 C 
ENDROOT
BRANCH   1   2
ATOM      2  O   UNL A   1      32.445  29.105  27.195  1.00  0.00    -0.462 OA
BRANCH   2   3
ATOM      3  C   UNL A   1      32.537  27.797  26.830  1.00  0.00     0.310 C 
ATOM      4  O   UNL A   1      31.629  26.981  26.963  1.00  0.00    -0.252 OA
BRANCH   3   5
ATOM      5  C   UNL A   1      33.850  27.411  26.187  1.00  0.00     0.161 C 
BRANCH   5   6
ATOM      6  C   UNL A   1      33.772  26.555  24.957  1.00  0.00     0.000 A 
ATOM      7  C   UNL A   1      33.575  22.388  24.368  1.00  0.00    -0.046 A 
ATOM      8  C   UNL A   1      33.903  22.810  25.661  1.00  0.00     0.004 A 
ATOM      9  C   UNL A   1      33.498  23.338  23.331  1.00  0.00     0.030 A 
ATOM     10  C   UNL A   1      34.062  24.167  25.966  1.00  0.00     0.011 A 
ATOM     11  C   UNL A   1      33.630  24.692  23.661  1.00  0.00     0.046 A 
ATOM     12  C   UNL A   1      33.872  25.129  24.957  1.00  0.00     0.004 A 
ATOM     13  N   UNL A   1      33.527  25.816  22.875  1.00  0.00    -0.352 N 
ATOM     14  C   UNL A   1      33.407  26.939  23.665  1.00  0.00     0.093 A 
ATOM     15  H   UNL A   1      33.537  25.817  21.891  1.00  0.00     0.167 HD
BRANCH   7  16
ATOM     16  C   UNL A   1      33.305  20.939  24.028  1.00  0.00     0.032 C 
ATOM     17  C   UNL A   1      33.868  19.910  25.003  1.00  0.00     0.009 C 
ENDBRANCH   7  16
BRANCH  14  18
ATOM     18  C   UNL A   1      32.888  28.216  23.198  1.00  0.00     0.227 C 
ATOM     19  O   UNL A   1      33.589  29.212  23.055  1.00  0.00    -0.285 OA
BRANCH  18  20
ATOM     20  C   UNL A   1      31.426  28.378  23.012  1.00  0.00     0.113 A 
ATOM     21  C   UNL A   1      30.562  27.439  23.564  1.00  0.00     0.036 A 
ATOM     22  N   UNL A   1      31.023  29.467  22.316  1.00  0.00    -0.253 NA
ATOM     23  C   UNL A   1      29.188  27.635  23.407  1.00  0.00    -0.047 A 
ATOM     24  C   UNL A   1      29.693  29.676  22.252  1.00  0.00     0.112 A 
ATOM     25  C   UNL A   1      28.193  26.646  23.938  1.00  0.00     0.044 C 
ATOM     26  C   UNL A   1      28.750  28.798  22.767  1.00  0.00     0.023 A 
ENDBRANCH  18  20
ENDBRANCH  14  18
ENDBRANCH   5   6
ENDBRANCH   3   5
ENDBRANCH   2   3
ENDBRANCH   1   2
BRANCH   1  27
ATOM     27  C   UNL A   1      34.192  30.751  27.617  1.00  0.00     0.275 C 
BRANCH  27  28
ATOM     28  O   UNL A   1      35.247  29.911  28.111  1.00  0.00    -0.458 OA
BRANCH  28  29
ATOM     29  C   UNL A   1      36.024  30.463  29.072  1.00  0.00     0.338 C 
ATOM     30  O   UNL A   1      35.677  31.307  29.890  1.00  0.00    -0.246 OA
BRANCH  29  31
ATOM     31  C   UNL A   1      37.407  29.957  28.973  1.00  0.00     0.060 A 
ATOM     32  C   UNL A   1      38.179  29.703  30.107  1.00  0.00     0.016 A 
ATOM     33  C   UNL A   1      37.967  29.808  27.703  1.00  0.00     0.016 A 
ATOM     34  C   UNL A   1      39.533  29.387  29.972  1.00  0.00     0.010 A 
ATOM     35  C   UNL A   1      39.293  29.389  27.570  1.00  0.00     0.010 A 
ATOM     36  C   UNL A   1      40.101  29.197  28.703  1.00  0.00    -0.014 A 
BRANCH  36  37
ATOM     37  C   UNL A   1      41.522  28.775  28.546  1.00  0.00     0.031 A 
ATOM     38  C   UNL A   1      42.638  29.788  28.613  1.00  0.00     0.074 A 
ATOM     39  C   UNL A   1      41.810  27.484  28.280  1.00  0.00     0.049 A 
ATOM     40  N   UNL A   1      43.898  29.651  28.285  1.00  0.00    -0.248 NA
ATOM     41  C   UNL A   1      42.290  31.136  29.094  1.00  0.00     0.031 C 
ATOM     42  C   UNL A   1      40.833  26.396  28.193  1.00  0.00     0.029 A 
ATOM     43  N   UNL A   1      43.010  26.868  28.019  1.00  0.00    -0.354 N 
ATOM     44  C   UNL A   1      44.479  30.902  28.460  1.00  0.00     0.074 A 
ATOM     45  C   UNL A   1      43.435  31.787  28.933  1.00  0.00     0.031 C 
ATOM     46  C   UNL A   1      41.471  25.248  27.920  1.00  0.00     0.029 A 
ATOM     47  C   UNL A   1      42.889  25.529  27.733  1.00  0.00     0.049 A 
ATOM     48  H   UNL A   1      43.874  27.340  28.035  1.00  0.00     0.167 HD
ATOM     49  C   UNL A   1      45.763  31.275  28.242  1.00  0.00     0.037 A 
ATOM     50  C   UNL A   1      43.802  24.630  27.319  1.00  0.00     0.037 A 
ATOM     51  C   UNL A   1      46.816  30.373  27.843  1.00  0.00     0.049 A 
ATOM     52  C   UNL A   1      45.218  25.069  27.091  1.00  0.00     0.074 A 
ATOM     53  C   UNL A   1      48.162  30.649  27.663  1.00  0.00     0.029 A 
ATOM     54  N   UNL A   1      46.647  29.024  27.575  1.00  0.00    -0.354 N 
ATOM     55  N   UNL A   1      45.746  26.259  27.246  1.00  0.00    -0.248 NA
ATOM     56  C   UNL A   1      46.161  24.048  26.615  1.00  0.00     0.031 C 
ATOM     57  C   UNL A   1      48.802  29.473  27.259  1.00  0.00     0.029 A 
ATOM     58  C   UNL A   1      47.860  28.458  27.217  1.00  0.00     0.049 A 
ATOM     59  H   UNL A   1      45.793  28.539  27.631  1.00  0.00     0.167 HD
ATOM     60  C   UNL A   1      47.083  26.128  26.895  1.00  0.00     0.074 A 
ATOM     61  C   UNL A   1      47.289  24.740  26.536  1.00  0.00     0.031 C 
ATOM     62  C   UNL A   1      48.052  27.074  26.867  1.00  0.00     0.037 A 
BRANCH  49  63
ATOM     63  C   UNL A   1      46.122  32.724  28.410  1.00  0.00     0.058 A 
ATOM     64  C   UNL A   1      46.608  33.233  29.622  1.00  0.00     0.135 A 
ATOM     65  C   UNL A   1      46.066  33.595  27.308  1.00  0.00     0.135 A 
ATOM     66  F   UNL A   1      46.671  32.448  30.710  1.00  0.00    -0.206 F 
ATOM     67  C   UNL A   1      47.022  34.557  29.740  1.00  0.00     0.059 A 
ATOM     68  C   UNL A   1      46.491  34.917  27.397  1.00  0.00     0.059 A 
ATOM     69  F   UNL A   1      45.609  33.157  26.124  1.00  0.00    -0.206 F 
ATOM     70  C   UNL A   1      46.962  35.391  28.620  1.00  0.00     0.060 A 
BRANCH  70  71
ATOM     71  S   UNL A   1      47.533  37.097  28.779  1.00  0.00     0.124 S 
ATOM     72  O   UNL A   1      47.171  37.396  30.161  1.00  0.00    -0.237 OA
ATOM     73  O   UNL A   1      48.963  36.978  28.512  1.00  0.00    -0.237 OA
ATOM     74  O   UNL A   1      46.767  37.809  27.761  1.00  0.00    -0.744 OA
ENDBRANCH  70  71
ENDBRANCH  49  63
BRANCH  50  75
ATOM     75  C   UNL A   1      43.389  23.228  27.045  1.00  0.00     0.058 A 
ATOM     76  C   UNL A   1      43.130  22.335  28.092  1.00  0.00     0.135 A 
ATOM     77  C   UNL A   1      43.246  22.760  25.729  1.00  0.00     0.135 A 
ATOM     78  F   UNL A   1      43.264  22.738  29.366  1.00  0.00    -0.206 F 
ATOM     79  C   UNL A   1      42.758  21.018  27.849  1.00  0.00     0.059 A 
ATOM     80  C   UNL A   1      42.850  21.455  25.460  1.00  0.00     0.059 A 
ATOM     81  F   UNL A   1      43.468  23.582  24.693  1.00  0.00    -0.206 F 
ATOM     82  C   UNL A   1      42.623  20.586  26.527  1.00  0.00     0.060 A 
BRANCH  82  83
ATOM     83  S   UNL A   1      42.106  18.885  26.209  1.00  0.00     0.124 S 
ATOM     84  O   UNL A   1      42.281  18.277  27.523  1.00  0.00    -0.237 OA
ATOM     85  O   UNL A   1      40.727  19.054  25.763  1.00  0.00    -0.237 OA
ATOM     86  O   UNL A   1      43.039  18.445  25.176  1.00  0.00    -0.744 OA
ENDBRANCH  82  83
ENDBRANCH  50  75
BRANCH  62  87
ATOM     87  C   UNL A   1      49.426  26.631  26.462  1.00  0.00     0.058 A 
ATOM     88  C   UNL A   1      50.306  26.039  27.381  1.00  0.00     0.135 A 
ATOM     89  C   UNL A   1      49.861  26.779  25.135  1.00  0.00     0.135 A 
ATOM     90  F   UNL A   1      49.939  25.884  28.663  1.00  0.00    -0.206 F 
ATOM     91  C   UNL A   1      51.580  25.627  27.003  1.00  0.00     0.059 A 
ATOM     92  C   UNL A   1      51.122  26.357  24.731  1.00  0.00     0.059 A 
ATOM     93  F   UNL A   1      49.053  27.335  24.218  1.00  0.00    -0.206 F 
ATOM     94  C   UNL A   1      51.981  25.795  25.676  1.00  0.00     0.060 A 
BRANCH  94  95
ATOM     95  S   UNL A   1      53.627  25.239  25.187  1.00  0.00     0.124 S 
ATOM     96  O   UNL A   1      53.517  23.796  25.376  1.00  0.00    -0.237 OA
ATOM     97  O   UNL A   1      53.717  25.691  23.802  1.00  0.00    -0.237 OA
ATOM     98  O   UNL A   1      54.508  25.930  26.123  1.00  0.00    -0.744 OA
ENDBRANCH  94  95
ENDBRANCH  62  87
ENDBRANCH  36  37
ENDBRANCH  29  31
ENDBRANCH  28  29
ENDBRANCH  27  28
ENDBRANCH   1  27
TORSDOF 18
ENDMDL
MODEL 2
REMARK VINA RESULT:     -11.9      1.936      4.094
REMARK SMILES CCc1ccc2c(CC(=O)OCCOC(=O)c3ccc(-c4c5nc(c(-c6c(F)cc(S(=O)(=O)[O-])cc6F)c6ccc([nH]6)c(-c6c(F)cc(S(=O)(=O)[O-])cc6F)c6nc(c(-c7c(F)cc(S(=O)(=O)[O-])cc7F)c7ccc4[nH]7)C=C6)C=C5)cc3)c(C(=O)c3cc(C)ccn3)[nH]c2c1
REMARK SMILES IDX 12 1 11 2 9 3 10 4 8 5 7 6 3 7 4 8 95 9 5 10 94 11 6 12
REMARK SMILES IDX 93 13 83 14 2 16 1 17 84 18 85 19 86 20 87 21 92 22 88 23
REMARK SMILES IDX 91 24 89 25 90 26 13 27 14 28 15 29 16 30 17 31 18 32 82 33
REMARK SMILES IDX 19 34 81 35 20 36 21 37 22 38 75 39 23 40 80 41 74 42 76 43
REMARK SMILES IDX 24 44 79 45 73 46 72 47 25 49 59 50 38 51 58 52 39 53 42 54
REMARK SMILES IDX 57 55 77 56 40 57 41 58 56 60 78 61 43 62 26 63 27 64 36 65
REMARK SMILES IDX 28 66 29 67 35 68 37 69 30 70 31 71 32 72 33 73 34 74 60 75
REMARK SMILES IDX 61 76 70 77 62 78 63 79 69 80 71 81 64 82 65 83 66 84 67 85
REMARK SMILES IDX 68 86 44 87 45 88 54 89 46 90 47 91 53 92 55 93 48 94 49 95
REMARK SMILES IDX 50 96 51 97 52 98
REMARK H PARENT 93 15 76 48 42 59
REMARK Flexibility Score: inf
ROOT
ATOM      1  C   UNL A   1      31.620  28.276  27.304  1.00  0.00     0.274 C 
ENDROOT
BRANCH   1   2
ATOM      2  O   UNL A   1      31.799  27.557  26.068  1.00  0.00    -0.462 OA
BRANCH   2   3
ATOM      3  C   UNL A   1      31.093  26.398  25.958  1.00  0.00     0.310 C 
ATOM      4  O   UNL A   1      30.848  25.650  26.901  1.00  0.00    -0.252 OA
BRANCH   3   5
ATOM      5  C   UNL A   1      30.575  26.103  24.568  1.00  0.00     0.161 C 
BRANCH   5   6
ATOM      6  C   UNL A   1      30.822  27.148  23.521  1.00  0.00     0.000 A 
ATOM      7  C   UNL A   1      28.482  30.310  22.014  1.00  0.00    -0.046 A 
ATOM      8  C   UNL A   1      27.811  29.376  22.811  1.00  0.00     0.004 A 
ATOM      9  C   UNL A   1      29.815  30.061  21.633  1.00  0.00     0.030 A 
ATOM     10  C   UNL A   1      28.465  28.247  23.317  1.00  0.00     0.011 A 
ATOM     11  C   UNL A   1      30.460  28.943  22.173  1.00  0.00     0.046 A 
ATOM     12  C   UNL A   1      29.829  28.054  23.033  1.00  0.00     0.004 A 
ATOM     13  N   UNL A   1      31.758  28.508  22.032  1.00  0.00    -0.352 N 
ATOM     14  C   UNL A   1      32.046  27.557  22.987  1.00  0.00     0.093 A 
ATOM     15  H   UNL A   1      32.388  28.830  21.349  1.00  0.00     0.167 HD
BRANCH   7  16
ATOM     16  C   UNL A   1      27.829  31.586  21.530  1.00  0.00     0.032 C 
ATOM     17  C   UNL A   1      28.336  32.877  22.165  1.00  0.00     0.009 C 
ENDBRANCH   7  16
BRANCH  14  18
ATOM     18  C   UNL A   1      33.394  27.183  23.388  1.00  0.00     0.227 C 
ATOM     19  O   UNL A   1      34.290  28.001  23.571  1.00  0.00    -0.285 OA
BRANCH  18  20
ATOM     20  C   UNL A   1      33.759  25.747  23.449  1.00  0.00     0.113 A 
ATOM     21  C   UNL A   1      34.344  25.242  24.604  1.00  0.00     0.036 A 
ATOM     22  N   UNL A   1      33.472  25.005  22.354  1.00  0.00    -0.253 NA
ATOM     23  C   UNL A   1      34.643  23.879  24.650  1.00  0.00    -0.047 A 
ATOM     24  C   UNL A   1      33.694  23.679  22.456  1.00  0.00     0.112 A 
ATOM     25  C   UNL A   1      35.312  23.267  25.845  1.00  0.00     0.044 C 
ATOM     26  C   UNL A   1      34.277  23.079  23.564  1.00  0.00     0.023 A 
ENDBRANCH  18  20
ENDBRANCH  14  18
ENDBRANCH   5   6
ENDBRANCH   3   5
ENDBRANCH   2   3
ENDBRANCH   1   2
BRANCH   1  27
ATOM     27  C   UNL A   1      32.423  29.573  27.287  1.00  0.00     0.275 C 
BRANCH  27  28
ATOM     28  O   UNL A   1      33.804  29.285  27.558  1.00  0.00    -0.458 OA
BRANCH  28  29
ATOM     29  C   UNL A   1      34.495  30.280  28.161  1.00  0.00     0.338 C 
ATOM     30  O   UNL A   1      34.066  31.392  28.447  1.00  0.00    -0.246 OA
BRANCH  29  31
ATOM     31  C   UNL A   1      35.897  29.876  28.383  1.00  0.00     0.060 A 
ATOM     32  C   UNL A   1      36.353  29.461  29.634  1.00  0.00     0.016 A 
ATOM     33  C   UNL A   1      36.794  29.991  27.320  1.00  0.00     0.016 A 
ATOM     34  C   UNL A   1      37.717  29.248  29.844  1.00  0.00     0.010 A 
ATOM     35  C   UNL A   1      38.142  29.675  27.507  1.00  0.00     0.010 A 
ATOM     36  C   UNL A   1      38.626  29.323  28.778  1.00  0.00    -0.014 A 
BRANCH  36  37
ATOM     37  C   UNL A   1      40.071  29.014  28.969  1.00  0.00     0.031 A 
ATOM     38  C   UNL A   1      41.034  30.083  29.422  1.00  0.00     0.074 A 
ATOM     39  C   UNL A   1      40.535  27.781  28.676  1.00  0.00     0.049 A 
ATOM     40  N   UNL A   1      42.343  30.064  29.431  1.00  0.00    -0.248 NA
ATOM     41  C   UNL A   1      40.452  31.345  29.910  1.00  0.00     0.031 C 
ATOM     42  C   UNL A   1      39.718  26.648  28.235  1.00  0.00     0.029 A 
ATOM     43  N   UNL A   1      41.813  27.276  28.691  1.00  0.00    -0.354 N 
ATOM     44  C   UNL A   1      42.743  31.323  29.865  1.00  0.00     0.074 A 
ATOM     45  C   UNL A   1      41.536  32.082  30.119  1.00  0.00     0.031 C 
ATOM     46  C   UNL A   1      40.507  25.581  28.041  1.00  0.00     0.029 A 
ATOM     47  C   UNL A   1      41.893  25.971  28.265  1.00  0.00     0.049 A 
ATOM     48  H   UNL A   1      42.596  27.799  28.980  1.00  0.00     0.167 HD
ATOM     49  C   UNL A   1      44.000  31.800  30.033  1.00  0.00     0.037 A 
ATOM     50  C   UNL A   1      42.960  25.184  28.032  1.00  0.00     0.037 A 
ATOM     51  C   UNL A   1      45.198  31.018  29.850  1.00  0.00     0.049 A 
ATOM     52  C   UNL A   1      44.341  25.737  28.231  1.00  0.00     0.074 A 
ATOM     53  C   UNL A   1      46.513  31.399  30.062  1.00  0.00     0.029 A 
ATOM     54  N   UNL A   1      45.228  29.698  29.428  1.00  0.00    -0.354 N 
ATOM     55  N   UNL A   1      44.699  26.934  28.626  1.00  0.00    -0.248 NA
ATOM     56  C   UNL A   1      45.464  24.837  27.935  1.00  0.00     0.031 C 
ATOM     57  C   UNL A   1      47.341  30.318  29.740  1.00  0.00     0.029 A 
ATOM     58  C   UNL A   1      46.539  29.255  29.359  1.00  0.00     0.049 A 
ATOM     59  H   UNL A   1      44.437  29.156  29.210  1.00  0.00     0.167 HD
ATOM     60  C   UNL A   1      46.088  26.929  28.635  1.00  0.00     0.074 A 
ATOM     61  C   UNL A   1      46.506  25.605  28.223  1.00  0.00     0.031 C 
ATOM     62  C   UNL A   1      46.941  27.933  28.952  1.00  0.00     0.037 A 
BRANCH  49  63
ATOM     63  C   UNL A   1      44.169  33.243  30.418  1.00  0.00     0.058 A 
ATOM     64  C   UNL A   1      44.215  34.266  29.460  1.00  0.00     0.135 A 
ATOM     65  C   UNL A   1      44.191  33.612  31.773  1.00  0.00     0.135 A 
ATOM     66  F   UNL A   1      44.209  33.969  28.151  1.00  0.00    -0.206 F 
ATOM     67  C   UNL A   1      44.280  35.606  29.832  1.00  0.00     0.059 A 
ATOM     68  C   UNL A   1      44.239  34.945  32.169  1.00  0.00     0.059 A 
ATOM     69  F   UNL A   1      44.149  32.670  32.729  1.00  0.00    -0.206 F 
ATOM     70  C   UNL A   1      44.290  35.935  31.190  1.00  0.00     0.060 A 
BRANCH  70  71
ATOM     71  S   UNL A   1      44.343  37.680  31.658  1.00  0.00     0.124 S 
ATOM     72  O   UNL A   1      43.811  38.317  30.458  1.00  0.00    -0.237 OA
ATOM     73  O   UNL A   1      43.477  37.718  32.832  1.00  0.00    -0.237 OA
ATOM     74  O   UNL A   1      45.759  37.919  31.920  1.00  0.00    -0.744 OA
ENDBRANCH  70  71
ENDBRANCH  49  63
BRANCH  50  75
ATOM     75  C   UNL A   1      42.763  23.798  27.535  1.00  0.00     0.058 A 
ATOM     76  C   UNL A   1      42.558  22.735  28.424  1.00  0.00     0.135 A 
ATOM     77  C   UNL A   1      42.773  23.513  26.160  1.00  0.00     0.135 A 
ATOM     78  F   UNL A   1      42.550  22.959  29.748  1.00  0.00    -0.206 F 
ATOM     79  C   UNL A   1      42.387  21.431  27.972  1.00  0.00     0.059 A 
ATOM     80  C   UNL A   1      42.579  22.222  25.682  1.00  0.00     0.059 A 
ATOM     81  F   UNL A   1      42.950  24.500  25.269  1.00  0.00    -0.206 F 
ATOM     82  C   UNL A   1      42.401  21.185  26.597  1.00  0.00     0.060 A 
BRANCH  82  83
ATOM     83  S   UNL A   1      42.145  19.498  26.006  1.00  0.00     0.124 S 
ATOM     84  O   UNL A   1      42.654  18.716  27.126  1.00  0.00    -0.237 OA
ATOM     85  O   UNL A   1      40.700  19.453  25.800  1.00  0.00    -0.237 OA
ATOM     86  O   UNL A   1      42.943  19.451  24.784  1.00  0.00    -0.744 OA
ENDBRANCH  82  83
ENDBRANCH  50  75
BRANCH  62  87
ATOM     87  C   UNL A   1      48.408  27.627  28.890  1.00  0.00     0.058 A 
ATOM     88  C   UNL A   1      49.076  27.029  29.969  1.00  0.00     0.135 A 
ATOM     89  C   UNL A   1      49.148  27.913  27.732  1.00  0.00     0.135 A 
ATOM     90  F   UNL A   1      48.414  26.745  31.101  1.00  0.00    -0.206 F 
ATOM     91  C   UNL A   1      50.437  26.745  29.910  1.00  0.00     0.059 A 
ATOM     92  C   UNL A   1      50.504  27.620  27.644  1.00  0.00     0.059 A 
ATOM     93  F   UNL A   1      48.550  28.479  26.671  1.00  0.00    -0.206 F 
ATOM     94  C   UNL A   1      51.144  27.048  28.744  1.00  0.00     0.060 A 
BRANCH  94  95
ATOM     95  S   UNL A   1      52.904  26.656  28.666  1.00  0.00     0.124 S 
ATOM     96  O   UNL A   1      53.134  26.075  29.984  1.00  0.00    -0.237 OA
ATOM     97  O   UNL A   1      52.974  25.727  27.543  1.00  0.00    -0.237 OA
ATOM     98  O   UNL A   1      53.528  27.955  28.434  1.00  0.00    -0.744 OA
ENDBRANCH  94  95
ENDBRANCH  62  87
ENDBRANCH  36  37
ENDBRANCH  29  31
ENDBRANCH  28  29
ENDBRANCH  27  28
ENDBRANCH   1  27
TORSDOF 18
ENDMDL
MODEL 3
REMARK VINA RESULT:     -11.9      1.074      2.121
REMARK SMILES CCc1ccc2c(CC(=O)OCCOC(=O)c3ccc(-c4c5nc(c(-c6c(F)cc(S(=O)(=O)[O-])cc6F)c6ccc([nH]6)c(-c6c(F)cc(S(=O)(=O)[O-])cc6F)c6nc(c(-c7c(F)cc(S(=O)(=O)[O-])cc7F)c7ccc4[nH]7)C=C6)C=C5)cc3)c(C(=O)c3cc(C)ccn3)[nH]c2c1
REMARK SMILES IDX 12 1 11 2 9 3 10 4 8 5 7 6 3 7 4 8 95 9 5 10 94 11 6 12
REMARK SMILES IDX 93 13 83 14 2 16 1 17 84 18 85 19 86 20 87 21 92 22 88 23
REMARK SMILES IDX 91 24 89 25 90 26 13 27 14 28 15 29 16 30 17 31 18 32 82 33
REMARK SMILES IDX 19 34 81 35 20 36 21 37 22 38 75 39 23 40 80 41 74 42 76 43
REMARK SMILES IDX 24 44 79 45 73 46 72 47 25 49 59 50 38 51 58 52 39 53 42 54
REMARK SMILES IDX 57 55 77 56 40 57 41 58 56 60 78 61 43 62 26 63 27 64 36 65
REMARK SMILES IDX 28 66 29 67 35 68 37 69 30 70 31 71 32 72 33 73 34 74 60 75
REMARK SMILES IDX 61 76 70 77 62 78 63 79 69 80 71 81 64 82 65 83 66 84 67 85
REMARK SMILES IDX 68 86 44 87 45 88 54 89 46 90 47 91 53 92 55 93 48 94 49 95
REMARK SMILES IDX 50 96 51 97 52 98
REMARK H PARENT 93 15 76 48 42 59
REMARK Flexibility Score: inf
ROOT
ATOM      1  C   UNL A   1      33.042  30.442  27.199  1.00  0.00     0.274 C 
ENDROOT
BRANCH   1   2
ATOM      2  O   UNL A   1      32.958  29.006  27.261  1.00  0.00    -0.462 OA
BRANCH   2   3
ATOM      3  C   UNL A   1      31.836  28.460  26.716  1.00  0.00     0.310 C 
ATOM      4  O   UNL A   1      31.168  27.582  27.255  1.00  0.00    -0.252 OA
BRANCH   3   5
ATOM      5  C   UNL A   1      31.426  29.054  25.387  1.00  0.00     0.161 C 
BRANCH   5   6
ATOM      6  C   UNL A   1      31.399  28.122  24.212  1.00  0.00     0.000 A 
ATOM      7  C   UNL A   1      33.700  24.749  23.174  1.00  0.00    -0.046 A 
ATOM      8  C   UNL A   1      34.192  25.525  24.230  1.00  0.00     0.004 A 
ATOM      9  C   UNL A   1      32.596  25.212  22.432  1.00  0.00     0.030 A 
ATOM     10  C   UNL A   1      33.551  26.705  24.625  1.00  0.00     0.011 A 
ATOM     11  C   UNL A   1      31.952  26.378  22.861  1.00  0.00     0.046 A 
ATOM     12  C   UNL A   1      32.380  27.112  23.960  1.00  0.00     0.004 A 
ATOM     13  N   UNL A   1      30.827  27.005  22.377  1.00  0.00    -0.352 N 
ATOM     14  C   UNL A   1      30.367  27.929  23.291  1.00  0.00     0.093 A 
ATOM     15  H   UNL A   1      30.412  26.820  21.505  1.00  0.00     0.167 HD
BRANCH   7  16
ATOM     16  C   UNL A   1      34.315  23.423  22.784  1.00  0.00     0.032 C 
ATOM     17  C   UNL A   1      35.140  22.727  23.862  1.00  0.00     0.009 C 
ENDBRANCH   7  16
BRANCH  14  18
ATOM     18  C   UNL A   1      29.016  28.470  23.298  1.00  0.00     0.227 C 
ATOM     19  O   UNL A   1      28.048  27.848  23.721  1.00  0.00    -0.285 OA
BRANCH  18  20
ATOM     20  C   UNL A   1      28.757  29.774  22.642  1.00  0.00     0.113 A 
ATOM     21  C   UNL A   1      29.083  30.949  23.310  1.00  0.00     0.036 A 
ATOM     22  N   UNL A   1      28.224  29.729  21.399  1.00  0.00    -0.253 NA
ATOM     23  C   UNL A   1      28.865  32.162  22.656  1.00  0.00    -0.047 A 
ATOM     24  C   UNL A   1      28.101  30.909  20.758  1.00  0.00     0.112 A 
ATOM     25  C   UNL A   1      29.153  33.473  23.325  1.00  0.00     0.044 C 
ATOM     26  C   UNL A   1      28.395  32.135  21.339  1.00  0.00     0.023 A 
ENDBRANCH  18  20
ENDBRANCH  14  18
ENDBRANCH   5   6
ENDBRANCH   3   5
ENDBRANCH   2   3
ENDBRANCH   1   2
BRANCH   1  27
ATOM     27  C   UNL A   1      34.492  30.898  27.339  1.00  0.00     0.275 C 
BRANCH  27  28
ATOM     28  O   UNL A   1      35.253  29.875  28.002  1.00  0.00    -0.458 OA
BRANCH  28  29
ATOM     29  C   UNL A   1      35.988  30.295  29.058  1.00  0.00     0.338 C 
ATOM     30  O   UNL A   1      35.606  31.022  29.966  1.00  0.00    -0.246 OA
BRANCH  29  31
ATOM     31  C   UNL A   1      37.377  29.806  28.947  1.00  0.00     0.060 A 
ATOM     32  C   UNL A   1      38.122  29.450  30.072  1.00  0.00     0.016 A 
ATOM     33  C   UNL A   1      37.970  29.779  27.684  1.00  0.00     0.016 A 
ATOM     34  C   UNL A   1      39.482  29.154  29.943  1.00  0.00     0.010 A 
ATOM     35  C   UNL A   1      39.301  29.380  27.547  1.00  0.00     0.010 A 
ATOM     36  C   UNL A   1      40.082  29.086  28.677  1.00  0.00    -0.014 A 
BRANCH  36  37
ATOM     37  C   UNL A   1      41.509  28.687  28.517  1.00  0.00     0.031 A 
ATOM     38  C   UNL A   1      42.609  29.716  28.592  1.00  0.00     0.074 A 
ATOM     39  C   UNL A   1      41.817  27.402  28.243  1.00  0.00     0.049 A 
ATOM     40  N   UNL A   1      43.871  29.600  28.263  1.00  0.00    -0.248 NA
ATOM     41  C   UNL A   1      42.241  31.055  29.081  1.00  0.00     0.031 C 
ATOM     42  C   UNL A   1      40.857  26.300  28.148  1.00  0.00     0.029 A 
ATOM     43  N   UNL A   1      43.026  26.806  27.978  1.00  0.00    -0.354 N 
ATOM     44  C   UNL A   1      44.434  30.858  28.446  1.00  0.00     0.074 A 
ATOM     45  C   UNL A   1      43.377  31.724  28.925  1.00  0.00     0.031 C 
ATOM     46  C   UNL A   1      41.511  25.163  27.867  1.00  0.00     0.029 A 
ATOM     47  C   UNL A   1      42.925  25.467  27.683  1.00  0.00     0.049 A 
ATOM     48  H   UNL A   1      43.882  27.291  27.998  1.00  0.00     0.167 HD
ATOM     49  C   UNL A   1      45.712  31.252  28.232  1.00  0.00     0.037 A 
ATOM     50  C   UNL A   1      43.851  24.584  27.263  1.00  0.00     0.037 A 
ATOM     51  C   UNL A   1      46.779  30.369  27.826  1.00  0.00     0.049 A 
ATOM     52  C   UNL A   1      45.262  25.047  27.039  1.00  0.00     0.074 A 
ATOM     53  C   UNL A   1      48.120  30.667  27.650  1.00  0.00     0.029 A 
ATOM     54  N   UNL A   1      46.630  29.019  27.550  1.00  0.00    -0.354 N 
ATOM     55  N   UNL A   1      45.771  26.243  27.202  1.00  0.00    -0.248 NA
ATOM     56  C   UNL A   1      46.219  24.043  26.556  1.00  0.00     0.031 C 
ATOM     57  C   UNL A   1      48.778  29.503  27.238  1.00  0.00     0.029 A 
ATOM     58  C   UNL A   1      47.852  28.474  27.188  1.00  0.00     0.049 A 
ATOM     59  H   UNL A   1      45.783  28.521  27.602  1.00  0.00     0.167 HD
ATOM     60  C   UNL A   1      47.110  26.135  26.851  1.00  0.00     0.074 A 
ATOM     61  C   UNL A   1      47.338  24.753  26.483  1.00  0.00     0.031 C 
ATOM     62  C   UNL A   1      48.065  27.096  26.830  1.00  0.00     0.037 A 
BRANCH  49  63
ATOM     63  C   UNL A   1      46.049  32.706  28.409  1.00  0.00     0.058 A 
ATOM     64  C   UNL A   1      45.934  33.627  27.358  1.00  0.00     0.135 A 
ATOM     65  C   UNL A   1      46.401  33.197  29.677  1.00  0.00     0.135 A 
ATOM     66  F   UNL A   1      45.613  33.210  26.124  1.00  0.00    -0.206 F 
ATOM     67  C   UNL A   1      46.162  34.986  27.557  1.00  0.00     0.059 A 
ATOM     68  C   UNL A   1      46.616  34.553  29.903  1.00  0.00     0.059 A 
ATOM     69  F   UNL A   1      46.524  32.356  30.716  1.00  0.00    -0.206 F 
ATOM     70  C   UNL A   1      46.501  35.440  28.834  1.00  0.00     0.060 A 
BRANCH  70  71
ATOM     71  S   UNL A   1      46.761  37.210  29.085  1.00  0.00     0.124 S 
ATOM     72  O   UNL A   1      46.641  37.318  30.535  1.00  0.00    -0.237 OA
ATOM     73  O   UNL A   1      48.102  37.411  28.544  1.00  0.00    -0.237 OA
ATOM     74  O   UNL A   1      45.682  37.825  28.319  1.00  0.00    -0.744 OA
ENDBRANCH  70  71
ENDBRANCH  49  63
BRANCH  50  75
ATOM     75  C   UNL A   1      43.460  23.179  26.979  1.00  0.00     0.058 A 
ATOM     76  C   UNL A   1      43.178  22.285  28.021  1.00  0.00     0.135 A 
ATOM     77  C   UNL A   1      43.361  22.706  25.661  1.00  0.00     0.135 A 
ATOM     78  F   UNL A   1      43.269  22.691  29.297  1.00  0.00    -0.206 F 
ATOM     79  C   UNL A   1      42.825  20.964  27.769  1.00  0.00     0.059 A 
ATOM     80  C   UNL A   1      42.986  21.397  25.383  1.00  0.00     0.059 A 
ATOM     81  F   UNL A   1      43.608  23.529  24.630  1.00  0.00    -0.206 F 
ATOM     82  C   UNL A   1      42.734  20.529  26.445  1.00  0.00     0.060 A 
BRANCH  82  83
ATOM     83  S   UNL A   1      42.243  18.823  26.114  1.00  0.00     0.124 S 
ATOM     84  O   UNL A   1      42.459  18.200  27.415  1.00  0.00    -0.237 OA
ATOM     85  O   UNL A   1      40.851  18.971  25.701  1.00  0.00    -0.237 OA
ATOM     86  O   UNL A   1      43.160  18.414  25.054  1.00  0.00    -0.744 OA
ENDBRANCH  82  83
ENDBRANCH  50  75
BRANCH  62  87
ATOM     87  C   UNL A   1      49.446  26.676  26.422  1.00  0.00     0.058 A 
ATOM     88  C   UNL A   1      49.898  26.830  25.102  1.00  0.00     0.135 A 
ATOM     89  C   UNL A   1      50.334  26.136  27.365  1.00  0.00     0.135 A 
ATOM     90  F   UNL A   1      49.082  27.334  24.163  1.00  0.00    -0.206 F 
ATOM     91  C   UNL A   1      51.180  26.441  24.726  1.00  0.00     0.059 A 
ATOM     92  C   UNL A   1      51.626  25.758  27.015  1.00  0.00     0.059 A 
ATOM     93  F   UNL A   1      49.949  25.975  28.641  1.00  0.00    -0.206 F 
ATOM     94  C   UNL A   1      52.035  25.902  25.689  1.00  0.00     0.060 A 
BRANCH  94  95
ATOM     95  S   UNL A   1      53.705  25.420  25.199  1.00  0.00     0.124 S 
ATOM     96  O   UNL A   1      54.425  25.532  26.463  1.00  0.00    -0.237 OA
ATOM     97  O   UNL A   1      53.509  24.062  24.699  1.00  0.00    -0.237 OA
ATOM     98  O   UNL A   1      54.057  26.408  24.185  1.00  0.00    -0.744 OA
ENDBRANCH  94  95
ENDBRANCH  62  87
ENDBRANCH  36  37
ENDBRANCH  29  31
ENDBRANCH  28  29
ENDBRANCH  27  28
ENDBRANCH   1  27
TORSDOF 18
ENDMDL
