MODEL 1
REMARK VINA RESULT:     -10.0      0.000      0.000
REMARK SMILES CCOCC[C@@H]1CCC[C@@]1([NH2+]C1CC1)C(=O)OCCOC(=O)c1ccc(-c2c3nc(c(-c4c(F)cc(S(=O)(=O)[O-])cc4F)c4ccc([nH]4)c(-c4c(F)cc(S(=O)(=O)[O-])cc4F)c4nc(c(-c5c(F)cc(S(=O)(=O)[O-])cc5F)c5ccc2[nH]5)C=C4)C=C3)cc1
REMARK SMILES IDX 18 1 17 2 15 3 16 4 10 5 6 6 7 7 8 8 9 9 5 10 4 11 3 12 2 13
REMARK SMILES IDX 1 14 11 15 12 18 13 19 14 20 19 21 20 22 21 23 22 24 23 25
REMARK SMILES IDX 24 26 88 27 25 28 87 29 26 30 27 31 28 32 81 33 29 34 86 35
REMARK SMILES IDX 80 36 82 37 30 38 85 39 79 40 78 41 31 43 65 44 44 45 64 46
REMARK SMILES IDX 45 47 48 48 63 49 83 50 46 51 47 52 62 54 84 55 49 56 32 57
REMARK SMILES IDX 33 58 42 59 34 60 35 61 41 62 43 63 36 64 37 65 38 66 39 67
REMARK SMILES IDX 40 68 66 69 67 70 76 71 68 72 69 73 75 74 77 75 70 76 71 77
REMARK SMILES IDX 72 78 73 79 74 80 50 81 51 82 60 83 52 84 53 85 59 86 61 87
REMARK SMILES IDX 54 88 55 89 56 90 57 91 58 92
REMARK H PARENT 11 16 11 17 82 42 48 53
REMARK Flexibility Score: inf
ROOT
ATOM      1  C   UNL A   1      33.019  28.770  27.346  1.00  0.00     0.274 C 
ENDROOT
BRANCH   1   2
ATOM      2  O   UNL A   1      32.916  27.967  26.148  1.00  0.00    -0.457 OA
BRANCH   2   3
ATOM      3  C   UNL A   1      31.999  26.958  26.180  1.00  0.00     0.368 C 
ATOM      4  O   UNL A   1      31.237  26.766  27.123  1.00  0.00    -0.245 OA
BRANCH   3   5
ATOM      5  C   UNL A   1      32.094  26.018  24.952  1.00  0.00     0.197 C 
ATOM      6  C   UNL A   1      31.860  26.808  23.628  1.00  0.00     0.065 C 
ATOM      7  C   UNL A   1      32.588  25.957  22.573  1.00  0.00     0.011 C 
ATOM      8  C   UNL A   1      33.801  25.368  23.278  1.00  0.00     0.008 C 
ATOM      9  C   UNL A   1      33.573  25.585  24.766  1.00  0.00     0.081 C 
BRANCH   6  10
ATOM     10  C   UNL A   1      30.391  27.060  23.207  1.00  0.00     0.039 C 
BRANCH  10  11
ATOM     11  C   UNL A   1      30.084  28.441  22.622  1.00  0.00     0.160 C 
BRANCH  11  12
ATOM     12  O   UNL A   1      29.360  29.310  23.490  1.00  0.00    -0.382 OA
BRANCH  12  13
ATOM     13  C   UNL A   1      29.049  30.613  23.014  1.00  0.00     0.156 C 
ATOM     14  C   UNL A   1      27.717  31.156  23.508  1.00  0.00     0.035 C 
ENDBRANCH  12  13
ENDBRANCH  11  12
ENDBRANCH  10  11
ENDBRANCH   6  10
BRANCH   5  15
ATOM     15  N   UNL A   1      31.162  24.872  25.014  1.00  0.00    -0.329 N 
ATOM     16  H   UNL A   1      30.821  24.703  24.067  1.00  0.00     0.347 HD
ATOM     17  H   UNL A   1      30.451  25.151  25.691  1.00  0.00     0.347 HD
BRANCH  15  18
ATOM     18  C   UNL A   1      31.682  23.607  25.523  1.00  0.00     0.183 C 
ATOM     19  C   UNL A   1      31.498  23.345  26.994  1.00  0.00     0.071 C 
ATOM     20  C   UNL A   1      30.726  22.543  25.994  1.00  0.00     0.071 C 
ENDBRANCH  15  18
ENDBRANCH   5  15
ENDBRANCH   3   5
ENDBRANCH   2   3
ENDBRANCH   1   2
BRANCH   1  21
ATOM     21  C   UNL A   1      34.027  29.900  27.171  1.00  0.00     0.275 C 
BRANCH  21  22
ATOM     22  O   UNL A   1      35.313  29.437  27.603  1.00  0.00    -0.458 OA
BRANCH  22  23
ATOM     23  C   UNL A   1      35.891  30.125  28.610  1.00  0.00     0.338 C 
ATOM     24  O   UNL A   1      35.306  30.752  29.490  1.00  0.00    -0.246 OA
BRANCH  23  25
ATOM     25  C   UNL A   1      37.364  29.976  28.551  1.00  0.00     0.060 A 
ATOM     26  C   UNL A   1      38.023  29.856  27.328  1.00  0.00     0.016 A 
ATOM     27  C   UNL A   1      38.092  29.823  29.734  1.00  0.00     0.016 A 
ATOM     28  C   UNL A   1      39.357  29.449  27.286  1.00  0.00     0.010 A 
ATOM     29  C   UNL A   1      39.461  29.523  29.684  1.00  0.00     0.010 A 
ATOM     30  C   UNL A   1      40.105  29.275  28.460  1.00  0.00    -0.014 A 
BRANCH  30  31
ATOM     31  C   UNL A   1      41.518  28.786  28.409  1.00  0.00     0.031 A 
ATOM     32  C   UNL A   1      42.671  29.739  28.629  1.00  0.00     0.074 A 
ATOM     33  C   UNL A   1      41.795  27.482  28.190  1.00  0.00     0.049 A 
ATOM     34  N   UNL A   1      43.945  29.570  28.375  1.00  0.00    -0.248 NA
ATOM     35  C   UNL A   1      42.354  31.059  29.202  1.00  0.00     0.031 C 
ATOM     36  C   UNL A   1      40.806  26.415  28.024  1.00  0.00     0.029 A 
ATOM     37  N   UNL A   1      43.000  26.830  28.069  1.00  0.00    -0.354 N 
ATOM     38  C   UNL A   1      44.564  30.778  28.684  1.00  0.00     0.074 A 
ATOM     39  C   UNL A   1      43.532  31.667  29.169  1.00  0.00     0.031 C 
ATOM     40  C   UNL A   1      41.438  25.243  27.868  1.00  0.00     0.029 A 
ATOM     41  C   UNL A   1      42.871  25.490  27.787  1.00  0.00     0.049 A 
ATOM     42  H   UNL A   1      43.870  27.278  28.174  1.00  0.00     0.167 HD
ATOM     43  C   UNL A   1      45.869  31.116  28.562  1.00  0.00     0.037 A 
ATOM     44  C   UNL A   1      43.780  24.566  27.415  1.00  0.00     0.037 A 
ATOM     45  C   UNL A   1      46.909  30.209  28.148  1.00  0.00     0.049 A 
ATOM     46  C   UNL A   1      45.211  24.972  27.231  1.00  0.00     0.074 A 
ATOM     47  C   UNL A   1      48.267  30.455  28.024  1.00  0.00     0.029 A 
ATOM     48  N   UNL A   1      46.712  28.881  27.806  1.00  0.00    -0.354 N 
ATOM     49  N   UNL A   1      45.762  26.145  27.421  1.00  0.00    -0.248 NA
ATOM     50  C   UNL A   1      46.134  23.939  26.743  1.00  0.00     0.031 C 
ATOM     51  C   UNL A   1      48.886  29.284  27.574  1.00  0.00     0.029 A 
ATOM     52  C   UNL A   1      47.919  28.300  27.453  1.00  0.00     0.049 A 
ATOM     53  H   UNL A   1      45.843  28.419  27.812  1.00  0.00     0.167 HD
ATOM     54  C   UNL A   1      47.094  25.999  27.057  1.00  0.00     0.074 A 
ATOM     55  C   UNL A   1      47.273  24.615  26.667  1.00  0.00     0.031 C 
ATOM     56  C   UNL A   1      48.078  26.930  27.038  1.00  0.00     0.037 A 
BRANCH  43  57
ATOM     57  C   UNL A   1      46.263  32.541  28.838  1.00  0.00     0.058 A 
ATOM     58  C   UNL A   1      46.242  33.529  27.844  1.00  0.00     0.135 A 
ATOM     59  C   UNL A   1      46.580  32.936  30.150  1.00  0.00     0.135 A 
ATOM     60  F   UNL A   1      45.964  33.203  26.572  1.00  0.00    -0.206 F 
ATOM     61  C   UNL A   1      46.518  34.862  28.139  1.00  0.00     0.059 A 
ATOM     62  C   UNL A   1      46.841  34.264  30.471  1.00  0.00     0.059 A 
ATOM     63  F   UNL A   1      46.618  32.027  31.136  1.00  0.00    -0.206 F 
ATOM     64  C   UNL A   1      46.811  35.221  29.458  1.00  0.00     0.060 A 
BRANCH  64  65
ATOM     65  S   UNL A   1      47.115  36.960  29.838  1.00  0.00     0.124 S 
ATOM     66  O   UNL A   1      46.953  36.973  31.289  1.00  0.00    -0.237 OA
ATOM     67  O   UNL A   1      48.477  37.155  29.351  1.00  0.00    -0.237 OA
ATOM     68  O   UNL A   1      46.078  37.658  29.084  1.00  0.00    -0.744 OA
ENDBRANCH  64  65
ENDBRANCH  43  57
BRANCH  44  69
ATOM     69  C   UNL A   1      43.320  23.193  27.083  1.00  0.00     0.058 A 
ATOM     70  C   UNL A   1      43.236  22.754  25.755  1.00  0.00     0.135 A 
ATOM     71  C   UNL A   1      43.023  22.272  28.100  1.00  0.00     0.135 A 
ATOM     72  F   UNL A   1      43.491  23.604  24.749  1.00  0.00    -0.206 F 
ATOM     73  C   UNL A   1      42.896  21.441  25.447  1.00  0.00     0.059 A 
ATOM     74  C   UNL A   1      42.710  20.949  27.819  1.00  0.00     0.059 A 
ATOM     75  F   UNL A   1      43.097  22.645  29.387  1.00  0.00    -0.206 F 
ATOM     76  C   UNL A   1      42.648  20.541  26.487  1.00  0.00     0.060 A 
BRANCH  76  77
ATOM     77  S   UNL A   1      42.327  18.808  26.096  1.00  0.00     0.124 S 
ATOM     78  O   UNL A   1      43.277  18.572  25.015  1.00  0.00    -0.237 OA
ATOM     79  O   UNL A   1      42.620  18.141  27.361  1.00  0.00    -0.237 OA
ATOM     80  O   UNL A   1      40.918  18.811  25.713  1.00  0.00    -0.744 OA
ENDBRANCH  76  77
ENDBRANCH  44  69
BRANCH  56  81
ATOM     81  C   UNL A   1      49.432  26.480  26.574  1.00  0.00     0.058 A 
ATOM     82  C   UNL A   1      50.307  25.803  27.436  1.00  0.00     0.135 A 
ATOM     83  C   UNL A   1      49.853  26.721  25.258  1.00  0.00     0.135 A 
ATOM     84  F   UNL A   1      49.951  25.556  28.706  1.00  0.00    -0.206 F 
ATOM     85  C   UNL A   1      51.572  25.404  27.015  1.00  0.00     0.059 A 
ATOM     86  C   UNL A   1      51.106  26.314  24.811  1.00  0.00     0.059 A 
ATOM     87  F   UNL A   1      49.047  27.359  24.396  1.00  0.00    -0.206 F 
ATOM     88  C   UNL A   1      51.965  25.671  25.702  1.00  0.00     0.060 A 
BRANCH  88  89
ATOM     89  S   UNL A   1      53.610  25.157  25.166  1.00  0.00     0.124 S 
ATOM     90  O   UNL A   1      53.542  23.712  25.359  1.00  0.00    -0.237 OA
ATOM     91  O   UNL A   1      53.646  25.609  23.779  1.00  0.00    -0.237 OA
ATOM     92  O   UNL A   1      54.501  25.871  26.074  1.00  0.00    -0.744 OA
ENDBRANCH  88  89
ENDBRANCH  56  81
ENDBRANCH  30  31
ENDBRANCH  23  25
ENDBRANCH  22  23
ENDBRANCH  21  22
ENDBRANCH   1  21
TORSDOF 20
ENDMDL
MODEL 2
REMARK VINA RESULT:      -9.9      4.112     10.002
REMARK SMILES CCOCC[C@@H]1CCC[C@@]1([NH2+]C1CC1)C(=O)OCCOC(=O)c1ccc(-c2c3nc(c(-c4c(F)cc(S(=O)(=O)[O-])cc4F)c4ccc([nH]4)c(-c4c(F)cc(S(=O)(=O)[O-])cc4F)c4nc(c(-c5c(F)cc(S(=O)(=O)[O-])cc5F)c5ccc2[nH]5)C=C4)C=C3)cc1
REMARK SMILES IDX 18 1 17 2 15 3 16 4 10 5 6 6 7 7 8 8 9 9 5 10 4 11 3 12 2 13
REMARK SMILES IDX 1 14 11 15 12 18 13 19 14 20 19 21 20 22 21 23 22 24 23 25
REMARK SMILES IDX 24 26 88 27 25 28 87 29 26 30 27 31 28 32 81 33 29 34 86 35
REMARK SMILES IDX 80 36 82 37 30 38 85 39 79 40 78 41 31 43 65 44 44 45 64 46
REMARK SMILES IDX 45 47 48 48 63 49 83 50 46 51 47 52 62 54 84 55 49 56 32 57
REMARK SMILES IDX 33 58 42 59 34 60 35 61 41 62 43 63 36 64 37 65 38 66 39 67
REMARK SMILES IDX 40 68 66 69 67 70 76 71 68 72 69 73 75 74 77 75 70 76 71 77
REMARK SMILES IDX 72 78 73 79 74 80 50 81 51 82 60 83 52 84 53 85 59 86 61 87
REMARK SMILES IDX 54 88 55 89 56 90 57 91 58 92
REMARK H PARENT 11 16 11 17 82 42 48 53
REMARK Flexibility Score: inf
ROOT
ATOM      1  C   UNL A   1      36.132  32.902  33.631  1.00  0.00     0.274 C 
ENDROOT
BRANCH   1   2
ATOM      2  O   UNL A   1      36.047  33.728  32.447  1.00  0.00    -0.457 OA
BRANCH   2   3
ATOM      3  C   UNL A   1      34.950  33.536  31.661  1.00  0.00     0.368 C 
ATOM      4  O   UNL A   1      33.833  33.288  32.106  1.00  0.00    -0.245 OA
BRANCH   3   5
ATOM      5  C   UNL A   1      35.281  33.559  30.147  1.00  0.00     0.197 C 
ATOM      6  C   UNL A   1      36.752  33.107  29.893  1.00  0.00     0.065 C 
ATOM      7  C   UNL A   1      36.718  32.582  28.447  1.00  0.00     0.011 C 
ATOM      8  C   UNL A   1      35.348  31.946  28.268  1.00  0.00     0.008 C 
ATOM      9  C   UNL A   1      34.507  32.409  29.448  1.00  0.00     0.081 C 
BRANCH   6  10
ATOM     10  C   UNL A   1      37.858  34.180  30.058  1.00  0.00     0.039 C 
BRANCH  10  11
ATOM     11  C   UNL A   1      39.057  33.784  30.924  1.00  0.00     0.160 C 
BRANCH  11  12
ATOM     12  O   UNL A   1      39.225  34.564  32.105  1.00  0.00    -0.382 OA
BRANCH  12  13
ATOM     13  C   UNL A   1      40.156  34.103  33.076  1.00  0.00     0.156 C 
ATOM     14  C   UNL A   1      40.961  32.889  32.639  1.00  0.00     0.035 C 
ENDBRANCH  12  13
ENDBRANCH  11  12
ENDBRANCH  10  11
ENDBRANCH   6  10
BRANCH   5  15
ATOM     15  N   UNL A   1      35.053  34.876  29.514  1.00  0.00    -0.329 N 
ATOM     16  H   UNL A   1      35.634  34.917  28.677  1.00  0.00     0.347 HD
ATOM     17  H   UNL A   1      35.282  35.556  30.239  1.00  0.00     0.347 HD
BRANCH  15  18
ATOM     18  C   UNL A   1      33.688  35.205  29.116  1.00  0.00     0.183 C 
ATOM     19  C   UNL A   1      32.908  36.089  30.051  1.00  0.00     0.071 C 
ATOM     20  C   UNL A   1      33.346  36.617  28.721  1.00  0.00     0.071 C 
ENDBRANCH  15  18
ENDBRANCH   5  15
ENDBRANCH   3   5
ENDBRANCH   2   3
ENDBRANCH   1   2
BRANCH   1  21
ATOM     21  C   UNL A   1      37.220  31.844  33.492  1.00  0.00     0.275 C 
BRANCH  21  22
ATOM     22  O   UNL A   1      36.731  30.793  32.649  1.00  0.00    -0.458 OA
BRANCH  22  23
ATOM     23  C   UNL A   1      37.394  29.619  32.708  1.00  0.00     0.338 C 
ATOM     24  O   UNL A   1      37.015  28.599  33.278  1.00  0.00    -0.246 OA
BRANCH  23  25
ATOM     25  C   UNL A   1      38.650  29.702  31.926  1.00  0.00     0.060 A 
ATOM     26  C   UNL A   1      38.634  30.075  30.583  1.00  0.00     0.016 A 
ATOM     27  C   UNL A   1      39.852  29.279  32.499  1.00  0.00     0.016 A 
ATOM     28  C   UNL A   1      39.767  29.892  29.789  1.00  0.00     0.010 A 
ATOM     29  C   UNL A   1      41.016  29.203  31.721  1.00  0.00     0.010 A 
ATOM     30  C   UNL A   1      40.981  29.455  30.338  1.00  0.00    -0.014 A 
BRANCH  30  31
ATOM     31  C   UNL A   1      42.176  29.208  29.473  1.00  0.00     0.031 A 
ATOM     32  C   UNL A   1      42.361  27.878  28.778  1.00  0.00     0.074 A 
ATOM     33  C   UNL A   1      43.101  30.172  29.273  1.00  0.00     0.049 A 
ATOM     34  N   UNL A   1      43.431  27.384  28.207  1.00  0.00    -0.248 NA
ATOM     35  C   UNL A   1      41.195  26.979  28.722  1.00  0.00     0.031 C 
ATOM     36  C   UNL A   1      43.047  31.533  29.811  1.00  0.00     0.029 A 
ATOM     37  N   UNL A   1      44.277  30.152  28.559  1.00  0.00    -0.354 N 
ATOM     38  C   UNL A   1      43.091  26.099  27.795  1.00  0.00     0.074 A 
ATOM     39  C   UNL A   1      41.707  25.894  28.158  1.00  0.00     0.031 C 
ATOM     40  C   UNL A   1      44.108  32.226  29.375  1.00  0.00     0.029 A 
ATOM     41  C   UNL A   1      44.987  31.326  28.641  1.00  0.00     0.049 A 
ATOM     42  H   UNL A   1      44.579  29.372  28.039  1.00  0.00     0.167 HD
ATOM     43  C   UNL A   1      43.867  25.173  27.183  1.00  0.00     0.037 A 
ATOM     44  C   UNL A   1      46.241  31.638  28.255  1.00  0.00     0.037 A 
ATOM     45  C   UNL A   1      45.224  25.401  26.757  1.00  0.00     0.049 A 
ATOM     46  C   UNL A   1      47.103  30.584  27.630  1.00  0.00     0.074 A 
ATOM     47  C   UNL A   1      46.079  24.531  26.101  1.00  0.00     0.029 A 
ATOM     48  N   UNL A   1      45.919  26.587  26.929  1.00  0.00    -0.354 N 
ATOM     49  N   UNL A   1      46.804  29.340  27.346  1.00  0.00    -0.248 NA
ATOM     50  C   UNL A   1      48.486  30.963  27.310  1.00  0.00     0.031 C 
ATOM     51  C   UNL A   1      47.302  25.180  25.907  1.00  0.00     0.029 A 
ATOM     52  C   UNL A   1      47.198  26.466  26.409  1.00  0.00     0.049 A 
ATOM     53  H   UNL A   1      45.558  27.397  27.358  1.00  0.00     0.167 HD
ATOM     54  C   UNL A   1      47.967  28.781  26.833  1.00  0.00     0.074 A 
ATOM     55  C   UNL A   1      48.965  29.831  26.814  1.00  0.00     0.031 C 
ATOM     56  C   UNL A   1      48.190  27.509  26.423  1.00  0.00     0.037 A 
BRANCH  43  57
ATOM     57  C   UNL A   1      43.295  23.799  26.965  1.00  0.00     0.058 A 
ATOM     58  C   UNL A   1      42.859  23.361  25.706  1.00  0.00     0.135 A 
ATOM     59  C   UNL A   1      43.272  22.877  28.026  1.00  0.00     0.135 A 
ATOM     60  F   UNL A   1      42.843  24.207  24.664  1.00  0.00    -0.206 F 
ATOM     61  C   UNL A   1      42.421  22.055  25.505  1.00  0.00     0.059 A 
ATOM     62  C   UNL A   1      42.855  21.562  27.843  1.00  0.00     0.059 A 
ATOM     63  F   UNL A   1      43.674  23.248  29.250  1.00  0.00    -0.206 F 
ATOM     64  C   UNL A   1      42.429  21.160  26.579  1.00  0.00     0.060 A 
BRANCH  64  65
ATOM     65  S   UNL A   1      41.910  19.454  26.292  1.00  0.00     0.124 S 
ATOM     66  O   UNL A   1      42.686  19.109  25.105  1.00  0.00    -0.237 OA
ATOM     67  O   UNL A   1      42.312  18.791  27.529  1.00  0.00    -0.237 OA
ATOM     68  O   UNL A   1      40.468  19.568  26.088  1.00  0.00    -0.744 OA
ENDBRANCH  64  65
ENDBRANCH  43  57
BRANCH  44  69
ATOM     69  C   UNL A   1      46.778  32.988  28.566  1.00  0.00     0.058 A 
ATOM     70  C   UNL A   1      47.461  33.243  29.762  1.00  0.00     0.135 A 
ATOM     71  C   UNL A   1      46.674  34.031  27.632  1.00  0.00     0.135 A 
ATOM     72  F   UNL A   1      47.568  32.283  30.692  1.00  0.00    -0.206 F 
ATOM     73  C   UNL A   1      48.045  34.481  30.012  1.00  0.00     0.059 A 
ATOM     74  C   UNL A   1      47.273  35.266  27.846  1.00  0.00     0.059 A 
ATOM     75  F   UNL A   1      46.035  33.831  26.468  1.00  0.00    -0.206 F 
ATOM     76  C   UNL A   1      47.957  35.482  29.041  1.00  0.00     0.060 A 
BRANCH  76  77
ATOM     77  S   UNL A   1      48.818  37.047  29.309  1.00  0.00     0.124 S 
ATOM     78  O   UNL A   1      49.869  36.647  30.236  1.00  0.00    -0.237 OA
ATOM     79  O   UNL A   1      49.255  37.400  27.961  1.00  0.00    -0.237 OA
ATOM     80  O   UNL A   1      47.775  37.906  29.863  1.00  0.00    -0.744 OA
ENDBRANCH  76  77
ENDBRANCH  44  69
BRANCH  56  81
ATOM     81  C   UNL A   1      49.568  27.185  25.927  1.00  0.00     0.058 A 
ATOM     82  C   UNL A   1      50.570  26.741  26.803  1.00  0.00     0.135 A 
ATOM     83  C   UNL A   1      49.888  27.313  24.568  1.00  0.00     0.135 A 
ATOM     84  F   UNL A   1      50.313  26.611  28.114  1.00  0.00    -0.206 F 
ATOM     85  C   UNL A   1      51.856  26.462  26.351  1.00  0.00     0.059 A 
ATOM     86  C   UNL A   1      51.162  27.021  24.090  1.00  0.00     0.059 A 
ATOM     87  F   UNL A   1      48.960  27.727  23.691  1.00  0.00    -0.206 F 
ATOM     88  C   UNL A   1      52.143  26.612  24.993  1.00  0.00     0.060 A 
BRANCH  88  89
ATOM     89  S   UNL A   1      53.815  26.256  24.415  1.00  0.00     0.124 S 
ATOM     90  O   UNL A   1      54.237  25.225  25.357  1.00  0.00    -0.237 OA
ATOM     91  O   UNL A   1      53.587  25.806  23.045  1.00  0.00    -0.237 OA
ATOM     92  O   UNL A   1      54.498  27.539  24.540  1.00  0.00    -0.744 OA
ENDBRANCH  88  89
ENDBRANCH  56  81
ENDBRANCH  30  31
ENDBRANCH  23  25
ENDBRANCH  22  23
ENDBRANCH  21  22
ENDBRANCH   1  21
TORSDOF 20
ENDMDL
MODEL 3
REMARK VINA RESULT:      -9.8      5.777      9.829
REMARK SMILES CCOCC[C@@H]1CCC[C@@]1([NH2+]C1CC1)C(=O)OCCOC(=O)c1ccc(-c2c3nc(c(-c4c(F)cc(S(=O)(=O)[O-])cc4F)c4ccc([nH]4)c(-c4c(F)cc(S(=O)(=O)[O-])cc4F)c4nc(c(-c5c(F)cc(S(=O)(=O)[O-])cc5F)c5ccc2[nH]5)C=C4)C=C3)cc1
REMARK SMILES IDX 18 1 17 2 15 3 16 4 10 5 6 6 7 7 8 8 9 9 5 10 4 11 3 12 2 13
REMARK SMILES IDX 1 14 11 15 12 18 13 19 14 20 19 21 20 22 21 23 22 24 23 25
REMARK SMILES IDX 24 26 88 27 25 28 87 29 26 30 27 31 28 32 81 33 29 34 86 35
REMARK SMILES IDX 80 36 82 37 30 38 85 39 79 40 78 41 31 43 65 44 44 45 64 46
REMARK SMILES IDX 45 47 48 48 63 49 83 50 46 51 47 52 62 54 84 55 49 56 32 57
REMARK SMILES IDX 33 58 42 59 34 60 35 61 41 62 43 63 36 64 37 65 38 66 39 67
REMARK SMILES IDX 40 68 66 69 67 70 76 71 68 72 69 73 75 74 77 75 70 76 71 77
REMARK SMILES IDX 72 78 73 79 74 80 50 81 51 82 60 83 52 84 53 85 59 86 61 87
REMARK SMILES IDX 54 88 55 89 56 90 57 91 58 92
REMARK H PARENT 11 16 11 17 82 42 48 53
REMARK Flexibility Score: inf
ROOT
ATOM      1  C   UNL A   1      31.770  28.846  27.490  1.00  0.00     0.274 C 
ENDROOT
BRANCH   1   2
ATOM      2  O   UNL A   1      31.423  27.875  26.476  1.00  0.00    -0.457 OA
BRANCH   2   3
ATOM      3  C   UNL A   1      32.467  27.227  25.885  1.00  0.00     0.368 C 
ATOM      4  O   UNL A   1      33.432  26.790  26.507  1.00  0.00    -0.245 OA
BRANCH   3   5
ATOM      5  C   UNL A   1      32.360  27.194  24.340  1.00  0.00     0.197 C 
ATOM      6  C   UNL A   1      31.901  28.577  23.785  1.00  0.00     0.065 C 
ATOM      7  C   UNL A   1      32.447  28.582  22.347  1.00  0.00     0.011 C 
ATOM      8  C   UNL A   1      33.764  27.824  22.398  1.00  0.00     0.008 C 
ATOM      9  C   UNL A   1      33.790  27.109  23.741  1.00  0.00     0.081 C 
BRANCH   6  10
ATOM     10  C   UNL A   1      30.380  28.872  23.793  1.00  0.00     0.039 C 
BRANCH  10  11
ATOM     11  C   UNL A   1      29.677  28.828  22.434  1.00  0.00     0.160 C 
BRANCH  11  12
ATOM     12  O   UNL A   1      28.778  29.907  22.191  1.00  0.00    -0.382 OA
BRANCH  12  13
ATOM     13  C   UNL A   1      28.946  31.094  22.956  1.00  0.00     0.156 C 
ATOM     14  C   UNL A   1      27.651  31.663  23.515  1.00  0.00     0.035 C 
ENDBRANCH  12  13
ENDBRANCH  11  12
ENDBRANCH  10  11
ENDBRANCH   6  10
BRANCH   5  15
ATOM     15  N   UNL A   1      31.459  26.136  23.834  1.00  0.00    -0.329 N 
ATOM     16  H   UNL A   1      31.285  26.329  22.848  1.00  0.00     0.347 HD
ATOM     17  H   UNL A   1      30.639  26.182  24.440  1.00  0.00     0.347 HD
BRANCH  15  18
ATOM     18  C   UNL A   1      31.918  24.755  23.936  1.00  0.00     0.183 C 
ATOM     19  C   UNL A   1      31.154  23.857  24.872  1.00  0.00     0.071 C 
ATOM     20  C   UNL A   1      31.060  23.642  23.394  1.00  0.00     0.071 C 
ENDBRANCH  15  18
ENDBRANCH   5  15
ENDBRANCH   3   5
ENDBRANCH   2   3
ENDBRANCH   1   2
BRANCH   1  21
ATOM     21  C   UNL A   1      32.043  30.214  26.878  1.00  0.00     0.275 C 
BRANCH  21  22
ATOM     22  O   UNL A   1      33.460  30.370  26.720  1.00  0.00    -0.458 OA
BRANCH  22  23
ATOM     23  C   UNL A   1      34.031  31.383  27.405  1.00  0.00     0.338 C 
ATOM     24  O   UNL A   1      33.525  32.477  27.639  1.00  0.00    -0.246 OA
BRANCH  23  25
ATOM     25  C   UNL A   1      35.365  30.973  27.904  1.00  0.00     0.060 A 
ATOM     26  C   UNL A   1      35.617  29.651  28.271  1.00  0.00     0.016 A 
ATOM     27  C   UNL A   1      36.346  31.941  28.134  1.00  0.00     0.016 A 
ATOM     28  C   UNL A   1      36.771  29.329  28.986  1.00  0.00     0.010 A 
ATOM     29  C   UNL A   1      37.553  31.587  28.753  1.00  0.00     0.010 A 
ATOM     30  C   UNL A   1      37.764  30.285  29.240  1.00  0.00    -0.014 A 
BRANCH  30  31
ATOM     31  C   UNL A   1      38.973  29.946  30.053  1.00  0.00     0.031 A 
ATOM     32  C   UNL A   1      40.002  28.968  29.532  1.00  0.00     0.074 A 
ATOM     33  C   UNL A   1      39.185  30.520  31.258  1.00  0.00     0.049 A 
ATOM     34  N   UNL A   1      40.964  28.356  30.176  1.00  0.00    -0.248 NA
ATOM     35  C   UNL A   1      39.939  28.625  28.100  1.00  0.00     0.031 C 
ATOM     36  C   UNL A   1      38.331  31.531  31.884  1.00  0.00     0.029 A 
ATOM     37  N   UNL A   1      40.191  30.331  32.176  1.00  0.00    -0.354 N 
ATOM     38  C   UNL A   1      41.568  27.507  29.253  1.00  0.00     0.074 A 
ATOM     39  C   UNL A   1      40.882  27.697  27.995  1.00  0.00     0.031 C 
ATOM     40  C   UNL A   1      38.868  31.905  33.053  1.00  0.00     0.029 A 
ATOM     41  C   UNL A   1      40.028  31.066  33.327  1.00  0.00     0.049 A 
ATOM     42  H   UNL A   1      40.955  29.728  32.024  1.00  0.00     0.167 HD
ATOM     43  C   UNL A   1      42.591  26.640  29.442  1.00  0.00     0.037 A 
ATOM     44  C   UNL A   1      40.671  31.023  34.511  1.00  0.00     0.037 A 
ATOM     45  C   UNL A   1      43.322  26.502  30.676  1.00  0.00     0.049 A 
ATOM     46  C   UNL A   1      41.763  30.019  34.720  1.00  0.00     0.074 A 
ATOM     47  C   UNL A   1      44.394  25.670  30.953  1.00  0.00     0.029 A 
ATOM     48  N   UNL A   1      43.068  27.222  31.832  1.00  0.00    -0.354 N 
ATOM     49  N   UNL A   1      42.250  29.146  33.873  1.00  0.00    -0.248 NA
ATOM     50  C   UNL A   1      42.365  29.965  36.059  1.00  0.00     0.031 C 
ATOM     51  C   UNL A   1      44.767  25.863  32.287  1.00  0.00     0.029 A 
ATOM     52  C   UNL A   1      43.950  26.840  32.830  1.00  0.00     0.049 A 
ATOM     53  H   UNL A   1      42.364  27.903  31.931  1.00  0.00     0.167 HD
ATOM     54  C   UNL A   1      43.202  28.425  34.580  1.00  0.00     0.074 A 
ATOM     55  C   UNL A   1      43.247  28.985  35.915  1.00  0.00     0.031 C 
ATOM     56  C   UNL A   1      43.965  27.385  34.163  1.00  0.00     0.037 A 
BRANCH  43  57
ATOM     57  C   UNL A   1      42.970  25.730  28.307  1.00  0.00     0.058 A 
ATOM     58  C   UNL A   1      44.131  25.926  27.546  1.00  0.00     0.135 A 
ATOM     59  C   UNL A   1      42.197  24.586  28.042  1.00  0.00     0.135 A 
ATOM     60  F   UNL A   1      44.894  27.012  27.745  1.00  0.00    -0.206 F 
ATOM     61  C   UNL A   1      44.515  25.019  26.561  1.00  0.00     0.059 A 
ATOM     62  C   UNL A   1      42.571  23.657  27.076  1.00  0.00     0.059 A 
ATOM     63  F   UNL A   1      41.074  24.355  28.740  1.00  0.00    -0.206 F 
ATOM     64  C   UNL A   1      43.731  23.884  26.338  1.00  0.00     0.060 A 
BRANCH  64  65
ATOM     65  S   UNL A   1      44.268  22.688  25.096  1.00  0.00     0.124 S 
ATOM     66  O   UNL A   1      43.062  21.883  24.925  1.00  0.00    -0.237 OA
ATOM     67  O   UNL A   1      44.624  23.544  23.968  1.00  0.00    -0.237 OA
ATOM     68  O   UNL A   1      45.389  22.009  25.740  1.00  0.00    -0.744 OA
ENDBRANCH  64  65
ENDBRANCH  43  57
BRANCH  44  69
ATOM     69  C   UNL A   1      40.202  31.893  35.620  1.00  0.00     0.058 A 
ATOM     70  C   UNL A   1      39.067  31.566  36.374  1.00  0.00     0.135 A 
ATOM     71  C   UNL A   1      40.929  33.037  35.988  1.00  0.00     0.135 A 
ATOM     72  F   UNL A   1      38.331  30.494  36.047  1.00  0.00    -0.206 F 
ATOM     73  C   UNL A   1      38.682  32.330  37.470  1.00  0.00     0.059 A 
ATOM     74  C   UNL A   1      40.581  33.799  37.096  1.00  0.00     0.059 A 
ATOM     75  F   UNL A   1      42.027  33.386  35.300  1.00  0.00    -0.206 F 
ATOM     76  C   UNL A   1      39.454  33.437  37.832  1.00  0.00     0.060 A 
BRANCH  76  77
ATOM     77  S   UNL A   1      39.028  34.358  39.326  1.00  0.00     0.124 S 
ATOM     78  O   UNL A   1      37.806  33.683  39.747  1.00  0.00    -0.237 OA
ATOM     79  O   UNL A   1      40.199  34.145  40.171  1.00  0.00    -0.237 OA
ATOM     80  O   UNL A   1      38.863  35.723  38.837  1.00  0.00    -0.744 OA
ENDBRANCH  76  77
ENDBRANCH  44  69
BRANCH  56  81
ATOM     81  C   UNL A   1      44.904  26.785  35.166  1.00  0.00     0.058 A 
ATOM     82  C   UNL A   1      44.541  25.658  35.919  1.00  0.00     0.135 A 
ATOM     83  C   UNL A   1      46.178  27.334  35.371  1.00  0.00     0.135 A 
ATOM     84  F   UNL A   1      43.330  25.102  35.763  1.00  0.00    -0.206 F 
ATOM     85  C   UNL A   1      45.401  25.112  36.866  1.00  0.00     0.059 A 
ATOM     86  C   UNL A   1      47.062  26.793  36.300  1.00  0.00     0.059 A 
ATOM     87  F   UNL A   1      46.574  28.407  34.668  1.00  0.00    -0.206 F 
ATOM     88  C   UNL A   1      46.657  25.692  37.054  1.00  0.00     0.060 A 
BRANCH  88  89
ATOM     89  S   UNL A   1      47.765  24.983  38.291  1.00  0.00     0.124 S 
ATOM     90  O   UNL A   1      48.836  25.973  38.324  1.00  0.00    -0.237 OA
ATOM     91  O   UNL A   1      46.918  24.925  39.478  1.00  0.00    -0.237 OA
ATOM     92  O   UNL A   1      48.123  23.688  37.721  1.00  0.00    -0.744 OA
ENDBRANCH  88  89
ENDBRANCH  56  81
ENDBRANCH  30  31
ENDBRANCH  23  25
ENDBRANCH  22  23
ENDBRANCH  21  22
ENDBRANCH   1  21
TORSDOF 20
ENDMDL
