MODEL 1
REMARK VINA RESULT:     -11.2      0.000      0.000
REMARK SMILES CN(CC(=O)OCCOC(=O)c1ccc(-c2c3nc(c(-c4c(F)cc(S(=O)(=O)[O-])cc4F)c4ccc([nH]4)c(-c4c(F)cc(S(=O)(=O)[O-])cc4F)c4nc(c(-c5c(F)cc(S(=O)(=O)[O-])cc5F)c5ccc2[nH]5)C=C4)C=C3)cc1)c1ncc(-c2nnnn2-c2ccccc2)c(-c2ccc(Cl)cc2)n1
REMARK SMILES IDX 7 1 6 2 4 3 5 4 3 5 2 6 1 7 78 8 79 9 101 10 80 11 93 12
REMARK SMILES IDX 81 13 94 14 95 15 100 16 96 17 99 18 97 19 98 20 82 21 83 22
REMARK SMILES IDX 86 23 84 24 85 25 87 26 88 27 92 28 89 29 91 30 90 31 8 32
REMARK SMILES IDX 9 33 10 34 11 35 12 36 13 37 77 38 14 39 76 40 15 41 16 42
REMARK SMILES IDX 17 43 70 44 18 45 75 46 69 47 71 48 19 49 74 50 68 51 67 52
REMARK SMILES IDX 20 54 54 55 33 56 53 57 34 58 37 59 52 60 72 61 35 62 36 63
REMARK SMILES IDX 51 65 73 66 38 67 21 68 22 69 31 70 23 71 24 72 30 73 32 74
REMARK SMILES IDX 25 75 26 76 27 77 28 78 29 79 55 80 56 81 65 82 57 83 58 84
REMARK SMILES IDX 64 85 66 86 59 87 60 88 61 89 62 90 63 91 39 92 40 93 49 94
REMARK SMILES IDX 41 95 42 96 48 97 50 98 43 99 44 100 45 101 46 102 47 103
REMARK H PARENT 71 53 37 64
REMARK Flexibility Score: inf
ROOT
ATOM      1  C   UNL A   1      34.289  33.494  29.076  1.00  0.00     0.274 C 
ENDROOT
BRANCH   1   2
ATOM      2  O   UNL A   1      34.560  34.819  29.569  1.00  0.00    -0.461 OA
BRANCH   2   3
ATOM      3  C   UNL A   1      33.474  35.509  29.999  1.00  0.00     0.325 C 
ATOM      4  O   UNL A   1      32.712  36.123  29.250  1.00  0.00    -0.250 OA
BRANCH   3   5
ATOM      5  C   UNL A   1      33.227  35.491  31.500  1.00  0.00     0.241 C 
BRANCH   5   6
ATOM      6  N   UNL A   1      34.319  35.902  32.395  1.00  0.00    -0.333 N 
ATOM      7  C   UNL A   1      33.978  36.836  33.451  1.00  0.00     0.147 C 
BRANCH   6   8
ATOM      8  C   UNL A   1      35.137  34.845  32.768  1.00  0.00     0.226 A 
ATOM      9  N   UNL A   1      34.596  33.874  33.506  1.00  0.00    -0.221 NA
ATOM     10  N   UNL A   1      36.431  34.841  32.408  1.00  0.00    -0.212 NA
ATOM     11  C   UNL A   1      35.386  32.844  33.858  1.00  0.00     0.129 A 
ATOM     12  C   UNL A   1      37.224  33.816  32.824  1.00  0.00     0.087 A 
ATOM     13  C   UNL A   1      36.725  32.743  33.543  1.00  0.00     0.066 A 
BRANCH  12  14
ATOM     14  C   UNL A   1      38.636  33.947  32.429  1.00  0.00     0.001 A 
ATOM     15  C   UNL A   1      39.070  33.483  31.175  1.00  0.00     0.012 A 
ATOM     16  C   UNL A   1      39.583  34.545  33.279  1.00  0.00     0.012 A 
ATOM     17  C   UNL A   1      40.403  33.629  30.773  1.00  0.00     0.021 A 
ATOM     18  C   UNL A   1      40.916  34.690  32.880  1.00  0.00     0.021 A 
ATOM     19  C   UNL A   1      41.321  34.231  31.629  1.00  0.00     0.041 A 
ATOM     20  Cl  UNL A   1      42.964  34.398  31.151  1.00  0.00    -0.084 Cl
ENDBRANCH  12  14
BRANCH  13  21
ATOM     21  C   UNL A   1      37.503  31.597  33.987  1.00  0.00     0.190 A 
ATOM     22  N   UNL A   1      37.644  30.459  33.335  1.00  0.00    -0.108 NA
ATOM     23  N   UNL A   1      38.367  31.570  35.076  1.00  0.00    -0.193 N 
ATOM     24  N   UNL A   1      38.666  29.784  33.946  1.00  0.00    -0.023 NA
ATOM     25  N   UNL A   1      39.155  30.479  34.962  1.00  0.00    -0.040 NA
BRANCH  23  26
ATOM     26  C   UNL A   1      38.510  32.483  36.149  1.00  0.00     0.069 A 
ATOM     27  C   UNL A   1      39.628  33.326  36.186  1.00  0.00     0.028 A 
ATOM     28  C   UNL A   1      37.536  32.572  37.154  1.00  0.00     0.028 A 
ATOM     29  C   UNL A   1      39.726  34.302  37.178  1.00  0.00     0.002 A 
ATOM     30  C   UNL A   1      37.653  33.537  38.155  1.00  0.00     0.002 A 
ATOM     31  C   UNL A   1      38.737  34.413  38.156  1.00  0.00     0.000 A 
ENDBRANCH  23  26
ENDBRANCH  13  21
ENDBRANCH   6   8
ENDBRANCH   5   6
ENDBRANCH   3   5
ENDBRANCH   2   3
ENDBRANCH   1   2
BRANCH   1  32
ATOM     32  C   UNL A   1      34.819  32.435  30.042  1.00  0.00     0.275 C 
BRANCH  32  33
ATOM     33  O   UNL A   1      36.143  32.028  29.654  1.00  0.00    -0.458 OA
BRANCH  33  34
ATOM     34  C   UNL A   1      36.199  30.900  28.910  1.00  0.00     0.338 C 
ATOM     35  O   UNL A   1      35.263  30.342  28.359  1.00  0.00    -0.246 OA
BRANCH  34  36
ATOM     36  C   UNL A   1      37.573  30.358  28.880  1.00  0.00     0.060 A 
ATOM     37  C   UNL A   1      38.387  30.311  30.016  1.00  0.00     0.016 A 
ATOM     38  C   UNL A   1      38.075  29.954  27.640  1.00  0.00     0.016 A 
ATOM     39  C   UNL A   1      39.720  29.902  29.900  1.00  0.00     0.010 A 
ATOM     40  C   UNL A   1      39.388  29.500  27.535  1.00  0.00     0.010 A 
ATOM     41  C   UNL A   1      40.228  29.494  28.657  1.00  0.00    -0.014 A 
BRANCH  41  42
ATOM     42  C   UNL A   1      41.628  29.029  28.499  1.00  0.00     0.031 A 
ATOM     43  C   UNL A   1      42.761  30.019  28.530  1.00  0.00     0.074 A 
ATOM     44  C   UNL A   1      41.864  27.729  28.241  1.00  0.00     0.049 A 
ATOM     45  N   UNL A   1      44.024  29.839  28.237  1.00  0.00    -0.248 NA
ATOM     46  C   UNL A   1      42.427  31.395  28.929  1.00  0.00     0.031 C 
ATOM     47  C   UNL A   1      40.841  26.683  28.187  1.00  0.00     0.029 A 
ATOM     48  N   UNL A   1      43.031  27.071  27.951  1.00  0.00    -0.354 N 
ATOM     49  C   UNL A   1      44.631  31.080  28.392  1.00  0.00     0.074 A 
ATOM     50  C   UNL A   1      43.595  32.008  28.796  1.00  0.00     0.031 C 
ATOM     51  C   UNL A   1      41.425  25.515  27.879  1.00  0.00     0.029 A 
ATOM     52  C   UNL A   1      42.851  25.739  27.664  1.00  0.00     0.049 A 
ATOM     53  H   UNL A   1      43.913  27.510  27.948  1.00  0.00     0.167 HD
ATOM     54  C   UNL A   1      45.932  31.411  28.207  1.00  0.00     0.037 A 
ATOM     55  C   UNL A   1      43.729  24.811  27.240  1.00  0.00     0.037 A 
ATOM     56  C   UNL A   1      46.953  30.474  27.808  1.00  0.00     0.049 A 
ATOM     57  C   UNL A   1      45.160  25.204  27.021  1.00  0.00     0.074 A 
ATOM     58  C   UNL A   1      48.305  30.699  27.616  1.00  0.00     0.029 A 
ATOM     59  N   UNL A   1      46.730  29.131  27.535  1.00  0.00    -0.354 N 
ATOM     60  N   UNL A   1      45.719  26.381  27.170  1.00  0.00    -0.248 NA
ATOM     61  C   UNL A   1      46.076  24.150  26.566  1.00  0.00     0.031 C 
ATOM     62  C   UNL A   1      48.895  29.499  27.200  1.00  0.00     0.029 A 
ATOM     63  C   UNL A   1      47.916  28.519  27.163  1.00  0.00     0.049 A 
ATOM     64  H   UNL A   1      45.857  28.680  27.597  1.00  0.00     0.167 HD
ATOM     65  C   UNL A   1      47.056  26.210  26.834  1.00  0.00     0.074 A 
ATOM     66  C   UNL A   1      47.223  24.812  26.489  1.00  0.00     0.031 C 
ATOM     67  C   UNL A   1      48.054  27.127  26.812  1.00  0.00     0.037 A 
BRANCH  54  68
ATOM     68  C   UNL A   1      46.322  32.849  28.411  1.00  0.00     0.058 A 
ATOM     69  C   UNL A   1      46.325  33.770  27.352  1.00  0.00     0.135 A 
ATOM     70  C   UNL A   1      46.664  33.321  29.689  1.00  0.00     0.135 A 
ATOM     71  F   UNL A   1      46.020  33.369  26.108  1.00  0.00    -0.206 F 
ATOM     72  C   UNL A   1      46.673  35.104  27.548  1.00  0.00     0.059 A 
ATOM     73  C   UNL A   1      46.997  34.654  29.912  1.00  0.00     0.059 A 
ATOM     74  F   UNL A   1      46.677  32.483  30.737  1.00  0.00    -0.206 F 
ATOM     75  C   UNL A   1      47.011  35.536  28.832  1.00  0.00     0.060 A 
BRANCH  75  76
ATOM     76  S   UNL A   1      47.447  37.273  29.080  1.00  0.00     0.124 S 
ATOM     77  O   UNL A   1      46.351  37.731  29.928  1.00  0.00    -0.237 OA
ATOM     78  O   UNL A   1      48.753  37.182  29.726  1.00  0.00    -0.237 OA
ATOM     79  O   UNL A   1      47.462  37.815  27.725  1.00  0.00    -0.744 OA
ENDBRANCH  75  76
ENDBRANCH  54  68
BRANCH  55  80
ATOM     80  C   UNL A   1      43.257  23.425  26.992  1.00  0.00     0.058 A 
ATOM     81  C   UNL A   1      43.104  22.943  25.686  1.00  0.00     0.135 A 
ATOM     82  C   UNL A   1      43.022  22.536  28.052  1.00  0.00     0.135 A 
ATOM     83  F   UNL A   1      43.311  23.759  24.641  1.00  0.00    -0.206 F 
ATOM     84  C   UNL A   1      42.744  21.623  25.435  1.00  0.00     0.059 A 
ATOM     85  C   UNL A   1      42.680  21.207  27.828  1.00  0.00     0.059 A 
ATOM     86  F   UNL A   1      43.171  22.948  29.321  1.00  0.00    -0.206 F 
ATOM     87  C   UNL A   1      42.542  20.759  26.514  1.00  0.00     0.060 A 
BRANCH  87  88
ATOM     88  S   UNL A   1      42.171  19.023  26.182  1.00  0.00     0.124 S 
ATOM     89  O   UNL A   1      40.752  19.083  25.855  1.00  0.00    -0.237 OA
ATOM     90  O   UNL A   1      43.070  18.719  25.073  1.00  0.00    -0.237 OA
ATOM     91  O   UNL A   1      42.504  18.365  27.443  1.00  0.00    -0.744 OA
ENDBRANCH  87  88
ENDBRANCH  55  80
BRANCH  67  92
ATOM     92  C   UNL A   1      49.414  26.636  26.408  1.00  0.00     0.058 A 
ATOM     93  C   UNL A   1      49.912  26.851  25.114  1.00  0.00     0.135 A 
ATOM     94  C   UNL A   1      50.232  25.965  27.329  1.00  0.00     0.135 A 
ATOM     95  F   UNL A   1      49.162  27.481  24.196  1.00  0.00    -0.206 F 
ATOM     96  C   UNL A   1      51.172  26.393  24.738  1.00  0.00     0.059 A 
ATOM     97  C   UNL A   1      51.501  25.515  26.980  1.00  0.00     0.059 A 
ATOM     98  F   UNL A   1      49.801  25.741  28.580  1.00  0.00    -0.206 F 
ATOM     99  C   UNL A   1      51.956  25.723  25.677  1.00  0.00     0.060 A 
BRANCH  99 100
ATOM    100  S   UNL A   1      53.595  25.145  25.188  1.00  0.00     0.124 S 
ATOM    101  O   UNL A   1      53.512  23.724  25.511  1.00  0.00    -0.237 OA
ATOM    102  O   UNL A   1      53.635  25.470  23.766  1.00  0.00    -0.237 OA
ATOM    103  O   UNL A   1      54.495  25.929  26.029  1.00  0.00    -0.744 OA
ENDBRANCH  99 100
ENDBRANCH  67  92
ENDBRANCH  41  42
ENDBRANCH  34  36
ENDBRANCH  33  34
ENDBRANCH  32  33
ENDBRANCH   1  32
TORSDOF 19
ENDMDL
MODEL 2
REMARK VINA RESULT:     -11.0      1.063      2.359
REMARK SMILES CN(CC(=O)OCCOC(=O)c1ccc(-c2c3nc(c(-c4c(F)cc(S(=O)(=O)[O-])cc4F)c4ccc([nH]4)c(-c4c(F)cc(S(=O)(=O)[O-])cc4F)c4nc(c(-c5c(F)cc(S(=O)(=O)[O-])cc5F)c5ccc2[nH]5)C=C4)C=C3)cc1)c1ncc(-c2nnnn2-c2ccccc2)c(-c2ccc(Cl)cc2)n1
REMARK SMILES IDX 7 1 6 2 4 3 5 4 3 5 2 6 1 7 78 8 79 9 101 10 80 11 93 12
REMARK SMILES IDX 81 13 94 14 95 15 100 16 96 17 99 18 97 19 98 20 82 21 83 22
REMARK SMILES IDX 86 23 84 24 85 25 87 26 88 27 92 28 89 29 91 30 90 31 8 32
REMARK SMILES IDX 9 33 10 34 11 35 12 36 13 37 77 38 14 39 76 40 15 41 16 42
REMARK SMILES IDX 17 43 70 44 18 45 75 46 69 47 71 48 19 49 74 50 68 51 67 52
REMARK SMILES IDX 20 54 54 55 33 56 53 57 34 58 37 59 52 60 72 61 35 62 36 63
REMARK SMILES IDX 51 65 73 66 38 67 21 68 22 69 31 70 23 71 24 72 30 73 32 74
REMARK SMILES IDX 25 75 26 76 27 77 28 78 29 79 55 80 56 81 65 82 57 83 58 84
REMARK SMILES IDX 64 85 66 86 59 87 60 88 61 89 62 90 63 91 39 92 40 93 49 94
REMARK SMILES IDX 41 95 42 96 48 97 50 98 43 99 44 100 45 101 46 102 47 103
REMARK H PARENT 71 53 37 64
REMARK Flexibility Score: inf
ROOT
ATOM      1  C   UNL A   1      34.522  33.418  28.642  1.00  0.00     0.274 C 
ENDROOT
BRANCH   1   2
ATOM      2  O   UNL A   1      34.799  34.542  29.498  1.00  0.00    -0.461 OA
BRANCH   2   3
ATOM      3  C   UNL A   1      33.750  34.973  30.243  1.00  0.00     0.325 C 
ATOM      4  O   UNL A   1      32.576  34.900  29.878  1.00  0.00    -0.250 OA
BRANCH   3   5
ATOM      5  C   UNL A   1      34.099  35.572  31.598  1.00  0.00     0.241 C 
BRANCH   5   6
ATOM      6  N   UNL A   1      33.951  34.730  32.794  1.00  0.00    -0.333 N 
ATOM      7  C   UNL A   1      32.657  34.108  32.996  1.00  0.00     0.147 C 
BRANCH   6   8
ATOM      8  C   UNL A   1      35.052  33.915  33.019  1.00  0.00     0.226 A 
ATOM      9  N   UNL A   1      35.050  32.703  32.460  1.00  0.00    -0.221 NA
ATOM     10  N   UNL A   1      36.056  34.348  33.799  1.00  0.00    -0.212 NA
ATOM     11  C   UNL A   1      36.121  31.918  32.669  1.00  0.00     0.129 A 
ATOM     12  C   UNL A   1      37.104  33.512  34.041  1.00  0.00     0.087 A 
ATOM     13  C   UNL A   1      37.202  32.264  33.452  1.00  0.00     0.066 A 
BRANCH  12  14
ATOM     14  C   UNL A   1      38.114  34.062  34.961  1.00  0.00     0.001 A 
ATOM     15  C   UNL A   1      39.132  34.903  34.480  1.00  0.00     0.012 A 
ATOM     16  C   UNL A   1      38.084  33.777  36.338  1.00  0.00     0.012 A 
ATOM     17  C   UNL A   1      40.080  35.458  35.347  1.00  0.00     0.021 A 
ATOM     18  C   UNL A   1      39.031  34.330  37.206  1.00  0.00     0.021 A 
ATOM     19  C   UNL A   1      40.026  35.167  36.707  1.00  0.00     0.041 A 
ATOM     20  Cl  UNL A   1      41.198  35.831  37.777  1.00  0.00    -0.084 Cl
ENDBRANCH  12  14
BRANCH  13  21
ATOM     21  C   UNL A   1      38.308  31.336  33.634  1.00  0.00     0.190 A 
ATOM     22  N   UNL A   1      38.299  30.263  34.400  1.00  0.00    -0.108 NA
ATOM     23  N   UNL A   1      39.490  31.321  32.900  1.00  0.00    -0.193 N 
ATOM     24  N   UNL A   1      39.406  29.532  34.062  1.00  0.00    -0.023 NA
ATOM     25  N   UNL A   1      40.099  30.133  33.107  1.00  0.00    -0.040 NA
BRANCH  23  26
ATOM     26  C   UNL A   1      40.037  32.299  32.034  1.00  0.00     0.069 A 
ATOM     27  C   UNL A   1      39.338  32.652  30.872  1.00  0.00     0.028 A 
ATOM     28  C   UNL A   1      41.249  32.934  32.339  1.00  0.00     0.028 A 
ATOM     29  C   UNL A   1      39.813  33.689  30.068  1.00  0.00     0.002 A 
ATOM     30  C   UNL A   1      41.727  33.955  31.517  1.00  0.00     0.002 A 
ATOM     31  C   UNL A   1      41.000  34.344  30.393  1.00  0.00     0.000 A 
ENDBRANCH  23  26
ENDBRANCH  13  21
ENDBRANCH   6   8
ENDBRANCH   5   6
ENDBRANCH   3   5
ENDBRANCH   2   3
ENDBRANCH   1   2
BRANCH   1  32
ATOM     32  C   UNL A   1      35.800  32.635  28.341  1.00  0.00     0.275 C 
BRANCH  32  33
ATOM     33  O   UNL A   1      35.986  31.595  29.318  1.00  0.00    -0.458 OA
BRANCH  33  34
ATOM     34  C   UNL A   1      36.013  30.340  28.818  1.00  0.00     0.338 C 
ATOM     35  O   UNL A   1      35.051  29.669  28.476  1.00  0.00    -0.246 OA
BRANCH  34  36
ATOM     36  C   UNL A   1      37.395  29.818  28.781  1.00  0.00     0.060 A 
ATOM     37  C   UNL A   1      38.095  29.465  29.938  1.00  0.00     0.016 A 
ATOM     38  C   UNL A   1      38.023  29.757  27.534  1.00  0.00     0.016 A 
ATOM     39  C   UNL A   1      39.442  29.096  29.851  1.00  0.00     0.010 A 
ATOM     40  C   UNL A   1      39.349  29.341  27.443  1.00  0.00     0.010 A 
ATOM     41  C   UNL A   1      40.077  29.031  28.600  1.00  0.00    -0.014 A 
BRANCH  41  42
ATOM     42  C   UNL A   1      41.495  28.618  28.463  1.00  0.00     0.031 A 
ATOM     43  C   UNL A   1      42.591  29.647  28.527  1.00  0.00     0.074 A 
ATOM     44  C   UNL A   1      41.782  27.331  28.195  1.00  0.00     0.049 A 
ATOM     45  N   UNL A   1      43.864  29.516  28.257  1.00  0.00    -0.248 NA
ATOM     46  C   UNL A   1      42.200  31.005  28.937  1.00  0.00     0.031 C 
ATOM     47  C   UNL A   1      40.799  26.250  28.109  1.00  0.00     0.029 A 
ATOM     48  N   UNL A   1      42.977  26.718  27.919  1.00  0.00    -0.354 N 
ATOM     49  C   UNL A   1      44.424  30.776  28.438  1.00  0.00     0.074 A 
ATOM     50  C   UNL A   1      43.349  31.661  28.833  1.00  0.00     0.031 C 
ATOM     51  C   UNL A   1      41.430  25.108  27.798  1.00  0.00     0.029 A 
ATOM     52  C   UNL A   1      42.851  25.385  27.613  1.00  0.00     0.049 A 
ATOM     53  H   UNL A   1      43.843  27.188  27.939  1.00  0.00     0.167 HD
ATOM     54  C   UNL A   1      45.716  31.155  28.282  1.00  0.00     0.037 A 
ATOM     55  C   UNL A   1      43.768  24.493  27.196  1.00  0.00     0.037 A 
ATOM     56  C   UNL A   1      46.777  30.260  27.891  1.00  0.00     0.049 A 
ATOM     57  C   UNL A   1      45.188  24.940  27.008  1.00  0.00     0.074 A 
ATOM     58  C   UNL A   1      48.123  30.536  27.728  1.00  0.00     0.029 A 
ATOM     59  N   UNL A   1      46.607  28.913  27.599  1.00  0.00    -0.354 N 
ATOM     60  N   UNL A   1      45.703  26.134  27.182  1.00  0.00    -0.248 NA
ATOM     61  C   UNL A   1      46.150  23.925  26.559  1.00  0.00     0.031 C 
ATOM     62  C   UNL A   1      48.763  29.362  27.309  1.00  0.00     0.029 A 
ATOM     63  C   UNL A   1      47.821  28.348  27.242  1.00  0.00     0.049 A 
ATOM     64  H   UNL A   1      45.750  28.431  27.639  1.00  0.00     0.167 HD
ATOM     65  C   UNL A   1      47.050  26.015  26.870  1.00  0.00     0.074 A 
ATOM     66  C   UNL A   1      47.274  24.628  26.511  1.00  0.00     0.031 C 
ATOM     67  C   UNL A   1      48.015  26.967  26.877  1.00  0.00     0.037 A 
BRANCH  54  68
ATOM     68  C   UNL A   1      46.050  32.603  28.510  1.00  0.00     0.058 A 
ATOM     69  C   UNL A   1      46.006  33.544  27.470  1.00  0.00     0.135 A 
ATOM     70  C   UNL A   1      46.387  33.064  29.794  1.00  0.00     0.135 A 
ATOM     71  F   UNL A   1      45.703  33.155  26.221  1.00  0.00    -0.206 F 
ATOM     72  C   UNL A   1      46.302  34.887  27.688  1.00  0.00     0.059 A 
ATOM     73  C   UNL A   1      46.668  34.405  30.039  1.00  0.00     0.059 A 
ATOM     74  F   UNL A   1      46.444  32.207  30.825  1.00  0.00    -0.206 F 
ATOM     75  C   UNL A   1      46.636  35.308  28.977  1.00  0.00     0.060 A 
BRANCH  75  76
ATOM     76  S   UNL A   1      47.005  37.055  29.255  1.00  0.00     0.124 S 
ATOM     77  O   UNL A   1      47.424  37.481  27.924  1.00  0.00    -0.237 OA
ATOM     78  O   UNL A   1      45.722  37.581  29.714  1.00  0.00    -0.237 OA
ATOM     79  O   UNL A   1      48.058  37.022  30.265  1.00  0.00    -0.744 OA
ENDBRANCH  75  76
ENDBRANCH  54  68
BRANCH  55  80
ATOM     80  C   UNL A   1      43.351  23.095  26.922  1.00  0.00     0.058 A 
ATOM     81  C   UNL A   1      43.264  22.616  25.608  1.00  0.00     0.135 A 
ATOM     82  C   UNL A   1      43.104  22.192  27.968  1.00  0.00     0.135 A 
ATOM     83  F   UNL A   1      43.486  23.445  24.577  1.00  0.00    -0.206 F 
ATOM     84  C   UNL A   1      42.957  21.288  25.337  1.00  0.00     0.059 A 
ATOM     85  C   UNL A   1      42.814  20.854  27.724  1.00  0.00     0.059 A 
ATOM     86  F   UNL A   1      43.191  22.601  29.244  1.00  0.00    -0.206 F 
ATOM     87  C   UNL A   1      42.741  20.411  26.403  1.00  0.00     0.060 A 
BRANCH  87  88
ATOM     88  S   UNL A   1      42.439  18.666  26.048  1.00  0.00     0.124 S 
ATOM     89  O   UNL A   1      41.015  18.671  25.738  1.00  0.00    -0.237 OA
ATOM     90  O   UNL A   1      43.337  18.417  24.924  1.00  0.00    -0.237 OA
ATOM     91  O   UNL A   1      42.814  18.003  27.294  1.00  0.00    -0.744 OA
ENDBRANCH  87  88
ENDBRANCH  55  80
BRANCH  67  92
ATOM     92  C   UNL A   1      49.400  26.530  26.494  1.00  0.00     0.058 A 
ATOM     93  C   UNL A   1      50.231  25.860  27.405  1.00  0.00     0.135 A 
ATOM     94  C   UNL A   1      49.889  26.765  25.201  1.00  0.00     0.135 A 
ATOM     95  F   UNL A   1      49.809  25.621  28.656  1.00  0.00    -0.206 F 
ATOM     96  C   UNL A   1      51.515  25.458  27.051  1.00  0.00     0.059 A 
ATOM     97  C   UNL A   1      51.163  26.356  24.820  1.00  0.00     0.059 A 
ATOM     98  F   UNL A   1      49.129  27.398  24.294  1.00  0.00    -0.206 F 
ATOM     99  C   UNL A   1      51.973  25.714  25.758  1.00  0.00     0.060 A 
BRANCH  99 100
ATOM    100  S   UNL A   1      53.635  25.176  25.301  1.00  0.00     0.124 S 
ATOM    101  O   UNL A   1      53.536  23.732  25.487  1.00  0.00    -0.237 OA
ATOM    102  O   UNL A   1      53.747  25.631  23.919  1.00  0.00    -0.237 OA
ATOM    103  O   UNL A   1      54.490  25.876  26.255  1.00  0.00    -0.744 OA
ENDBRANCH  99 100
ENDBRANCH  67  92
ENDBRANCH  41  42
ENDBRANCH  34  36
ENDBRANCH  33  34
ENDBRANCH  32  33
ENDBRANCH   1  32
TORSDOF 19
ENDMDL
MODEL 3
REMARK VINA RESULT:     -10.8      4.705     10.706
REMARK SMILES CN(CC(=O)OCCOC(=O)c1ccc(-c2c3nc(c(-c4c(F)cc(S(=O)(=O)[O-])cc4F)c4ccc([nH]4)c(-c4c(F)cc(S(=O)(=O)[O-])cc4F)c4nc(c(-c5c(F)cc(S(=O)(=O)[O-])cc5F)c5ccc2[nH]5)C=C4)C=C3)cc1)c1ncc(-c2nnnn2-c2ccccc2)c(-c2ccc(Cl)cc2)n1
REMARK SMILES IDX 7 1 6 2 4 3 5 4 3 5 2 6 1 7 78 8 79 9 101 10 80 11 93 12
REMARK SMILES IDX 81 13 94 14 95 15 100 16 96 17 99 18 97 19 98 20 82 21 83 22
REMARK SMILES IDX 86 23 84 24 85 25 87 26 88 27 92 28 89 29 91 30 90 31 8 32
REMARK SMILES IDX 9 33 10 34 11 35 12 36 13 37 77 38 14 39 76 40 15 41 16 42
REMARK SMILES IDX 17 43 70 44 18 45 75 46 69 47 71 48 19 49 74 50 68 51 67 52
REMARK SMILES IDX 20 54 54 55 33 56 53 57 34 58 37 59 52 60 72 61 35 62 36 63
REMARK SMILES IDX 51 65 73 66 38 67 21 68 22 69 31 70 23 71 24 72 30 73 32 74
REMARK SMILES IDX 25 75 26 76 27 77 28 78 29 79 55 80 56 81 65 82 57 83 58 84
REMARK SMILES IDX 64 85 66 86 59 87 60 88 61 89 62 90 63 91 39 92 40 93 49 94
REMARK SMILES IDX 41 95 42 96 48 97 50 98 43 99 44 100 45 101 46 102 47 103
REMARK H PARENT 71 53 37 64
REMARK Flexibility Score: inf
ROOT
ATOM      1  C   UNL A   1      35.313  32.521  30.077  1.00  0.00     0.274 C 
ENDROOT
BRANCH   1   2
ATOM      2  O   UNL A   1      34.021  32.169  29.545  1.00  0.00    -0.461 OA
BRANCH   2   3
ATOM      3  C   UNL A   1      33.940  32.154  28.191  1.00  0.00     0.325 C 
ATOM      4  O   UNL A   1      34.130  33.143  27.483  1.00  0.00    -0.250 OA
BRANCH   3   5
ATOM      5  C   UNL A   1      33.591  30.813  27.562  1.00  0.00     0.241 C 
BRANCH   5   6
ATOM      6  N   UNL A   1      34.687  29.946  27.107  1.00  0.00    -0.333 N 
ATOM      7  C   UNL A   1      35.500  29.330  28.138  1.00  0.00     0.147 C 
BRANCH   6   8
ATOM      8  C   UNL A   1      34.319  29.117  26.056  1.00  0.00     0.226 A 
ATOM      9  N   UNL A   1      34.033  29.690  24.886  1.00  0.00    -0.221 NA
ATOM     10  N   UNL A   1      34.235  27.790  26.249  1.00  0.00    -0.212 NA
ATOM     11  C   UNL A   1      33.687  28.885  23.866  1.00  0.00     0.129 A 
ATOM     12  C   UNL A   1      33.828  27.002  25.216  1.00  0.00     0.087 A 
ATOM     13  C   UNL A   1      33.569  27.514  23.957  1.00  0.00     0.066 A 
BRANCH  12  14
ATOM     14  C   UNL A   1      33.708  25.575  25.557  1.00  0.00     0.001 A 
ATOM     15  C   UNL A   1      34.793  24.703  25.361  1.00  0.00     0.012 A 
ATOM     16  C   UNL A   1      32.522  25.047  26.097  1.00  0.00     0.012 A 
ATOM     17  C   UNL A   1      34.703  23.350  25.708  1.00  0.00     0.021 A 
ATOM     18  C   UNL A   1      32.430  23.695  26.445  1.00  0.00     0.021 A 
ATOM     19  C   UNL A   1      33.521  22.852  26.248  1.00  0.00     0.041 A 
ATOM     20  Cl  UNL A   1      33.397  21.188  26.662  1.00  0.00    -0.084 Cl
ENDBRANCH  12  14
BRANCH  13  21
ATOM     21  C   UNL A   1      33.169  26.730  22.799  1.00  0.00     0.190 A 
ATOM     22  N   UNL A   1      33.975  26.036  22.019  1.00  0.00    -0.108 NA
ATOM     23  N   UNL A   1      31.862  26.433  22.427  1.00  0.00    -0.193 N 
ATOM     24  N   UNL A   1      33.177  25.233  21.250  1.00  0.00    -0.023 NA
ATOM     25  N   UNL A   1      31.898  25.417  21.536  1.00  0.00    -0.040 NA
BRANCH  23  26
ATOM     26  C   UNL A   1      30.639  26.999  22.862  1.00  0.00     0.069 A 
ATOM     27  C   UNL A   1      30.319  28.309  22.483  1.00  0.00     0.028 A 
ATOM     28  C   UNL A   1      29.738  26.259  23.639  1.00  0.00     0.028 A 
ATOM     29  C   UNL A   1      29.072  28.840  22.814  1.00  0.00     0.002 A 
ATOM     30  C   UNL A   1      28.501  26.806  23.984  1.00  0.00     0.002 A 
ATOM     31  C   UNL A   1      28.162  28.088  23.557  1.00  0.00     0.000 A 
ENDBRANCH  23  26
ENDBRANCH  13  21
ENDBRANCH   6   8
ENDBRANCH   5   6
ENDBRANCH   3   5
ENDBRANCH   2   3
ENDBRANCH   1   2
BRANCH   1  32
ATOM     32  C   UNL A   1      35.483  31.978  31.496  1.00  0.00     0.275 C 
BRANCH  32  33
ATOM     33  O   UNL A   1      36.876  31.761  31.780  1.00  0.00    -0.458 OA
BRANCH  33  34
ATOM     34  C   UNL A   1      37.259  30.464  31.806  1.00  0.00     0.338 C 
ATOM     35  O   UNL A   1      36.711  29.553  32.407  1.00  0.00    -0.246 OA
BRANCH  34  36
ATOM     36  C   UNL A   1      38.507  30.269  31.038  1.00  0.00     0.060 A 
ATOM     37  C   UNL A   1      38.599  30.548  29.671  1.00  0.00     0.016 A 
ATOM     38  C   UNL A   1      39.596  29.716  31.716  1.00  0.00     0.016 A 
ATOM     39  C   UNL A   1      39.767  30.226  28.972  1.00  0.00     0.010 A 
ATOM     40  C   UNL A   1      40.776  29.442  31.030  1.00  0.00     0.010 A 
ATOM     41  C   UNL A   1      40.865  29.671  29.650  1.00  0.00    -0.014 A 
BRANCH  41  42
ATOM     42  C   UNL A   1      42.131  29.341  28.950  1.00  0.00     0.031 A 
ATOM     43  C   UNL A   1      42.373  27.944  28.446  1.00  0.00     0.074 A 
ATOM     44  C   UNL A   1      43.091  30.280  28.850  1.00  0.00     0.049 A 
ATOM     45  N   UNL A   1      43.473  27.417  27.972  1.00  0.00    -0.248 NA
ATOM     46  C   UNL A   1      41.232  27.017  28.493  1.00  0.00     0.031 C 
ATOM     47  C   UNL A   1      42.963  31.665  29.306  1.00  0.00     0.029 A 
ATOM     48  N   UNL A   1      44.368  30.205  28.359  1.00  0.00    -0.354 N 
ATOM     49  C   UNL A   1      43.167  26.090  27.688  1.00  0.00     0.074 A 
ATOM     50  C   UNL A   1      41.779  25.892  28.051  1.00  0.00     0.031 C 
ATOM     51  C   UNL A   1      44.117  32.309  29.077  1.00  0.00     0.029 A 
ATOM     52  C   UNL A   1      45.080  31.372  28.506  1.00  0.00     0.049 A 
ATOM     53  H   UNL A   1      44.741  29.394  27.942  1.00  0.00     0.167 HD
ATOM     54  C   UNL A   1      43.974  25.130  27.176  1.00  0.00     0.037 A 
ATOM     55  C   UNL A   1      46.371  31.646  28.246  1.00  0.00     0.037 A 
ATOM     56  C   UNL A   1      45.354  25.345  26.816  1.00  0.00     0.049 A 
ATOM     57  C   UNL A   1      47.253  30.561  27.701  1.00  0.00     0.074 A 
ATOM     58  C   UNL A   1      46.253  24.447  26.268  1.00  0.00     0.029 A 
ATOM     59  N   UNL A   1      46.034  26.544  26.973  1.00  0.00    -0.354 N 
ATOM     60  N   UNL A   1      46.950  29.312  27.438  1.00  0.00    -0.248 NA
ATOM     61  C   UNL A   1      48.651  30.917  27.427  1.00  0.00     0.031 C 
ATOM     62  C   UNL A   1      47.485  25.095  26.119  1.00  0.00     0.029 A 
ATOM     63  C   UNL A   1      47.345  26.407  26.546  1.00  0.00     0.049 A 
ATOM     64  H   UNL A   1      45.643  27.372  27.335  1.00  0.00     0.167 HD
ATOM     65  C   UNL A   1      48.118  28.732  26.961  1.00  0.00     0.074 A 
ATOM     66  C   UNL A   1      49.129  29.772  26.958  1.00  0.00     0.031 C 
ATOM     67  C   UNL A   1      48.335  27.454  26.564  1.00  0.00     0.037 A 
BRANCH  54  68
ATOM     68  C   UNL A   1      43.394  23.753  26.998  1.00  0.00     0.058 A 
ATOM     69  C   UNL A   1      43.130  22.917  28.093  1.00  0.00     0.135 A 
ATOM     70  C   UNL A   1      43.068  23.278  25.718  1.00  0.00     0.135 A 
ATOM     71  F   UNL A   1      43.435  23.317  29.338  1.00  0.00    -0.206 F 
ATOM     72  C   UNL A   1      42.579  21.649  27.925  1.00  0.00     0.059 A 
ATOM     73  C   UNL A   1      42.499  22.021  25.527  1.00  0.00     0.059 A 
ATOM     74  F   UNL A   1      43.300  24.037  24.636  1.00  0.00    -0.206 F 
ATOM     75  C   UNL A   1      42.271  21.208  26.636  1.00  0.00     0.060 A 
BRANCH  75  76
ATOM     76  S   UNL A   1      41.543  19.566  26.428  1.00  0.00     0.124 S 
ATOM     77  O   UNL A   1      40.128  19.890  26.281  1.00  0.00    -0.237 OA
ATOM     78  O   UNL A   1      42.209  19.075  25.225  1.00  0.00    -0.237 OA
ATOM     79  O   UNL A   1      41.905  18.877  27.663  1.00  0.00    -0.744 OA
ENDBRANCH  75  76
ENDBRANCH  54  68
BRANCH  55  80
ATOM     80  C   UNL A   1      46.892  33.010  28.513  1.00  0.00     0.058 A 
ATOM     81  C   UNL A   1      47.449  33.334  29.757  1.00  0.00     0.135 A 
ATOM     82  C   UNL A   1      46.911  33.991  27.509  1.00  0.00     0.135 A 
ATOM     83  F   UNL A   1      47.448  32.431  30.748  1.00  0.00    -0.206 F 
ATOM     84  C   UNL A   1      48.018  34.581  29.997  1.00  0.00     0.059 A 
ATOM     85  C   UNL A   1      47.490  35.238  27.717  1.00  0.00     0.059 A 
ATOM     86  F   UNL A   1      46.403  33.721  26.296  1.00  0.00    -0.206 F 
ATOM     87  C   UNL A   1      48.041  35.524  28.967  1.00  0.00     0.060 A 
BRANCH  87  88
ATOM     88  S   UNL A   1      48.867  37.105  29.252  1.00  0.00     0.124 S 
ATOM     89  O   UNL A   1      49.210  37.006  30.665  1.00  0.00    -0.237 OA
ATOM     90  O   UNL A   1      49.987  37.045  28.317  1.00  0.00    -0.237 OA
ATOM     91  O   UNL A   1      47.837  38.085  28.916  1.00  0.00    -0.744 OA
ENDBRANCH  87  88
ENDBRANCH  55  80
BRANCH  67  92
ATOM     92  C   UNL A   1      49.719  27.121  26.085  1.00  0.00     0.058 A 
ATOM     93  C   UNL A   1      50.699  26.638  26.965  1.00  0.00     0.135 A 
ATOM     94  C   UNL A   1      50.059  27.267  24.732  1.00  0.00     0.135 A 
ATOM     95  F   UNL A   1      50.421  26.489  28.270  1.00  0.00    -0.206 F 
ATOM     96  C   UNL A   1      51.982  26.332  26.522  1.00  0.00     0.059 A 
ATOM     97  C   UNL A   1      51.330  26.951  24.264  1.00  0.00     0.059 A 
ATOM     98  F   UNL A   1      49.154  27.721  23.851  1.00  0.00    -0.206 F 
ATOM     99  C   UNL A   1      52.289  26.496  25.171  1.00  0.00     0.060 A 
BRANCH  99 100
ATOM    100  S   UNL A   1      53.951  26.084  24.600  1.00  0.00     0.124 S 
ATOM    101  O   UNL A   1      54.012  24.654  24.887  1.00  0.00    -0.237 OA
ATOM    102  O   UNL A   1      53.901  26.445  23.187  1.00  0.00    -0.237 OA
ATOM    103  O   UNL A   1      54.810  26.928  25.426  1.00  0.00    -0.744 OA
ENDBRANCH  99 100
ENDBRANCH  67  92
ENDBRANCH  41  42
ENDBRANCH  34  36
ENDBRANCH  33  34
ENDBRANCH  32  33
ENDBRANCH   1  32
TORSDOF 19
ENDMDL
