MODEL 1
REMARK VINA RESULT:     -10.7      0.000      0.000
REMARK SMILES CCC[C@@]1(C(=O)OCCOC(=O)c2ccc(-c3c4nc(c(-c5c(F)cc(S(=O)(=O)[O-])cc5F)c5ccc([nH]5)c(-c5c(F)cc(S(=O)(=O)[O-])cc5F)c5nc(c(-c6c(F)cc(S(=O)(=O)[O-])cc6F)c6ccc3[nH]6)C=C5)C=C4)cc2)CCN(C(=O)[C@@H]2CC[NH2+][C@@H]2C)C1
REMARK SMILES IDX 9 1 8 2 7 3 5 4 6 5 4 6 79 7 90 8 80 9 81 10 3 11 2 12 1 13
REMARK SMILES IDX 82 14 83 15 84 16 85 17 88 18 86 19 87 20 89 21 10 24 11 25
REMARK SMILES IDX 12 26 13 27 14 28 78 29 15 30 77 31 16 32 17 33 18 34 71 35
REMARK SMILES IDX 19 36 76 37 70 38 72 39 20 40 75 41 69 42 68 43 21 45 55 46
REMARK SMILES IDX 34 47 54 48 35 49 38 50 53 51 73 52 36 53 37 54 52 56 74 57
REMARK SMILES IDX 39 58 22 59 23 60 32 61 24 62 25 63 31 64 33 65 26 66 27 67
REMARK SMILES IDX 28 68 29 69 30 70 56 71 57 72 66 73 58 74 59 75 65 76 67 77
REMARK SMILES IDX 60 78 61 79 62 80 63 81 64 82 40 83 41 84 50 85 42 86 43 87
REMARK SMILES IDX 49 88 51 89 44 90 45 91 46 92 47 93 48 94
REMARK H PARENT 87 22 87 23 72 44 38 55
REMARK Flexibility Score: inf
ROOT
ATOM      1  C   UNL A   1      38.964  23.094  26.105  1.00  0.00     0.275 C 
ENDROOT
BRANCH   1   2
ATOM      2  C   UNL A   1      37.693  22.560  25.443  1.00  0.00     0.274 C 
BRANCH   2   3
ATOM      3  O   UNL A   1      36.880  23.613  24.885  1.00  0.00    -0.462 OA
BRANCH   3   4
ATOM      4  C   UNL A   1      36.158  23.259  23.786  1.00  0.00     0.314 C 
ATOM      5  O   UNL A   1      36.652  23.064  22.681  1.00  0.00    -0.252 OA
BRANCH   4   6
ATOM      6  C   UNL A   1      34.657  23.132  24.082  1.00  0.00     0.087 C 
ATOM      7  C   UNL A   1      33.876  23.748  22.899  1.00  0.00     0.042 C 
ATOM      8  C   UNL A   1      34.285  24.072  25.244  1.00  0.00     0.138 C 
ATOM      9  C   UNL A   1      33.895  25.239  23.197  1.00  0.00     0.120 C 
ATOM     10  N   UNL A   1      33.724  25.277  24.640  1.00  0.00    -0.341 N 
BRANCH   6  11
ATOM     11  C   UNL A   1      34.313  21.655  24.404  1.00  0.00     0.020 C 
BRANCH  11  12
ATOM     12  C   UNL A   1      32.896  21.361  24.918  1.00  0.00    -0.002 C 
ATOM     13  C   UNL A   1      32.404  19.959  24.571  1.00  0.00     0.004 C 
ENDBRANCH  11  12
ENDBRANCH   6  11
BRANCH  10  14
ATOM     14  C   UNL A   1      33.142  26.233  25.435  1.00  0.00     0.231 C 
ATOM     15  O   UNL A   1      33.846  26.908  26.200  1.00  0.00    -0.274 OA
BRANCH  14  16
ATOM     16  C   UNL A   1      31.642  26.526  25.405  1.00  0.00     0.142 C 
ATOM     17  C   UNL A   1      30.728  25.334  25.118  1.00  0.00     0.081 C 
ATOM     18  C   UNL A   1      31.175  27.623  24.451  1.00  0.00     0.192 C 
ATOM     19  C   UNL A   1      29.872  25.765  23.930  1.00  0.00     0.261 C 
ATOM     20  N   UNL A   1      30.585  26.891  23.328  1.00  0.00    -0.343 N 
ATOM     21  C   UNL A   1      32.215  28.640  24.010  1.00  0.00     0.076 C 
ATOM     22  H   UNL A   1      29.939  27.488  22.812  1.00  0.00     0.346 HD
ATOM     23  H   UNL A   1      31.294  26.579  22.664  1.00  0.00     0.346 HD
ENDBRANCH  14  16
ENDBRANCH  10  14
ENDBRANCH   4   6
ENDBRANCH   3   4
ENDBRANCH   2   3
ENDBRANCH   1   2
BRANCH   1  24
ATOM     24  O   UNL A   1      38.851  24.493  26.419  1.00  0.00    -0.458 OA
BRANCH  24  25
ATOM     25  C   UNL A   1      40.002  25.186  26.375  1.00  0.00     0.338 C 
ATOM     26  O   UNL A   1      40.766  25.301  25.407  1.00  0.00    -0.246 OA
BRANCH  25  27
ATOM     27  C   UNL A   1      40.262  25.871  27.643  1.00  0.00     0.060 A 
ATOM     28  C   UNL A   1      39.356  25.707  28.691  1.00  0.00     0.016 A 
ATOM     29  C   UNL A   1      41.267  26.836  27.723  1.00  0.00     0.016 A 
ATOM     30  C   UNL A   1      39.383  26.574  29.778  1.00  0.00     0.010 A 
ATOM     31  C   UNL A   1      41.329  27.671  28.844  1.00  0.00     0.010 A 
ATOM     32  C   UNL A   1      40.352  27.585  29.851  1.00  0.00    -0.014 A 
BRANCH  32  33
ATOM     33  C   UNL A   1      40.254  28.616  30.915  1.00  0.00     0.031 A 
ATOM     34  C   UNL A   1      41.230  28.597  32.063  1.00  0.00     0.074 A 
ATOM     35  C   UNL A   1      39.347  29.607  30.824  1.00  0.00     0.049 A 
ATOM     36  N   UNL A   1      41.273  29.360  33.125  1.00  0.00    -0.248 NA
ATOM     37  C   UNL A   1      42.295  27.583  32.010  1.00  0.00     0.031 C 
ATOM     38  C   UNL A   1      38.378  29.770  29.739  1.00  0.00     0.029 A 
ATOM     39  N   UNL A   1      39.104  30.672  31.653  1.00  0.00    -0.354 N 
ATOM     40  C   UNL A   1      42.338  28.893  33.886  1.00  0.00     0.074 A 
ATOM     41  C   UNL A   1      42.917  27.780  33.164  1.00  0.00     0.031 C 
ATOM     42  C   UNL A   1      37.664  30.888  29.956  1.00  0.00     0.029 A 
ATOM     43  C   UNL A   1      38.095  31.493  31.212  1.00  0.00     0.049 A 
ATOM     44  H   UNL A   1      39.606  30.833  32.485  1.00  0.00     0.167 HD
ATOM     45  C   UNL A   1      42.793  29.347  35.079  1.00  0.00     0.037 A 
ATOM     46  C   UNL A   1      37.569  32.602  31.767  1.00  0.00     0.037 A 
ATOM     47  C   UNL A   1      42.248  30.478  35.780  1.00  0.00     0.049 A 
ATOM     48  C   UNL A   1      38.104  33.101  33.079  1.00  0.00     0.074 A 
ATOM     49  C   UNL A   1      42.618  30.996  37.009  1.00  0.00     0.029 A 
ATOM     50  N   UNL A   1      41.228  31.284  35.298  1.00  0.00    -0.354 N 
ATOM     51  N   UNL A   1      39.065  32.602  33.819  1.00  0.00    -0.248 NA
ATOM     52  C   UNL A   1      37.478  34.309  33.634  1.00  0.00     0.031 C 
ATOM     53  C   UNL A   1      41.817  32.115  37.272  1.00  0.00     0.029 A 
ATOM     54  C   UNL A   1      40.963  32.302  36.199  1.00  0.00     0.049 A 
ATOM     55  H   UNL A   1      40.762  31.154  34.441  1.00  0.00     0.167 HD
ATOM     56  C   UNL A   1      39.158  33.434  34.928  1.00  0.00     0.074 A 
ATOM     57  C   UNL A   1      38.172  34.481  34.751  1.00  0.00     0.031 C 
ATOM     58  C   UNL A   1      39.980  33.336  36.002  1.00  0.00     0.037 A 
BRANCH  45  59
ATOM     59  C   UNL A   1      43.923  28.588  35.710  1.00  0.00     0.058 A 
ATOM     60  C   UNL A   1      43.693  27.522  36.593  1.00  0.00     0.135 A 
ATOM     61  C   UNL A   1      45.254  28.939  35.432  1.00  0.00     0.135 A 
ATOM     62  F   UNL A   1      42.438  27.163  36.906  1.00  0.00    -0.206 F 
ATOM     63  C   UNL A   1      44.746  26.846  37.202  1.00  0.00     0.059 A 
ATOM     64  C   UNL A   1      46.322  28.266  36.018  1.00  0.00     0.059 A 
ATOM     65  F   UNL A   1      45.524  29.955  34.598  1.00  0.00    -0.206 F 
ATOM     66  C   UNL A   1      46.057  27.232  36.915  1.00  0.00     0.060 A 
BRANCH  66  67
ATOM     67  S   UNL A   1      47.422  26.367  37.720  1.00  0.00     0.124 S 
ATOM     68  O   UNL A   1      48.577  27.014  37.104  1.00  0.00    -0.237 OA
ATOM     69  O   UNL A   1      47.206  26.670  39.132  1.00  0.00    -0.237 OA
ATOM     70  O   UNL A   1      47.206  24.974  37.345  1.00  0.00    -0.744 OA
ENDBRANCH  66  67
ENDBRANCH  45  59
BRANCH  46  71
ATOM     71  C   UNL A   1      36.462  33.312  31.081  1.00  0.00     0.058 A 
ATOM     72  C   UNL A   1      35.154  33.258  31.581  1.00  0.00     0.135 A 
ATOM     73  C   UNL A   1      36.695  34.073  29.925  1.00  0.00     0.135 A 
ATOM     74  F   UNL A   1      34.884  32.536  32.679  1.00  0.00    -0.206 F 
ATOM     75  C   UNL A   1      34.108  33.932  30.957  1.00  0.00     0.059 A 
ATOM     76  C   UNL A   1      35.671  34.769  29.294  1.00  0.00     0.059 A 
ATOM     77  F   UNL A   1      37.934  34.162  29.419  1.00  0.00    -0.206 F 
ATOM     78  C   UNL A   1      34.379  34.686  29.813  1.00  0.00     0.060 A 
BRANCH  78  79
ATOM     79  S   UNL A   1      33.039  35.618  29.038  1.00  0.00     0.124 S 
ATOM     80  O   UNL A   1      32.420  34.598  28.201  1.00  0.00    -0.237 OA
ATOM     81  O   UNL A   1      32.257  36.063  30.188  1.00  0.00    -0.237 OA
ATOM     82  O   UNL A   1      33.747  36.679  28.327  1.00  0.00    -0.744 OA
ENDBRANCH  78  79
ENDBRANCH  46  71
BRANCH  58  83
ATOM     83  C   UNL A   1      39.849  34.396  37.053  1.00  0.00     0.058 A 
ATOM     84  C   UNL A   1      39.054  34.197  38.192  1.00  0.00     0.135 A 
ATOM     85  C   UNL A   1      40.533  35.614  36.927  1.00  0.00     0.135 A 
ATOM     86  F   UNL A   1      38.377  33.049  38.350  1.00  0.00    -0.206 F 
ATOM     87  C   UNL A   1      38.919  35.185  39.162  1.00  0.00     0.059 A 
ATOM     88  C   UNL A   1      40.422  36.610  37.893  1.00  0.00     0.059 A 
ATOM     89  F   UNL A   1      41.310  35.848  35.858  1.00  0.00    -0.206 F 
ATOM     90  C   UNL A   1      39.602  36.392  38.999  1.00  0.00     0.060 A 
BRANCH  90  91
ATOM     91  S   UNL A   1      39.433  37.673  40.261  1.00  0.00     0.124 S 
ATOM     92  O   UNL A   1      38.497  38.591  39.621  1.00  0.00    -0.237 OA
ATOM     93  O   UNL A   1      38.911  36.932  41.405  1.00  0.00    -0.237 OA
ATOM     94  O   UNL A   1      40.797  38.169  40.415  1.00  0.00    -0.744 OA
ENDBRANCH  90  91
ENDBRANCH  58  83
ENDBRANCH  32  33
ENDBRANCH  25  27
ENDBRANCH  24  25
ENDBRANCH   1  24
TORSDOF 18
ENDMDL
MODEL 2
REMARK VINA RESULT:     -10.6      6.920     12.272
REMARK SMILES CCC[C@@]1(C(=O)OCCOC(=O)c2ccc(-c3c4nc(c(-c5c(F)cc(S(=O)(=O)[O-])cc5F)c5ccc([nH]5)c(-c5c(F)cc(S(=O)(=O)[O-])cc5F)c5nc(c(-c6c(F)cc(S(=O)(=O)[O-])cc6F)c6ccc3[nH]6)C=C5)C=C4)cc2)CCN(C(=O)[C@@H]2CC[NH2+][C@@H]2C)C1
REMARK SMILES IDX 9 1 8 2 7 3 5 4 6 5 4 6 79 7 90 8 80 9 81 10 3 11 2 12 1 13
REMARK SMILES IDX 82 14 83 15 84 16 85 17 88 18 86 19 87 20 89 21 10 24 11 25
REMARK SMILES IDX 12 26 13 27 14 28 78 29 15 30 77 31 16 32 17 33 18 34 71 35
REMARK SMILES IDX 19 36 76 37 70 38 72 39 20 40 75 41 69 42 68 43 21 45 55 46
REMARK SMILES IDX 34 47 54 48 35 49 38 50 53 51 73 52 36 53 37 54 52 56 74 57
REMARK SMILES IDX 39 58 22 59 23 60 32 61 24 62 25 63 31 64 33 65 26 66 27 67
REMARK SMILES IDX 28 68 29 69 30 70 56 71 57 72 66 73 58 74 59 75 65 76 67 77
REMARK SMILES IDX 60 78 61 79 62 80 63 81 64 82 40 83 41 84 50 85 42 86 43 87
REMARK SMILES IDX 49 88 51 89 44 90 45 91 46 92 47 93 48 94
REMARK H PARENT 87 22 87 23 72 44 38 55
REMARK Flexibility Score: inf
ROOT
ATOM      1  C   UNL A   1      34.578  30.339  27.781  1.00  0.00     0.275 C 
ENDROOT
BRANCH   1   2
ATOM      2  C   UNL A   1      33.262  29.651  27.416  1.00  0.00     0.274 C 
BRANCH   2   3
ATOM      3  O   UNL A   1      33.467  28.350  26.828  1.00  0.00    -0.462 OA
BRANCH   3   4
ATOM      4  C   UNL A   1      32.338  27.602  26.684  1.00  0.00     0.314 C 
ATOM      5  O   UNL A   1      31.414  27.601  27.489  1.00  0.00    -0.252 OA
BRANCH   4   6
ATOM      6  C   UNL A   1      32.349  26.758  25.401  1.00  0.00     0.087 C 
ATOM      7  C   UNL A   1      31.371  25.576  25.589  1.00  0.00     0.042 C 
ATOM      8  C   UNL A   1      33.706  26.042  25.274  1.00  0.00     0.138 C 
ATOM      9  C   UNL A   1      32.189  24.558  26.368  1.00  0.00     0.120 C 
ATOM     10  N   UNL A   1      33.507  24.683  25.768  1.00  0.00    -0.341 N 
BRANCH   6  11
ATOM     11  C   UNL A   1      32.060  27.666  24.178  1.00  0.00     0.020 C 
BRANCH  11  12
ATOM     12  C   UNL A   1      30.682  28.340  24.114  1.00  0.00    -0.002 C 
ATOM     13  C   UNL A   1      29.922  28.044  22.825  1.00  0.00     0.004 C 
ENDBRANCH  11  12
ENDBRANCH   6  11
BRANCH  10  14
ATOM     14  C   UNL A   1      34.502  23.748  25.622  1.00  0.00     0.231 C 
ATOM     15  O   UNL A   1      35.670  24.042  25.918  1.00  0.00    -0.274 OA
BRANCH  14  16
ATOM     16  C   UNL A   1      34.231  22.329  25.121  1.00  0.00     0.142 C 
ATOM     17  C   UNL A   1      33.304  22.207  23.911  1.00  0.00     0.081 C 
ATOM     18  C   UNL A   1      33.685  21.334  26.142  1.00  0.00     0.192 C 
ATOM     19  C   UNL A   1      32.203  21.244  24.348  1.00  0.00     0.261 C 
ATOM     20  N   UNL A   1      32.262  21.227  25.810  1.00  0.00    -0.343 N 
ATOM     21  C   UNL A   1      33.924  21.651  27.610  1.00  0.00     0.076 C 
ATOM     22  H   UNL A   1      31.875  20.356  26.173  1.00  0.00     0.346 HD
ATOM     23  H   UNL A   1      31.718  21.986  26.220  1.00  0.00     0.346 HD
ENDBRANCH  14  16
ENDBRANCH  10  14
ENDBRANCH   4   6
ENDBRANCH   3   4
ENDBRANCH   2   3
ENDBRANCH   1   2
BRANCH   1  24
ATOM     24  O   UNL A   1      35.584  29.387  28.169  1.00  0.00    -0.458 OA
BRANCH  24  25
ATOM     25  C   UNL A   1      36.282  29.707  29.273  1.00  0.00     0.338 C 
ATOM     26  O   UNL A   1      35.832  29.889  30.412  1.00  0.00    -0.246 OA
BRANCH  25  27
ATOM     27  C   UNL A   1      37.718  29.781  28.995  1.00  0.00     0.060 A 
ATOM     28  C   UNL A   1      38.148  29.695  27.670  1.00  0.00     0.016 A 
ATOM     29  C   UNL A   1      38.637  29.713  30.042  1.00  0.00     0.016 A 
ATOM     30  C   UNL A   1      39.486  29.437  27.388  1.00  0.00     0.010 A 
ATOM     31  C   UNL A   1      39.992  29.511  29.755  1.00  0.00     0.010 A 
ATOM     32  C   UNL A   1      40.416  29.312  28.429  1.00  0.00    -0.014 A 
BRANCH  32  33
ATOM     33  C   UNL A   1      41.795  28.852  28.126  1.00  0.00     0.031 A 
ATOM     34  C   UNL A   1      42.943  29.823  28.227  1.00  0.00     0.074 A 
ATOM     35  C   UNL A   1      42.034  27.560  27.831  1.00  0.00     0.049 A 
ATOM     36  N   UNL A   1      44.207  29.642  27.940  1.00  0.00    -0.248 NA
ATOM     37  C   UNL A   1      42.627  31.175  28.714  1.00  0.00     0.031 C 
ATOM     38  C   UNL A   1      41.019  26.508  27.751  1.00  0.00     0.029 A 
ATOM     39  N   UNL A   1      43.211  26.911  27.561  1.00  0.00    -0.354 N 
ATOM     40  C   UNL A   1      44.827  30.865  28.168  1.00  0.00     0.074 A 
ATOM     41  C   UNL A   1      43.802  31.781  28.619  1.00  0.00     0.031 C 
ATOM     42  C   UNL A   1      41.623  25.339  27.477  1.00  0.00     0.029 A 
ATOM     43  C   UNL A   1      43.056  25.567  27.322  1.00  0.00     0.049 A 
ATOM     44  H   UNL A   1      44.085  27.365  27.539  1.00  0.00     0.167 HD
ATOM     45  C   UNL A   1      46.132  31.197  28.013  1.00  0.00     0.037 A 
ATOM     46  C   UNL A   1      43.967  24.628  27.002  1.00  0.00     0.037 A 
ATOM     47  C   UNL A   1      47.161  30.280  27.605  1.00  0.00     0.049 A 
ATOM     48  C   UNL A   1      45.412  25.015  26.858  1.00  0.00     0.074 A 
ATOM     49  C   UNL A   1      48.506  30.528  27.388  1.00  0.00     0.029 A 
ATOM     50  N   UNL A   1      46.963  28.927  27.376  1.00  0.00    -0.354 N 
ATOM     51  N   UNL A   1      45.967  26.193  27.006  1.00  0.00    -0.248 NA
ATOM     52  C   UNL A   1      46.351  23.944  26.495  1.00  0.00     0.031 C 
ATOM     53  C   UNL A   1      49.120  29.322  27.023  1.00  0.00     0.029 A 
ATOM     54  C   UNL A   1      48.161  28.324  27.031  1.00  0.00     0.049 A 
ATOM     55  H   UNL A   1      46.099  28.462  27.449  1.00  0.00     0.167 HD
ATOM     56  C   UNL A   1      47.321  26.007  26.755  1.00  0.00     0.074 A 
ATOM     57  C   UNL A   1      47.504  24.598  26.467  1.00  0.00     0.031 C 
ATOM     58  C   UNL A   1      48.322  26.920  26.753  1.00  0.00     0.037 A 
BRANCH  45  59
ATOM     59  C   UNL A   1      46.503  32.630  28.259  1.00  0.00     0.058 A 
ATOM     60  C   UNL A   1      46.954  33.070  29.512  1.00  0.00     0.135 A 
ATOM     61  C   UNL A   1      46.399  33.576  27.226  1.00  0.00     0.135 A 
ATOM     62  F   UNL A   1      47.051  32.207  30.537  1.00  0.00    -0.206 F 
ATOM     63  C   UNL A   1      47.263  34.407  29.743  1.00  0.00     0.059 A 
ATOM     64  C   UNL A   1      46.717  34.914  27.430  1.00  0.00     0.059 A 
ATOM     65  F   UNL A   1      45.967  33.204  26.011  1.00  0.00    -0.206 F 
ATOM     66  C   UNL A   1      47.132  35.323  28.698  1.00  0.00     0.060 A 
BRANCH  66  67
ATOM     67  S   UNL A   1      47.515  37.062  29.002  1.00  0.00     0.124 S 
ATOM     68  O   UNL A   1      47.749  37.057  30.443  1.00  0.00    -0.237 OA
ATOM     69  O   UNL A   1      48.695  37.281  28.170  1.00  0.00    -0.237 OA
ATOM     70  O   UNL A   1      46.308  37.753  28.562  1.00  0.00    -0.744 OA
ENDBRANCH  66  67
ENDBRANCH  45  59
BRANCH  46  71
ATOM     71  C   UNL A   1      43.531  23.227  26.786  1.00  0.00     0.058 A 
ATOM     72  C   UNL A   1      43.486  22.678  25.497  1.00  0.00     0.135 A 
ATOM     73  C   UNL A   1      43.174  22.405  27.865  1.00  0.00     0.135 A 
ATOM     74  F   UNL A   1      43.812  23.431  24.435  1.00  0.00    -0.206 F 
ATOM     75  C   UNL A   1      43.095  21.361  25.281  1.00  0.00     0.059 A 
ATOM     76  C   UNL A   1      42.796  21.080  27.676  1.00  0.00     0.059 A 
ATOM     77  F   UNL A   1      43.215  22.885  29.117  1.00  0.00    -0.206 F 
ATOM     78  C   UNL A   1      42.753  20.569  26.379  1.00  0.00     0.060 A 
BRANCH  78  79
ATOM     79  S   UNL A   1      42.311  18.838  26.112  1.00  0.00     0.124 S 
ATOM     80  O   UNL A   1      43.219  18.468  25.033  1.00  0.00    -0.237 OA
ATOM     81  O   UNL A   1      42.586  18.236  27.414  1.00  0.00    -0.237 OA
ATOM     82  O   UNL A   1      40.897  18.913  25.754  1.00  0.00    -0.744 OA
ENDBRANCH  78  79
ENDBRANCH  46  71
BRANCH  58  83
ATOM     83  C   UNL A   1      49.699  26.415  26.442  1.00  0.00     0.058 A 
ATOM     84  C   UNL A   1      50.177  26.370  25.123  1.00  0.00     0.135 A 
ATOM     85  C   UNL A   1      50.550  25.985  27.470  1.00  0.00     0.135 A 
ATOM     86  F   UNL A   1      49.394  26.766  24.108  1.00  0.00    -0.206 F 
ATOM     87  C   UNL A   1      51.448  25.888  24.830  1.00  0.00     0.059 A 
ATOM     88  C   UNL A   1      51.831  25.512  27.200  1.00  0.00     0.059 A 
ATOM     89  F   UNL A   1      50.139  26.015  28.747  1.00  0.00    -0.206 F 
ATOM     90  C   UNL A   1      52.265  25.454  25.876  1.00  0.00     0.060 A 
BRANCH  90  91
ATOM     91  S   UNL A   1      53.919  24.834  25.498  1.00  0.00     0.124 S 
ATOM     92  O   UNL A   1      54.303  25.688  24.379  1.00  0.00    -0.237 OA
ATOM     93  O   UNL A   1      54.642  25.063  26.746  1.00  0.00    -0.237 OA
ATOM     94  O   UNL A   1      53.682  23.431  25.170  1.00  0.00    -0.744 OA
ENDBRANCH  90  91
ENDBRANCH  58  83
ENDBRANCH  32  33
ENDBRANCH  25  27
ENDBRANCH  24  25
ENDBRANCH   1  24
TORSDOF 18
ENDMDL
MODEL 3
REMARK VINA RESULT:     -10.4      0.917      1.557
REMARK SMILES CCC[C@@]1(C(=O)OCCOC(=O)c2ccc(-c3c4nc(c(-c5c(F)cc(S(=O)(=O)[O-])cc5F)c5ccc([nH]5)c(-c5c(F)cc(S(=O)(=O)[O-])cc5F)c5nc(c(-c6c(F)cc(S(=O)(=O)[O-])cc6F)c6ccc3[nH]6)C=C5)C=C4)cc2)CCN(C(=O)[C@@H]2CC[NH2+][C@@H]2C)C1
REMARK SMILES IDX 9 1 8 2 7 3 5 4 6 5 4 6 79 7 90 8 80 9 81 10 3 11 2 12 1 13
REMARK SMILES IDX 82 14 83 15 84 16 85 17 88 18 86 19 87 20 89 21 10 24 11 25
REMARK SMILES IDX 12 26 13 27 14 28 78 29 15 30 77 31 16 32 17 33 18 34 71 35
REMARK SMILES IDX 19 36 76 37 70 38 72 39 20 40 75 41 69 42 68 43 21 45 55 46
REMARK SMILES IDX 34 47 54 48 35 49 38 50 53 51 73 52 36 53 37 54 52 56 74 57
REMARK SMILES IDX 39 58 22 59 23 60 32 61 24 62 25 63 31 64 33 65 26 66 27 67
REMARK SMILES IDX 28 68 29 69 30 70 56 71 57 72 66 73 58 74 59 75 65 76 67 77
REMARK SMILES IDX 60 78 61 79 62 80 63 81 64 82 40 83 41 84 50 85 42 86 43 87
REMARK SMILES IDX 49 88 51 89 44 90 45 91 46 92 47 93 48 94
REMARK H PARENT 87 22 87 23 72 44 38 55
REMARK Flexibility Score: inf
ROOT
ATOM      1  C   UNL A   1      40.226  22.233  26.129  1.00  0.00     0.275 C 
ENDROOT
BRANCH   1   2
ATOM      2  C   UNL A   1      38.858  21.551  26.078  1.00  0.00     0.274 C 
BRANCH   2   3
ATOM      3  O   UNL A   1      37.985  22.144  25.096  1.00  0.00    -0.462 OA
BRANCH   3   4
ATOM      4  C   UNL A   1      36.932  22.840  25.609  1.00  0.00     0.314 C 
ATOM      5  O   UNL A   1      37.047  23.727  26.448  1.00  0.00    -0.252 OA
BRANCH   4   6
ATOM      6  C   UNL A   1      35.586  22.392  25.023  1.00  0.00     0.087 C 
ATOM      7  C   UNL A   1      35.457  22.980  23.600  1.00  0.00     0.042 C 
ATOM      8  C   UNL A   1      34.442  23.098  25.773  1.00  0.00     0.138 C 
ATOM      9  C   UNL A   1      34.974  24.402  23.844  1.00  0.00     0.120 C 
ATOM     10  N   UNL A   1      34.043  24.235  24.948  1.00  0.00    -0.341 N 
BRANCH   6  11
ATOM     11  C   UNL A   1      35.467  20.849  25.113  1.00  0.00     0.020 C 
BRANCH  11  12
ATOM     12  C   UNL A   1      34.063  20.243  24.964  1.00  0.00    -0.002 C 
ATOM     13  C   UNL A   1      34.077  18.768  24.576  1.00  0.00     0.004 C 
ENDBRANCH  11  12
ENDBRANCH   6  11
BRANCH  10  14
ATOM     14  C   UNL A   1      32.925  24.961  25.277  1.00  0.00     0.231 C 
ATOM     15  O   UNL A   1      32.999  25.849  26.138  1.00  0.00    -0.274 OA
BRANCH  14  16
ATOM     16  C   UNL A   1      31.571  24.735  24.603  1.00  0.00     0.142 C 
ATOM     17  C   UNL A   1      30.921  25.963  23.966  1.00  0.00     0.081 C 
ATOM     18  C   UNL A   1      30.475  24.106  25.461  1.00  0.00     0.192 C 
ATOM     19  C   UNL A   1      29.530  26.047  24.589  1.00  0.00     0.261 C 
ATOM     20  N   UNL A   1      29.598  25.229  25.800  1.00  0.00    -0.343 N 
ATOM     21  C   UNL A   1      30.922  23.318  26.682  1.00  0.00     0.076 C 
ATOM     22  H   UNL A   1      28.670  24.894  26.057  1.00  0.00     0.346 HD
ATOM     23  H   UNL A   1      29.952  25.760  26.596  1.00  0.00     0.346 HD
ENDBRANCH  14  16
ENDBRANCH  10  14
ENDBRANCH   4   6
ENDBRANCH   3   4
ENDBRANCH   2   3
ENDBRANCH   1   2
BRANCH   1  24
ATOM     24  O   UNL A   1      40.118  23.606  26.544  1.00  0.00    -0.458 OA
BRANCH  24  25
ATOM     25  C   UNL A   1      41.125  24.054  27.313  1.00  0.00     0.338 C 
ATOM     26  O   UNL A   1      42.236  23.527  27.467  1.00  0.00    -0.246 OA
BRANCH  25  27
ATOM     27  C   UNL A   1      40.783  25.324  27.957  1.00  0.00     0.060 A 
ATOM     28  C   UNL A   1      41.772  26.300  28.081  1.00  0.00     0.016 A 
ATOM     29  C   UNL A   1      39.566  25.463  28.625  1.00  0.00     0.016 A 
ATOM     30  C   UNL A   1      41.592  27.367  28.955  1.00  0.00     0.010 A 
ATOM     31  C   UNL A   1      39.363  26.568  29.460  1.00  0.00     0.010 A 
ATOM     32  C   UNL A   1      40.397  27.495  29.676  1.00  0.00    -0.014 A 
BRANCH  32  33
ATOM     33  C   UNL A   1      40.292  28.526  30.740  1.00  0.00     0.031 A 
ATOM     34  C   UNL A   1      41.259  28.505  31.896  1.00  0.00     0.074 A 
ATOM     35  C   UNL A   1      39.387  29.518  30.642  1.00  0.00     0.049 A 
ATOM     36  N   UNL A   1      41.295  29.268  32.958  1.00  0.00    -0.248 NA
ATOM     37  C   UNL A   1      42.323  27.490  31.851  1.00  0.00     0.031 C 
ATOM     38  C   UNL A   1      38.426  29.684  29.550  1.00  0.00     0.029 A 
ATOM     39  N   UNL A   1      39.140  30.584  31.469  1.00  0.00    -0.354 N 
ATOM     40  C   UNL A   1      42.354  28.799  33.727  1.00  0.00     0.074 A 
ATOM     41  C   UNL A   1      42.937  27.686  33.009  1.00  0.00     0.031 C 
ATOM     42  C   UNL A   1      37.712  30.802  29.762  1.00  0.00     0.029 A 
ATOM     43  C   UNL A   1      38.134  31.406  31.022  1.00  0.00     0.049 A 
ATOM     44  H   UNL A   1      39.635  30.744  32.305  1.00  0.00     0.167 HD
ATOM     45  C   UNL A   1      42.800  29.252  34.923  1.00  0.00     0.037 A 
ATOM     46  C   UNL A   1      37.606  32.516  31.572  1.00  0.00     0.037 A 
ATOM     47  C   UNL A   1      42.251  30.384  35.621  1.00  0.00     0.049 A 
ATOM     48  C   UNL A   1      38.132  33.013  32.889  1.00  0.00     0.074 A 
ATOM     49  C   UNL A   1      42.612  30.900  36.853  1.00  0.00     0.029 A 
ATOM     50  N   UNL A   1      41.236  31.191  35.131  1.00  0.00    -0.354 N 
ATOM     51  N   UNL A   1      39.086  32.512  33.636  1.00  0.00    -0.248 NA
ATOM     52  C   UNL A   1      37.503  34.221  33.440  1.00  0.00     0.031 C 
ATOM     53  C   UNL A   1      41.811  32.020  37.110  1.00  0.00     0.029 A 
ATOM     54  C   UNL A   1      40.965  32.209  36.031  1.00  0.00     0.049 A 
ATOM     55  H   UNL A   1      40.776  31.062  34.271  1.00  0.00     0.167 HD
ATOM     56  C   UNL A   1      39.172  33.344  34.746  1.00  0.00     0.074 A 
ATOM     57  C   UNL A   1      38.188  34.393  34.562  1.00  0.00     0.031 C 
ATOM     58  C   UNL A   1      39.985  33.245  35.826  1.00  0.00     0.037 A 
BRANCH  45  59
ATOM     59  C   UNL A   1      43.924  28.491  35.563  1.00  0.00     0.058 A 
ATOM     60  C   UNL A   1      43.686  27.438  36.458  1.00  0.00     0.135 A 
ATOM     61  C   UNL A   1      45.258  28.828  35.281  1.00  0.00     0.135 A 
ATOM     62  F   UNL A   1      42.428  27.091  36.775  1.00  0.00    -0.206 F 
ATOM     63  C   UNL A   1      44.733  26.759  37.074  1.00  0.00     0.059 A 
ATOM     64  C   UNL A   1      46.320  28.154  35.874  1.00  0.00     0.059 A 
ATOM     65  F   UNL A   1      45.536  29.833  34.435  1.00  0.00    -0.206 F 
ATOM     66  C   UNL A   1      46.047  27.132  36.783  1.00  0.00     0.060 A 
BRANCH  66  67
ATOM     67  S   UNL A   1      47.406  26.265  37.598  1.00  0.00     0.124 S 
ATOM     68  O   UNL A   1      47.121  26.541  39.003  1.00  0.00    -0.237 OA
ATOM     69  O   UNL A   1      47.207  24.883  37.172  1.00  0.00    -0.237 OA
ATOM     70  O   UNL A   1      48.593  26.918  37.056  1.00  0.00    -0.744 OA
ENDBRANCH  66  67
ENDBRANCH  45  59
BRANCH  46  71
ATOM     71  C   UNL A   1      36.505  33.227  30.878  1.00  0.00     0.058 A 
ATOM     72  C   UNL A   1      35.199  33.201  31.386  1.00  0.00     0.135 A 
ATOM     73  C   UNL A   1      36.743  33.963  29.707  1.00  0.00     0.135 A 
ATOM     74  F   UNL A   1      34.925  32.504  32.499  1.00  0.00    -0.206 F 
ATOM     75  C   UNL A   1      34.160  33.877  30.754  1.00  0.00     0.059 A 
ATOM     76  C   UNL A   1      35.725  34.660  29.067  1.00  0.00     0.059 A 
ATOM     77  F   UNL A   1      37.980  34.025  29.193  1.00  0.00    -0.206 F 
ATOM     78  C   UNL A   1      34.435  34.605  29.594  1.00  0.00     0.060 A 
BRANCH  78  79
ATOM     79  S   UNL A   1      33.104  35.541  28.808  1.00  0.00     0.124 S 
ATOM     80  O   UNL A   1      32.341  35.991  29.965  1.00  0.00    -0.237 OA
ATOM     81  O   UNL A   1      33.833  36.576  28.080  1.00  0.00    -0.237 OA
ATOM     82  O   UNL A   1      32.452  34.539  27.968  1.00  0.00    -0.744 OA
ENDBRANCH  78  79
ENDBRANCH  46  71
BRANCH  58  83
ATOM     83  C   UNL A   1      39.848  34.304  36.877  1.00  0.00     0.058 A 
ATOM     84  C   UNL A   1      38.976  34.142  37.964  1.00  0.00     0.135 A 
ATOM     85  C   UNL A   1      40.602  35.485  36.803  1.00  0.00     0.135 A 
ATOM     86  F   UNL A   1      38.231  33.031  38.072  1.00  0.00    -0.206 F 
ATOM     87  C   UNL A   1      38.835  35.130  38.933  1.00  0.00     0.059 A 
ATOM     88  C   UNL A   1      40.486  36.480  37.769  1.00  0.00     0.059 A 
ATOM     89  F   UNL A   1      41.453  35.682  35.784  1.00  0.00    -0.206 F 
ATOM     90  C   UNL A   1      39.590  36.300  38.822  1.00  0.00     0.060 A 
BRANCH  90  91
ATOM     91  S   UNL A   1      39.414  37.582  40.082  1.00  0.00     0.124 S 
ATOM     92  O   UNL A   1      39.192  36.782  41.282  1.00  0.00    -0.237 OA
ATOM     93  O   UNL A   1      40.695  38.279  40.014  1.00  0.00    -0.237 OA
ATOM     94  O   UNL A   1      38.265  38.351  39.615  1.00  0.00    -0.744 OA
ENDBRANCH  90  91
ENDBRANCH  58  83
ENDBRANCH  32  33
ENDBRANCH  25  27
ENDBRANCH  24  25
ENDBRANCH   1  24
TORSDOF 18
ENDMDL
