MODEL 1
REMARK VINA RESULT:     -12.1      0.000      0.000
REMARK SMILES CCc1cc(=O)oc2c3c(cc(OCC(=O)NCC(=O)OCCOC(=O)c4ccc(-c5c6nc(c(-c7c(F)cc(S(=O)(=O)[O-])cc7F)c7ccc([nH]7)c(-c7c(F)cc(S(=O)(=O)[O-])cc7F)c7nc(c(-c8c(F)cc(S(=O)(=O)[O-])cc8F)c8ccc5[nH]8)C=C7)C=C6)cc4)c12)OC(C)(C)CC3
REMARK SMILES IDX 22 1 21 2 19 3 20 4 18 5 17 6 15 7 16 8 14 10 13 11 12 12
REMARK SMILES IDX 3 13 4 14 93 15 5 16 8 17 6 18 7 19 9 20 11 21 10 22 99 23
REMARK SMILES IDX 94 24 98 25 95 26 96 27 97 28 2 29 1 30 23 31 24 32 25 33
REMARK SMILES IDX 26 34 27 35 28 36 92 37 29 38 91 39 30 40 31 41 32 42 85 43
REMARK SMILES IDX 33 44 90 45 84 46 86 47 34 48 89 49 83 50 82 51 35 53 69 54
REMARK SMILES IDX 48 55 68 56 49 57 52 58 67 59 87 60 50 61 51 62 66 64 88 65
REMARK SMILES IDX 53 66 36 67 37 68 46 69 38 70 39 71 45 72 47 73 40 74 41 75
REMARK SMILES IDX 42 76 43 77 44 78 70 79 71 80 80 81 72 82 73 83 79 84 81 85
REMARK SMILES IDX 74 86 75 87 76 88 77 89 78 90 54 91 55 92 64 93 56 94 57 95
REMARK SMILES IDX 63 96 65 97 58 98 59 99 60 100 61 101 62 102
REMARK H PARENT 17 9 86 52 52 63
REMARK Flexibility Score: inf
ROOT
ATOM      1  C   UNL A   1      34.701  33.344  29.942  1.00  0.00     0.274 C 
ENDROOT
BRANCH   1   2
ATOM      2  O   UNL A   1      34.224  32.206  29.200  1.00  0.00    -0.461 OA
BRANCH   2   3
ATOM      3  C   UNL A   1      34.891  31.902  28.056  1.00  0.00     0.325 C 
ATOM      4  O   UNL A   1      35.659  32.658  27.473  1.00  0.00    -0.250 OA
BRANCH   3   5
ATOM      5  C   UNL A   1      34.545  30.516  27.515  1.00  0.00     0.238 C 
BRANCH   5   6
ATOM      6  N   UNL A   1      33.159  30.107  27.667  1.00  0.00    -0.342 N 
ATOM      7  C   UNL A   1      32.602  28.903  27.356  1.00  0.00     0.258 C 
ATOM      8  O   UNL A   1      31.432  28.676  27.672  1.00  0.00    -0.271 OA
ATOM      9  H   UNL A   1      32.548  30.782  28.040  1.00  0.00     0.164 HD
BRANCH   7  10
ATOM     10  C   UNL A   1      33.451  27.846  26.632  1.00  0.00     0.329 C 
BRANCH  10  11
ATOM     11  O   UNL A   1      32.750  26.748  26.047  1.00  0.00    -0.483 OA
BRANCH  11  12
ATOM     12  C   UNL A   1      33.453  25.857  25.273  1.00  0.00     0.135 A 
ATOM     13  C   UNL A   1      32.113  26.540  23.143  1.00  0.00    -0.026 A 
ATOM     14  C   UNL A   1      32.021  26.363  21.814  1.00  0.00     0.098 A 
ATOM     15  C   UNL A   1      33.159  25.773  23.888  1.00  0.00     0.063 A 
ATOM     16  C   UNL A   1      32.858  25.452  21.034  1.00  0.00     0.336 A 
ATOM     17  C   UNL A   1      33.934  24.856  23.144  1.00  0.00     0.149 A 
ATOM     18  O   UNL A   1      32.735  25.359  19.820  1.00  0.00    -0.246 OA
ATOM     19  O   UNL A   1      33.759  24.701  21.748  1.00  0.00    -0.422 OA
ATOM     20  C   UNL A   1      34.930  24.034  23.701  1.00  0.00     0.038 A 
ATOM     21  C   UNL A   1      34.461  25.049  25.828  1.00  0.00     0.094 A 
ATOM     22  C   UNL A   1      35.157  24.119  25.064  1.00  0.00     0.130 A 
ATOM     23  C   UNL A   1      35.712  23.067  22.859  1.00  0.00     0.047 C 
ATOM     24  O   UNL A   1      36.053  23.346  25.749  1.00  0.00    -0.487 OA
ATOM     25  C   UNL A   1      36.930  22.548  23.613  1.00  0.00     0.053 C 
ATOM     26  C   UNL A   1      36.572  22.196  25.063  1.00  0.00     0.104 C 
ATOM     27  C   UNL A   1      37.850  21.804  25.818  1.00  0.00     0.056 C 
ATOM     28  C   UNL A   1      35.573  21.031  25.166  1.00  0.00     0.056 C 
BRANCH  13  29
ATOM     29  C   UNL A   1      31.149  27.479  23.843  1.00  0.00     0.033 C 
ATOM     30  C   UNL A   1      31.008  28.885  23.251  1.00  0.00     0.009 C 
ENDBRANCH  13  29
ENDBRANCH  11  12
ENDBRANCH  10  11
ENDBRANCH   7  10
ENDBRANCH   5   6
ENDBRANCH   3   5
ENDBRANCH   2   3
ENDBRANCH   1   2
BRANCH   1  31
ATOM     31  C   UNL A   1      35.392  32.902  31.238  1.00  0.00     0.275 C 
BRANCH  31  32
ATOM     32  O   UNL A   1      36.684  32.312  30.989  1.00  0.00    -0.458 OA
BRANCH  32  33
ATOM     33  C   UNL A   1      36.765  30.990  31.272  1.00  0.00     0.338 C 
ATOM     34  O   UNL A   1      35.948  30.319  31.884  1.00  0.00    -0.246 OA
BRANCH  33  35
ATOM     35  C   UNL A   1      37.905  30.378  30.572  1.00  0.00     0.060 A 
ATOM     36  C   UNL A   1      38.914  29.839  31.374  1.00  0.00     0.016 A 
ATOM     37  C   UNL A   1      38.050  30.408  29.184  1.00  0.00     0.016 A 
ATOM     38  C   UNL A   1      40.076  29.340  30.808  1.00  0.00     0.010 A 
ATOM     39  C   UNL A   1      39.232  29.920  28.610  1.00  0.00     0.010 A 
ATOM     40  C   UNL A   1      40.257  29.404  29.423  1.00  0.00    -0.014 A 
BRANCH  40  41
ATOM     41  C   UNL A   1      41.584  29.030  28.882  1.00  0.00     0.031 A 
ATOM     42  C   UNL A   1      42.688  30.049  28.870  1.00  0.00     0.074 A 
ATOM     43  C   UNL A   1      41.822  27.758  28.513  1.00  0.00     0.049 A 
ATOM     44  N   UNL A   1      43.926  29.922  28.469  1.00  0.00    -0.248 NA
ATOM     45  C   UNL A   1      42.357  31.390  29.379  1.00  0.00     0.031 C 
ATOM     46  C   UNL A   1      40.838  26.674  28.534  1.00  0.00     0.029 A 
ATOM     47  N   UNL A   1      42.971  27.159  28.064  1.00  0.00    -0.354 N 
ATOM     48  C   UNL A   1      44.514  31.167  28.654  1.00  0.00     0.074 A 
ATOM     49  C   UNL A   1      43.496  32.040  29.195  1.00  0.00     0.031 C 
ATOM     50  C   UNL A   1      41.428  25.539  28.121  1.00  0.00     0.029 A 
ATOM     51  C   UNL A   1      42.819  25.822  27.779  1.00  0.00     0.049 A 
ATOM     52  H   UNL A   1      43.823  27.640  27.956  1.00  0.00     0.167 HD
ATOM     53  C   UNL A   1      45.789  31.543  28.396  1.00  0.00     0.037 A 
ATOM     54  C   UNL A   1      43.701  24.933  27.285  1.00  0.00     0.037 A 
ATOM     55  C   UNL A   1      46.805  30.660  27.886  1.00  0.00     0.049 A 
ATOM     56  C   UNL A   1      45.112  25.379  27.008  1.00  0.00     0.074 A 
ATOM     57  C   UNL A   1      48.128  30.944  27.594  1.00  0.00     0.029 A 
ATOM     58  N   UNL A   1      46.612  29.316  27.601  1.00  0.00    -0.354 N 
ATOM     59  N   UNL A   1      45.648  26.565  27.173  1.00  0.00    -0.248 NA
ATOM     60  C   UNL A   1      46.037  24.367  26.483  1.00  0.00     0.031 C 
ATOM     61  C   UNL A   1      48.727  29.777  27.105  1.00  0.00     0.029 A 
ATOM     62  C   UNL A   1      47.788  28.759  27.129  1.00  0.00     0.049 A 
ATOM     63  H   UNL A   1      45.763  28.830  27.716  1.00  0.00     0.167 HD
ATOM     64  C   UNL A   1      46.978  26.436  26.789  1.00  0.00     0.074 A 
ATOM     65  C   UNL A   1      47.168  25.053  26.401  1.00  0.00     0.031 C 
ATOM     66  C   UNL A   1      47.955  27.377  26.755  1.00  0.00     0.037 A 
BRANCH  53  67
ATOM     67  C   UNL A   1      46.149  32.983  28.632  1.00  0.00     0.058 A 
ATOM     68  C   UNL A   1      46.674  33.426  29.855  1.00  0.00     0.135 A 
ATOM     69  C   UNL A   1      45.994  33.926  27.603  1.00  0.00     0.135 A 
ATOM     70  F   UNL A   1      46.820  32.570  30.879  1.00  0.00    -0.206 F 
ATOM     71  C   UNL A   1      47.019  34.759  30.056  1.00  0.00     0.059 A 
ATOM     72  C   UNL A   1      46.352  35.259  27.775  1.00  0.00     0.059 A 
ATOM     73  F   UNL A   1      45.490  33.554  26.416  1.00  0.00    -0.206 F 
ATOM     74  C   UNL A   1      46.854  35.669  29.009  1.00  0.00     0.060 A 
BRANCH  74  75
ATOM     75  S   UNL A   1      47.317  37.393  29.276  1.00  0.00     0.124 S 
ATOM     76  O   UNL A   1      46.975  37.988  27.987  1.00  0.00    -0.237 OA
ATOM     77  O   UNL A   1      46.467  37.779  30.397  1.00  0.00    -0.237 OA
ATOM     78  O   UNL A   1      48.744  37.319  29.573  1.00  0.00    -0.744 OA
ENDBRANCH  74  75
ENDBRANCH  53  67
BRANCH  54  79
ATOM     79  C   UNL A   1      43.273  23.539  27.003  1.00  0.00     0.058 A 
ATOM     80  C   UNL A   1      43.061  23.091  25.691  1.00  0.00     0.135 A 
ATOM     81  C   UNL A   1      43.064  22.626  28.048  1.00  0.00     0.135 A 
ATOM     82  F   UNL A   1      43.241  23.928  24.659  1.00  0.00    -0.206 F 
ATOM     83  C   UNL A   1      42.638  21.791  25.425  1.00  0.00     0.059 A 
ATOM     84  C   UNL A   1      42.665  21.316  27.807  1.00  0.00     0.059 A 
ATOM     85  F   UNL A   1      43.266  23.002  29.320  1.00  0.00    -0.206 F 
ATOM     86  C   UNL A   1      42.441  20.911  26.491  1.00  0.00     0.060 A 
BRANCH  86  87
ATOM     87  S   UNL A   1      41.933  19.215  26.141  1.00  0.00     0.124 S 
ATOM     88  O   UNL A   1      42.270  18.545  27.392  1.00  0.00    -0.237 OA
ATOM     89  O   UNL A   1      40.510  19.368  25.860  1.00  0.00    -0.237 OA
ATOM     90  O   UNL A   1      42.755  18.853  24.989  1.00  0.00    -0.744 OA
ENDBRANCH  86  87
ENDBRANCH  54  79
BRANCH  66  91
ATOM     91  C   UNL A   1      49.319  26.927  26.316  1.00  0.00     0.058 A 
ATOM     92  C   UNL A   1      50.264  26.442  27.234  1.00  0.00     0.135 A 
ATOM     93  C   UNL A   1      49.679  26.969  24.961  1.00  0.00     0.135 A 
ATOM     94  F   UNL A   1      49.969  26.384  28.543  1.00  0.00    -0.206 F 
ATOM     95  C   UNL A   1      51.535  26.048  26.826  1.00  0.00     0.059 A 
ATOM     96  C   UNL A   1      50.935  26.559  24.528  1.00  0.00     0.059 A 
ATOM     97  F   UNL A   1      48.806  27.413  24.043  1.00  0.00    -0.206 F 
ATOM     98  C   UNL A   1      51.863  26.119  25.471  1.00  0.00     0.060 A 
BRANCH  98  99
ATOM     99  S   UNL A   1      53.516  25.613  24.947  1.00  0.00     0.124 S 
ATOM    100  O   UNL A   1      53.494  24.185  25.251  1.00  0.00    -0.237 OA
ATOM    101  O   UNL A   1      53.518  25.959  23.530  1.00  0.00    -0.237 OA
ATOM    102  O   UNL A   1      54.397  26.421  25.785  1.00  0.00    -0.744 OA
ENDBRANCH  98  99
ENDBRANCH  66  91
ENDBRANCH  40  41
ENDBRANCH  33  35
ENDBRANCH  32  33
ENDBRANCH  31  32
ENDBRANCH   1  31
TORSDOF 19
ENDMDL
MODEL 2
REMARK VINA RESULT:     -12.1      6.108     11.749
REMARK SMILES CCc1cc(=O)oc2c3c(cc(OCC(=O)NCC(=O)OCCOC(=O)c4ccc(-c5c6nc(c(-c7c(F)cc(S(=O)(=O)[O-])cc7F)c7ccc([nH]7)c(-c7c(F)cc(S(=O)(=O)[O-])cc7F)c7nc(c(-c8c(F)cc(S(=O)(=O)[O-])cc8F)c8ccc5[nH]8)C=C7)C=C6)cc4)c12)OC(C)(C)CC3
REMARK SMILES IDX 22 1 21 2 19 3 20 4 18 5 17 6 15 7 16 8 14 10 13 11 12 12
REMARK SMILES IDX 3 13 4 14 93 15 5 16 8 17 6 18 7 19 9 20 11 21 10 22 99 23
REMARK SMILES IDX 94 24 98 25 95 26 96 27 97 28 2 29 1 30 23 31 24 32 25 33
REMARK SMILES IDX 26 34 27 35 28 36 92 37 29 38 91 39 30 40 31 41 32 42 85 43
REMARK SMILES IDX 33 44 90 45 84 46 86 47 34 48 89 49 83 50 82 51 35 53 69 54
REMARK SMILES IDX 48 55 68 56 49 57 52 58 67 59 87 60 50 61 51 62 66 64 88 65
REMARK SMILES IDX 53 66 36 67 37 68 46 69 38 70 39 71 45 72 47 73 40 74 41 75
REMARK SMILES IDX 42 76 43 77 44 78 70 79 71 80 80 81 72 82 73 83 79 84 81 85
REMARK SMILES IDX 74 86 75 87 76 88 77 89 78 90 54 91 55 92 64 93 56 94 57 95
REMARK SMILES IDX 63 96 65 97 58 98 59 99 60 100 61 101 62 102
REMARK H PARENT 17 9 86 52 52 63
REMARK Flexibility Score: inf
ROOT
ATOM      1  C   UNL A   1      42.964  21.977  25.823  1.00  0.00     0.274 C 
ENDROOT
BRANCH   1   2
ATOM      2  O   UNL A   1      41.936  21.756  26.805  1.00  0.00    -0.461 OA
BRANCH   2   3
ATOM      3  C   UNL A   1      40.975  20.848  26.487  1.00  0.00     0.325 C 
ATOM      4  O   UNL A   1      41.141  19.635  26.465  1.00  0.00    -0.250 OA
BRANCH   3   5
ATOM      5  C   UNL A   1      39.649  21.498  26.095  1.00  0.00     0.238 C 
BRANCH   5   6
ATOM      6  N   UNL A   1      39.476  22.879  26.509  1.00  0.00    -0.342 N 
ATOM      7  C   UNL A   1      38.420  23.704  26.259  1.00  0.00     0.258 C 
ATOM      8  O   UNL A   1      38.372  24.811  26.798  1.00  0.00    -0.271 OA
ATOM      9  H   UNL A   1      40.211  23.269  27.035  1.00  0.00     0.164 HD
BRANCH   7  10
ATOM     10  C   UNL A   1      37.299  23.226  25.321  1.00  0.00     0.329 C 
BRANCH  10  11
ATOM     11  O   UNL A   1      35.969  23.257  25.840  1.00  0.00    -0.483 OA
BRANCH  11  12
ATOM     12  C   UNL A   1      35.030  22.417  25.291  1.00  0.00     0.135 A 
ATOM     13  C   UNL A   1      33.389  24.401  24.885  1.00  0.00    -0.026 A 
ATOM     14  C   UNL A   1      32.211  24.741  24.334  1.00  0.00     0.098 A 
ATOM     15  C   UNL A   1      33.811  22.967  24.822  1.00  0.00     0.063 A 
ATOM     16  C   UNL A   1      31.289  23.805  23.692  1.00  0.00     0.336 A 
ATOM     17  C   UNL A   1      32.899  22.055  24.246  1.00  0.00     0.149 A 
ATOM     18  O   UNL A   1      30.241  24.189  23.188  1.00  0.00    -0.246 OA
ATOM     19  O   UNL A   1      31.660  22.483  23.714  1.00  0.00    -0.422 OA
ATOM     20  C   UNL A   1      33.129  20.670  24.146  1.00  0.00     0.038 A 
ATOM     21  C   UNL A   1      35.270  21.035  25.175  1.00  0.00     0.094 A 
ATOM     22  C   UNL A   1      34.316  20.169  24.654  1.00  0.00     0.130 A 
ATOM     23  C   UNL A   1      32.113  19.748  23.536  1.00  0.00     0.047 C 
ATOM     24  O   UNL A   1      34.651  18.844  24.673  1.00  0.00    -0.487 OA
ATOM     25  C   UNL A   1      32.722  18.382  23.245  1.00  0.00     0.053 C 
ATOM     26  C   UNL A   1      33.592  17.906  24.416  1.00  0.00     0.104 C 
ATOM     27  C   UNL A   1      34.287  16.593  24.028  1.00  0.00     0.056 C 
ATOM     28  C   UNL A   1      32.785  17.664  25.703  1.00  0.00     0.056 C 
BRANCH  13  29
ATOM     29  C   UNL A   1      34.231  25.461  25.567  1.00  0.00     0.033 C 
ATOM     30  C   UNL A   1      33.502  26.726  26.031  1.00  0.00     0.009 C 
ENDBRANCH  13  29
ENDBRANCH  11  12
ENDBRANCH  10  11
ENDBRANCH   7  10
ENDBRANCH   5   6
ENDBRANCH   3   5
ENDBRANCH   2   3
ENDBRANCH   1   2
BRANCH   1  31
ATOM     31  C   UNL A   1      43.009  23.450  25.399  1.00  0.00     0.275 C 
BRANCH  31  32
ATOM     32  O   UNL A   1      42.105  24.265  26.172  1.00  0.00    -0.458 OA
BRANCH  32  33
ATOM     33  C   UNL A   1      42.170  25.590  25.903  1.00  0.00     0.338 C 
ATOM     34  O   UNL A   1      42.099  26.121  24.805  1.00  0.00    -0.246 OA
BRANCH  33  35
ATOM     35  C   UNL A   1      42.146  26.375  27.148  1.00  0.00     0.060 A 
ATOM     36  C   UNL A   1      41.307  25.910  28.163  1.00  0.00     0.016 A 
ATOM     37  C   UNL A   1      42.834  27.580  27.300  1.00  0.00     0.016 A 
ATOM     38  C   UNL A   1      41.135  26.641  29.328  1.00  0.00     0.010 A 
ATOM     39  C   UNL A   1      42.648  28.331  28.469  1.00  0.00     0.010 A 
ATOM     40  C   UNL A   1      41.781  27.873  29.477  1.00  0.00    -0.014 A 
BRANCH  40  41
ATOM     41  C   UNL A   1      41.426  28.702  30.652  1.00  0.00     0.031 A 
ATOM     42  C   UNL A   1      42.276  28.628  31.889  1.00  0.00     0.074 A 
ATOM     43  C   UNL A   1      40.420  29.592  30.564  1.00  0.00     0.049 A 
ATOM     44  N   UNL A   1      42.159  29.286  33.012  1.00  0.00    -0.248 NA
ATOM     45  C   UNL A   1      43.411  27.691  31.858  1.00  0.00     0.031 C 
ATOM     46  C   UNL A   1      39.564  29.784  29.393  1.00  0.00     0.029 A 
ATOM     47  N   UNL A   1      39.960  30.510  31.471  1.00  0.00    -0.354 N 
ATOM     48  C   UNL A   1      43.185  28.828  33.829  1.00  0.00     0.074 A 
ATOM     49  C   UNL A   1      43.912  27.829  33.076  1.00  0.00     0.031 C 
ATOM     50  C   UNL A   1      38.684  30.767  29.651  1.00  0.00     0.029 A 
ATOM     51  C   UNL A   1      38.895  31.250  31.013  1.00  0.00     0.049 A 
ATOM     52  H   UNL A   1      40.354  30.630  32.366  1.00  0.00     0.167 HD
ATOM     53  C   UNL A   1      43.493  29.210  35.091  1.00  0.00     0.037 A 
ATOM     54  C   UNL A   1      38.166  32.199  31.630  1.00  0.00     0.037 A 
ATOM     55  C   UNL A   1      42.783  30.227  35.823  1.00  0.00     0.049 A 
ATOM     56  C   UNL A   1      38.529  32.603  33.033  1.00  0.00     0.074 A 
ATOM     57  C   UNL A   1      43.017  30.689  37.107  1.00  0.00     0.029 A 
ATOM     58  N   UNL A   1      41.704  30.947  35.330  1.00  0.00    -0.354 N 
ATOM     59  N   UNL A   1      39.494  32.149  33.797  1.00  0.00    -0.248 NA
ATOM     60  C   UNL A   1      37.711  33.652  33.655  1.00  0.00     0.031 C 
ATOM     61  C   UNL A   1      42.062  31.669  37.400  1.00  0.00     0.029 A 
ATOM     62  C   UNL A   1      41.258  31.844  36.285  1.00  0.00     0.049 A 
ATOM     63  H   UNL A   1      41.313  30.836  34.433  1.00  0.00     0.167 HD
ATOM     64  C   UNL A   1      39.408  32.868  34.984  1.00  0.00     0.074 A 
ATOM     65  C   UNL A   1      38.310  33.801  34.828  1.00  0.00     0.031 C 
ATOM     66  C   UNL A   1      40.167  32.767  36.105  1.00  0.00     0.037 A 
BRANCH  53  67
ATOM     67  C   UNL A   1      44.627  28.501  35.774  1.00  0.00     0.058 A 
ATOM     68  C   UNL A   1      45.946  28.975  35.708  1.00  0.00     0.135 A 
ATOM     69  C   UNL A   1      44.382  27.345  36.533  1.00  0.00     0.135 A 
ATOM     70  F   UNL A   1      46.238  30.063  34.977  1.00  0.00    -0.206 F 
ATOM     71  C   UNL A   1      46.987  28.319  36.359  1.00  0.00     0.059 A 
ATOM     72  C   UNL A   1      45.403  26.686  37.209  1.00  0.00     0.059 A 
ATOM     73  F   UNL A   1      43.139  26.847  36.623  1.00  0.00    -0.206 F 
ATOM     74  C   UNL A   1      46.705  27.174  37.107  1.00  0.00     0.060 A 
BRANCH  74  75
ATOM     75  S   UNL A   1      48.060  26.338  37.959  1.00  0.00     0.124 S 
ATOM     76  O   UNL A   1      47.426  25.971  39.221  1.00  0.00    -0.237 OA
ATOM     77  O   UNL A   1      48.363  25.231  37.057  1.00  0.00    -0.237 OA
ATOM     78  O   UNL A   1      49.091  27.367  38.050  1.00  0.00    -0.744 OA
ENDBRANCH  74  75
ENDBRANCH  53  67
BRANCH  54  79
ATOM     79  C   UNL A   1      37.008  32.817  30.933  1.00  0.00     0.058 A 
ATOM     80  C   UNL A   1      35.689  32.457  31.247  1.00  0.00     0.135 A 
ATOM     81  C   UNL A   1      37.203  33.782  29.934  1.00  0.00     0.135 A 
ATOM     82  F   UNL A   1      35.452  31.533  32.191  1.00  0.00    -0.206 F 
ATOM     83  C   UNL A   1      34.604  33.018  30.581  1.00  0.00     0.059 A 
ATOM     84  C   UNL A   1      36.134  34.375  29.271  1.00  0.00     0.059 A 
ATOM     85  F   UNL A   1      38.445  34.171  29.607  1.00  0.00    -0.206 F 
ATOM     86  C   UNL A   1      34.837  33.977  29.592  1.00  0.00     0.060 A 
BRANCH  86  87
ATOM     87  S   UNL A   1      33.426  34.734  28.759  1.00  0.00     0.124 S 
ATOM     88  O   UNL A   1      32.501  34.928  29.869  1.00  0.00    -0.237 OA
ATOM     89  O   UNL A   1      34.011  35.945  28.194  1.00  0.00    -0.237 OA
ATOM     90  O   UNL A   1      33.036  33.722  27.781  1.00  0.00    -0.744 OA
ENDBRANCH  86  87
ENDBRANCH  54  79
BRANCH  66  91
ATOM     91  C   UNL A   1      39.850  33.712  37.229  1.00  0.00     0.058 A 
ATOM     92  C   UNL A   1      40.521  34.937  37.370  1.00  0.00     0.135 A 
ATOM     93  C   UNL A   1      38.857  33.393  38.166  1.00  0.00     0.135 A 
ATOM     94  F   UNL A   1      41.481  35.287  36.500  1.00  0.00    -0.206 F 
ATOM     95  C   UNL A   1      40.241  35.798  38.427  1.00  0.00     0.059 A 
ATOM     96  C   UNL A   1      38.545  34.249  39.217  1.00  0.00     0.059 A 
ATOM     97  F   UNL A   1      38.178  32.239  38.067  1.00  0.00    -0.206 F 
ATOM     98  C   UNL A   1      39.257  35.441  39.349  1.00  0.00     0.060 A 
BRANCH  98  99
ATOM     99  S   UNL A   1      38.902  36.559  40.723  1.00  0.00     0.124 S 
ATOM    100  O   UNL A   1      38.007  35.744  41.538  1.00  0.00    -0.237 OA
ATOM    101  O   UNL A   1      40.227  36.801  41.284  1.00  0.00    -0.237 OA
ATOM    102  O   UNL A   1      38.286  37.709  40.069  1.00  0.00    -0.744 OA
ENDBRANCH  98  99
ENDBRANCH  66  91
ENDBRANCH  40  41
ENDBRANCH  33  35
ENDBRANCH  32  33
ENDBRANCH  31  32
ENDBRANCH   1  31
TORSDOF 19
ENDMDL
MODEL 3
REMARK VINA RESULT:     -11.6      1.409      2.137
REMARK SMILES CCc1cc(=O)oc2c3c(cc(OCC(=O)NCC(=O)OCCOC(=O)c4ccc(-c5c6nc(c(-c7c(F)cc(S(=O)(=O)[O-])cc7F)c7ccc([nH]7)c(-c7c(F)cc(S(=O)(=O)[O-])cc7F)c7nc(c(-c8c(F)cc(S(=O)(=O)[O-])cc8F)c8ccc5[nH]8)C=C7)C=C6)cc4)c12)OC(C)(C)CC3
REMARK SMILES IDX 22 1 21 2 19 3 20 4 18 5 17 6 15 7 16 8 14 10 13 11 12 12
REMARK SMILES IDX 3 13 4 14 93 15 5 16 8 17 6 18 7 19 9 20 11 21 10 22 99 23
REMARK SMILES IDX 94 24 98 25 95 26 96 27 97 28 2 29 1 30 23 31 24 32 25 33
REMARK SMILES IDX 26 34 27 35 28 36 92 37 29 38 91 39 30 40 31 41 32 42 85 43
REMARK SMILES IDX 33 44 90 45 84 46 86 47 34 48 89 49 83 50 82 51 35 53 69 54
REMARK SMILES IDX 48 55 68 56 49 57 52 58 67 59 87 60 50 61 51 62 66 64 88 65
REMARK SMILES IDX 53 66 36 67 37 68 46 69 38 70 39 71 45 72 47 73 40 74 41 75
REMARK SMILES IDX 42 76 43 77 44 78 70 79 71 80 80 81 72 82 73 83 79 84 81 85
REMARK SMILES IDX 74 86 75 87 76 88 77 89 78 90 54 91 55 92 64 93 56 94 57 95
REMARK SMILES IDX 63 96 65 97 58 98 59 99 60 100 61 101 62 102
REMARK H PARENT 17 9 86 52 52 63
REMARK Flexibility Score: inf
ROOT
ATOM      1  C   UNL A   1      34.682  31.728  27.775  1.00  0.00     0.274 C 
ENDROOT
BRANCH   1   2
ATOM      2  O   UNL A   1      34.438  30.354  27.420  1.00  0.00    -0.461 OA
BRANCH   2   3
ATOM      3  C   UNL A   1      33.269  30.089  26.779  1.00  0.00     0.325 C 
ATOM      4  O   UNL A   1      32.162  30.430  27.178  1.00  0.00    -0.250 OA
BRANCH   3   5
ATOM      5  C   UNL A   1      33.460  29.257  25.513  1.00  0.00     0.238 C 
BRANCH   5   6
ATOM      6  N   UNL A   1      32.606  29.607  24.392  1.00  0.00    -0.342 N 
ATOM      7  C   UNL A   1      32.348  28.873  23.273  1.00  0.00     0.258 C 
ATOM      8  O   UNL A   1      31.492  29.262  22.476  1.00  0.00    -0.271 OA
ATOM      9  H   UNL A   1      32.159  30.482  24.446  1.00  0.00     0.164 HD
BRANCH   7  10
ATOM     10  C   UNL A   1      33.119  27.564  23.038  1.00  0.00     0.329 C 
BRANCH  10  11
ATOM     11  O   UNL A   1      32.351  26.361  23.013  1.00  0.00    -0.483 OA
BRANCH  11  12
ATOM     12  C   UNL A   1      32.762  25.302  23.786  1.00  0.00     0.135 A 
ATOM     13  C   UNL A   1      30.546  25.352  25.158  1.00  0.00    -0.026 A 
ATOM     14  C   UNL A   1      29.844  24.716  26.112  1.00  0.00     0.098 A 
ATOM     15  C   UNL A   1      31.894  24.814  24.795  1.00  0.00     0.063 A 
ATOM     16  C   UNL A   1      30.309  23.541  26.846  1.00  0.00     0.336 A 
ATOM     17  C   UNL A   1      32.364  23.709  25.538  1.00  0.00     0.149 A 
ATOM     18  O   UNL A   1      29.605  22.996  27.687  1.00  0.00    -0.246 OA
ATOM     19  O   UNL A   1      31.579  23.110  26.552  1.00  0.00    -0.422 OA
ATOM     20  C   UNL A   1      33.623  23.110  25.345  1.00  0.00     0.038 A 
ATOM     21  C   UNL A   1      34.014  24.693  23.580  1.00  0.00     0.094 A 
ATOM     22  C   UNL A   1      34.457  23.644  24.377  1.00  0.00     0.130 A 
ATOM     23  C   UNL A   1      34.074  21.944  26.178  1.00  0.00     0.047 C 
ATOM     24  O   UNL A   1      35.723  23.201  24.116  1.00  0.00    -0.487 OA
ATOM     25  C   UNL A   1      35.301  21.280  25.567  1.00  0.00     0.053 C 
ATOM     26  C   UNL A   1      36.316  22.329  25.093  1.00  0.00     0.104 C 
ATOM     27  C   UNL A   1      37.472  21.622  24.370  1.00  0.00     0.056 C 
ATOM     28  C   UNL A   1      36.903  23.159  26.247  1.00  0.00     0.056 C 
BRANCH  13  29
ATOM     29  C   UNL A   1      29.970  26.595  24.506  1.00  0.00     0.033 C 
ATOM     30  C   UNL A   1      28.557  26.476  23.929  1.00  0.00     0.009 C 
ENDBRANCH  13  29
ENDBRANCH  11  12
ENDBRANCH  10  11
ENDBRANCH   7  10
ENDBRANCH   5   6
ENDBRANCH   3   5
ENDBRANCH   2   3
ENDBRANCH   1   2
BRANCH   1  31
ATOM     31  C   UNL A   1      34.862  31.878  29.290  1.00  0.00     0.275 C 
BRANCH  31  32
ATOM     32  O   UNL A   1      36.251  31.850  29.677  1.00  0.00    -0.458 OA
BRANCH  32  33
ATOM     33  C   UNL A   1      36.615  30.761  30.394  1.00  0.00     0.338 C 
ATOM     34  O   UNL A   1      35.990  30.239  31.305  1.00  0.00    -0.246 OA
BRANCH  33  35
ATOM     35  C   UNL A   1      37.810  30.130  29.812  1.00  0.00     0.060 A 
ATOM     36  C   UNL A   1      38.778  29.676  30.711  1.00  0.00     0.016 A 
ATOM     37  C   UNL A   1      38.043  30.066  28.436  1.00  0.00     0.016 A 
ATOM     38  C   UNL A   1      39.984  29.169  30.256  1.00  0.00     0.010 A 
ATOM     39  C   UNL A   1      39.270  29.569  27.973  1.00  0.00     0.010 A 
ATOM     40  C   UNL A   1      40.252  29.140  28.883  1.00  0.00    -0.014 A 
BRANCH  40  41
ATOM     41  C   UNL A   1      41.618  28.763  28.454  1.00  0.00     0.031 A 
ATOM     42  C   UNL A   1      42.710  29.795  28.483  1.00  0.00     0.074 A 
ATOM     43  C   UNL A   1      41.896  27.482  28.151  1.00  0.00     0.049 A 
ATOM     44  N   UNL A   1      43.974  29.670  28.178  1.00  0.00    -0.248 NA
ATOM     45  C   UNL A   1      42.328  31.150  28.917  1.00  0.00     0.031 C 
ATOM     46  C   UNL A   1      40.924  26.387  28.141  1.00  0.00     0.029 A 
ATOM     47  N   UNL A   1      43.080  26.882  27.809  1.00  0.00    -0.354 N 
ATOM     48  C   UNL A   1      44.534  30.928  28.358  1.00  0.00     0.074 A 
ATOM     49  C   UNL A   1      43.471  31.808  28.791  1.00  0.00     0.031 C 
ATOM     50  C   UNL A   1      41.554  25.246  27.815  1.00  0.00     0.029 A 
ATOM     51  C   UNL A   1      42.963  25.534  27.565  1.00  0.00     0.049 A 
ATOM     52  H   UNL A   1      43.933  27.369  27.745  1.00  0.00     0.167 HD
ATOM     53  C   UNL A   1      45.821  31.312  28.179  1.00  0.00     0.037 A 
ATOM     54  C   UNL A   1      43.888  24.639  27.169  1.00  0.00     0.037 A 
ATOM     55  C   UNL A   1      46.880  30.424  27.776  1.00  0.00     0.049 A 
ATOM     56  C   UNL A   1      45.310  25.093  26.977  1.00  0.00     0.074 A 
ATOM     57  C   UNL A   1      48.218  30.714  27.570  1.00  0.00     0.029 A 
ATOM     58  N   UNL A   1      46.722  29.067  27.528  1.00  0.00    -0.354 N 
ATOM     59  N   UNL A   1      45.821  26.290  27.136  1.00  0.00    -0.248 NA
ATOM     60  C   UNL A   1      46.282  24.074  26.559  1.00  0.00     0.031 C 
ATOM     61  C   UNL A   1      48.863  29.538  27.169  1.00  0.00     0.029 A 
ATOM     62  C   UNL A   1      47.935  28.509  27.165  1.00  0.00     0.049 A 
ATOM     63  H   UNL A   1      45.873  28.576  27.600  1.00  0.00     0.167 HD
ATOM     64  C   UNL A   1      47.176  26.165  26.854  1.00  0.00     0.074 A 
ATOM     65  C   UNL A   1      47.408  24.772  26.533  1.00  0.00     0.031 C 
ATOM     66  C   UNL A   1      48.143  27.117  26.856  1.00  0.00     0.037 A 
BRANCH  53  67
ATOM     67  C   UNL A   1      46.148  32.764  28.385  1.00  0.00     0.058 A 
ATOM     68  C   UNL A   1      46.578  33.258  29.626  1.00  0.00     0.135 A 
ATOM     69  C   UNL A   1      46.058  33.667  27.313  1.00  0.00     0.135 A 
ATOM     70  F   UNL A   1      46.660  32.442  30.688  1.00  0.00    -0.206 F 
ATOM     71  C   UNL A   1      46.894  34.602  29.801  1.00  0.00     0.059 A 
ATOM     72  C   UNL A   1      46.389  35.010  27.461  1.00  0.00     0.059 A 
ATOM     73  F   UNL A   1      45.645  33.244  26.108  1.00  0.00    -0.206 F 
ATOM     74  C   UNL A   1      46.796  35.470  28.712  1.00  0.00     0.060 A 
BRANCH  74  75
ATOM     75  S   UNL A   1      47.221  37.210  28.946  1.00  0.00     0.124 S 
ATOM     76  O   UNL A   1      48.666  37.132  29.133  1.00  0.00    -0.237 OA
ATOM     77  O   UNL A   1      46.776  37.814  27.694  1.00  0.00    -0.237 OA
ATOM     78  O   UNL A   1      46.454  37.590  30.128  1.00  0.00    -0.744 OA
ENDBRANCH  74  75
ENDBRANCH  53  67
BRANCH  54  79
ATOM     79  C   UNL A   1      43.495  23.229  26.909  1.00  0.00     0.058 A 
ATOM     80  C   UNL A   1      43.399  22.726  25.604  1.00  0.00     0.135 A 
ATOM     81  C   UNL A   1      43.205  22.357  27.969  1.00  0.00     0.135 A 
ATOM     82  F   UNL A   1      43.660  23.524  24.556  1.00  0.00    -0.206 F 
ATOM     83  C   UNL A   1      43.010  21.413  25.356  1.00  0.00     0.059 A 
ATOM     84  C   UNL A   1      42.838  21.034  27.749  1.00  0.00     0.059 A 
ATOM     85  F   UNL A   1      43.297  22.787  29.238  1.00  0.00    -0.206 F 
ATOM     86  C   UNL A   1      42.730  20.575  26.437  1.00  0.00     0.060 A 
BRANCH  86  87
ATOM     87  S   UNL A   1      42.267  18.860  26.115  1.00  0.00     0.124 S 
ATOM     88  O   UNL A   1      42.503  18.244  27.416  1.00  0.00    -0.237 OA
ATOM     89  O   UNL A   1      40.870  18.985  25.711  1.00  0.00    -0.237 OA
ATOM     90  O   UNL A   1      43.184  18.462  25.051  1.00  0.00    -0.744 OA
ENDBRANCH  86  87
ENDBRANCH  54  79
BRANCH  66  91
ATOM     91  C   UNL A   1      49.540  26.669  26.533  1.00  0.00     0.058 A 
ATOM     92  C   UNL A   1      50.393  26.152  27.522  1.00  0.00     0.135 A 
ATOM     93  C   UNL A   1      50.025  26.744  25.219  1.00  0.00     0.135 A 
ATOM     94  F   UNL A   1      49.977  26.062  28.795  1.00  0.00    -0.206 F 
ATOM     95  C   UNL A   1      51.695  25.761  27.223  1.00  0.00     0.059 A 
ATOM     96  C   UNL A   1      51.314  26.337  24.894  1.00  0.00     0.059 A 
ATOM     97  F   UNL A   1      49.243  27.219  24.236  1.00  0.00    -0.206 F 
ATOM     98  C   UNL A   1      52.148  25.865  25.907  1.00  0.00     0.060 A 
BRANCH  98  99
ATOM     99  S   UNL A   1      53.840  25.361  25.525  1.00  0.00     0.124 S 
ATOM    100  O   UNL A   1      54.329  26.519  24.785  1.00  0.00    -0.237 OA
ATOM    101  O   UNL A   1      54.418  25.166  26.851  1.00  0.00    -0.237 OA
ATOM    102  O   UNL A   1      53.660  24.143  24.741  1.00  0.00    -0.744 OA
ENDBRANCH  98  99
ENDBRANCH  66  91
ENDBRANCH  40  41
ENDBRANCH  33  35
ENDBRANCH  32  33
ENDBRANCH  31  32
ENDBRANCH   1  31
TORSDOF 19
ENDMDL
