MODEL 1
REMARK VINA RESULT:     -14.2      0.000      0.000
REMARK SMILES Cc1cc(C(=O)OCCOC(=O)c2ccc(-c3c4nc(c(-c5c(F)cc(S(=O)(=O)[O-])cc5F)c5ccc([nH]5)c(-c5c(F)cc(S(=O)(=O)[O-])cc5F)c5nc(c(-c6c(F)cc(S(=O)(=O)[O-])cc6F)c6ccc3[nH]6)C=C5)C=C4)cc2)ccc1NC(=O)N1C[C@@H](C)[C@H](C)C1
REMARK SMILES IDX 9 1 8 2 7 3 5 4 6 5 4 6 1 7 2 8 3 9 81 10 80 11 79 12 82 13
REMARK SMILES IDX 83 14 84 16 85 17 86 18 91 19 87 20 89 21 88 22 90 23 10 24
REMARK SMILES IDX 11 25 12 26 13 27 14 28 78 29 15 30 77 31 16 32 17 33 18 34
REMARK SMILES IDX 71 35 19 36 76 37 70 38 72 39 20 40 75 41 69 42 68 43 21 45
REMARK SMILES IDX 55 46 34 47 54 48 35 49 38 50 53 51 73 52 36 53 37 54 52 56
REMARK SMILES IDX 74 57 39 58 22 59 23 60 32 61 24 62 25 63 31 64 33 65 26 66
REMARK SMILES IDX 27 67 28 68 29 69 30 70 56 71 57 72 66 73 58 74 59 75 65 76
REMARK SMILES IDX 67 77 60 78 61 79 62 80 63 81 64 82 40 83 41 84 50 85 42 86
REMARK SMILES IDX 43 87 49 88 51 89 44 90 45 91 46 92 47 93 48 94
REMARK H PARENT 82 15 72 44 38 55
REMARK Flexibility Score: inf
ROOT
ATOM      1  C   UNL A   1      34.240  31.629  27.814  1.00  0.00     0.275 C 
ENDROOT
BRANCH   1   2
ATOM      2  C   UNL A   1      33.055  30.779  27.326  1.00  0.00     0.275 C 
BRANCH   2   3
ATOM      3  O   UNL A   1      33.390  29.380  27.341  1.00  0.00    -0.458 OA
BRANCH   3   4
ATOM      4  C   UNL A   1      32.389  28.557  26.957  1.00  0.00     0.338 C 
ATOM      5  O   UNL A   1      31.740  27.807  27.673  1.00  0.00    -0.246 OA
BRANCH   4   6
ATOM      6  C   UNL A   1      32.285  28.499  25.495  1.00  0.00     0.060 A 
ATOM      7  C   UNL A   1      29.576  28.071  22.870  1.00  0.00     0.046 C 
ATOM      8  C   UNL A   1      30.942  28.055  23.499  1.00  0.00    -0.027 A 
ATOM      9  C   UNL A   1      31.050  28.491  24.834  1.00  0.00     0.021 A 
ATOM     10  C   UNL A   1      32.092  27.532  22.895  1.00  0.00     0.045 A 
ATOM     11  C   UNL A   1      33.345  27.714  23.512  1.00  0.00     0.027 A 
ATOM     12  C   UNL A   1      33.448  28.182  24.811  1.00  0.00     0.018 A 
BRANCH  10  13
ATOM     13  N   UNL A   1      32.019  26.768  21.710  1.00  0.00    -0.308 N 
ATOM     14  C   UNL A   1      32.610  25.542  21.515  1.00  0.00     0.321 C 
ATOM     15  H   UNL A   1      31.501  27.144  20.961  1.00  0.00     0.171 HD
ATOM     16  O   UNL A   1      33.081  25.243  20.419  1.00  0.00    -0.248 OA
ATOM     17  N   UNL A   1      32.652  24.693  22.598  1.00  0.00    -0.324 N 
ATOM     18  C   UNL A   1      33.757  23.790  22.828  1.00  0.00     0.125 C 
ATOM     19  C   UNL A   1      31.524  24.403  23.477  1.00  0.00     0.125 C 
ATOM     20  C   UNL A   1      33.303  22.849  23.947  1.00  0.00     0.010 C 
ATOM     21  C   UNL A   1      32.124  23.584  24.616  1.00  0.00     0.010 C 
ATOM     22  C   UNL A   1      34.421  22.535  24.934  1.00  0.00     0.010 C 
ATOM     23  C   UNL A   1      31.120  22.625  25.247  1.00  0.00     0.010 C 
ENDBRANCH  10  13
ENDBRANCH   4   6
ENDBRANCH   3   4
ENDBRANCH   2   3
ENDBRANCH   1   2
BRANCH   1  24
ATOM     24  O   UNL A   1      35.526  30.974  27.816  1.00  0.00    -0.458 OA
BRANCH  24  25
ATOM     25  C   UNL A   1      36.089  30.781  29.039  1.00  0.00     0.338 C 
ATOM     26  O   UNL A   1      35.572  31.129  30.092  1.00  0.00    -0.246 OA
BRANCH  25  27
ATOM     27  C   UNL A   1      37.203  29.803  28.872  1.00  0.00     0.060 A 
ATOM     28  C   UNL A   1      38.096  29.952  27.807  1.00  0.00     0.016 A 
ATOM     29  C   UNL A   1      37.522  28.953  29.938  1.00  0.00     0.016 A 
ATOM     30  C   UNL A   1      39.369  29.373  27.877  1.00  0.00     0.010 A 
ATOM     31  C   UNL A   1      38.796  28.433  30.038  1.00  0.00     0.010 A 
ATOM     32  C   UNL A   1      39.733  28.655  29.021  1.00  0.00    -0.014 A 
BRANCH  32  33
ATOM     33  C   UNL A   1      40.939  27.837  29.126  1.00  0.00     0.031 A 
ATOM     34  C   UNL A   1      41.090  26.448  28.635  1.00  0.00     0.074 A 
ATOM     35  C   UNL A   1      41.981  28.523  29.638  1.00  0.00     0.049 A 
ATOM     36  N   UNL A   1      42.059  25.666  28.986  1.00  0.00    -0.248 NA
ATOM     37  C   UNL A   1      40.155  25.800  27.724  1.00  0.00     0.031 C 
ATOM     38  C   UNL A   1      43.395  28.197  29.656  1.00  0.00     0.029 A 
ATOM     39  N   UNL A   1      41.867  29.639  30.467  1.00  0.00    -0.354 N 
ATOM     40  C   UNL A   1      42.021  24.529  28.202  1.00  0.00     0.074 A 
ATOM     41  C   UNL A   1      40.779  24.640  27.471  1.00  0.00     0.031 C 
ATOM     42  C   UNL A   1      43.979  28.911  30.635  1.00  0.00     0.029 A 
ATOM     43  C   UNL A   1      42.914  29.579  31.379  1.00  0.00     0.049 A 
ATOM     44  H   UNL A   1      41.175  30.339  30.414  1.00  0.00     0.167 HD
ATOM     45  C   UNL A   1      43.108  23.695  28.181  1.00  0.00     0.037 A 
ATOM     46  C   UNL A   1      42.624  29.361  32.697  1.00  0.00     0.037 A 
ATOM     47  C   UNL A   1      44.103  24.138  29.156  1.00  0.00     0.049 A 
ATOM     48  C   UNL A   1      43.241  28.082  33.200  1.00  0.00     0.074 A 
ATOM     49  C   UNL A   1      45.216  24.953  29.032  1.00  0.00     0.029 A 
ATOM     50  N   UNL A   1      43.845  24.021  30.519  1.00  0.00    -0.354 N 
ATOM     51  N   UNL A   1      43.466  27.031  32.459  1.00  0.00    -0.248 NA
ATOM     52  C   UNL A   1      43.697  27.920  34.575  1.00  0.00     0.031 C 
ATOM     53  C   UNL A   1      45.562  25.416  30.324  1.00  0.00     0.029 A 
ATOM     54  C   UNL A   1      44.689  24.847  31.236  1.00  0.00     0.049 A 
ATOM     55  H   UNL A   1      43.161  23.434  30.914  1.00  0.00     0.167 HD
ATOM     56  C   UNL A   1      44.142  26.102  33.202  1.00  0.00     0.074 A 
ATOM     57  C   UNL A   1      44.246  26.696  34.525  1.00  0.00     0.031 C 
ATOM     58  C   UNL A   1      44.615  24.931  32.685  1.00  0.00     0.037 A 
BRANCH  45  59
ATOM     59  C   UNL A   1      43.419  22.670  27.095  1.00  0.00     0.058 A 
ATOM     60  C   UNL A   1      42.643  21.488  26.976  1.00  0.00     0.135 A 
ATOM     61  C   UNL A   1      44.493  22.742  26.188  1.00  0.00     0.135 A 
ATOM     62  F   UNL A   1      41.523  21.309  27.689  1.00  0.00    -0.206 F 
ATOM     63  C   UNL A   1      42.981  20.423  26.133  1.00  0.00     0.059 A 
ATOM     64  C   UNL A   1      44.875  21.674  25.360  1.00  0.00     0.059 A 
ATOM     65  F   UNL A   1      45.194  23.873  26.033  1.00  0.00    -0.206 F 
ATOM     66  C   UNL A   1      44.126  20.505  25.359  1.00  0.00     0.060 A 
BRANCH  66  67
ATOM     67  S   UNL A   1      44.611  19.075  24.370  1.00  0.00     0.124 S 
ATOM     68  O   UNL A   1      45.974  18.829  24.836  1.00  0.00    -0.237 OA
ATOM     69  O   UNL A   1      43.621  18.077  24.758  1.00  0.00    -0.237 OA
ATOM     70  O   UNL A   1      44.506  19.557  22.996  1.00  0.00    -0.744 OA
ENDBRANCH  66  67
ENDBRANCH  45  59
BRANCH  46  71
ATOM     71  C   UNL A   1      41.318  29.921  33.166  1.00  0.00     0.058 A 
ATOM     72  C   UNL A   1      41.191  31.320  33.315  1.00  0.00     0.135 A 
ATOM     73  C   UNL A   1      40.134  29.172  33.218  1.00  0.00     0.135 A 
ATOM     74  F   UNL A   1      42.284  32.102  33.279  1.00  0.00    -0.206 F 
ATOM     75  C   UNL A   1      39.953  31.952  33.406  1.00  0.00     0.059 A 
ATOM     76  C   UNL A   1      38.879  29.784  33.325  1.00  0.00     0.059 A 
ATOM     77  F   UNL A   1      40.168  27.837  33.090  1.00  0.00    -0.206 F 
ATOM     78  C   UNL A   1      38.798  31.176  33.382  1.00  0.00     0.060 A 
BRANCH  78  79
ATOM     79  S   UNL A   1      37.201  32.017  33.256  1.00  0.00     0.124 S 
ATOM     80  O   UNL A   1      37.495  33.071  32.290  1.00  0.00    -0.237 OA
ATOM     81  O   UNL A   1      36.332  30.945  32.780  1.00  0.00    -0.237 OA
ATOM     82  O   UNL A   1      36.953  32.459  34.625  1.00  0.00    -0.744 OA
ENDBRANCH  78  79
ENDBRANCH  46  71
BRANCH  58  83
ATOM     83  C   UNL A   1      45.195  23.821  33.514  1.00  0.00     0.058 A 
ATOM     84  C   UNL A   1      46.502  23.856  34.026  1.00  0.00     0.135 A 
ATOM     85  C   UNL A   1      44.393  22.735  33.933  1.00  0.00     0.135 A 
ATOM     86  F   UNL A   1      47.314  24.897  33.783  1.00  0.00    -0.206 F 
ATOM     87  C   UNL A   1      47.012  22.843  34.833  1.00  0.00     0.059 A 
ATOM     88  C   UNL A   1      44.865  21.740  34.781  1.00  0.00     0.059 A 
ATOM     89  F   UNL A   1      43.119  22.612  33.532  1.00  0.00    -0.206 F 
ATOM     90  C   UNL A   1      46.187  21.786  35.204  1.00  0.00     0.060 A 
BRANCH  90  91
ATOM     91  S   UNL A   1      46.812  20.491  36.287  1.00  0.00     0.124 S 
ATOM     92  O   UNL A   1      46.811  21.168  37.579  1.00  0.00    -0.237 OA
ATOM     93  O   UNL A   1      45.825  19.426  36.133  1.00  0.00    -0.237 OA
ATOM     94  O   UNL A   1      48.127  20.201  35.722  1.00  0.00    -0.744 OA
ENDBRANCH  90  91
ENDBRANCH  58  83
ENDBRANCH  32  33
ENDBRANCH  25  27
ENDBRANCH  24  25
ENDBRANCH   1  24
TORSDOF 15
ENDMDL
MODEL 2
REMARK VINA RESULT:     -13.8      4.805     11.417
REMARK SMILES Cc1cc(C(=O)OCCOC(=O)c2ccc(-c3c4nc(c(-c5c(F)cc(S(=O)(=O)[O-])cc5F)c5ccc([nH]5)c(-c5c(F)cc(S(=O)(=O)[O-])cc5F)c5nc(c(-c6c(F)cc(S(=O)(=O)[O-])cc6F)c6ccc3[nH]6)C=C5)C=C4)cc2)ccc1NC(=O)N1C[C@@H](C)[C@H](C)C1
REMARK SMILES IDX 9 1 8 2 7 3 5 4 6 5 4 6 1 7 2 8 3 9 81 10 80 11 79 12 82 13
REMARK SMILES IDX 83 14 84 16 85 17 86 18 91 19 87 20 89 21 88 22 90 23 10 24
REMARK SMILES IDX 11 25 12 26 13 27 14 28 78 29 15 30 77 31 16 32 17 33 18 34
REMARK SMILES IDX 71 35 19 36 76 37 70 38 72 39 20 40 75 41 69 42 68 43 21 45
REMARK SMILES IDX 55 46 34 47 54 48 35 49 38 50 53 51 73 52 36 53 37 54 52 56
REMARK SMILES IDX 74 57 39 58 22 59 23 60 32 61 24 62 25 63 31 64 33 65 26 66
REMARK SMILES IDX 27 67 28 68 29 69 30 70 56 71 57 72 66 73 58 74 59 75 65 76
REMARK SMILES IDX 67 77 60 78 61 79 62 80 63 81 64 82 40 83 41 84 50 85 42 86
REMARK SMILES IDX 43 87 49 88 51 89 44 90 45 91 46 92 47 93 48 94
REMARK H PARENT 82 15 72 44 38 55
REMARK Flexibility Score: inf
ROOT
ATOM      1  C   UNL A   1      39.457  21.987  26.167  1.00  0.00     0.275 C 
ENDROOT
BRANCH   1   2
ATOM      2  C   UNL A   1      38.298  21.334  25.396  1.00  0.00     0.275 C 
BRANCH   2   3
ATOM      3  O   UNL A   1      37.039  21.913  25.780  1.00  0.00    -0.458 OA
BRANCH   3   4
ATOM      4  C   UNL A   1      36.384  22.549  24.784  1.00  0.00     0.338 C 
ATOM      5  O   UNL A   1      36.879  23.237  23.903  1.00  0.00    -0.246 OA
BRANCH   4   6
ATOM      6  C   UNL A   1      34.932  22.498  24.990  1.00  0.00     0.060 A 
ATOM      7  C   UNL A   1      31.777  22.504  22.877  1.00  0.00     0.046 C 
ATOM      8  C   UNL A   1      32.671  22.683  24.074  1.00  0.00    -0.027 A 
ATOM      9  C   UNL A   1      34.033  22.351  23.927  1.00  0.00     0.021 A 
ATOM     10  C   UNL A   1      32.275  23.263  25.285  1.00  0.00     0.045 A 
ATOM     11  C   UNL A   1      33.151  23.236  26.387  1.00  0.00     0.027 A 
ATOM     12  C   UNL A   1      34.479  22.869  26.245  1.00  0.00     0.018 A 
BRANCH  10  13
ATOM     13  N   UNL A   1      31.040  23.936  25.411  1.00  0.00    -0.308 N 
ATOM     14  C   UNL A   1      30.868  25.195  25.933  1.00  0.00     0.321 C 
ATOM     15  H   UNL A   1      30.235  23.463  25.097  1.00  0.00     0.171 HD
ATOM     16  O   UNL A   1      29.873  25.462  26.606  1.00  0.00    -0.248 OA
ATOM     17  N   UNL A   1      31.858  26.116  25.675  1.00  0.00    -0.324 N 
ATOM     18  C   UNL A   1      32.235  27.133  26.630  1.00  0.00     0.125 C 
ATOM     19  C   UNL A   1      32.453  26.357  24.365  1.00  0.00     0.125 C 
ATOM     20  C   UNL A   1      33.149  28.100  25.874  1.00  0.00     0.010 C 
ATOM     21  C   UNL A   1      33.617  27.305  24.639  1.00  0.00     0.010 C 
ATOM     22  C   UNL A   1      34.317  28.584  26.725  1.00  0.00     0.010 C 
ATOM     23  C   UNL A   1      33.940  28.205  23.452  1.00  0.00     0.010 C 
ENDBRANCH  10  13
ENDBRANCH   4   6
ENDBRANCH   3   4
ENDBRANCH   2   3
ENDBRANCH   1   2
BRANCH   1  24
ATOM     24  O   UNL A   1      39.280  23.377  26.511  1.00  0.00    -0.458 OA
BRANCH  24  25
ATOM     25  C   UNL A   1      40.423  24.096  26.676  1.00  0.00     0.338 C 
ATOM     26  O   UNL A   1      41.489  23.813  26.149  1.00  0.00    -0.246 OA
BRANCH  25  27
ATOM     27  C   UNL A   1      40.046  25.406  27.282  1.00  0.00     0.060 A 
ATOM     28  C   UNL A   1      39.563  25.444  28.594  1.00  0.00     0.016 A 
ATOM     29  C   UNL A   1      40.470  26.586  26.658  1.00  0.00     0.016 A 
ATOM     30  C   UNL A   1      39.643  26.631  29.333  1.00  0.00     0.010 A 
ATOM     31  C   UNL A   1      40.606  27.740  27.403  1.00  0.00     0.010 A 
ATOM     32  C   UNL A   1      40.214  27.765  28.747  1.00  0.00    -0.014 A 
BRANCH  32  33
ATOM     33  C   UNL A   1      40.165  29.103  29.333  1.00  0.00     0.031 A 
ATOM     34  C   UNL A   1      39.032  30.050  29.237  1.00  0.00     0.074 A 
ATOM     35  C   UNL A   1      41.248  29.371  30.091  1.00  0.00     0.049 A 
ATOM     36  N   UNL A   1      39.125  31.309  29.520  1.00  0.00    -0.248 NA
ATOM     37  C   UNL A   1      37.695  29.679  28.792  1.00  0.00     0.031 C 
ATOM     38  C   UNL A   1      41.474  30.433  31.053  1.00  0.00     0.029 A 
ATOM     39  N   UNL A   1      42.495  28.763  29.938  1.00  0.00    -0.354 N 
ATOM     40  C   UNL A   1      37.857  31.860  29.525  1.00  0.00     0.074 A 
ATOM     41  C   UNL A   1      37.009  30.811  29.007  1.00  0.00     0.031 C 
ATOM     42  C   UNL A   1      42.802  30.577  31.215  1.00  0.00     0.029 A 
ATOM     43  C   UNL A   1      43.456  29.724  30.226  1.00  0.00     0.049 A 
ATOM     44  H   UNL A   1      42.661  27.828  29.677  1.00  0.00     0.167 HD
ATOM     45  C   UNL A   1      37.669  33.098  30.082  1.00  0.00     0.037 A 
ATOM     46  C   UNL A   1      44.258  30.173  29.215  1.00  0.00     0.037 A 
ATOM     47  C   UNL A   1      38.954  33.678  30.470  1.00  0.00     0.049 A 
ATOM     48  C   UNL A   1      44.082  31.650  28.974  1.00  0.00     0.074 A 
ATOM     49  C   UNL A   1      39.643  33.672  31.670  1.00  0.00     0.029 A 
ATOM     50  N   UNL A   1      39.858  34.085  29.493  1.00  0.00    -0.354 N 
ATOM     51  N   UNL A   1      42.973  32.303  29.186  1.00  0.00    -0.248 NA
ATOM     52  C   UNL A   1      45.172  32.506  28.523  1.00  0.00     0.031 C 
ATOM     53  C   UNL A   1      40.999  33.973  31.395  1.00  0.00     0.029 A 
ATOM     54  C   UNL A   1      41.123  34.206  30.035  1.00  0.00     0.049 A 
ATOM     55  H   UNL A   1      39.629  34.263  28.552  1.00  0.00     0.167 HD
ATOM     56  C   UNL A   1      43.198  33.637  28.983  1.00  0.00     0.074 A 
ATOM     57  C   UNL A   1      44.584  33.712  28.549  1.00  0.00     0.031 C 
ATOM     58  C   UNL A   1      42.261  34.600  29.223  1.00  0.00     0.037 A 
BRANCH  45  59
ATOM     59  C   UNL A   1      36.334  33.664  30.557  1.00  0.00     0.058 A 
ATOM     60  C   UNL A   1      35.375  34.129  29.621  1.00  0.00     0.135 A 
ATOM     61  C   UNL A   1      35.955  33.843  31.901  1.00  0.00     0.135 A 
ATOM     62  F   UNL A   1      35.530  33.938  28.303  1.00  0.00    -0.206 F 
ATOM     63  C   UNL A   1      34.217  34.827  29.982  1.00  0.00     0.059 A 
ATOM     64  C   UNL A   1      34.818  34.571  32.289  1.00  0.00     0.059 A 
ATOM     65  F   UNL A   1      36.649  33.279  32.898  1.00  0.00    -0.206 F 
ATOM     66  C   UNL A   1      33.967  35.084  31.320  1.00  0.00     0.060 A 
BRANCH  66  67
ATOM     67  S   UNL A   1      32.533  36.088  31.759  1.00  0.00     0.124 S 
ATOM     68  O   UNL A   1      33.141  37.165  32.537  1.00  0.00    -0.237 OA
ATOM     69  O   UNL A   1      32.008  36.470  30.453  1.00  0.00    -0.237 OA
ATOM     70  O   UNL A   1      31.694  35.171  32.525  1.00  0.00    -0.744 OA
ENDBRANCH  66  67
ENDBRANCH  45  59
BRANCH  46  71
ATOM     71  C   UNL A   1      44.571  29.166  28.151  1.00  0.00     0.058 A 
ATOM     72  C   UNL A   1      45.458  28.110  28.453  1.00  0.00     0.135 A 
ATOM     73  C   UNL A   1      43.841  29.055  26.959  1.00  0.00     0.135 A 
ATOM     74  F   UNL A   1      46.194  28.151  29.578  1.00  0.00    -0.206 F 
ATOM     75  C   UNL A   1      45.542  26.959  27.674  1.00  0.00     0.059 A 
ATOM     76  C   UNL A   1      43.920  27.915  26.151  1.00  0.00     0.059 A 
ATOM     77  F   UNL A   1      42.980  30.017  26.597  1.00  0.00    -0.206 F 
ATOM     78  C   UNL A   1      44.747  26.858  26.536  1.00  0.00     0.060 A 
BRANCH  78  79
ATOM     79  S   UNL A   1      44.685  25.270  25.671  1.00  0.00     0.124 S 
ATOM     80  O   UNL A   1      44.689  24.325  26.782  1.00  0.00    -0.237 OA
ATOM     81  O   UNL A   1      43.429  25.377  24.934  1.00  0.00    -0.237 OA
ATOM     82  O   UNL A   1      45.892  25.295  24.851  1.00  0.00    -0.744 OA
ENDBRANCH  78  79
ENDBRANCH  46  71
BRANCH  58  83
ATOM     83  C   UNL A   1      42.422  36.042  28.835  1.00  0.00     0.058 A 
ATOM     84  C   UNL A   1      43.206  36.945  29.572  1.00  0.00     0.135 A 
ATOM     85  C   UNL A   1      41.888  36.530  27.621  1.00  0.00     0.135 A 
ATOM     86  F   UNL A   1      43.851  36.557  30.682  1.00  0.00    -0.206 F 
ATOM     87  C   UNL A   1      43.386  38.268  29.176  1.00  0.00     0.059 A 
ATOM     88  C   UNL A   1      42.099  37.832  27.181  1.00  0.00     0.059 A 
ATOM     89  F   UNL A   1      41.147  35.750  26.820  1.00  0.00    -0.206 F 
ATOM     90  C   UNL A   1      42.826  38.704  27.980  1.00  0.00     0.060 A 
BRANCH  90  91
ATOM     91  S   UNL A   1      43.087  40.397  27.426  1.00  0.00     0.124 S 
ATOM     92  O   UNL A   1      43.368  41.074  28.687  1.00  0.00    -0.237 OA
ATOM     93  O   UNL A   1      44.218  40.275  26.511  1.00  0.00    -0.237 OA
ATOM     94  O   UNL A   1      41.814  40.733  26.794  1.00  0.00    -0.744 OA
ENDBRANCH  90  91
ENDBRANCH  58  83
ENDBRANCH  32  33
ENDBRANCH  25  27
ENDBRANCH  24  25
ENDBRANCH   1  24
TORSDOF 15
ENDMDL
MODEL 3
REMARK VINA RESULT:     -13.7      4.845     11.338
REMARK SMILES Cc1cc(C(=O)OCCOC(=O)c2ccc(-c3c4nc(c(-c5c(F)cc(S(=O)(=O)[O-])cc5F)c5ccc([nH]5)c(-c5c(F)cc(S(=O)(=O)[O-])cc5F)c5nc(c(-c6c(F)cc(S(=O)(=O)[O-])cc6F)c6ccc3[nH]6)C=C5)C=C4)cc2)ccc1NC(=O)N1C[C@@H](C)[C@H](C)C1
REMARK SMILES IDX 9 1 8 2 7 3 5 4 6 5 4 6 1 7 2 8 3 9 81 10 80 11 79 12 82 13
REMARK SMILES IDX 83 14 84 16 85 17 86 18 91 19 87 20 89 21 88 22 90 23 10 24
REMARK SMILES IDX 11 25 12 26 13 27 14 28 78 29 15 30 77 31 16 32 17 33 18 34
REMARK SMILES IDX 71 35 19 36 76 37 70 38 72 39 20 40 75 41 69 42 68 43 21 45
REMARK SMILES IDX 55 46 34 47 54 48 35 49 38 50 53 51 73 52 36 53 37 54 52 56
REMARK SMILES IDX 74 57 39 58 22 59 23 60 32 61 24 62 25 63 31 64 33 65 26 66
REMARK SMILES IDX 27 67 28 68 29 69 30 70 56 71 57 72 66 73 58 74 59 75 65 76
REMARK SMILES IDX 67 77 60 78 61 79 62 80 63 81 64 82 40 83 41 84 50 85 42 86
REMARK SMILES IDX 43 87 49 88 51 89 44 90 45 91 46 92 47 93 48 94
REMARK H PARENT 82 15 72 44 38 55
REMARK Flexibility Score: inf
ROOT
ATOM      1  C   UNL A   1      39.419  21.809  26.139  1.00  0.00     0.275 C 
ENDROOT
BRANCH   1   2
ATOM      2  C   UNL A   1      38.203  21.339  25.324  1.00  0.00     0.275 C 
BRANCH   2   3
ATOM      3  O   UNL A   1      36.983  21.849  25.888  1.00  0.00    -0.458 OA
BRANCH   3   4
ATOM      4  C   UNL A   1      36.382  22.812  25.154  1.00  0.00     0.338 C 
ATOM      5  O   UNL A   1      36.924  23.758  24.601  1.00  0.00    -0.246 OA
BRANCH   4   6
ATOM      6  C   UNL A   1      34.922  22.720  25.257  1.00  0.00     0.060 A 
ATOM      7  C   UNL A   1      31.924  22.642  22.928  1.00  0.00     0.046 C 
ATOM      8  C   UNL A   1      32.726  22.844  24.184  1.00  0.00    -0.027 A 
ATOM      9  C   UNL A   1      34.103  22.550  24.134  1.00  0.00     0.021 A 
ATOM     10  C   UNL A   1      32.230  23.411  25.365  1.00  0.00     0.045 A 
ATOM     11  C   UNL A   1      33.026  23.405  26.526  1.00  0.00     0.027 A 
ATOM     12  C   UNL A   1      34.371  23.076  26.478  1.00  0.00     0.018 A 
BRANCH  10  13
ATOM     13  N   UNL A   1      30.970  24.048  25.403  1.00  0.00    -0.308 N 
ATOM     14  C   UNL A   1      30.722  25.291  25.936  1.00  0.00     0.321 C 
ATOM     15  H   UNL A   1      30.206  23.562  25.016  1.00  0.00     0.171 HD
ATOM     16  O   UNL A   1      29.670  25.517  26.531  1.00  0.00    -0.248 OA
ATOM     17  N   UNL A   1      31.705  26.242  25.779  1.00  0.00    -0.324 N 
ATOM     18  C   UNL A   1      31.976  27.246  26.782  1.00  0.00     0.125 C 
ATOM     19  C   UNL A   1      32.397  26.529  24.527  1.00  0.00     0.125 C 
ATOM     20  C   UNL A   1      32.921  28.254  26.123  1.00  0.00     0.010 C 
ATOM     21  C   UNL A   1      33.509  27.499  24.914  1.00  0.00     0.010 C 
ATOM     22  C   UNL A   1      34.003  28.748  27.076  1.00  0.00     0.010 C 
ATOM     23  C   UNL A   1      33.902  28.434  23.776  1.00  0.00     0.010 C 
ENDBRANCH  10  13
ENDBRANCH   4   6
ENDBRANCH   3   4
ENDBRANCH   2   3
ENDBRANCH   1   2
BRANCH   1  24
ATOM     24  O   UNL A   1      39.296  23.104  26.764  1.00  0.00    -0.458 OA
BRANCH  24  25
ATOM     25  C   UNL A   1      40.430  23.854  26.797  1.00  0.00     0.338 C 
ATOM     26  O   UNL A   1      41.465  23.554  26.220  1.00  0.00    -0.246 OA
BRANCH  25  27
ATOM     27  C   UNL A   1      40.063  25.198  27.332  1.00  0.00     0.060 A 
ATOM     28  C   UNL A   1      39.330  25.291  28.518  1.00  0.00     0.016 A 
ATOM     29  C   UNL A   1      40.713  26.329  26.821  1.00  0.00     0.016 A 
ATOM     30  C   UNL A   1      39.370  26.470  29.273  1.00  0.00     0.010 A 
ATOM     31  C   UNL A   1      40.804  27.469  27.592  1.00  0.00     0.010 A 
ATOM     32  C   UNL A   1      40.152  27.541  28.830  1.00  0.00    -0.014 A 
BRANCH  32  33
ATOM     33  C   UNL A   1      40.111  28.881  29.411  1.00  0.00     0.031 A 
ATOM     34  C   UNL A   1      39.026  29.872  29.229  1.00  0.00     0.074 A 
ATOM     35  C   UNL A   1      41.143  29.109  30.248  1.00  0.00     0.049 A 
ATOM     36  N   UNL A   1      39.147  31.127  29.518  1.00  0.00    -0.248 NA
ATOM     37  C   UNL A   1      37.714  29.551  28.684  1.00  0.00     0.031 C 
ATOM     38  C   UNL A   1      41.338  30.164  31.224  1.00  0.00     0.029 A 
ATOM     39  N   UNL A   1      42.373  28.452  30.190  1.00  0.00    -0.354 N 
ATOM     40  C   UNL A   1      37.906  31.727  29.428  1.00  0.00     0.074 A 
ATOM     41  C   UNL A   1      37.058  30.710  28.847  1.00  0.00     0.031 C 
ATOM     42  C   UNL A   1      42.655  30.257  31.487  1.00  0.00     0.029 A 
ATOM     43  C   UNL A   1      43.347  29.376  30.550  1.00  0.00     0.049 A 
ATOM     44  H   UNL A   1      42.522  27.510  29.942  1.00  0.00     0.167 HD
ATOM     45  C   UNL A   1      37.724  32.973  29.969  1.00  0.00     0.037 A 
ATOM     46  C   UNL A   1      44.241  29.790  29.602  1.00  0.00     0.037 A 
ATOM     47  C   UNL A   1      38.998  33.504  30.452  1.00  0.00     0.049 A 
ATOM     48  C   UNL A   1      44.141  31.272  29.349  1.00  0.00     0.074 A 
ATOM     49  C   UNL A   1      39.594  33.474  31.702  1.00  0.00     0.029 A 
ATOM     50  N   UNL A   1      39.988  33.872  29.547  1.00  0.00    -0.354 N 
ATOM     51  N   UNL A   1      43.045  31.969  29.477  1.00  0.00    -0.248 NA
ATOM     52  C   UNL A   1      45.295  32.084  28.981  1.00  0.00     0.031 C 
ATOM     53  C   UNL A   1      40.977  33.721  31.530  1.00  0.00     0.029 A 
ATOM     54  C   UNL A   1      41.213  33.945  30.183  1.00  0.00     0.049 A 
ATOM     55  H   UNL A   1      39.838  34.056  28.591  1.00  0.00     0.167 HD
ATOM     56  C   UNL A   1      43.337  33.293  29.290  1.00  0.00     0.074 A 
ATOM     57  C   UNL A   1      44.754  33.312  28.963  1.00  0.00     0.031 C 
ATOM     58  C   UNL A   1      42.423  34.292  29.459  1.00  0.00     0.037 A 
BRANCH  45  59
ATOM     59  C   UNL A   1      36.380  33.592  30.342  1.00  0.00     0.058 A 
ATOM     60  C   UNL A   1      35.496  34.054  29.333  1.00  0.00     0.135 A 
ATOM     61  C   UNL A   1      35.924  33.825  31.653  1.00  0.00     0.135 A 
ATOM     62  F   UNL A   1      35.726  33.816  28.034  1.00  0.00    -0.206 F 
ATOM     63  C   UNL A   1      34.340  34.796  29.600  1.00  0.00     0.059 A 
ATOM     64  C   UNL A   1      34.789  34.598  31.947  1.00  0.00     0.059 A 
ATOM     65  F   UNL A   1      36.538  33.273  32.708  1.00  0.00    -0.206 F 
ATOM     66  C   UNL A   1      34.016  35.103  30.910  1.00  0.00     0.060 A 
BRANCH  66  67
ATOM     67  S   UNL A   1      32.588  36.162  31.228  1.00  0.00     0.124 S 
ATOM     68  O   UNL A   1      31.760  35.312  32.080  1.00  0.00    -0.237 OA
ATOM     69  O   UNL A   1      33.196  37.314  31.885  1.00  0.00    -0.237 OA
ATOM     70  O   UNL A   1      32.048  36.416  29.896  1.00  0.00    -0.744 OA
ENDBRANCH  66  67
ENDBRANCH  45  59
BRANCH  46  71
ATOM     71  C   UNL A   1      44.593  28.769  28.565  1.00  0.00     0.058 A 
ATOM     72  C   UNL A   1      44.127  28.952  27.244  1.00  0.00     0.135 A 
ATOM     73  C   UNL A   1      45.569  27.782  28.758  1.00  0.00     0.135 A 
ATOM     74  F   UNL A   1      43.188  29.879  26.984  1.00  0.00    -0.206 F 
ATOM     75  C   UNL A   1      44.671  28.269  26.159  1.00  0.00     0.059 A 
ATOM     76  C   UNL A   1      46.120  27.071  27.685  1.00  0.00     0.059 A 
ATOM     77  F   UNL A   1      46.061  27.542  29.982  1.00  0.00    -0.206 F 
ATOM     78  C   UNL A   1      45.689  27.348  26.386  1.00  0.00     0.060 A 
BRANCH  78  79
ATOM     79  S   UNL A   1      46.550  26.650  24.956  1.00  0.00     0.124 S 
ATOM     80  O   UNL A   1      45.792  25.426  24.720  1.00  0.00    -0.237 OA
ATOM     81  O   UNL A   1      46.383  27.702  23.959  1.00  0.00    -0.237 OA
ATOM     82  O   UNL A   1      47.913  26.470  25.449  1.00  0.00    -0.744 OA
ENDBRANCH  78  79
ENDBRANCH  46  71
BRANCH  58  83
ATOM     83  C   UNL A   1      42.669  35.725  29.085  1.00  0.00     0.058 A 
ATOM     84  C   UNL A   1      42.072  36.333  27.968  1.00  0.00     0.135 A 
ATOM     85  C   UNL A   1      43.420  36.576  29.927  1.00  0.00     0.135 A 
ATOM     86  F   UNL A   1      41.248  35.646  27.163  1.00  0.00    -0.206 F 
ATOM     87  C   UNL A   1      42.270  37.677  27.658  1.00  0.00     0.059 A 
ATOM     88  C   UNL A   1      43.587  37.931  29.665  1.00  0.00     0.059 A 
ATOM     89  F   UNL A   1      44.013  36.114  31.039  1.00  0.00    -0.206 F 
ATOM     90  C   UNL A   1      43.032  38.468  28.511  1.00  0.00     0.060 A 
BRANCH  90  91
ATOM     91  S   UNL A   1      43.260  40.217  28.154  1.00  0.00     0.124 S 
ATOM     92  O   UNL A   1      44.682  40.387  28.431  1.00  0.00    -0.237 OA
ATOM     93  O   UNL A   1      42.876  40.322  26.750  1.00  0.00    -0.237 OA
ATOM     94  O   UNL A   1      42.348  40.863  29.094  1.00  0.00    -0.744 OA
ENDBRANCH  90  91
ENDBRANCH  58  83
ENDBRANCH  32  33
ENDBRANCH  25  27
ENDBRANCH  24  25
ENDBRANCH   1  24
TORSDOF 15
ENDMDL
