MODEL 1
REMARK VINA RESULT:     -11.2      0.000      0.000
REMARK SMILES CC1(C)C(=O)N([C@H]2COC[C@@H]2C(=O)OCCOC(=O)c2ccc(-c3c4nc(c(-c5c(F)cc(S(=O)(=O)[O-])cc5F)c5ccc([nH]5)c(-c5c(F)cc(S(=O)(=O)[O-])cc5F)c5nc(c(-c6c(F)cc(S(=O)(=O)[O-])cc6F)c6ccc3[nH]6)C=C5)C=C4)cc2)S1(=O)=O
REMARK SMILES IDX 16 1 15 2 14 3 12 4 13 5 11 6 7 7 8 8 9 9 10 10 6 11 1 12
REMARK SMILES IDX 2 13 3 14 4 15 86 16 5 17 87 18 88 19 17 20 18 21 19 22
REMARK SMILES IDX 20 23 21 24 85 25 22 26 84 27 23 28 24 29 25 30 78 31 26 32
REMARK SMILES IDX 83 33 77 34 79 35 27 36 82 37 76 38 75 39 28 41 62 42 41 43
REMARK SMILES IDX 61 44 42 45 45 46 60 47 80 48 43 49 44 50 59 52 81 53 46 54
REMARK SMILES IDX 29 55 30 56 39 57 31 58 32 59 38 60 40 61 33 62 34 63 35 64
REMARK SMILES IDX 36 65 37 66 63 67 64 68 73 69 65 70 66 71 72 72 74 73 67 74
REMARK SMILES IDX 68 75 69 76 70 77 71 78 47 79 48 80 57 81 49 82 50 83 56 84
REMARK SMILES IDX 58 85 51 86 52 87 53 88 54 89 55 90
REMARK H PARENT 79 40 45 51
REMARK Flexibility Score: inf
ROOT
ATOM      1  C   UNL A   1      39.101  22.502  26.500  1.00  0.00     0.275 C 
ENDROOT
BRANCH   1   2
ATOM      2  C   UNL A   1      38.318  21.990  25.291  1.00  0.00     0.274 C 
BRANCH   2   3
ATOM      3  O   UNL A   1      36.944  21.758  25.658  1.00  0.00    -0.462 OA
BRANCH   3   4
ATOM      4  C   UNL A   1      36.375  20.652  25.124  1.00  0.00     0.313 C 
ATOM      5  O   UNL A   1      36.940  19.570  25.016  1.00  0.00    -0.252 OA
BRANCH   4   6
ATOM      6  C   UNL A   1      34.960  20.860  24.639  1.00  0.00     0.151 C 
ATOM      7  C   UNL A   1      34.328  21.968  25.445  1.00  0.00     0.145 C 
ATOM      8  C   UNL A   1      33.588  21.171  26.520  1.00  0.00     0.187 C 
ATOM      9  O   UNL A   1      33.260  19.884  25.977  1.00  0.00    -0.378 OA
ATOM     10  C   UNL A   1      34.010  19.695  24.773  1.00  0.00     0.177 C 
BRANCH   7  11
ATOM     11  N   UNL A   1      33.374  22.790  24.652  1.00  0.00    -0.231 N 
ATOM     12  C   UNL A   1      31.769  25.407  23.274  1.00  0.00     0.041 C 
ATOM     13  C   UNL A   1      33.041  24.892  23.937  1.00  0.00     0.165 C 
ATOM     14  C   UNL A   1      34.002  26.045  24.248  1.00  0.00     0.041 C 
ATOM     15  C   UNL A   1      32.812  23.982  25.155  1.00  0.00     0.259 C 
ATOM     16  S   UNL A   1      33.792  23.492  23.194  1.00  0.00     0.252 S 
ATOM     17  O   UNL A   1      32.420  24.158  26.291  1.00  0.00    -0.272 OA
ATOM     18  O   UNL A   1      32.987  22.880  22.166  1.00  0.00    -0.205 OA
ATOM     19  O   UNL A   1      35.227  23.614  23.113  1.00  0.00    -0.205 OA
ENDBRANCH   7  11
ENDBRANCH   4   6
ENDBRANCH   3   4
ENDBRANCH   2   3
ENDBRANCH   1   2
BRANCH   1  20
ATOM     20  O   UNL A   1      39.253  23.934  26.444  1.00  0.00    -0.458 OA
BRANCH  20  21
ATOM     21  C   UNL A   1      40.453  24.398  26.864  1.00  0.00     0.338 C 
ATOM     22  O   UNL A   1      41.556  23.988  26.543  1.00  0.00    -0.246 OA
BRANCH  21  23
ATOM     23  C   UNL A   1      40.282  25.557  27.751  1.00  0.00     0.060 A 
ATOM     24  C   UNL A   1      41.236  26.569  27.726  1.00  0.00     0.016 A 
ATOM     25  C   UNL A   1      39.289  25.558  28.727  1.00  0.00     0.016 A 
ATOM     26  C   UNL A   1      41.275  27.527  28.733  1.00  0.00     0.010 A 
ATOM     27  C   UNL A   1      39.259  26.589  29.674  1.00  0.00     0.010 A 
ATOM     28  C   UNL A   1      40.272  27.565  29.709  1.00  0.00    -0.014 A 
BRANCH  28  29
ATOM     29  C   UNL A   1      40.282  28.633  30.747  1.00  0.00     0.031 A 
ATOM     30  C   UNL A   1      41.224  28.556  31.919  1.00  0.00     0.074 A 
ATOM     31  C   UNL A   1      39.432  29.674  30.633  1.00  0.00     0.049 A 
ATOM     32  N   UNL A   1      41.292  29.326  32.976  1.00  0.00    -0.248 NA
ATOM     33  C   UNL A   1      42.210  27.464  31.913  1.00  0.00     0.031 C 
ATOM     34  C   UNL A   1      38.482  29.877  29.535  1.00  0.00     0.029 A 
ATOM     35  N   UNL A   1      39.221  30.756  31.451  1.00  0.00    -0.354 N 
ATOM     36  C   UNL A   1      42.297  28.793  33.775  1.00  0.00     0.074 A 
ATOM     37  C   UNL A   1      42.801  27.622  33.090  1.00  0.00     0.031 C 
ATOM     38  C   UNL A   1      37.806  31.016  29.738  1.00  0.00     0.029 A 
ATOM     39  C   UNL A   1      38.217  31.588  31.014  1.00  0.00     0.049 A 
ATOM     40  H   UNL A   1      39.740  30.922  32.271  1.00  0.00     0.167 HD
ATOM     41  C   UNL A   1      42.757  29.243  34.968  1.00  0.00     0.037 A 
ATOM     42  C   UNL A   1      37.654  32.667  31.591  1.00  0.00     0.037 A 
ATOM     43  C   UNL A   1      42.270  30.431  35.626  1.00  0.00     0.049 A 
ATOM     44  C   UNL A   1      38.162  33.126  32.928  1.00  0.00     0.074 A 
ATOM     45  C   UNL A   1      42.702  30.993  36.814  1.00  0.00     0.029 A 
ATOM     46  N   UNL A   1      41.245  31.238  35.154  1.00  0.00    -0.354 N 
ATOM     47  N   UNL A   1      39.121  32.617  33.665  1.00  0.00    -0.248 NA
ATOM     48  C   UNL A   1      37.510  34.304  33.516  1.00  0.00     0.031 C 
ATOM     49  C   UNL A   1      41.903  32.106  37.090  1.00  0.00     0.029 A 
ATOM     50  C   UNL A   1      41.009  32.275  36.043  1.00  0.00     0.049 A 
ATOM     51  H   UNL A   1      40.755  31.095  34.312  1.00  0.00     0.167 HD
ATOM     52  C   UNL A   1      39.199  33.422  34.795  1.00  0.00     0.074 A 
ATOM     53  C   UNL A   1      38.207  34.465  34.632  1.00  0.00     0.031 C 
ATOM     54  C   UNL A   1      40.015  33.305  35.872  1.00  0.00     0.037 A 
BRANCH  41  55
ATOM     55  C   UNL A   1      43.820  28.435  35.666  1.00  0.00     0.058 A 
ATOM     56  C   UNL A   1      43.505  27.401  36.562  1.00  0.00     0.135 A 
ATOM     57  C   UNL A   1      45.178  28.666  35.388  1.00  0.00     0.135 A 
ATOM     58  F   UNL A   1      42.226  27.143  36.877  1.00  0.00    -0.206 F 
ATOM     59  C   UNL A   1      44.499  26.638  37.172  1.00  0.00     0.059 A 
ATOM     60  C   UNL A   1      46.186  27.897  35.964  1.00  0.00     0.059 A 
ATOM     61  F   UNL A   1      45.538  29.642  34.539  1.00  0.00    -0.206 F 
ATOM     62  C   UNL A   1      45.837  26.893  36.864  1.00  0.00     0.060 A 
BRANCH  62  63
ATOM     63  S   UNL A   1      47.112  25.883  37.649  1.00  0.00     0.124 S 
ATOM     64  O   UNL A   1      46.439  24.592  37.753  1.00  0.00    -0.237 OA
ATOM     65  O   UNL A   1      48.204  25.954  36.684  1.00  0.00    -0.237 OA
ATOM     66  O   UNL A   1      47.355  26.565  38.916  1.00  0.00    -0.744 OA
ENDBRANCH  62  63
ENDBRANCH  41  55
BRANCH  42  67
ATOM     67  C   UNL A   1      36.524  33.363  30.918  1.00  0.00     0.058 A 
ATOM     68  C   UNL A   1      35.210  33.240  31.391  1.00  0.00     0.135 A 
ATOM     69  C   UNL A   1      36.739  34.176  29.793  1.00  0.00     0.135 A 
ATOM     70  F   UNL A   1      34.950  32.470  32.458  1.00  0.00    -0.206 F 
ATOM     71  C   UNL A   1      34.147  33.885  30.765  1.00  0.00     0.059 A 
ATOM     72  C   UNL A   1      35.698  34.855  29.169  1.00  0.00     0.059 A 
ATOM     73  F   UNL A   1      37.980  34.340  29.307  1.00  0.00    -0.206 F 
ATOM     74  C   UNL A   1      34.403  34.693  29.656  1.00  0.00     0.060 A 
BRANCH  74  75
ATOM     75  S   UNL A   1      33.022  35.559  28.878  1.00  0.00     0.124 S 
ATOM     76  O   UNL A   1      33.714  36.594  28.119  1.00  0.00    -0.237 OA
ATOM     77  O   UNL A   1      32.401  34.499  28.091  1.00  0.00    -0.237 OA
ATOM     78  O   UNL A   1      32.236  36.028  30.015  1.00  0.00    -0.744 OA
ENDBRANCH  74  75
ENDBRANCH  42  67
BRANCH  54  79
ATOM     79  C   UNL A   1      39.885  34.351  36.947  1.00  0.00     0.058 A 
ATOM     80  C   UNL A   1      39.076  34.153  38.076  1.00  0.00     0.135 A 
ATOM     81  C   UNL A   1      40.600  35.557  36.856  1.00  0.00     0.135 A 
ATOM     82  F   UNL A   1      38.365  33.022  38.209  1.00  0.00    -0.206 F 
ATOM     83  C   UNL A   1      38.949  35.128  39.060  1.00  0.00     0.059 A 
ATOM     84  C   UNL A   1      40.513  36.533  37.844  1.00  0.00     0.059 A 
ATOM     85  F   UNL A   1      41.398  35.793  35.803  1.00  0.00    -0.206 F 
ATOM     86  C   UNL A   1      39.672  36.316  38.934  1.00  0.00     0.060 A 
BRANCH  86  87
ATOM     87  S   UNL A   1      39.509  37.569  40.223  1.00  0.00     0.124 S 
ATOM     88  O   UNL A   1      38.980  36.782  41.332  1.00  0.00    -0.237 OA
ATOM     89  O   UNL A   1      40.882  38.039  40.378  1.00  0.00    -0.237 OA
ATOM     90  O   UNL A   1      38.583  38.536  39.643  1.00  0.00    -0.744 OA
ENDBRANCH  86  87
ENDBRANCH  54  79
ENDBRANCH  28  29
ENDBRANCH  21  23
ENDBRANCH  20  21
ENDBRANCH   1  20
TORSDOF 15
ENDMDL
MODEL 2
REMARK VINA RESULT:     -11.2      5.448     12.335
REMARK SMILES CC1(C)C(=O)N([C@H]2COC[C@@H]2C(=O)OCCOC(=O)c2ccc(-c3c4nc(c(-c5c(F)cc(S(=O)(=O)[O-])cc5F)c5ccc([nH]5)c(-c5c(F)cc(S(=O)(=O)[O-])cc5F)c5nc(c(-c6c(F)cc(S(=O)(=O)[O-])cc6F)c6ccc3[nH]6)C=C5)C=C4)cc2)S1(=O)=O
REMARK SMILES IDX 16 1 15 2 14 3 12 4 13 5 11 6 7 7 8 8 9 9 10 10 6 11 1 12
REMARK SMILES IDX 2 13 3 14 4 15 86 16 5 17 87 18 88 19 17 20 18 21 19 22
REMARK SMILES IDX 20 23 21 24 85 25 22 26 84 27 23 28 24 29 25 30 78 31 26 32
REMARK SMILES IDX 83 33 77 34 79 35 27 36 82 37 76 38 75 39 28 41 62 42 41 43
REMARK SMILES IDX 61 44 42 45 45 46 60 47 80 48 43 49 44 50 59 52 81 53 46 54
REMARK SMILES IDX 29 55 30 56 39 57 31 58 32 59 38 60 40 61 33 62 34 63 35 64
REMARK SMILES IDX 36 65 37 66 63 67 64 68 73 69 65 70 66 71 72 72 74 73 67 74
REMARK SMILES IDX 68 75 69 76 70 77 71 78 47 79 48 80 57 81 49 82 50 83 56 84
REMARK SMILES IDX 58 85 51 86 52 87 53 88 54 89 55 90
REMARK H PARENT 79 40 45 51
REMARK Flexibility Score: inf
ROOT
ATOM      1  C   UNL A   1      34.456  32.919  28.072  1.00  0.00     0.275 C 
ENDROOT
BRANCH   1   2
ATOM      2  C   UNL A   1      33.268  33.863  27.891  1.00  0.00     0.274 C 
BRANCH   2   3
ATOM      3  O   UNL A   1      32.778  34.289  29.178  1.00  0.00    -0.462 OA
BRANCH   3   4
ATOM      4  C   UNL A   1      32.929  35.605  29.455  1.00  0.00     0.313 C 
ATOM      5  O   UNL A   1      32.521  36.512  28.738  1.00  0.00    -0.252 OA
BRANCH   4   6
ATOM      6  C   UNL A   1      33.677  35.883  30.737  1.00  0.00     0.151 C 
ATOM      7  C   UNL A   1      33.228  34.896  31.786  1.00  0.00     0.145 C 
ATOM      8  C   UNL A   1      32.155  35.705  32.516  1.00  0.00     0.187 C 
ATOM      9  O   UNL A   1      32.477  37.097  32.386  1.00  0.00    -0.378 OA
ATOM     10  C   UNL A   1      33.476  37.238  31.370  1.00  0.00     0.177 C 
BRANCH   7  11
ATOM     11  N   UNL A   1      34.319  34.505  32.720  1.00  0.00    -0.231 N 
ATOM     12  C   UNL A   1      36.656  32.723  34.357  1.00  0.00     0.041 C 
ATOM     13  C   UNL A   1      35.785  32.852  33.113  1.00  0.00     0.165 C 
ATOM     14  C   UNL A   1      35.881  31.593  32.245  1.00  0.00     0.041 C 
ATOM     15  C   UNL A   1      34.328  33.261  33.384  1.00  0.00     0.259 C 
ATOM     16  S   UNL A   1      35.910  34.363  32.231  1.00  0.00     0.252 S 
ATOM     17  O   UNL A   1      33.362  32.709  33.871  1.00  0.00    -0.272 OA
ATOM     18  O   UNL A   1      36.673  35.374  32.919  1.00  0.00    -0.205 OA
ATOM     19  O   UNL A   1      35.958  34.165  30.802  1.00  0.00    -0.205 OA
ENDBRANCH   7  11
ENDBRANCH   4   6
ENDBRANCH   3   4
ENDBRANCH   2   3
ENDBRANCH   1   2
BRANCH   1  20
ATOM     20  O   UNL A   1      34.043  31.687  28.695  1.00  0.00    -0.458 OA
BRANCH  20  21
ATOM     21  C   UNL A   1      34.239  30.576  27.948  1.00  0.00     0.338 C 
ATOM     22  O   UNL A   1      33.456  30.066  27.164  1.00  0.00    -0.246 OA
BRANCH  21  23
ATOM     23  C   UNL A   1      35.599  30.051  28.141  1.00  0.00     0.060 A 
ATOM     24  C   UNL A   1      36.008  29.699  29.423  1.00  0.00     0.016 A 
ATOM     25  C   UNL A   1      36.520  30.079  27.097  1.00  0.00     0.016 A 
ATOM     26  C   UNL A   1      37.353  29.478  29.698  1.00  0.00     0.010 A 
ATOM     27  C   UNL A   1      37.855  29.744  27.352  1.00  0.00     0.010 A 
ATOM     28  C   UNL A   1      38.293  29.474  28.661  1.00  0.00    -0.014 A 
BRANCH  28  29
ATOM     29  C   UNL A   1      39.722  29.171  28.953  1.00  0.00     0.031 A 
ATOM     30  C   UNL A   1      40.633  30.233  29.510  1.00  0.00     0.074 A 
ATOM     31  C   UNL A   1      40.200  27.934  28.707  1.00  0.00     0.049 A 
ATOM     32  N   UNL A   1      41.926  30.187  29.713  1.00  0.00    -0.248 NA
ATOM     33  C   UNL A   1      40.017  31.518  29.875  1.00  0.00     0.031 C 
ATOM     34  C   UNL A   1      39.416  26.811  28.186  1.00  0.00     0.029 A 
ATOM     35  N   UNL A   1      41.461  27.411  28.855  1.00  0.00    -0.354 N 
ATOM     36  C   UNL A   1      42.283  31.443  30.191  1.00  0.00     0.074 A 
ATOM     37  C   UNL A   1      41.074  32.237  30.231  1.00  0.00     0.031 C 
ATOM     38  C   UNL A   1      40.205  25.733  28.075  1.00  0.00     0.029 A 
ATOM     39  C   UNL A   1      41.565  26.103  28.443  1.00  0.00     0.049 A 
ATOM     40  H   UNL A   1      42.217  27.923  29.222  1.00  0.00     0.167 HD
ATOM     41  C   UNL A   1      43.508  31.890  30.563  1.00  0.00     0.037 A 
ATOM     42  C   UNL A   1      42.640  25.299  28.331  1.00  0.00     0.037 A 
ATOM     43  C   UNL A   1      44.702  31.080  30.551  1.00  0.00     0.049 A 
ATOM     44  C   UNL A   1      43.990  25.829  28.721  1.00  0.00     0.074 A 
ATOM     45  C   UNL A   1      45.980  31.427  30.951  1.00  0.00     0.029 A 
ATOM     46  N   UNL A   1      44.766  29.763  30.116  1.00  0.00    -0.354 N 
ATOM     47  N   UNL A   1      44.309  27.016  29.182  1.00  0.00    -0.248 NA
ATOM     48  C   UNL A   1      45.130  24.914  28.574  1.00  0.00     0.031 C 
ATOM     49  C   UNL A   1      46.827  30.342  30.706  1.00  0.00     0.029 A 
ATOM     50  C   UNL A   1      46.067  29.295  30.208  1.00  0.00     0.049 A 
ATOM     51  H   UNL A   1      43.999  29.238  29.789  1.00  0.00     0.167 HD
ATOM     52  C   UNL A   1      45.682  26.984  29.395  1.00  0.00     0.074 A 
ATOM     53  C   UNL A   1      46.128  25.653  29.036  1.00  0.00     0.031 C 
ATOM     54  C   UNL A   1      46.499  27.969  29.843  1.00  0.00     0.037 A 
BRANCH  41  55
ATOM     55  C   UNL A   1      43.638  33.330  30.986  1.00  0.00     0.058 A 
ATOM     56  C   UNL A   1      43.627  33.716  32.336  1.00  0.00     0.135 A 
ATOM     57  C   UNL A   1      43.833  34.334  30.023  1.00  0.00     0.135 A 
ATOM     58  F   UNL A   1      43.431  32.803  33.300  1.00  0.00    -0.206 F 
ATOM     59  C   UNL A   1      43.785  35.047  32.714  1.00  0.00     0.059 A 
ATOM     60  C   UNL A   1      44.021  35.667  30.379  1.00  0.00     0.059 A 
ATOM     61  F   UNL A   1      43.852  34.023  28.717  1.00  0.00    -0.206 F 
ATOM     62  C   UNL A   1      43.983  36.015  31.728  1.00  0.00     0.060 A 
BRANCH  62  63
ATOM     63  S   UNL A   1      44.204  37.734  32.235  1.00  0.00     0.124 S 
ATOM     64  O   UNL A   1      45.589  37.726  32.699  1.00  0.00    -0.237 OA
ATOM     65  O   UNL A   1      43.955  38.461  30.995  1.00  0.00    -0.237 OA
ATOM     66  O   UNL A   1      43.197  37.915  33.276  1.00  0.00    -0.744 OA
ENDBRANCH  62  63
ENDBRANCH  41  55
BRANCH  42  67
ATOM     67  C   UNL A   1      42.481  23.920  27.794  1.00  0.00     0.058 A 
ATOM     68  C   UNL A   1      42.428  23.680  26.414  1.00  0.00     0.135 A 
ATOM     69  C   UNL A   1      42.391  22.813  28.653  1.00  0.00     0.135 A 
ATOM     70  F   UNL A   1      42.503  24.705  25.551  1.00  0.00    -0.206 F 
ATOM     71  C   UNL A   1      42.276  22.394  25.903  1.00  0.00     0.059 A 
ATOM     72  C   UNL A   1      42.271  21.515  28.166  1.00  0.00     0.059 A 
ATOM     73  F   UNL A   1      42.451  22.985  29.982  1.00  0.00    -0.206 F 
ATOM     74  C   UNL A   1      42.202  21.318  26.789  1.00  0.00     0.060 A 
BRANCH  74  75
ATOM     75  S   UNL A   1      42.048  19.650  26.114  1.00  0.00     0.124 S 
ATOM     76  O   UNL A   1      42.985  19.696  24.999  1.00  0.00    -0.237 OA
ATOM     77  O   UNL A   1      42.447  18.823  27.249  1.00  0.00    -0.237 OA
ATOM     78  O   UNL A   1      40.637  19.563  25.751  1.00  0.00    -0.744 OA
ENDBRANCH  74  75
ENDBRANCH  42  67
BRANCH  54  79
ATOM     79  C   UNL A   1      47.958  27.632  29.996  1.00  0.00     0.058 A 
ATOM     80  C   UNL A   1      48.897  27.947  29.001  1.00  0.00     0.135 A 
ATOM     81  C   UNL A   1      48.426  27.006  31.163  1.00  0.00     0.135 A 
ATOM     82  F   UNL A   1      48.503  28.539  27.862  1.00  0.00    -0.206 F 
ATOM     83  C   UNL A   1      50.242  27.622  29.142  1.00  0.00     0.059 A 
ATOM     84  C   UNL A   1      49.772  26.700  31.339  1.00  0.00     0.059 A 
ATOM     85  F   UNL A   1      47.573  26.692  32.150  1.00  0.00    -0.206 F 
ATOM     86  C   UNL A   1      50.670  26.997  30.314  1.00  0.00     0.060 A 
BRANCH  86  87
ATOM     87  S   UNL A   1      52.419  26.591  30.491  1.00  0.00     0.124 S 
ATOM     88  O   UNL A   1      52.781  26.251  29.118  1.00  0.00    -0.237 OA
ATOM     89  O   UNL A   1      52.980  27.837  31.004  1.00  0.00    -0.237 OA
ATOM     90  O   UNL A   1      52.417  25.476  31.433  1.00  0.00    -0.744 OA
ENDBRANCH  86  87
ENDBRANCH  54  79
ENDBRANCH  28  29
ENDBRANCH  21  23
ENDBRANCH  20  21
ENDBRANCH   1  20
TORSDOF 15
ENDMDL
MODEL 3
REMARK VINA RESULT:     -11.2      6.158     10.670
REMARK SMILES CC1(C)C(=O)N([C@H]2COC[C@@H]2C(=O)OCCOC(=O)c2ccc(-c3c4nc(c(-c5c(F)cc(S(=O)(=O)[O-])cc5F)c5ccc([nH]5)c(-c5c(F)cc(S(=O)(=O)[O-])cc5F)c5nc(c(-c6c(F)cc(S(=O)(=O)[O-])cc6F)c6ccc3[nH]6)C=C5)C=C4)cc2)S1(=O)=O
REMARK SMILES IDX 16 1 15 2 14 3 12 4 13 5 11 6 7 7 8 8 9 9 10 10 6 11 1 12
REMARK SMILES IDX 2 13 3 14 4 15 86 16 5 17 87 18 88 19 17 20 18 21 19 22
REMARK SMILES IDX 20 23 21 24 85 25 22 26 84 27 23 28 24 29 25 30 78 31 26 32
REMARK SMILES IDX 83 33 77 34 79 35 27 36 82 37 76 38 75 39 28 41 62 42 41 43
REMARK SMILES IDX 61 44 42 45 45 46 60 47 80 48 43 49 44 50 59 52 81 53 46 54
REMARK SMILES IDX 29 55 30 56 39 57 31 58 32 59 38 60 40 61 33 62 34 63 35 64
REMARK SMILES IDX 36 65 37 66 63 67 64 68 73 69 65 70 66 71 72 72 74 73 67 74
REMARK SMILES IDX 68 75 69 76 70 77 71 78 47 79 48 80 57 81 49 82 50 83 56 84
REMARK SMILES IDX 58 85 51 86 52 87 53 88 54 89 55 90
REMARK H PARENT 79 40 45 51
REMARK Flexibility Score: inf
ROOT
ATOM      1  C   UNL A   1      40.079  20.452  26.102  1.00  0.00     0.275 C 
ENDROOT
BRANCH   1   2
ATOM      2  C   UNL A   1      41.045  19.379  26.602  1.00  0.00     0.274 C 
BRANCH   2   3
ATOM      3  O   UNL A   1      42.012  19.072  25.577  1.00  0.00    -0.462 OA
BRANCH   3   4
ATOM      4  C   UNL A   1      43.139  18.456  26.003  1.00  0.00     0.313 C 
ATOM      5  O   UNL A   1      43.167  17.336  26.499  1.00  0.00    -0.252 OA
BRANCH   4   6
ATOM      6  C   UNL A   1      44.393  19.282  25.836  1.00  0.00     0.151 C 
ATOM      7  C   UNL A   1      44.222  20.190  24.643  1.00  0.00     0.145 C 
ATOM      8  C   UNL A   1      44.902  19.370  23.545  1.00  0.00     0.187 C 
ATOM      9  O   UNL A   1      45.899  18.540  24.159  1.00  0.00    -0.378 OA
ATOM     10  C   UNL A   1      45.678  18.535  25.573  1.00  0.00     0.177 C 
BRANCH   7  11
ATOM     11  N   UNL A   1      44.898  21.504  24.812  1.00  0.00    -0.231 N 
ATOM     12  C   UNL A   1      45.487  24.813  24.968  1.00  0.00     0.041 C 
ATOM     13  C   UNL A   1      44.452  23.695  25.013  1.00  0.00     0.165 C 
ATOM     14  C   UNL A   1      43.030  24.264  25.005  1.00  0.00     0.041 C 
ATOM     15  C   UNL A   1      44.644  22.595  23.956  1.00  0.00     0.259 C 
ATOM     16  S   UNL A   1      44.729  22.428  26.194  1.00  0.00     0.252 S 
ATOM     17  O   UNL A   1      44.499  22.534  22.751  1.00  0.00    -0.272 OA
ATOM     18  O   UNL A   1      46.019  22.504  26.833  1.00  0.00    -0.205 OA
ATOM     19  O   UNL A   1      43.521  22.044  26.884  1.00  0.00    -0.205 OA
ENDBRANCH   7  11
ENDBRANCH   4   6
ENDBRANCH   3   4
ENDBRANCH   2   3
ENDBRANCH   1   2
BRANCH   1  20
ATOM     20  O   UNL A   1      40.031  21.565  27.016  1.00  0.00    -0.458 OA
BRANCH  20  21
ATOM     21  C   UNL A   1      39.237  22.590  26.626  1.00  0.00     0.338 C 
ATOM     22  O   UNL A   1      38.228  22.524  25.943  1.00  0.00    -0.246 OA
BRANCH  21  23
ATOM     23  C   UNL A   1      39.705  23.860  27.199  1.00  0.00     0.060 A 
ATOM     24  C   UNL A   1      39.471  25.039  26.501  1.00  0.00     0.016 A 
ATOM     25  C   UNL A   1      40.527  23.865  28.323  1.00  0.00     0.016 A 
ATOM     26  C   UNL A   1      40.136  26.210  26.850  1.00  0.00     0.010 A 
ATOM     27  C   UNL A   1      41.107  25.069  28.744  1.00  0.00     0.010 A 
ATOM     28  C   UNL A   1      40.946  26.247  27.991  1.00  0.00    -0.014 A 
BRANCH  28  29
ATOM     29  C   UNL A   1      41.603  27.520  28.397  1.00  0.00     0.031 A 
ATOM     30  C   UNL A   1      40.797  28.647  28.985  1.00  0.00     0.074 A 
ATOM     31  C   UNL A   1      42.934  27.661  28.227  1.00  0.00     0.049 A 
ATOM     32  N   UNL A   1      41.175  29.864  29.285  1.00  0.00    -0.248 NA
ATOM     33  C   UNL A   1      39.377  28.379  29.263  1.00  0.00     0.031 C 
ATOM     34  C   UNL A   1      43.833  26.637  27.685  1.00  0.00     0.029 A 
ATOM     35  N   UNL A   1      43.766  28.723  28.484  1.00  0.00    -0.354 N 
ATOM     36  C   UNL A   1      40.037  30.516  29.748  1.00  0.00     0.074 A 
ATOM     37  C   UNL A   1      38.949  29.565  29.673  1.00  0.00     0.031 C 
ATOM     38  C   UNL A   1      45.086  27.112  27.668  1.00  0.00     0.029 A 
ATOM     39  C   UNL A   1      45.074  28.497  28.123  1.00  0.00     0.049 A 
ATOM     40  H   UNL A   1      43.456  29.565  28.890  1.00  0.00     0.167 HD
ATOM     41  C   UNL A   1      39.915  31.790  30.195  1.00  0.00     0.037 A 
ATOM     42  C   UNL A   1      46.140  29.319  28.117  1.00  0.00     0.037 A 
ATOM     43  C   UNL A   1      41.014  32.719  30.297  1.00  0.00     0.049 A 
ATOM     44  C   UNL A   1      45.970  30.735  28.588  1.00  0.00     0.074 A 
ATOM     45  C   UNL A   1      41.000  34.017  30.779  1.00  0.00     0.029 A 
ATOM     46  N   UNL A   1      42.320  32.453  29.910  1.00  0.00    -0.354 N 
ATOM     47  N   UNL A   1      44.890  31.332  29.033  1.00  0.00    -0.248 NA
ATOM     48  C   UNL A   1      47.162  31.593  28.555  1.00  0.00     0.031 C 
ATOM     49  C   UNL A   1      42.283  34.554  30.632  1.00  0.00     0.029 A 
ATOM     50  C   UNL A   1      43.113  33.572  30.114  1.00  0.00     0.049 A 
ATOM     51  H   UNL A   1      42.637  31.596  29.544  1.00  0.00     0.167 HD
ATOM     52  C   UNL A   1      45.276  32.630  29.348  1.00  0.00     0.074 A 
ATOM     53  C   UNL A   1      46.693  32.722  29.066  1.00  0.00     0.031 C 
ATOM     54  C   UNL A   1      44.523  33.653  29.824  1.00  0.00     0.037 A 
BRANCH  41  55
ATOM     55  C   UNL A   1      38.542  32.276  30.581  1.00  0.00     0.058 A 
ATOM     56  C   UNL A   1      38.041  32.142  31.885  1.00  0.00     0.135 A 
ATOM     57  C   UNL A   1      37.738  32.939  29.639  1.00  0.00     0.135 A 
ATOM     58  F   UNL A   1      38.758  31.505  32.824  1.00  0.00    -0.206 F 
ATOM     59  C   UNL A   1      36.784  32.629  32.236  1.00  0.00     0.059 A 
ATOM     60  C   UNL A   1      36.491  33.459  29.974  1.00  0.00     0.059 A 
ATOM     61  F   UNL A   1      38.166  33.097  28.376  1.00  0.00    -0.206 F 
ATOM     62  C   UNL A   1      36.017  33.288  31.273  1.00  0.00     0.060 A 
BRANCH  62  63
ATOM     63  S   UNL A   1      34.398  33.930  31.750  1.00  0.00     0.124 S 
ATOM     64  O   UNL A   1      33.850  32.810  32.508  1.00  0.00    -0.237 OA
ATOM     65  O   UNL A   1      34.747  35.114  32.529  1.00  0.00    -0.237 OA
ATOM     66  O   UNL A   1      33.747  34.197  30.471  1.00  0.00    -0.744 OA
ENDBRANCH  62  63
ENDBRANCH  41  55
BRANCH  42  67
ATOM     67  C   UNL A   1      47.452  28.828  27.613  1.00  0.00     0.058 A 
ATOM     68  C   UNL A   1      48.468  28.438  28.495  1.00  0.00     0.135 A 
ATOM     69  C   UNL A   1      47.709  28.729  26.236  1.00  0.00     0.135 A 
ATOM     70  F   UNL A   1      48.275  28.519  29.821  1.00  0.00    -0.206 F 
ATOM     71  C   UNL A   1      49.699  27.981  28.032  1.00  0.00     0.059 A 
ATOM     72  C   UNL A   1      48.919  28.246  25.749  1.00  0.00     0.059 A 
ATOM     73  F   UNL A   1      46.765  29.077  25.348  1.00  0.00    -0.206 F 
ATOM     74  C   UNL A   1      49.912  27.886  26.656  1.00  0.00     0.060 A 
BRANCH  74  75
ATOM     75  S   UNL A   1      51.497  27.251  26.067  1.00  0.00     0.124 S 
ATOM     76  O   UNL A   1      52.085  28.441  25.464  1.00  0.00    -0.237 OA
ATOM     77  O   UNL A   1      52.119  26.788  27.304  1.00  0.00    -0.237 OA
ATOM     78  O   UNL A   1      51.111  26.196  25.136  1.00  0.00    -0.744 OA
ENDBRANCH  74  75
ENDBRANCH  42  67
BRANCH  54  79
ATOM     79  C   UNL A   1      45.229  34.954  30.095  1.00  0.00     0.058 A 
ATOM     80  C   UNL A   1      45.832  35.224  31.333  1.00  0.00     0.135 A 
ATOM     81  C   UNL A   1      45.322  35.935  29.094  1.00  0.00     0.135 A 
ATOM     82  F   UNL A   1      45.765  34.325  32.328  1.00  0.00    -0.206 F 
ATOM     83  C   UNL A   1      46.472  36.433  31.583  1.00  0.00     0.059 A 
ATOM     84  C   UNL A   1      45.985  37.139  29.310  1.00  0.00     0.059 A 
ATOM     85  F   UNL A   1      44.773  35.724  27.887  1.00  0.00    -0.206 F 
ATOM     86  C   UNL A   1      46.542  37.386  30.564  1.00  0.00     0.060 A 
BRANCH  86  87
ATOM     87  S   UNL A   1      47.384  38.947  30.895  1.00  0.00     0.124 S 
ATOM     88  O   UNL A   1      46.770  39.350  32.157  1.00  0.00    -0.237 OA
ATOM     89  O   UNL A   1      48.783  38.538  30.974  1.00  0.00    -0.237 OA
ATOM     90  O   UNL A   1      47.042  39.771  29.740  1.00  0.00    -0.744 OA
ENDBRANCH  86  87
ENDBRANCH  54  79
ENDBRANCH  28  29
ENDBRANCH  21  23
ENDBRANCH  20  21
ENDBRANCH   1  20
TORSDOF 15
ENDMDL
