MODEL 1
REMARK VINA RESULT:     -11.5      0.000      0.000
REMARK SMILES CCOC(=O)C1=NN(c2ccc([N+](=O)[O-])cc2C(F)(F)F)[C@@](C)(C(=O)OCCOC(=O)c2ccc(-c3c4nc(c(-c5c(F)cc(S(=O)(=O)[O-])cc5F)c5ccc([nH]5)c(-c5c(F)cc(S(=O)(=O)[O-])cc5F)c5nc(c(-c6c(F)cc(S(=O)(=O)[O-])cc6F)c6ccc3[nH]6)C=C5)C=C4)cc2)C1
REMARK SMILES IDX 27 1 26 2 24 3 25 4 22 5 6 6 7 7 98 8 8 9 23 10 4 11 5 12
REMARK SMILES IDX 3 13 2 14 1 15 9 16 10 17 17 18 11 19 16 20 12 21 18 22
REMARK SMILES IDX 19 23 20 24 21 25 13 26 14 27 15 28 28 29 29 30 30 31 31 32
REMARK SMILES IDX 32 33 33 34 97 35 34 36 96 37 35 38 36 39 37 40 90 41 38 42
REMARK SMILES IDX 95 43 89 44 91 45 39 46 94 47 88 48 87 49 40 51 74 52 53 53
REMARK SMILES IDX 73 54 54 55 57 56 72 57 92 58 55 59 56 60 71 62 93 63 58 64
REMARK SMILES IDX 41 65 42 66 51 67 43 68 44 69 50 70 52 71 45 72 46 73 47 74
REMARK SMILES IDX 48 75 49 76 75 77 76 78 85 79 77 80 78 81 84 82 86 83 79 84
REMARK SMILES IDX 80 85 81 86 82 87 83 88 59 89 60 90 69 91 61 92 62 93 68 94
REMARK SMILES IDX 70 95 63 96 64 97 65 98 66 99 67 100
REMARK H PARENT 91 50 57 61
REMARK Flexibility Score: inf
ROOT
ATOM      1  C   UNL A   1      38.433  21.583  25.679  1.00  0.00     0.274 C 
ENDROOT
BRANCH   1   2
ATOM      2  O   UNL A   1      37.591  22.749  25.536  1.00  0.00    -0.460 OA
BRANCH   2   3
ATOM      3  C   UNL A   1      36.253  22.538  25.667  1.00  0.00     0.334 C 
ATOM      4  O   UNL A   1      35.722  22.197  26.723  1.00  0.00    -0.249 OA
BRANCH   3   5
ATOM      5  C   UNL A   1      35.450  22.658  24.358  1.00  0.00     0.163 C 
ATOM      6  C   UNL A   1      33.524  21.387  24.477  1.00  0.00     0.149 C 
ATOM      7  N   UNL A   1      33.115  22.589  24.733  1.00  0.00    -0.169 NA
ATOM      8  C   UNL A   1      34.917  21.264  23.948  1.00  0.00     0.108 C 
ATOM      9  N   UNL A   1      34.179  23.408  24.482  1.00  0.00    -0.247 N 
ATOM     10  C   UNL A   1      36.435  23.205  23.330  1.00  0.00     0.050 C 
BRANCH   6  11
ATOM     11  C   UNL A   1      32.632  20.189  24.654  1.00  0.00     0.354 C 
ATOM     12  O   UNL A   1      32.220  19.860  25.753  1.00  0.00    -0.245 OA
BRANCH  11  13
ATOM     13  O   UNL A   1      32.360  19.643  23.453  1.00  0.00    -0.461 OA
BRANCH  13  14
ATOM     14  C   UNL A   1      32.465  18.212  23.383  1.00  0.00     0.230 C 
ATOM     15  C   UNL A   1      33.852  17.797  23.832  1.00  0.00     0.049 C 
ENDBRANCH  13  14
ENDBRANCH  11  13
ENDBRANCH   6  11
BRANCH   9  16
ATOM     16  C   UNL A   1      33.917  24.765  24.479  1.00  0.00     0.073 A 
ATOM     17  C   UNL A   1      34.219  25.502  25.645  1.00  0.00     0.036 A 
ATOM     18  C   UNL A   1      33.206  25.416  23.453  1.00  0.00     0.088 A 
ATOM     19  C   UNL A   1      33.889  26.853  25.784  1.00  0.00     0.088 A 
ATOM     20  C   UNL A   1      32.913  26.794  23.572  1.00  0.00     0.101 A 
ATOM     21  C   UNL A   1      33.244  27.499  24.734  1.00  0.00     0.270 A 
BRANCH  18  22
ATOM     22  C   UNL A   1      32.666  24.709  22.232  1.00  0.00     0.418 C 
ATOM     23  F   UNL A   1      31.463  24.110  22.469  1.00  0.00    -0.166 F 
ATOM     24  F   UNL A   1      32.429  25.583  21.212  1.00  0.00    -0.166 F 
ATOM     25  F   UNL A   1      33.456  23.729  21.718  1.00  0.00    -0.166 F 
ENDBRANCH  18  22
BRANCH  21  26
ATOM     26  N   UNL A   1      32.874  28.913  24.857  1.00  0.00     0.062 N 
ATOM     27  O   UNL A   1      32.098  29.385  24.013  1.00  0.00    -0.258 OA
ATOM     28  O   UNL A   1      33.353  29.552  25.806  1.00  0.00    -0.258 OA
ENDBRANCH  21  26
ENDBRANCH   9  16
ENDBRANCH   3   5
ENDBRANCH   2   3
ENDBRANCH   1   2
BRANCH   1  29
ATOM     29  C   UNL A   1      39.773  21.942  26.320  1.00  0.00     0.275 C 
BRANCH  29  30
ATOM     30  O   UNL A   1      39.652  23.216  26.970  1.00  0.00    -0.458 OA
BRANCH  30  31
ATOM     31  C   UNL A   1      40.686  24.073  26.793  1.00  0.00     0.338 C 
ATOM     32  O   UNL A   1      41.643  23.904  26.056  1.00  0.00    -0.246 OA
BRANCH  31  33
ATOM     33  C   UNL A   1      40.474  25.287  27.621  1.00  0.00     0.060 A 
ATOM     34  C   UNL A   1      41.445  26.286  27.685  1.00  0.00     0.016 A 
ATOM     35  C   UNL A   1      39.339  25.395  28.424  1.00  0.00     0.016 A 
ATOM     36  C   UNL A   1      41.358  27.301  28.636  1.00  0.00     0.010 A 
ATOM     37  C   UNL A   1      39.197  26.485  29.297  1.00  0.00     0.010 A 
ATOM     38  C   UNL A   1      40.232  27.420  29.464  1.00  0.00    -0.014 A 
BRANCH  38  39
ATOM     39  C   UNL A   1      40.196  28.457  30.544  1.00  0.00     0.031 A 
ATOM     40  C   UNL A   1      41.237  28.456  31.644  1.00  0.00     0.074 A 
ATOM     41  C   UNL A   1      39.287  29.458  30.520  1.00  0.00     0.049 A 
ATOM     42  N   UNL A   1      41.299  29.195  32.724  1.00  0.00    -0.248 NA
ATOM     43  C   UNL A   1      42.349  27.501  31.517  1.00  0.00     0.031 C 
ATOM     44  C   UNL A   1      38.240  29.633  29.511  1.00  0.00     0.029 A 
ATOM     45  N   UNL A   1      39.119  30.541  31.352  1.00  0.00    -0.354 N 
ATOM     46  C   UNL A   1      42.407  28.744  33.436  1.00  0.00     0.074 A 
ATOM     47  C   UNL A   1      42.995  27.674  32.661  1.00  0.00     0.031 C 
ATOM     48  C   UNL A   1      37.598  30.790  29.733  1.00  0.00     0.029 A 
ATOM     49  C   UNL A   1      38.111  31.390  30.960  1.00  0.00     0.049 A 
ATOM     50  H   UNL A   1      39.669  30.693  32.154  1.00  0.00     0.167 HD
ATOM     51  C   UNL A   1      42.896  29.181  34.622  1.00  0.00     0.037 A 
ATOM     52  C   UNL A   1      37.619  32.508  31.532  1.00  0.00     0.037 A 
ATOM     53  C   UNL A   1      42.367  30.295  35.366  1.00  0.00     0.049 A 
ATOM     54  C   UNL A   1      38.175  32.972  32.847  1.00  0.00     0.074 A 
ATOM     55  C   UNL A   1      42.799  30.804  36.580  1.00  0.00     0.029 A 
ATOM     56  N   UNL A   1      41.308  31.090  34.957  1.00  0.00    -0.354 N 
ATOM     57  N   UNL A   1      39.157  32.464  33.552  1.00  0.00    -0.248 NA
ATOM     58  C   UNL A   1      37.532  34.142  33.461  1.00  0.00     0.031 C 
ATOM     59  C   UNL A   1      41.989  31.898  36.912  1.00  0.00     0.029 A 
ATOM     60  C   UNL A   1      41.075  32.087  35.891  1.00  0.00     0.049 A 
ATOM     61  H   UNL A   1      40.797  30.965  34.125  1.00  0.00     0.167 HD
ATOM     62  C   UNL A   1      39.239  33.243  34.700  1.00  0.00     0.074 A 
ATOM     63  C   UNL A   1      38.236  34.280  34.576  1.00  0.00     0.031 C 
ATOM     64  C   UNL A   1      40.061  33.101  35.769  1.00  0.00     0.037 A 
BRANCH  51  65
ATOM     65  C   UNL A   1      44.058  28.432  35.213  1.00  0.00     0.058 A 
ATOM     66  C   UNL A   1      45.387  28.808  34.964  1.00  0.00     0.135 A 
ATOM     67  C   UNL A   1      43.833  27.348  36.077  1.00  0.00     0.135 A 
ATOM     68  F   UNL A   1      45.656  29.824  34.128  1.00  0.00    -0.206 F 
ATOM     69  C   UNL A   1      46.454  28.124  35.538  1.00  0.00     0.059 A 
ATOM     70  C   UNL A   1      44.884  26.664  36.680  1.00  0.00     0.059 A 
ATOM     71  F   UNL A   1      42.580  26.950  36.348  1.00  0.00    -0.206 F 
ATOM     72  C   UNL A   1      46.192  27.053  36.396  1.00  0.00     0.060 A 
BRANCH  72  73
ATOM     73  S   UNL A   1      47.584  26.184  37.152  1.00  0.00     0.124 S 
ATOM     74  O   UNL A   1      47.160  24.793  37.025  1.00  0.00    -0.237 OA
ATOM     75  O   UNL A   1      48.701  26.585  36.304  1.00  0.00    -0.237 OA
ATOM     76  O   UNL A   1      47.614  26.711  38.512  1.00  0.00    -0.744 OA
ENDBRANCH  72  73
ENDBRANCH  51  65
BRANCH  52  77
ATOM     77  C   UNL A   1      36.498  33.241  30.885  1.00  0.00     0.058 A 
ATOM     78  C   UNL A   1      35.189  33.143  31.380  1.00  0.00     0.135 A 
ATOM     79  C   UNL A   1      36.717  34.064  29.770  1.00  0.00     0.135 A 
ATOM     80  F   UNL A   1      34.927  32.354  32.433  1.00  0.00    -0.206 F 
ATOM     81  C   UNL A   1      34.136  33.838  30.793  1.00  0.00     0.059 A 
ATOM     82  C   UNL A   1      35.686  34.791  29.185  1.00  0.00     0.059 A 
ATOM     83  F   UNL A   1      37.952  34.195  29.263  1.00  0.00    -0.206 F 
ATOM     84  C   UNL A   1      34.396  34.666  29.700  1.00  0.00     0.060 A 
BRANCH  84  85
ATOM     85  S   UNL A   1      33.049  35.638  28.992  1.00  0.00     0.124 S 
ATOM     86  O   UNL A   1      32.366  34.641  28.176  1.00  0.00    -0.237 OA
ATOM     87  O   UNL A   1      32.332  36.093  30.178  1.00  0.00    -0.237 OA
ATOM     88  O   UNL A   1      33.752  36.686  28.256  1.00  0.00    -0.744 OA
ENDBRANCH  84  85
ENDBRANCH  52  77
BRANCH  64  89
ATOM     89  C   UNL A   1      39.897  34.093  36.884  1.00  0.00     0.058 A 
ATOM     90  C   UNL A   1      39.210  33.758  38.062  1.00  0.00     0.135 A 
ATOM     91  C   UNL A   1      40.412  35.393  36.769  1.00  0.00     0.135 A 
ATOM     92  F   UNL A   1      38.693  32.529  38.217  1.00  0.00    -0.206 F 
ATOM     93  C   UNL A   1      39.003  34.692  39.072  1.00  0.00     0.059 A 
ATOM     94  C   UNL A   1      40.234  36.337  37.776  1.00  0.00     0.059 A 
ATOM     95  F   UNL A   1      41.085  35.759  35.667  1.00  0.00    -0.206 F 
ATOM     96  C   UNL A   1      39.508  35.984  38.913  1.00  0.00     0.060 A 
BRANCH  96  97
ATOM     97  S   UNL A   1      39.215  37.202  40.214  1.00  0.00     0.124 S 
ATOM     98  O   UNL A   1      40.574  37.477  40.666  1.00  0.00    -0.237 OA
ATOM     99  O   UNL A   1      38.555  38.285  39.492  1.00  0.00    -0.237 OA
ATOM    100  O   UNL A   1      38.369  36.484  41.162  1.00  0.00    -0.744 OA
ENDBRANCH  96  97
ENDBRANCH  64  89
ENDBRANCH  38  39
ENDBRANCH  31  33
ENDBRANCH  30  31
ENDBRANCH  29  30
ENDBRANCH   1  29
TORSDOF 20
ENDMDL
MODEL 2
REMARK VINA RESULT:     -11.0      2.852      8.387
REMARK SMILES CCOC(=O)C1=NN(c2ccc([N+](=O)[O-])cc2C(F)(F)F)[C@@](C)(C(=O)OCCOC(=O)c2ccc(-c3c4nc(c(-c5c(F)cc(S(=O)(=O)[O-])cc5F)c5ccc([nH]5)c(-c5c(F)cc(S(=O)(=O)[O-])cc5F)c5nc(c(-c6c(F)cc(S(=O)(=O)[O-])cc6F)c6ccc3[nH]6)C=C5)C=C4)cc2)C1
REMARK SMILES IDX 27 1 26 2 24 3 25 4 22 5 6 6 7 7 98 8 8 9 23 10 4 11 5 12
REMARK SMILES IDX 3 13 2 14 1 15 9 16 10 17 17 18 11 19 16 20 12 21 18 22
REMARK SMILES IDX 19 23 20 24 21 25 13 26 14 27 15 28 28 29 29 30 30 31 31 32
REMARK SMILES IDX 32 33 33 34 97 35 34 36 96 37 35 38 36 39 37 40 90 41 38 42
REMARK SMILES IDX 95 43 89 44 91 45 39 46 94 47 88 48 87 49 40 51 74 52 53 53
REMARK SMILES IDX 73 54 54 55 57 56 72 57 92 58 55 59 56 60 71 62 93 63 58 64
REMARK SMILES IDX 41 65 42 66 51 67 43 68 44 69 50 70 52 71 45 72 46 73 47 74
REMARK SMILES IDX 48 75 49 76 75 77 76 78 85 79 77 80 78 81 84 82 86 83 79 84
REMARK SMILES IDX 80 85 81 86 82 87 83 88 59 89 60 90 69 91 61 92 62 93 68 94
REMARK SMILES IDX 70 95 63 96 64 97 65 98 66 99 67 100
REMARK H PARENT 91 50 57 61
REMARK Flexibility Score: inf
ROOT
ATOM      1  C   UNL A   1      32.282  28.410  27.524  1.00  0.00     0.274 C 
ENDROOT
BRANCH   1   2
ATOM      2  O   UNL A   1      31.831  27.373  26.624  1.00  0.00    -0.460 OA
BRANCH   2   3
ATOM      3  C   UNL A   1      32.804  26.594  26.078  1.00  0.00     0.334 C 
ATOM      4  O   UNL A   1      33.993  26.909  26.061  1.00  0.00    -0.249 OA
BRANCH   3   5
ATOM      5  C   UNL A   1      32.295  25.316  25.383  1.00  0.00     0.163 C 
ATOM      6  C   UNL A   1      32.026  25.687  23.118  1.00  0.00     0.149 C 
ATOM      7  N   UNL A   1      33.168  25.080  23.198  1.00  0.00    -0.169 NA
ATOM      8  C   UNL A   1      31.195  25.689  24.360  1.00  0.00     0.108 C 
ATOM      9  N   UNL A   1      33.282  24.663  24.493  1.00  0.00    -0.247 N 
ATOM     10  C   UNL A   1      31.744  24.441  26.503  1.00  0.00     0.050 C 
BRANCH   6  11
ATOM     11  C   UNL A   1      31.544  26.311  21.837  1.00  0.00     0.354 C 
ATOM     12  O   UNL A   1      31.910  25.896  20.751  1.00  0.00    -0.245 OA
BRANCH  11  13
ATOM     13  O   UNL A   1      30.661  27.290  22.112  1.00  0.00    -0.461 OA
BRANCH  13  14
ATOM     14  C   UNL A   1      31.179  28.402  22.859  1.00  0.00     0.230 C 
ATOM     15  C   UNL A   1      30.185  29.545  22.795  1.00  0.00     0.049 C 
ENDBRANCH  13  14
ENDBRANCH  11  13
ENDBRANCH   6  11
BRANCH   9  16
ATOM     16  C   UNL A   1      34.327  23.803  24.767  1.00  0.00     0.073 A 
ATOM     17  C   UNL A   1      35.556  24.360  25.183  1.00  0.00     0.036 A 
ATOM     18  C   UNL A   1      34.289  22.423  24.486  1.00  0.00     0.088 A 
ATOM     19  C   UNL A   1      36.703  23.585  25.375  1.00  0.00     0.088 A 
ATOM     20  C   UNL A   1      35.436  21.630  24.725  1.00  0.00     0.101 A 
ATOM     21  C   UNL A   1      36.632  22.213  25.155  1.00  0.00     0.270 A 
BRANCH  18  22
ATOM     22  C   UNL A   1      33.098  21.728  23.871  1.00  0.00     0.418 C 
ATOM     23  F   UNL A   1      32.904  22.085  22.568  1.00  0.00    -0.166 F 
ATOM     24  F   UNL A   1      33.268  20.375  23.842  1.00  0.00    -0.166 F 
ATOM     25  F   UNL A   1      31.903  21.949  24.481  1.00  0.00    -0.166 F 
ENDBRANCH  18  22
BRANCH  21  26
ATOM     26  N   UNL A   1      37.824  21.377  25.336  1.00  0.00     0.062 N 
ATOM     27  O   UNL A   1      37.729  20.168  25.078  1.00  0.00    -0.258 OA
ATOM     28  O   UNL A   1      38.861  21.932  25.730  1.00  0.00    -0.258 OA
ENDBRANCH  21  26
ENDBRANCH   9  16
ENDBRANCH   3   5
ENDBRANCH   2   3
ENDBRANCH   1   2
BRANCH   1  29
ATOM     29  C   UNL A   1      32.341  29.766  26.820  1.00  0.00     0.275 C 
BRANCH  29  30
ATOM     30  O   UNL A   1      33.714  30.147  26.656  1.00  0.00    -0.458 OA
BRANCH  30  31
ATOM     31  C   UNL A   1      34.167  31.110  27.494  1.00  0.00     0.338 C 
ATOM     32  O   UNL A   1      33.555  32.106  27.843  1.00  0.00    -0.246 OA
BRANCH  31  33
ATOM     33  C   UNL A   1      35.534  30.764  27.959  1.00  0.00     0.060 A 
ATOM     34  C   UNL A   1      35.887  29.440  28.214  1.00  0.00     0.016 A 
ATOM     35  C   UNL A   1      36.452  31.776  28.242  1.00  0.00     0.016 A 
ATOM     36  C   UNL A   1      37.077  29.137  28.873  1.00  0.00     0.010 A 
ATOM     37  C   UNL A   1      37.701  31.456  28.797  1.00  0.00     0.010 A 
ATOM     38  C   UNL A   1      38.009  30.139  29.180  1.00  0.00    -0.014 A 
BRANCH  38  39
ATOM     39  C   UNL A   1      39.237  29.812  29.972  1.00  0.00     0.031 A 
ATOM     40  C   UNL A   1      40.280  28.866  29.414  1.00  0.00     0.074 A 
ATOM     41  C   UNL A   1      39.481  30.410  31.160  1.00  0.00     0.049 A 
ATOM     42  N   UNL A   1      41.344  28.372  29.998  1.00  0.00    -0.248 NA
ATOM     43  C   UNL A   1      40.104  28.414  28.025  1.00  0.00     0.031 C 
ATOM     44  C   UNL A   1      38.602  31.376  31.823  1.00  0.00     0.029 A 
ATOM     45  N   UNL A   1      40.560  30.319  32.008  1.00  0.00    -0.354 N 
ATOM     46  C   UNL A   1      41.918  27.499  29.078  1.00  0.00     0.074 A 
ATOM     47  C   UNL A   1      41.090  27.538  27.892  1.00  0.00     0.031 C 
ATOM     48  C   UNL A   1      39.209  31.847  32.923  1.00  0.00     0.029 A 
ATOM     49  C   UNL A   1      40.473  31.142  33.106  1.00  0.00     0.049 A 
ATOM     50  H   UNL A   1      41.323  29.718  31.845  1.00  0.00     0.167 HD
ATOM     51  C   UNL A   1      43.032  26.737  29.203  1.00  0.00     0.037 A 
ATOM     52  C   UNL A   1      41.291  31.296  34.168  1.00  0.00     0.037 A 
ATOM     53  C   UNL A   1      43.907  26.747  30.346  1.00  0.00     0.049 A 
ATOM     54  C   UNL A   1      42.519  30.440  34.286  1.00  0.00     0.074 A 
ATOM     55  C   UNL A   1      45.057  26.004  30.558  1.00  0.00     0.029 A 
ATOM     56  N   UNL A   1      43.747  27.556  31.460  1.00  0.00    -0.354 N 
ATOM     57  N   UNL A   1      42.983  29.545  33.447  1.00  0.00    -0.248 NA
ATOM     58  C   UNL A   1      43.316  30.592  35.511  1.00  0.00     0.031 C 
ATOM     59  C   UNL A   1      45.584  26.353  31.809  1.00  0.00     0.029 A 
ATOM     60  C   UNL A   1      44.777  27.334  32.360  1.00  0.00     0.049 A 
ATOM     61  H   UNL A   1      43.009  28.195  31.593  1.00  0.00     0.167 HD
ATOM     62  C   UNL A   1      44.118  29.016  34.051  1.00  0.00     0.074 A 
ATOM     63  C   UNL A   1      44.292  29.719  35.305  1.00  0.00     0.031 C 
ATOM     64  C   UNL A   1      44.931  28.024  33.614  1.00  0.00     0.037 A 
BRANCH  51  65
ATOM     65  C   UNL A   1      43.362  25.800  28.074  1.00  0.00     0.058 A 
ATOM     66  C   UNL A   1      44.160  26.195  26.990  1.00  0.00     0.135 A 
ATOM     67  C   UNL A   1      42.909  24.471  28.106  1.00  0.00     0.135 A 
ATOM     68  F   UNL A   1      44.601  27.461  26.902  1.00  0.00    -0.206 F 
ATOM     69  C   UNL A   1      44.481  25.310  25.965  1.00  0.00     0.059 A 
ATOM     70  C   UNL A   1      43.236  23.562  27.105  1.00  0.00     0.059 A 
ATOM     71  F   UNL A   1      42.143  24.043  29.123  1.00  0.00    -0.206 F 
ATOM     72  C   UNL A   1      44.015  23.995  26.032  1.00  0.00     0.060 A 
BRANCH  72  73
ATOM     73  S   UNL A   1      44.455  22.849  24.707  1.00  0.00     0.124 S 
ATOM     74  O   UNL A   1      44.915  21.691  25.467  1.00  0.00    -0.237 OA
ATOM     75  O   UNL A   1      43.187  22.681  24.004  1.00  0.00    -0.237 OA
ATOM     76  O   UNL A   1      45.487  23.566  23.967  1.00  0.00    -0.744 OA
ENDBRANCH  72  73
ENDBRANCH  51  65
BRANCH  52  77
ATOM     77  C   UNL A   1      40.944  32.270  35.237  1.00  0.00     0.058 A 
ATOM     78  C   UNL A   1      41.603  33.504  35.332  1.00  0.00     0.135 A 
ATOM     79  C   UNL A   1      39.935  31.992  36.172  1.00  0.00     0.135 A 
ATOM     80  F   UNL A   1      42.587  33.808  34.471  1.00  0.00    -0.206 F 
ATOM     81  C   UNL A   1      41.274  34.431  36.317  1.00  0.00     0.059 A 
ATOM     82  C   UNL A   1      39.569  32.913  37.147  1.00  0.00     0.059 A 
ATOM     83  F   UNL A   1      39.271  30.828  36.119  1.00  0.00    -0.206 F 
ATOM     84  C   UNL A   1      40.250  34.129  37.216  1.00  0.00     0.060 A 
BRANCH  84  85
ATOM     85  S   UNL A   1      39.759  35.364  38.439  1.00  0.00     0.124 S 
ATOM     86  O   UNL A   1      39.167  36.394  37.594  1.00  0.00    -0.237 OA
ATOM     87  O   UNL A   1      38.832  34.618  39.283  1.00  0.00    -0.237 OA
ATOM     88  O   UNL A   1      41.025  35.717  39.076  1.00  0.00    -0.744 OA
ENDBRANCH  84  85
ENDBRANCH  52  77
BRANCH  64  89
ATOM     89  C   UNL A   1      46.077  27.646  34.507  1.00  0.00     0.058 A 
ATOM     90  C   UNL A   1      45.945  26.638  35.476  1.00  0.00     0.135 A 
ATOM     91  C   UNL A   1      47.311  28.308  34.409  1.00  0.00     0.135 A 
ATOM     92  F   UNL A   1      44.783  25.981  35.613  1.00  0.00    -0.206 F 
ATOM     93  C   UNL A   1      46.985  26.327  36.346  1.00  0.00     0.059 A 
ATOM     94  C   UNL A   1      48.371  27.998  35.255  1.00  0.00     0.059 A 
ATOM     95  F   UNL A   1      47.490  29.272  33.492  1.00  0.00    -0.206 F 
ATOM     96  C   UNL A   1      48.191  27.023  36.237  1.00  0.00     0.060 A 
BRANCH  96  97
ATOM     97  S   UNL A   1      49.529  26.636  37.385  1.00  0.00     0.124 S 
ATOM     98  O   UNL A   1      50.283  27.884  37.383  1.00  0.00    -0.237 OA
ATOM     99  O   UNL A   1      48.811  26.331  38.619  1.00  0.00    -0.237 OA
ATOM    100  O   UNL A   1      50.192  25.498  36.756  1.00  0.00    -0.744 OA
ENDBRANCH  96  97
ENDBRANCH  64  89
ENDBRANCH  38  39
ENDBRANCH  31  33
ENDBRANCH  30  31
ENDBRANCH  29  30
ENDBRANCH   1  29
TORSDOF 20
ENDMDL
MODEL 3
REMARK VINA RESULT:     -10.8      3.102      9.325
REMARK SMILES CCOC(=O)C1=NN(c2ccc([N+](=O)[O-])cc2C(F)(F)F)[C@@](C)(C(=O)OCCOC(=O)c2ccc(-c3c4nc(c(-c5c(F)cc(S(=O)(=O)[O-])cc5F)c5ccc([nH]5)c(-c5c(F)cc(S(=O)(=O)[O-])cc5F)c5nc(c(-c6c(F)cc(S(=O)(=O)[O-])cc6F)c6ccc3[nH]6)C=C5)C=C4)cc2)C1
REMARK SMILES IDX 27 1 26 2 24 3 25 4 22 5 6 6 7 7 98 8 8 9 23 10 4 11 5 12
REMARK SMILES IDX 3 13 2 14 1 15 9 16 10 17 17 18 11 19 16 20 12 21 18 22
REMARK SMILES IDX 19 23 20 24 21 25 13 26 14 27 15 28 28 29 29 30 30 31 31 32
REMARK SMILES IDX 32 33 33 34 97 35 34 36 96 37 35 38 36 39 37 40 90 41 38 42
REMARK SMILES IDX 95 43 89 44 91 45 39 46 94 47 88 48 87 49 40 51 74 52 53 53
REMARK SMILES IDX 73 54 54 55 57 56 72 57 92 58 55 59 56 60 71 62 93 63 58 64
REMARK SMILES IDX 41 65 42 66 51 67 43 68 44 69 50 70 52 71 45 72 46 73 47 74
REMARK SMILES IDX 48 75 49 76 75 77 76 78 85 79 77 80 78 81 84 82 86 83 79 84
REMARK SMILES IDX 80 85 81 86 82 87 83 88 59 89 60 90 69 91 61 92 62 93 68 94
REMARK SMILES IDX 70 95 63 96 64 97 65 98 66 99 67 100
REMARK H PARENT 91 50 57 61
REMARK Flexibility Score: inf
ROOT
ATOM      1  C   UNL A   1      32.419  28.284  27.435  1.00  0.00     0.274 C 
ENDROOT
BRANCH   1   2
ATOM      2  O   UNL A   1      31.999  27.325  26.439  1.00  0.00    -0.460 OA
BRANCH   2   3
ATOM      3  C   UNL A   1      32.945  26.435  26.034  1.00  0.00     0.334 C 
ATOM      4  O   UNL A   1      34.154  26.635  26.144  1.00  0.00    -0.249 OA
BRANCH   3   5
ATOM      5  C   UNL A   1      32.393  25.184  25.323  1.00  0.00     0.163 C 
ATOM      6  C   UNL A   1      32.117  25.598  23.067  1.00  0.00     0.149 C 
ATOM      7  N   UNL A   1      33.242  24.957  23.127  1.00  0.00    -0.169 NA
ATOM      8  C   UNL A   1      31.296  25.604  24.315  1.00  0.00     0.108 C 
ATOM      9  N   UNL A   1      33.353  24.517  24.415  1.00  0.00    -0.247 N 
ATOM     10  C   UNL A   1      31.825  24.307  26.434  1.00  0.00     0.050 C 
BRANCH   6  11
ATOM     11  C   UNL A   1      31.644  26.255  21.799  1.00  0.00     0.354 C 
ATOM     12  O   UNL A   1      32.021  25.872  20.705  1.00  0.00    -0.245 OA
BRANCH  11  13
ATOM     13  O   UNL A   1      30.754  27.223  22.093  1.00  0.00    -0.461 OA
BRANCH  13  14
ATOM     14  C   UNL A   1      31.316  28.493  22.459  1.00  0.00     0.230 C 
ATOM     15  C   UNL A   1      30.454  29.123  23.535  1.00  0.00     0.049 C 
ENDBRANCH  13  14
ENDBRANCH  11  13
ENDBRANCH   6  11
BRANCH   9  16
ATOM     16  C   UNL A   1      34.374  23.621  24.667  1.00  0.00     0.073 A 
ATOM     17  C   UNL A   1      35.645  24.139  25.000  1.00  0.00     0.036 A 
ATOM     18  C   UNL A   1      34.266  22.236  24.438  1.00  0.00     0.088 A 
ATOM     19  C   UNL A   1      36.768  23.322  25.162  1.00  0.00     0.088 A 
ATOM     20  C   UNL A   1      35.390  21.403  24.647  1.00  0.00     0.101 A 
ATOM     21  C   UNL A   1      36.630  21.948  24.995  1.00  0.00     0.270 A 
BRANCH  18  22
ATOM     22  C   UNL A   1      33.017  21.572  23.909  1.00  0.00     0.418 C 
ATOM     23  F   UNL A   1      32.717  21.968  22.637  1.00  0.00    -0.166 F 
ATOM     24  F   UNL A   1      33.164  20.218  23.829  1.00  0.00    -0.166 F 
ATOM     25  F   UNL A   1      31.881  21.790  24.625  1.00  0.00    -0.166 F 
ENDBRANCH  18  22
BRANCH  21  26
ATOM     26  N   UNL A   1      37.793  21.068  25.147  1.00  0.00     0.062 N 
ATOM     27  O   UNL A   1      38.841  21.562  25.588  1.00  0.00    -0.258 OA
ATOM     28  O   UNL A   1      37.657  19.876  24.831  1.00  0.00    -0.258 OA
ENDBRANCH  21  26
ENDBRANCH   9  16
ENDBRANCH   3   5
ENDBRANCH   2   3
ENDBRANCH   1   2
BRANCH   1  29
ATOM     29  C   UNL A   1      32.631  29.666  26.817  1.00  0.00     0.275 C 
BRANCH  29  30
ATOM     30  O   UNL A   1      34.027  29.992  26.872  1.00  0.00    -0.458 OA
BRANCH  30  31
ATOM     31  C   UNL A   1      34.345  31.128  27.539  1.00  0.00     0.338 C 
ATOM     32  O   UNL A   1      33.732  32.182  27.498  1.00  0.00    -0.246 OA
BRANCH  31  33
ATOM     33  C   UNL A   1      35.557  30.899  28.366  1.00  0.00     0.060 A 
ATOM     34  C   UNL A   1      36.599  31.825  28.377  1.00  0.00     0.016 A 
ATOM     35  C   UNL A   1      35.707  29.702  29.066  1.00  0.00     0.016 A 
ATOM     36  C   UNL A   1      37.827  31.505  28.954  1.00  0.00     0.010 A 
ATOM     37  C   UNL A   1      36.904  29.434  29.749  1.00  0.00     0.010 A 
ATOM     38  C   UNL A   1      38.005  30.301  29.651  1.00  0.00    -0.014 A 
BRANCH  38  39
ATOM     39  C   UNL A   1      39.356  29.929  30.184  1.00  0.00     0.031 A 
ATOM     40  C   UNL A   1      39.903  30.604  31.423  1.00  0.00     0.074 A 
ATOM     41  C   UNL A   1      40.077  28.934  29.620  1.00  0.00     0.049 A 
ATOM     42  N   UNL A   1      41.093  30.503  31.962  1.00  0.00    -0.248 NA
ATOM     43  C   UNL A   1      39.002  31.513  32.150  1.00  0.00     0.031 C 
ATOM     44  C   UNL A   1      39.679  28.153  28.447  1.00  0.00     0.029 A 
ATOM     45  N   UNL A   1      41.285  28.385  29.981  1.00  0.00    -0.354 N 
ATOM     46  C   UNL A   1      41.106  31.385  33.038  1.00  0.00     0.074 A 
ATOM     47  C   UNL A   1      39.801  32.007  33.084  1.00  0.00     0.031 C 
ATOM     48  C   UNL A   1      40.578  27.179  28.237  1.00  0.00     0.029 A 
ATOM     49  C   UNL A   1      41.672  27.327  29.190  1.00  0.00     0.049 A 
ATOM     50  H   UNL A   1      41.824  28.718  30.735  1.00  0.00     0.167 HD
ATOM     51  C   UNL A   1      42.106  31.652  33.913  1.00  0.00     0.037 A 
ATOM     52  C   UNL A   1      42.793  26.578  29.196  1.00  0.00     0.037 A 
ATOM     53  C   UNL A   1      43.383  30.985  33.926  1.00  0.00     0.049 A 
ATOM     54  C   UNL A   1      43.889  26.893  30.173  1.00  0.00     0.074 A 
ATOM     55  C   UNL A   1      44.457  31.194  34.776  1.00  0.00     0.029 A 
ATOM     56  N   UNL A   1      43.750  29.959  33.069  1.00  0.00    -0.354 N 
ATOM     57  N   UNL A   1      43.916  27.805  31.115  1.00  0.00    -0.248 NA
ATOM     58  C   UNL A   1      45.120  26.099  30.064  1.00  0.00     0.031 C 
ATOM     59  C   UNL A   1      45.480  30.307  34.421  1.00  0.00     0.029 A 
ATOM     60  C   UNL A   1      45.031  29.525  33.371  1.00  0.00     0.049 A 
ATOM     61  H   UNL A   1      43.184  29.593  32.351  1.00  0.00     0.167 HD
ATOM     62  C   UNL A   1      45.173  27.704  31.700  1.00  0.00     0.074 A 
ATOM     63  C   UNL A   1      45.860  26.617  31.034  1.00  0.00     0.031 C 
ATOM     64  C   UNL A   1      45.714  28.457  32.689  1.00  0.00     0.037 A 
BRANCH  51  65
ATOM     65  C   UNL A   1      41.873  32.739  34.925  1.00  0.00     0.058 A 
ATOM     66  C   UNL A   1      41.380  32.464  36.210  1.00  0.00     0.135 A 
ATOM     67  C   UNL A   1      42.191  34.071  34.615  1.00  0.00     0.135 A 
ATOM     68  F   UNL A   1      41.041  31.209  36.548  1.00  0.00    -0.206 F 
ATOM     69  C   UNL A   1      41.194  33.476  37.147  1.00  0.00     0.059 A 
ATOM     70  C   UNL A   1      42.035  35.096  35.543  1.00  0.00     0.059 A 
ATOM     71  F   UNL A   1      42.666  34.386  33.399  1.00  0.00    -0.206 F 
ATOM     72  C   UNL A   1      41.525  34.789  36.804  1.00  0.00     0.060 A 
BRANCH  72  73
ATOM     73  S   UNL A   1      41.298  36.092  38.035  1.00  0.00     0.124 S 
ATOM     74  O   UNL A   1      42.547  36.835  37.902  1.00  0.00    -0.237 OA
ATOM     75  O   UNL A   1      40.101  36.773  37.553  1.00  0.00    -0.237 OA
ATOM     76  O   UNL A   1      41.135  35.354  39.284  1.00  0.00    -0.744 OA
ENDBRANCH  72  73
ENDBRANCH  51  65
BRANCH  52  77
ATOM     77  C   UNL A   1      42.958  25.483  28.203  1.00  0.00     0.058 A 
ATOM     78  C   UNL A   1      43.403  25.749  26.900  1.00  0.00     0.135 A 
ATOM     79  C   UNL A   1      42.688  24.148  28.544  1.00  0.00     0.135 A 
ATOM     80  F   UNL A   1      43.656  27.011  26.522  1.00  0.00    -0.206 F 
ATOM     81  C   UNL A   1      43.578  24.729  25.969  1.00  0.00     0.059 A 
ATOM     82  C   UNL A   1      42.883  23.110  27.640  1.00  0.00     0.059 A 
ATOM     83  F   UNL A   1      42.266  23.842  29.780  1.00  0.00    -0.206 F 
ATOM     84  C   UNL A   1      43.322  23.412  26.351  1.00  0.00     0.060 A 
BRANCH  84  85
ATOM     85  S   UNL A   1      43.632  22.077  25.175  1.00  0.00     0.124 S 
ATOM     86  O   UNL A   1      44.969  21.646  25.567  1.00  0.00    -0.237 OA
ATOM     87  O   UNL A   1      42.549  21.144  25.464  1.00  0.00    -0.237 OA
ATOM     88  O   UNL A   1      43.538  22.750  23.882  1.00  0.00    -0.744 OA
ENDBRANCH  84  85
ENDBRANCH  52  77
BRANCH  64  89
ATOM     89  C   UNL A   1      47.120  28.124  33.099  1.00  0.00     0.058 A 
ATOM     90  C   UNL A   1      47.381  27.187  34.111  1.00  0.00     0.135 A 
ATOM     91  C   UNL A   1      48.213  28.760  32.491  1.00  0.00     0.135 A 
ATOM     92  F   UNL A   1      46.369  26.558  34.727  1.00  0.00    -0.206 F 
ATOM     93  C   UNL A   1      48.679  26.921  34.536  1.00  0.00     0.059 A 
ATOM     94  C   UNL A   1      49.520  28.493  32.887  1.00  0.00     0.059 A 
ATOM     95  F   UNL A   1      48.016  29.656  31.512  1.00  0.00    -0.206 F 
ATOM     96  C   UNL A   1      49.742  27.590  33.926  1.00  0.00     0.060 A 
BRANCH  96  97
ATOM     97  S   UNL A   1      51.422  27.262  34.498  1.00  0.00     0.124 S 
ATOM     98  O   UNL A   1      51.182  26.822  35.868  1.00  0.00    -0.237 OA
ATOM     99  O   UNL A   1      51.878  26.230  33.572  1.00  0.00    -0.237 OA
ATOM    100  O   UNL A   1      52.084  28.556  34.358  1.00  0.00    -0.744 OA
ENDBRANCH  96  97
ENDBRANCH  64  89
ENDBRANCH  38  39
ENDBRANCH  31  33
ENDBRANCH  30  31
ENDBRANCH  29  30
ENDBRANCH   1  29
TORSDOF 20
ENDMDL
