MODEL 1
REMARK VINA RESULT:     -12.3      0.000      0.000
REMARK SMILES NC(=O)[C@@H]1CCC[N@@H+]1[C@@H](C(=O)OCCOC(=O)c1ccc(-c2c3nc(c(-c4c(F)cc(S(=O)(=O)[O-])cc4F)c4ccc([nH]4)c(-c4c(F)cc(S(=O)(=O)[O-])cc4F)c4nc(c(-c5c(F)cc(S(=O)(=O)[O-])cc5F)c5ccc2[nH]5)C=C4)C=C3)cc1)c1c[nH]c2cc(OCc3ccccc3)ccc12
REMARK SMILES IDX 13 1 12 2 10 3 11 4 9 5 8 6 4 7 5 8 6 9 7 10 2 12 1 13 3 16
REMARK SMILES IDX 84 17 85 18 100 19 86 20 87 21 99 22 88 24 98 25 89 26 90 27
REMARK SMILES IDX 91 28 92 29 93 30 97 31 94 32 96 33 95 34 14 35 15 36 16 37
REMARK SMILES IDX 17 38 18 39 19 40 83 41 20 42 82 43 21 44 22 45 23 46 76 47
REMARK SMILES IDX 24 48 81 49 75 50 77 51 25 52 80 53 74 54 73 55 26 57 60 58
REMARK SMILES IDX 39 59 59 60 40 61 43 62 58 63 78 64 41 65 42 66 57 68 79 69
REMARK SMILES IDX 44 70 27 71 28 72 37 73 29 74 30 75 36 76 38 77 31 78 32 79
REMARK SMILES IDX 33 80 34 81 35 82 61 83 62 84 71 85 63 86 64 87 70 88 72 89
REMARK SMILES IDX 65 90 66 91 67 92 68 93 69 94 45 95 46 96 55 97 47 98 48 99
REMARK SMILES IDX 54 100 56 101 49 102 50 103 51 104 52 105 53 106
REMARK H PARENT 8 11 1 14 1 15 86 23 77 56 43 67
REMARK Flexibility Score: inf
ROOT
ATOM      1  C   UNL A   1      32.094  27.779  27.407  1.00  0.00     0.274 C 
ENDROOT
BRANCH   1   2
ATOM      2  O   UNL A   1      30.836  27.468  26.755  1.00  0.00    -0.457 OA
BRANCH   2   3
ATOM      3  C   UNL A   1      30.879  26.423  25.880  1.00  0.00     0.370 C 
ATOM      4  O   UNL A   1      30.643  25.267  26.233  1.00  0.00    -0.245 OA
BRANCH   3   5
ATOM      5  C   UNL A   1      31.387  26.744  24.470  1.00  0.00     0.329 C 
BRANCH   5   6
ATOM      6  N   UNL A   1      30.401  26.728  23.327  1.00  0.00    -0.309 N 
ATOM      7  C   UNL A   1      29.679  27.967  22.960  1.00  0.00     0.275 C 
ATOM      8  C   UNL A   1      28.301  27.837  23.624  1.00  0.00     0.081 C 
ATOM      9  C   UNL A   1      28.188  26.376  24.047  1.00  0.00     0.068 C 
ATOM     10  C   UNL A   1      29.345  25.713  23.342  1.00  0.00     0.264 C 
ATOM     11  H   UNL A   1      31.131  26.527  22.645  1.00  0.00     0.349 HD
BRANCH   7  12
ATOM     12  C   UNL A   1      30.476  29.269  23.087  1.00  0.00     0.275 C 
ATOM     13  N   UNL A   1      31.203  29.676  22.008  1.00  0.00    -0.365 N 
ATOM     14  H   UNL A   1      31.728  30.509  22.054  1.00  0.00     0.159 HD
ATOM     15  H   UNL A   1      31.204  29.138  21.184  1.00  0.00     0.159 HD
ATOM     16  O   UNL A   1      30.525  29.931  24.122  1.00  0.00    -0.268 OA
ENDBRANCH   7  12
ENDBRANCH   5   6
BRANCH   5  17
ATOM     17  C   UNL A   1      32.708  26.146  23.999  1.00  0.00     0.046 A 
ATOM     18  C   UNL A   1      33.106  26.232  22.667  1.00  0.00     0.094 A 
ATOM     19  C   UNL A   1      33.596  25.186  24.608  1.00  0.00     0.009 A 
ATOM     20  N   UNL A   1      33.915  25.167  22.396  1.00  0.00    -0.361 N 
ATOM     21  C   UNL A   1      34.132  24.452  23.545  1.00  0.00     0.050 A 
ATOM     22  C   UNL A   1      33.868  24.715  25.909  1.00  0.00     0.015 A 
ATOM     23  H   UNL A   1      34.286  24.945  21.511  1.00  0.00     0.166 HD
ATOM     24  C   UNL A   1      34.696  23.184  23.711  1.00  0.00     0.073 A 
ATOM     25  C   UNL A   1      34.579  23.515  26.101  1.00  0.00     0.047 A 
ATOM     26  C   UNL A   1      34.911  22.723  25.009  1.00  0.00     0.121 A 
BRANCH  26  27
ATOM     27  O   UNL A   1      35.301  21.415  25.109  1.00  0.00    -0.489 OA
BRANCH  27  28
ATOM     28  C   UNL A   1      34.356  20.509  25.685  1.00  0.00     0.265 C 
BRANCH  28  29
ATOM     29  C   UNL A   1      33.820  19.489  24.707  1.00  0.00    -0.011 A 
ATOM     30  C   UNL A   1      32.703  19.821  23.925  1.00  0.00     0.007 A 
ATOM     31  C   UNL A   1      34.452  18.256  24.491  1.00  0.00     0.007 A 
ATOM     32  C   UNL A   1      32.230  18.937  22.957  1.00  0.00     0.000 A 
ATOM     33  C   UNL A   1      33.974  17.368  23.531  1.00  0.00     0.000 A 
ATOM     34  C   UNL A   1      32.875  17.722  22.758  1.00  0.00     0.000 A 
ENDBRANCH  28  29
ENDBRANCH  27  28
ENDBRANCH  26  27
ENDBRANCH   5  17
ENDBRANCH   3   5
ENDBRANCH   2   3
ENDBRANCH   1   2
BRANCH   1  35
ATOM     35  C   UNL A   1      32.603  29.174  27.065  1.00  0.00     0.275 C 
BRANCH  35  36
ATOM     36  O   UNL A   1      34.032  29.148  27.086  1.00  0.00    -0.458 OA
BRANCH  36  37
ATOM     37  C   UNL A   1      34.615  30.103  27.846  1.00  0.00     0.338 C 
ATOM     38  O   UNL A   1      34.068  31.085  28.315  1.00  0.00    -0.246 OA
BRANCH  37  39
ATOM     39  C   UNL A   1      36.008  29.716  28.173  1.00  0.00     0.060 A 
ATOM     40  C   UNL A   1      36.379  29.343  29.469  1.00  0.00     0.016 A 
ATOM     41  C   UNL A   1      36.988  29.880  27.195  1.00  0.00     0.016 A 
ATOM     42  C   UNL A   1      37.721  29.218  29.814  1.00  0.00     0.010 A 
ATOM     43  C   UNL A   1      38.329  29.669  27.516  1.00  0.00     0.010 A 
ATOM     44  C   UNL A   1      38.706  29.349  28.830  1.00  0.00    -0.014 A 
BRANCH  44  45
ATOM     45  C   UNL A   1      40.119  29.018  29.114  1.00  0.00     0.031 A 
ATOM     46  C   UNL A   1      41.096  30.089  29.499  1.00  0.00     0.074 A 
ATOM     47  C   UNL A   1      40.527  27.752  28.909  1.00  0.00     0.049 A 
ATOM     48  N   UNL A   1      42.402  30.057  29.456  1.00  0.00    -0.248 NA
ATOM     49  C   UNL A   1      40.538  31.359  29.991  1.00  0.00     0.031 C 
ATOM     50  C   UNL A   1      39.650  26.621  28.586  1.00  0.00     0.029 A 
ATOM     51  N   UNL A   1      41.787  27.208  28.898  1.00  0.00    -0.354 N 
ATOM     52  C   UNL A   1      42.830  31.307  29.885  1.00  0.00     0.074 A 
ATOM     53  C   UNL A   1      41.641  32.076  30.192  1.00  0.00     0.031 C 
ATOM     54  C   UNL A   1      40.398  25.529  28.379  1.00  0.00     0.029 A 
ATOM     55  C   UNL A   1      41.803  25.902  28.468  1.00  0.00     0.049 A 
ATOM     56  H   UNL A   1      42.594  27.702  29.167  1.00  0.00     0.167 HD
ATOM     57  C   UNL A   1      44.104  31.754  29.995  1.00  0.00     0.037 A 
ATOM     58  C   UNL A   1      42.828  25.111  28.106  1.00  0.00     0.037 A 
ATOM     59  C   UNL A   1      45.267  30.953  29.692  1.00  0.00     0.049 A 
ATOM     60  C   UNL A   1      44.221  25.655  28.162  1.00  0.00     0.074 A 
ATOM     61  C   UNL A   1      46.602  31.310  29.781  1.00  0.00     0.029 A 
ATOM     62  N   UNL A   1      45.236  29.640  29.246  1.00  0.00    -0.354 N 
ATOM     63  N   UNL A   1      44.615  26.861  28.494  1.00  0.00    -0.248 NA
ATOM     64  C   UNL A   1      45.307  24.742  27.785  1.00  0.00     0.031 C 
ATOM     65  C   UNL A   1      47.377  30.230  29.349  1.00  0.00     0.029 A 
ATOM     66  C   UNL A   1      46.528  29.180  29.043  1.00  0.00     0.049 A 
ATOM     67  H   UNL A   1      44.419  29.113  29.095  1.00  0.00     0.167 HD
ATOM     68  C   UNL A   1      45.997  26.850  28.376  1.00  0.00     0.074 A 
ATOM     69  C   UNL A   1      46.372  25.515  27.952  1.00  0.00     0.031 C 
ATOM     70  C   UNL A   1      46.877  27.854  28.603  1.00  0.00     0.037 A 
BRANCH  57  71
ATOM     71  C   UNL A   1      44.348  33.170  30.436  1.00  0.00     0.058 A 
ATOM     72  C   UNL A   1      44.271  34.249  29.545  1.00  0.00     0.135 A 
ATOM     73  C   UNL A   1      44.501  33.460  31.804  1.00  0.00     0.135 A 
ATOM     74  F   UNL A   1      44.132  34.032  28.228  1.00  0.00    -0.206 F 
ATOM     75  C   UNL A   1      44.335  35.567  29.993  1.00  0.00     0.059 A 
ATOM     76  C   UNL A   1      44.532  34.768  32.278  1.00  0.00     0.059 A 
ATOM     77  F   UNL A   1      44.594  32.464  32.700  1.00  0.00    -0.206 F 
ATOM     78  C   UNL A   1      44.458  35.816  31.361  1.00  0.00     0.060 A 
BRANCH  78  79
ATOM     79  S   UNL A   1      44.594  37.528  31.918  1.00  0.00     0.124 S 
ATOM     80  O   UNL A   1      43.717  37.523  33.085  1.00  0.00    -0.237 OA
ATOM     81  O   UNL A   1      46.020  37.652  32.198  1.00  0.00    -0.237 OA
ATOM     82  O   UNL A   1      44.108  38.297  30.777  1.00  0.00    -0.744 OA
ENDBRANCH  78  79
ENDBRANCH  57  71
BRANCH  58  83
ATOM     83  C   UNL A   1      42.542  23.746  27.598  1.00  0.00     0.058 A 
ATOM     84  C   UNL A   1      42.479  23.486  26.224  1.00  0.00     0.135 A 
ATOM     85  C   UNL A   1      42.416  22.661  28.481  1.00  0.00     0.135 A 
ATOM     86  F   UNL A   1      42.588  24.494  25.346  1.00  0.00    -0.206 F 
ATOM     87  C   UNL A   1      42.311  22.194  25.738  1.00  0.00     0.059 A 
ATOM     88  C   UNL A   1      42.271  21.359  28.020  1.00  0.00     0.059 A 
ATOM     89  F   UNL A   1      42.487  22.860  29.807  1.00  0.00    -0.206 F 
ATOM     90  C   UNL A   1      42.218  21.135  26.644  1.00  0.00     0.060 A 
BRANCH  90  91
ATOM     91  S   UNL A   1      42.104  19.450  26.007  1.00  0.00     0.124 S 
ATOM     92  O   UNL A   1      42.998  19.510  24.857  1.00  0.00    -0.237 OA
ATOM     93  O   UNL A   1      42.571  18.656  27.140  1.00  0.00    -0.237 OA
ATOM     94  O   UNL A   1      40.684  19.305  25.698  1.00  0.00    -0.744 OA
ENDBRANCH  90  91
ENDBRANCH  58  83
BRANCH  70  95
ATOM     95  C   UNL A   1      48.331  27.534  28.422  1.00  0.00     0.058 A 
ATOM     96  C   UNL A   1      49.133  27.131  29.500  1.00  0.00     0.135 A 
ATOM     97  C   UNL A   1      48.921  27.613  27.152  1.00  0.00     0.135 A 
ATOM     98  F   UNL A   1      48.613  27.047  30.735  1.00  0.00    -0.206 F 
ATOM     99  C   UNL A   1      50.483  26.845  29.329  1.00  0.00     0.059 A 
ATOM    100  C   UNL A   1      50.264  27.311  26.953  1.00  0.00     0.059 A 
ATOM    101  F   UNL A   1      48.191  27.984  26.088  1.00  0.00    -0.206 F 
ATOM    102  C   UNL A   1      51.040  26.944  28.052  1.00  0.00     0.060 A 
BRANCH 102 103
ATOM    103  S   UNL A   1      52.792  26.570  27.839  1.00  0.00     0.124 S 
ATOM    104  O   UNL A   1      53.187  26.231  29.203  1.00  0.00    -0.237 OA
ATOM    105  O   UNL A   1      52.766  25.461  26.892  1.00  0.00    -0.237 OA
ATOM    106  O   UNL A   1      53.344  27.818  27.318  1.00  0.00    -0.744 OA
ENDBRANCH 102 103
ENDBRANCH  70  95
ENDBRANCH  44  45
ENDBRANCH  37  39
ENDBRANCH  36  37
ENDBRANCH  35  36
ENDBRANCH   1  35
TORSDOF 20
ENDMDL
MODEL 2
REMARK VINA RESULT:     -11.8      5.065     10.880
REMARK SMILES NC(=O)[C@@H]1CCC[N@@H+]1[C@@H](C(=O)OCCOC(=O)c1ccc(-c2c3nc(c(-c4c(F)cc(S(=O)(=O)[O-])cc4F)c4ccc([nH]4)c(-c4c(F)cc(S(=O)(=O)[O-])cc4F)c4nc(c(-c5c(F)cc(S(=O)(=O)[O-])cc5F)c5ccc2[nH]5)C=C4)C=C3)cc1)c1c[nH]c2cc(OCc3ccccc3)ccc12
REMARK SMILES IDX 13 1 12 2 10 3 11 4 9 5 8 6 4 7 5 8 6 9 7 10 2 12 1 13 3 16
REMARK SMILES IDX 84 17 85 18 100 19 86 20 87 21 99 22 88 24 98 25 89 26 90 27
REMARK SMILES IDX 91 28 92 29 93 30 97 31 94 32 96 33 95 34 14 35 15 36 16 37
REMARK SMILES IDX 17 38 18 39 19 40 83 41 20 42 82 43 21 44 22 45 23 46 76 47
REMARK SMILES IDX 24 48 81 49 75 50 77 51 25 52 80 53 74 54 73 55 26 57 60 58
REMARK SMILES IDX 39 59 59 60 40 61 43 62 58 63 78 64 41 65 42 66 57 68 79 69
REMARK SMILES IDX 44 70 27 71 28 72 37 73 29 74 30 75 36 76 38 77 31 78 32 79
REMARK SMILES IDX 33 80 34 81 35 82 61 83 62 84 71 85 63 86 64 87 70 88 72 89
REMARK SMILES IDX 65 90 66 91 67 92 68 93 69 94 45 95 46 96 55 97 47 98 48 99
REMARK SMILES IDX 54 100 56 101 49 102 50 103 51 104 52 105 53 106
REMARK H PARENT 8 11 1 14 1 15 86 23 77 56 43 67
REMARK Flexibility Score: inf
ROOT
ATOM      1  C   UNL A   1      36.695  23.794  25.235  1.00  0.00     0.274 C 
ENDROOT
BRANCH   1   2
ATOM      2  O   UNL A   1      35.751  22.723  24.974  1.00  0.00    -0.457 OA
BRANCH   2   3
ATOM      3  C   UNL A   1      34.926  22.924  23.906  1.00  0.00     0.370 C 
ATOM      4  O   UNL A   1      35.348  22.930  22.749  1.00  0.00    -0.245 OA
BRANCH   3   5
ATOM      5  C   UNL A   1      33.476  23.295  24.234  1.00  0.00     0.329 C 
BRANCH   5   6
ATOM      6  N   UNL A   1      32.484  22.183  24.472  1.00  0.00    -0.309 N 
ATOM      7  C   UNL A   1      32.380  21.562  25.812  1.00  0.00     0.275 C 
ATOM      8  C   UNL A   1      33.200  20.268  25.715  1.00  0.00     0.081 C 
ATOM      9  C   UNL A   1      33.442  20.048  24.225  1.00  0.00     0.068 C 
ATOM     10  C   UNL A   1      32.508  21.032  23.566  1.00  0.00     0.264 C 
ATOM     11  H   UNL A   1      31.689  22.799  24.304  1.00  0.00     0.349 HD
BRANCH   7  12
ATOM     12  C   UNL A   1      32.567  22.506  27.004  1.00  0.00     0.275 C 
ATOM     13  N   UNL A   1      33.699  22.368  27.751  1.00  0.00    -0.365 N 
ATOM     14  H   UNL A   1      33.853  22.957  28.525  1.00  0.00     0.159 HD
ATOM     15  H   UNL A   1      34.362  21.680  27.518  1.00  0.00     0.159 HD
ATOM     16  O   UNL A   1      31.730  23.341  27.340  1.00  0.00    -0.268 OA
ENDBRANCH   7  12
ENDBRANCH   5   6
BRANCH   5  17
ATOM     17  C   UNL A   1      32.796  24.412  23.451  1.00  0.00     0.046 A 
ATOM     18  C   UNL A   1      33.076  24.625  22.103  1.00  0.00     0.094 A 
ATOM     19  C   UNL A   1      32.070  25.581  23.886  1.00  0.00     0.009 A 
ATOM     20  N   UNL A   1      32.866  25.945  21.829  1.00  0.00    -0.361 N 
ATOM     21  C   UNL A   1      32.360  26.570  22.940  1.00  0.00     0.050 A 
ATOM     22  C   UNL A   1      31.370  25.989  25.040  1.00  0.00     0.015 A 
ATOM     23  H   UNL A   1      33.050  26.383  20.967  1.00  0.00     0.166 HD
ATOM     24  C   UNL A   1      32.207  27.934  23.201  1.00  0.00     0.073 A 
ATOM     25  C   UNL A   1      31.062  27.347  25.246  1.00  0.00     0.047 A 
ATOM     26  C   UNL A   1      31.553  28.311  24.374  1.00  0.00     0.121 A 
BRANCH  26  27
ATOM     27  O   UNL A   1      31.587  29.649  24.659  1.00  0.00    -0.489 OA
BRANCH  27  28
ATOM     28  C   UNL A   1      31.492  30.011  26.038  1.00  0.00     0.265 C 
BRANCH  28  29
ATOM     29  C   UNL A   1      32.833  30.156  26.721  1.00  0.00    -0.011 A 
ATOM     30  C   UNL A   1      33.675  29.038  26.808  1.00  0.00     0.007 A 
ATOM     31  C   UNL A   1      33.301  31.391  27.193  1.00  0.00     0.007 A 
ATOM     32  C   UNL A   1      34.950  29.154  27.357  1.00  0.00     0.000 A 
ATOM     33  C   UNL A   1      34.570  31.506  27.752  1.00  0.00     0.000 A 
ATOM     34  C   UNL A   1      35.394  30.389  27.815  1.00  0.00     0.000 A 
ENDBRANCH  28  29
ENDBRANCH  27  28
ENDBRANCH  26  27
ENDBRANCH   5  17
ENDBRANCH   3   5
ENDBRANCH   2   3
ENDBRANCH   1   2
BRANCH   1  35
ATOM     35  C   UNL A   1      37.884  23.337  26.069  1.00  0.00     0.275 C 
BRANCH  35  36
ATOM     36  O   UNL A   1      38.826  24.411  26.135  1.00  0.00    -0.458 OA
BRANCH  36  37
ATOM     37  C   UNL A   1      39.911  24.181  26.909  1.00  0.00     0.338 C 
ATOM     38  O   UNL A   1      40.717  23.279  26.771  1.00  0.00    -0.246 OA
BRANCH  37  39
ATOM     39  C   UNL A   1      40.086  25.285  27.883  1.00  0.00     0.060 A 
ATOM     40  C   UNL A   1      39.151  25.523  28.896  1.00  0.00     0.016 A 
ATOM     41  C   UNL A   1      41.126  26.190  27.677  1.00  0.00     0.016 A 
ATOM     42  C   UNL A   1      39.200  26.695  29.644  1.00  0.00     0.010 A 
ATOM     43  C   UNL A   1      41.228  27.323  28.484  1.00  0.00     0.010 A 
ATOM     44  C   UNL A   1      40.259  27.589  29.465  1.00  0.00    -0.014 A 
BRANCH  44  45
ATOM     45  C   UNL A   1      40.457  28.734  30.381  1.00  0.00     0.031 A 
ATOM     46  C   UNL A   1      41.439  28.654  31.510  1.00  0.00     0.074 A 
ATOM     47  C   UNL A   1      39.652  29.804  30.240  1.00  0.00     0.049 A 
ATOM     48  N   UNL A   1      41.508  29.392  32.587  1.00  0.00    -0.248 NA
ATOM     49  C   UNL A   1      42.474  27.610  31.425  1.00  0.00     0.031 C 
ATOM     50  C   UNL A   1      38.699  30.009  29.144  1.00  0.00     0.029 A 
ATOM     51  N   UNL A   1      39.473  30.901  31.044  1.00  0.00    -0.354 N 
ATOM     52  C   UNL A   1      42.572  28.890  33.327  1.00  0.00     0.074 A 
ATOM     53  C   UNL A   1      43.126  27.785  32.572  1.00  0.00     0.031 C 
ATOM     54  C   UNL A   1      38.016  31.141  29.359  1.00  0.00     0.029 A 
ATOM     55  C   UNL A   1      38.421  31.692  30.646  1.00  0.00     0.049 A 
ATOM     56  H   UNL A   1      40.037  31.100  31.825  1.00  0.00     0.167 HD
ATOM     57  C   UNL A   1      43.021  29.322  34.530  1.00  0.00     0.037 A 
ATOM     58  C   UNL A   1      37.792  32.700  31.277  1.00  0.00     0.037 A 
ATOM     59  C   UNL A   1      42.451  30.437  35.249  1.00  0.00     0.049 A 
ATOM     60  C   UNL A   1      38.258  33.106  32.639  1.00  0.00     0.074 A 
ATOM     61  C   UNL A   1      42.840  30.961  36.470  1.00  0.00     0.029 A 
ATOM     62  N   UNL A   1      41.377  31.200  34.815  1.00  0.00    -0.354 N 
ATOM     63  N   UNL A   1      39.214  32.580  33.368  1.00  0.00    -0.248 NA
ATOM     64  C   UNL A   1      37.560  34.231  33.272  1.00  0.00     0.031 C 
ATOM     65  C   UNL A   1      41.977  32.011  36.795  1.00  0.00     0.029 A 
ATOM     66  C   UNL A   1      41.084  32.179  35.751  1.00  0.00     0.049 A 
ATOM     67  H   UNL A   1      40.894  31.067  33.968  1.00  0.00     0.167 HD
ATOM     68  C   UNL A   1      39.238  33.315  34.543  1.00  0.00     0.074 A 
ATOM     69  C   UNL A   1      38.209  34.330  34.424  1.00  0.00     0.031 C 
ATOM     70  C   UNL A   1      40.044  33.167  35.622  1.00  0.00     0.037 A 
BRANCH  57  71
ATOM     71  C   UNL A   1      44.166  28.602  35.187  1.00  0.00     0.058 A 
ATOM     72  C   UNL A   1      43.965  27.486  36.012  1.00  0.00     0.135 A 
ATOM     73  C   UNL A   1      45.488  28.939  34.851  1.00  0.00     0.135 A 
ATOM     74  F   UNL A   1      42.724  27.122  36.369  1.00  0.00    -0.206 F 
ATOM     75  C   UNL A   1      45.036  26.728  36.480  1.00  0.00     0.059 A 
ATOM     76  C   UNL A   1      46.571  28.176  35.279  1.00  0.00     0.059 A 
ATOM     77  F   UNL A   1      45.739  30.007  34.075  1.00  0.00    -0.206 F 
ATOM     78  C   UNL A   1      46.334  27.076  36.102  1.00  0.00     0.060 A 
BRANCH  78  79
ATOM     79  S   UNL A   1      47.713  26.115  36.763  1.00  0.00     0.124 S 
ATOM     80  O   UNL A   1      47.212  25.767  38.089  1.00  0.00    -0.237 OA
ATOM     81  O   UNL A   1      47.807  25.013  35.813  1.00  0.00    -0.237 OA
ATOM     82  O   UNL A   1      48.826  27.059  36.744  1.00  0.00    -0.744 OA
ENDBRANCH  78  79
ENDBRANCH  57  71
BRANCH  58  83
ATOM     83  C   UNL A   1      36.616  33.333  30.632  1.00  0.00     0.058 A 
ATOM     84  C   UNL A   1      35.324  33.135  31.136  1.00  0.00     0.135 A 
ATOM     85  C   UNL A   1      36.774  34.219  29.553  1.00  0.00     0.135 A 
ATOM     86  F   UNL A   1      35.126  32.293  32.160  1.00  0.00    -0.206 F 
ATOM     87  C   UNL A   1      34.228  33.803  30.600  1.00  0.00     0.059 A 
ATOM     88  C   UNL A   1      35.699  34.916  29.018  1.00  0.00     0.059 A 
ATOM     89  F   UNL A   1      37.997  34.453  29.049  1.00  0.00    -0.206 F 
ATOM     90  C   UNL A   1      34.427  34.699  29.548  1.00  0.00     0.060 A 
BRANCH  90  91
ATOM     91  S   UNL A   1      33.017  35.640  28.925  1.00  0.00     0.124 S 
ATOM     92  O   UNL A   1      32.374  34.663  28.055  1.00  0.00    -0.237 OA
ATOM     93  O   UNL A   1      32.300  35.974  30.152  1.00  0.00    -0.237 OA
ATOM     94  O   UNL A   1      33.644  36.773  28.250  1.00  0.00    -0.744 OA
ENDBRANCH  90  91
ENDBRANCH  58  83
BRANCH  70  95
ATOM     95  C   UNL A   1      39.858  34.143  36.745  1.00  0.00     0.058 A 
ATOM     96  C   UNL A   1      40.520  35.380  36.758  1.00  0.00     0.135 A 
ATOM     97  C   UNL A   1      38.993  33.844  37.808  1.00  0.00     0.135 A 
ATOM     98  F   UNL A   1      41.362  35.707  35.766  1.00  0.00    -0.206 F 
ATOM     99  C   UNL A   1      40.352  36.277  37.807  1.00  0.00     0.059 A 
ATOM    100  C   UNL A   1      38.793  34.735  38.856  1.00  0.00     0.059 A 
ATOM    101  F   UNL A   1      38.329  32.677  37.833  1.00  0.00    -0.206 F 
ATOM    102  C   UNL A   1      39.491  35.943  38.854  1.00  0.00     0.060 A 
BRANCH 102 103
ATOM    103  S   UNL A   1      39.279  37.114  40.211  1.00  0.00     0.124 S 
ATOM    104  O   UNL A   1      38.530  36.313  41.174  1.00  0.00    -0.237 OA
ATOM    105  O   UNL A   1      40.656  37.424  40.580  1.00  0.00    -0.237 OA
ATOM    106  O   UNL A   1      38.538  38.212  39.597  1.00  0.00    -0.744 OA
ENDBRANCH 102 103
ENDBRANCH  70  95
ENDBRANCH  44  45
ENDBRANCH  37  39
ENDBRANCH  36  37
ENDBRANCH  35  36
ENDBRANCH   1  35
TORSDOF 20
ENDMDL
MODEL 3
REMARK VINA RESULT:     -11.2      2.596      8.087
REMARK SMILES NC(=O)[C@@H]1CCC[N@@H+]1[C@@H](C(=O)OCCOC(=O)c1ccc(-c2c3nc(c(-c4c(F)cc(S(=O)(=O)[O-])cc4F)c4ccc([nH]4)c(-c4c(F)cc(S(=O)(=O)[O-])cc4F)c4nc(c(-c5c(F)cc(S(=O)(=O)[O-])cc5F)c5ccc2[nH]5)C=C4)C=C3)cc1)c1c[nH]c2cc(OCc3ccccc3)ccc12
REMARK SMILES IDX 13 1 12 2 10 3 11 4 9 5 8 6 4 7 5 8 6 9 7 10 2 12 1 13 3 16
REMARK SMILES IDX 84 17 85 18 100 19 86 20 87 21 99 22 88 24 98 25 89 26 90 27
REMARK SMILES IDX 91 28 92 29 93 30 97 31 94 32 96 33 95 34 14 35 15 36 16 37
REMARK SMILES IDX 17 38 18 39 19 40 83 41 20 42 82 43 21 44 22 45 23 46 76 47
REMARK SMILES IDX 24 48 81 49 75 50 77 51 25 52 80 53 74 54 73 55 26 57 60 58
REMARK SMILES IDX 39 59 59 60 40 61 43 62 58 63 78 64 41 65 42 66 57 68 79 69
REMARK SMILES IDX 44 70 27 71 28 72 37 73 29 74 30 75 36 76 38 77 31 78 32 79
REMARK SMILES IDX 33 80 34 81 35 82 61 83 62 84 71 85 63 86 64 87 70 88 72 89
REMARK SMILES IDX 65 90 66 91 67 92 68 93 69 94 45 95 46 96 55 97 47 98 48 99
REMARK SMILES IDX 54 100 56 101 49 102 50 103 51 104 52 105 53 106
REMARK H PARENT 8 11 1 14 1 15 86 23 77 56 43 67
REMARK Flexibility Score: inf
ROOT
ATOM      1  C   UNL A   1      36.065  23.001  25.340  1.00  0.00     0.274 C 
ENDROOT
BRANCH   1   2
ATOM      2  O   UNL A   1      34.942  22.386  24.657  1.00  0.00    -0.457 OA
BRANCH   2   3
ATOM      3  C   UNL A   1      34.387  23.136  23.661  1.00  0.00     0.370 C 
ATOM      4  O   UNL A   1      35.028  23.474  22.666  1.00  0.00    -0.245 OA
BRANCH   3   5
ATOM      5  C   UNL A   1      32.973  23.664  23.923  1.00  0.00     0.329 C 
BRANCH   5   6
ATOM      6  N   UNL A   1      31.829  22.681  23.944  1.00  0.00    -0.309 N 
ATOM      7  C   UNL A   1      31.458  22.008  25.210  1.00  0.00     0.275 C 
ATOM      8  C   UNL A   1      32.120  20.625  25.133  1.00  0.00     0.081 C 
ATOM      9  C   UNL A   1      32.545  20.455  23.678  1.00  0.00     0.068 C 
ATOM     10  C   UNL A   1      31.843  21.587  22.970  1.00  0.00     0.264 C 
ATOM     11  H   UNL A   1      31.148  23.404  23.714  1.00  0.00     0.349 HD
BRANCH   7  12
ATOM     12  C   UNL A   1      31.586  22.854  26.480  1.00  0.00     0.275 C 
ATOM     13  N   UNL A   1      32.834  23.051  26.989  1.00  0.00    -0.365 N 
ATOM     14  H   UNL A   1      32.954  23.589  27.805  1.00  0.00     0.159 HD
ATOM     15  H   UNL A   1      33.616  22.654  26.543  1.00  0.00     0.159 HD
ATOM     16  O   UNL A   1      30.619  23.319  27.080  1.00  0.00    -0.268 OA
ENDBRANCH   7  12
ENDBRANCH   5   6
BRANCH   5  17
ATOM     17  C   UNL A   1      32.517  24.947  23.237  1.00  0.00     0.046 A 
ATOM     18  C   UNL A   1      32.941  25.270  21.950  1.00  0.00     0.094 A 
ATOM     19  C   UNL A   1      31.913  26.149  23.759  1.00  0.00     0.009 A 
ATOM     20  N   UNL A   1      32.931  26.629  21.828  1.00  0.00    -0.361 N 
ATOM     21  C   UNL A   1      32.413  27.189  22.967  1.00  0.00     0.050 A 
ATOM     22  C   UNL A   1      31.173  26.518  24.901  1.00  0.00     0.015 A 
ATOM     23  H   UNL A   1      33.246  27.131  21.042  1.00  0.00     0.166 HD
ATOM     24  C   UNL A   1      32.416  28.522  23.384  1.00  0.00     0.073 A 
ATOM     25  C   UNL A   1      31.027  27.874  25.252  1.00  0.00     0.047 A 
ATOM     26  C   UNL A   1      31.715  28.852  24.544  1.00  0.00     0.121 A 
BRANCH  26  27
ATOM     27  O   UNL A   1      31.898  30.131  24.994  1.00  0.00    -0.489 OA
BRANCH  27  28
ATOM     28  C   UNL A   1      31.898  30.315  26.412  1.00  0.00     0.265 C 
BRANCH  28  29
ATOM     29  C   UNL A   1      33.283  30.360  27.016  1.00  0.00    -0.011 A 
ATOM     30  C   UNL A   1      34.079  29.206  26.977  1.00  0.00     0.007 A 
ATOM     31  C   UNL A   1      33.833  31.541  27.538  1.00  0.00     0.007 A 
ATOM     32  C   UNL A   1      35.389  29.233  27.452  1.00  0.00     0.000 A 
ATOM     33  C   UNL A   1      35.137  31.566  28.023  1.00  0.00     0.000 A 
ATOM     34  C   UNL A   1      35.913  30.415  27.961  1.00  0.00     0.000 A 
ENDBRANCH  28  29
ENDBRANCH  27  28
ENDBRANCH  26  27
ENDBRANCH   5  17
ENDBRANCH   3   5
ENDBRANCH   2   3
ENDBRANCH   1   2
BRANCH   1  35
ATOM     35  C   UNL A   1      37.148  21.995  25.709  1.00  0.00     0.275 C 
BRANCH  35  36
ATOM     36  O   UNL A   1      38.421  22.627  25.549  1.00  0.00    -0.458 OA
BRANCH  36  37
ATOM     37  C   UNL A   1      39.340  22.321  26.492  1.00  0.00     0.338 C 
ATOM     38  O   UNL A   1      39.747  21.207  26.768  1.00  0.00    -0.246 OA
BRANCH  37  39
ATOM     39  C   UNL A   1      39.921  23.561  27.060  1.00  0.00     0.060 A 
ATOM     40  C   UNL A   1      39.678  24.814  26.486  1.00  0.00     0.016 A 
ATOM     41  C   UNL A   1      40.851  23.444  28.093  1.00  0.00     0.016 A 
ATOM     42  C   UNL A   1      40.414  25.927  26.877  1.00  0.00     0.010 A 
ATOM     43  C   UNL A   1      41.527  24.576  28.547  1.00  0.00     0.010 A 
ATOM     44  C   UNL A   1      41.323  25.823  27.934  1.00  0.00    -0.014 A 
BRANCH  44  45
ATOM     45  C   UNL A   1      41.967  27.024  28.511  1.00  0.00     0.031 A 
ATOM     46  C   UNL A   1      41.148  28.089  29.176  1.00  0.00     0.074 A 
ATOM     47  C   UNL A   1      43.290  27.186  28.323  1.00  0.00     0.049 A 
ATOM     48  N   UNL A   1      41.472  29.329  29.430  1.00  0.00    -0.248 NA
ATOM     49  C   UNL A   1      39.791  27.718  29.609  1.00  0.00     0.031 C 
ATOM     50  C   UNL A   1      44.190  26.187  27.736  1.00  0.00     0.029 A 
ATOM     51  N   UNL A   1      44.102  28.264  28.563  1.00  0.00    -0.354 N 
ATOM     52  C   UNL A   1      40.355  29.903  30.025  1.00  0.00     0.074 A 
ATOM     53  C   UNL A   1      39.342  28.869  30.102  1.00  0.00     0.031 C 
ATOM     54  C   UNL A   1      45.420  26.709  27.634  1.00  0.00     0.029 A 
ATOM     55  C   UNL A   1      45.373  28.100  28.065  1.00  0.00     0.049 A 
ATOM     56  H   UNL A   1      43.806  29.072  29.041  1.00  0.00     0.167 HD
ATOM     57  C   UNL A   1      40.207  31.180  30.451  1.00  0.00     0.037 A 
ATOM     58  C   UNL A   1      46.370  28.986  27.895  1.00  0.00     0.037 A 
ATOM     59  C   UNL A   1      41.245  32.181  30.370  1.00  0.00     0.049 A 
ATOM     60  C   UNL A   1      46.154  30.410  28.303  1.00  0.00     0.074 A 
ATOM     61  C   UNL A   1      41.199  33.502  30.785  1.00  0.00     0.029 A 
ATOM     62  N   UNL A   1      42.512  31.974  29.845  1.00  0.00    -0.354 N 
ATOM     63  N   UNL A   1      45.072  30.965  28.793  1.00  0.00    -0.248 NA
ATOM     64  C   UNL A   1      47.283  31.330  28.125  1.00  0.00     0.031 C 
ATOM     65  C   UNL A   1      42.420  34.105  30.471  1.00  0.00     0.029 A 
ATOM     66  C   UNL A   1      43.248  33.146  29.913  1.00  0.00     0.049 A 
ATOM     67  H   UNL A   1      42.840  31.122  29.478  1.00  0.00     0.167 HD
ATOM     68  C   UNL A   1      45.392  32.299  28.993  1.00  0.00     0.074 A 
ATOM     69  C   UNL A   1      46.772  32.466  28.580  1.00  0.00     0.031 C 
ATOM     70  C   UNL A   1      44.614  33.296  29.479  1.00  0.00     0.037 A 
BRANCH  57  71
ATOM     71  C   UNL A   1      38.888  31.613  31.027  1.00  0.00     0.058 A 
ATOM     72  C   UNL A   1      38.568  31.419  32.378  1.00  0.00     0.135 A 
ATOM     73  C   UNL A   1      38.002  32.376  30.247  1.00  0.00     0.135 A 
ATOM     74  F   UNL A   1      39.374  30.693  33.168  1.00  0.00    -0.206 F 
ATOM     75  C   UNL A   1      37.417  31.968  32.938  1.00  0.00     0.059 A 
ATOM     76  C   UNL A   1      36.864  32.965  30.793  1.00  0.00     0.059 A 
ATOM     77  F   UNL A   1      38.252  32.582  28.944  1.00  0.00    -0.206 F 
ATOM     78  C   UNL A   1      36.576  32.746  32.140  1.00  0.00     0.060 A 
BRANCH  78  79
ATOM     79  S   UNL A   1      35.061  33.405  32.868  1.00  0.00     0.124 S 
ATOM     80  O   UNL A   1      35.248  33.070  34.276  1.00  0.00    -0.237 OA
ATOM     81  O   UNL A   1      35.149  34.823  32.538  1.00  0.00    -0.237 OA
ATOM     82  O   UNL A   1      34.004  32.665  32.186  1.00  0.00    -0.744 OA
ENDBRANCH  78  79
ENDBRANCH  57  71
BRANCH  58  83
ATOM     83  C   UNL A   1      47.630  28.541  27.249  1.00  0.00     0.058 A 
ATOM     84  C   UNL A   1      48.741  28.169  28.016  1.00  0.00     0.135 A 
ATOM     85  C   UNL A   1      47.712  28.395  25.854  1.00  0.00     0.135 A 
ATOM     86  F   UNL A   1      48.708  28.299  29.350  1.00  0.00    -0.206 F 
ATOM     87  C   UNL A   1      49.890  27.657  27.424  1.00  0.00     0.059 A 
ATOM     88  C   UNL A   1      48.839  27.864  25.242  1.00  0.00     0.059 A 
ATOM     89  F   UNL A   1      46.664  28.723  25.081  1.00  0.00    -0.206 F 
ATOM     90  C   UNL A   1      49.926  27.498  26.036  1.00  0.00     0.060 A 
BRANCH  90  91
ATOM     91  S   UNL A   1      51.380  26.737  25.283  1.00  0.00     0.124 S 
ATOM     92  O   UNL A   1      52.447  27.607  25.761  1.00  0.00    -0.237 OA
ATOM     93  O   UNL A   1      51.352  25.390  25.845  1.00  0.00    -0.237 OA
ATOM     94  O   UNL A   1      51.093  26.814  23.853  1.00  0.00    -0.744 OA
ENDBRANCH  90  91
ENDBRANCH  58  83
BRANCH  70  95
ATOM     95  C   UNL A   1      45.250  34.647  29.614  1.00  0.00     0.058 A 
ATOM     96  C   UNL A   1      45.946  35.018  30.774  1.00  0.00     0.135 A 
ATOM     97  C   UNL A   1      45.179  35.572  28.561  1.00  0.00     0.135 A 
ATOM     98  F   UNL A   1      46.035  34.167  31.809  1.00  0.00    -0.206 F 
ATOM     99  C   UNL A   1      46.525  36.275  30.898  1.00  0.00     0.059 A 
ATOM    100  C   UNL A   1      45.769  36.827  28.655  1.00  0.00     0.059 A 
ATOM    101  F   UNL A   1      44.533  35.258  27.427  1.00  0.00    -0.206 F 
ATOM    102  C   UNL A   1      46.426  37.175  29.835  1.00  0.00     0.060 A 
BRANCH 102 103
ATOM    103  S   UNL A   1      47.183  38.804  30.004  1.00  0.00     0.124 S 
ATOM    104  O   UNL A   1      47.627  38.778  31.394  1.00  0.00    -0.237 OA
ATOM    105  O   UNL A   1      48.241  38.768  29.000  1.00  0.00    -0.237 OA
ATOM    106  O   UNL A   1      46.083  39.720  29.714  1.00  0.00    -0.744 OA
ENDBRANCH 102 103
ENDBRANCH  70  95
ENDBRANCH  44  45
ENDBRANCH  37  39
ENDBRANCH  36  37
ENDBRANCH  35  36
ENDBRANCH   1  35
TORSDOF 20
ENDMDL
