MODEL 1
REMARK VINA RESULT:     -13.3      0.000      0.000
REMARK SMILES O=C(OCCOC(=O)c1ccc(-c2c3nc(c(-c4c(F)cc(S(=O)(=O)[O-])cc4F)c4ccc([nH]4)c(-c4c(F)cc(S(=O)(=O)[O-])cc4F)c4nc(c(-c5c(F)cc(S(=O)(=O)[O-])cc5F)c5ccc2[nH]5)C=C4)C=C3)cc1)C1=Cc2c(Cl)ccc(Cl)c2O[C@@H]1C(F)(F)F
REMARK SMILES IDX 5 1 4 2 3 3 2 4 1 5 75 6 76 7 86 8 77 9 85 10 78 11 84 12
REMARK SMILES IDX 79 13 80 14 82 15 81 16 83 17 87 18 88 19 89 20 90 21 6 22
REMARK SMILES IDX 7 23 8 24 9 25 10 26 74 27 11 28 73 29 12 30 13 31 14 32
REMARK SMILES IDX 67 33 15 34 72 35 66 36 68 37 16 38 71 39 65 40 64 41 17 43
REMARK SMILES IDX 51 44 30 45 50 46 31 47 34 48 49 49 69 50 32 51 33 52 48 54
REMARK SMILES IDX 70 55 35 56 18 57 19 58 28 59 20 60 21 61 27 62 29 63 22 64
REMARK SMILES IDX 23 65 24 66 25 67 26 68 52 69 53 70 62 71 54 72 55 73 61 74
REMARK SMILES IDX 63 75 56 76 57 77 58 78 59 79 60 80 36 81 37 82 46 83 38 84
REMARK SMILES IDX 39 85 45 86 47 87 40 88 41 89 42 90 43 91 44 92
REMARK H PARENT 68 42 34 53
REMARK Flexibility Score: inf
ROOT
ATOM      1  C   UNL A   1      38.147  21.797  25.367  1.00  0.00     0.275 C 
ENDROOT
BRANCH   1   2
ATOM      2  C   UNL A   1      36.626  23.308  25.065  1.00  0.00     0.275 C 
BRANCH   2   3
ATOM      3  O   UNL A   1      35.147  23.236  25.493  1.00  0.00    -0.459 OA
BRANCH   3   4
ATOM      4  C   UNL A   1      34.336  23.918  24.674  1.00  0.00     0.338 C 
ATOM      5  O   UNL A   1      34.527  24.263  23.536  1.00  0.00    -0.246 OA
BRANCH   4   6
ATOM      6  C   UNL A   1      33.482  24.437  25.725  1.00  0.00     0.087 C 
ATOM      7  C   UNL A   1      33.772  25.803  26.099  1.00  0.00     0.029 C 
ATOM      8  C   UNL A   1      31.856  23.807  24.932  1.00  0.00     0.316 C 
ATOM      9  C   UNL A   1      32.730  27.197  25.657  1.00  0.00     0.037 A 
ATOM     10  O   UNL A   1      30.749  25.289  24.340  1.00  0.00    -0.474 OA
ATOM     11  C   UNL A   1      33.163  28.470  25.934  1.00  0.00     0.052 A 
ATOM     12  C   UNL A   1      31.300  27.009  24.684  1.00  0.00     0.148 A 
ATOM     13  Cl  UNL A   1      34.548  28.817  26.880  1.00  0.00    -0.084 Cl
ATOM     14  C   UNL A   1      32.410  29.505  25.361  1.00  0.00     0.023 A 
ATOM     15  C   UNL A   1      30.632  28.084  24.162  1.00  0.00     0.083 A 
ATOM     16  C   UNL A   1      31.231  29.322  24.519  1.00  0.00     0.026 A 
ATOM     17  Cl  UNL A   1      29.284  28.017  23.134  1.00  0.00    -0.080 Cl
BRANCH   8  18
ATOM     18  C   UNL A   1      31.754  22.675  26.080  1.00  0.00     0.430 C 
ATOM     19  F   UNL A   1      31.902  23.184  27.296  1.00  0.00    -0.167 F 
ATOM     20  F   UNL A   1      30.470  22.196  26.122  1.00  0.00    -0.167 F 
ATOM     21  F   UNL A   1      32.486  21.552  25.932  1.00  0.00    -0.167 F 
ENDBRANCH   8  18
ENDBRANCH   4   6
ENDBRANCH   3   4
ENDBRANCH   2   3
ENDBRANCH   1   2
BRANCH   1  22
ATOM     22  O   UNL A   1      39.656  22.090  26.235  1.00  0.00    -0.458 OA
BRANCH  22  23
ATOM     23  C   UNL A   1      40.799  22.873  26.223  1.00  0.00     0.338 C 
ATOM     24  O   UNL A   1      41.890  22.635  25.737  1.00  0.00    -0.246 OA
BRANCH  23  25
ATOM     25  C   UNL A   1      40.379  24.274  26.578  1.00  0.00     0.060 A 
ATOM     26  C   UNL A   1      39.333  24.475  27.503  1.00  0.00     0.016 A 
ATOM     27  C   UNL A   1      41.249  25.321  26.299  1.00  0.00     0.016 A 
ATOM     28  C   UNL A   1      39.369  25.603  28.360  1.00  0.00     0.010 A 
ATOM     29  C   UNL A   1      41.264  26.443  27.134  1.00  0.00     0.010 A 
ATOM     30  C   UNL A   1      40.409  26.539  28.248  1.00  0.00    -0.014 A 
BRANCH  30  31
ATOM     31  C   UNL A   1      40.545  27.731  29.141  1.00  0.00     0.031 A 
ATOM     32  C   UNL A   1      41.634  27.649  30.165  1.00  0.00     0.074 A 
ATOM     33  C   UNL A   1      39.680  28.775  29.168  1.00  0.00     0.049 A 
ATOM     34  N   UNL A   1      41.868  28.415  31.195  1.00  0.00    -0.248 NA
ATOM     35  C   UNL A   1      42.558  26.511  30.025  1.00  0.00     0.031 C 
ATOM     36  C   UNL A   1      38.569  28.998  28.245  1.00  0.00     0.029 A 
ATOM     37  N   UNL A   1      39.581  29.845  30.041  1.00  0.00    -0.354 N 
ATOM     38  C   UNL A   1      42.951  27.836  31.836  1.00  0.00     0.074 A 
ATOM     39  C   UNL A   1      43.303  26.639  31.108  1.00  0.00     0.031 C 
ATOM     40  C   UNL A   1      37.894  30.110  28.608  1.00  0.00     0.029 A 
ATOM     41  C   UNL A   1      38.499  30.677  29.811  1.00  0.00     0.049 A 
ATOM     42  H   UNL A   1      40.228  30.002  30.766  1.00  0.00     0.167 HD
ATOM     43  C   UNL A   1      43.610  28.267  32.932  1.00  0.00     0.037 A 
ATOM     44  C   UNL A   1      38.042  31.752  30.500  1.00  0.00     0.037 A 
ATOM     45  C   UNL A   1      43.274  29.451  33.663  1.00  0.00     0.049 A 
ATOM     46  C   UNL A   1      38.780  32.186  31.756  1.00  0.00     0.074 A 
ATOM     47  C   UNL A   1      43.918  29.988  34.762  1.00  0.00     0.029 A 
ATOM     48  N   UNL A   1      42.197  30.275  33.380  1.00  0.00    -0.354 N 
ATOM     49  N   UNL A   1      39.864  31.678  32.296  1.00  0.00    -0.248 NA
ATOM     50  C   UNL A   1      38.231  33.331  32.504  1.00  0.00     0.031 C 
ATOM     51  C   UNL A   1      43.199  31.109  35.179  1.00  0.00     0.029 A 
ATOM     52  C   UNL A   1      42.140  31.301  34.306  1.00  0.00     0.049 A 
ATOM     53  H   UNL A   1      41.568  30.149  32.634  1.00  0.00     0.167 HD
ATOM     54  C   UNL A   1      40.139  32.460  33.417  1.00  0.00     0.074 A 
ATOM     55  C   UNL A   1      39.122  33.487  33.473  1.00  0.00     0.031 C 
ATOM     56  C   UNL A   1      41.137  32.336  34.327  1.00  0.00     0.037 A 
BRANCH  43  57
ATOM     57  C   UNL A   1      44.757  27.428  33.402  1.00  0.00     0.058 A 
ATOM     58  C   UNL A   1      46.071  27.691  32.985  1.00  0.00     0.135 A 
ATOM     59  C   UNL A   1      44.538  26.353  34.274  1.00  0.00     0.135 A 
ATOM     60  F   UNL A   1      46.321  28.683  32.115  1.00  0.00    -0.206 F 
ATOM     61  C   UNL A   1      47.132  26.905  33.409  1.00  0.00     0.059 A 
ATOM     62  C   UNL A   1      45.590  25.571  34.735  1.00  0.00     0.059 A 
ATOM     63  F   UNL A   1      43.295  26.050  34.677  1.00  0.00    -0.206 F 
ATOM     64  C   UNL A   1      46.881  25.853  34.292  1.00  0.00     0.060 A 
BRANCH  64  65
ATOM     65  S   UNL A   1      48.281  24.875  34.870  1.00  0.00     0.124 S 
ATOM     66  O   UNL A   1      48.836  24.387  33.612  1.00  0.00    -0.237 OA
ATOM     67  O   UNL A   1      49.084  25.870  35.573  1.00  0.00    -0.237 OA
ATOM     68  O   UNL A   1      47.661  23.861  35.718  1.00  0.00    -0.744 OA
ENDBRANCH  64  65
ENDBRANCH  43  57
BRANCH  44  69
ATOM     69  C   UNL A   1      36.814  32.513  30.085  1.00  0.00     0.058 A 
ATOM     70  C   UNL A   1      36.881  33.540  29.126  1.00  0.00     0.135 A 
ATOM     71  C   UNL A   1      35.576  32.324  30.725  1.00  0.00     0.135 A 
ATOM     72  F   UNL A   1      38.040  33.793  28.497  1.00  0.00    -0.206 F 
ATOM     73  C   UNL A   1      35.795  34.373  28.849  1.00  0.00     0.059 A 
ATOM     74  C   UNL A   1      34.466  33.124  30.443  1.00  0.00     0.059 A 
ATOM     75  F   UNL A   1      35.441  31.368  31.656  1.00  0.00    -0.206 F 
ATOM     76  C   UNL A   1      34.590  34.161  29.520  1.00  0.00     0.060 A 
BRANCH  76  77
ATOM     77  S   UNL A   1      33.191  35.253  29.166  1.00  0.00     0.124 S 
ATOM     78  O   UNL A   1      32.493  34.513  28.120  1.00  0.00    -0.237 OA
ATOM     79  O   UNL A   1      32.515  35.319  30.457  1.00  0.00    -0.237 OA
ATOM     80  O   UNL A   1      33.832  36.494  28.739  1.00  0.00    -0.744 OA
ENDBRANCH  76  77
ENDBRANCH  44  69
BRANCH  56  81
ATOM     81  C   UNL A   1      41.220  33.341  35.443  1.00  0.00     0.058 A 
ATOM     82  C   UNL A   1      41.873  34.573  35.278  1.00  0.00     0.135 A 
ATOM     83  C   UNL A   1      40.532  33.121  36.648  1.00  0.00     0.135 A 
ATOM     84  F   UNL A   1      42.546  34.835  34.147  1.00  0.00    -0.206 F 
ATOM     85  C   UNL A   1      41.843  35.548  36.269  1.00  0.00     0.059 A 
ATOM     86  C   UNL A   1      40.464  34.094  37.640  1.00  0.00     0.059 A 
ATOM     87  F   UNL A   1      39.879  31.966  36.852  1.00  0.00    -0.206 F 
ATOM     88  C   UNL A   1      41.126  35.304  37.442  1.00  0.00     0.060 A 
BRANCH  88  89
ATOM     89  S   UNL A   1      41.033  36.609  38.686  1.00  0.00     0.124 S 
ATOM     90  O   UNL A   1      42.193  37.426  38.344  1.00  0.00    -0.237 OA
ATOM     91  O   UNL A   1      39.732  37.209  38.411  1.00  0.00    -0.237 OA
ATOM     92  O   UNL A   1      41.128  35.884  39.950  1.00  0.00    -0.744 OA
ENDBRANCH  88  89
ENDBRANCH  56  81
ENDBRANCH  30  31
ENDBRANCH  23  25
ENDBRANCH  22  23
ENDBRANCH   1  22
TORSDOF 15
ENDMDL
MODEL 2
REMARK VINA RESULT:     -13.1      4.506     10.278
REMARK SMILES O=C(OCCOC(=O)c1ccc(-c2c3nc(c(-c4c(F)cc(S(=O)(=O)[O-])cc4F)c4ccc([nH]4)c(-c4c(F)cc(S(=O)(=O)[O-])cc4F)c4nc(c(-c5c(F)cc(S(=O)(=O)[O-])cc5F)c5ccc2[nH]5)C=C4)C=C3)cc1)C1=Cc2c(Cl)ccc(Cl)c2O[C@@H]1C(F)(F)F
REMARK SMILES IDX 5 1 4 2 3 3 2 4 1 5 75 6 76 7 86 8 77 9 85 10 78 11 84 12
REMARK SMILES IDX 79 13 80 14 82 15 81 16 83 17 87 18 88 19 89 20 90 21 6 22
REMARK SMILES IDX 7 23 8 24 9 25 10 26 74 27 11 28 73 29 12 30 13 31 14 32
REMARK SMILES IDX 67 33 15 34 72 35 66 36 68 37 16 38 71 39 65 40 64 41 17 43
REMARK SMILES IDX 51 44 30 45 50 46 31 47 34 48 49 49 69 50 32 51 33 52 48 54
REMARK SMILES IDX 70 55 35 56 18 57 19 58 28 59 20 60 21 61 27 62 29 63 22 64
REMARK SMILES IDX 23 65 24 66 25 67 26 68 52 69 53 70 62 71 54 72 55 73 61 74
REMARK SMILES IDX 63 75 56 76 57 77 58 78 59 79 60 80 36 81 37 82 46 83 38 84
REMARK SMILES IDX 39 85 45 86 47 87 40 88 41 89 42 90 43 91 44 92
REMARK H PARENT 68 42 34 53
REMARK Flexibility Score: inf
ROOT
ATOM      1  C   UNL A   1      32.500  30.730  27.177  1.00  0.00     0.275 C 
ENDROOT
BRANCH   1   2
ATOM      2  C   UNL A   1      32.133  28.749  26.386  1.00  0.00     0.275 C 
BRANCH   2   3
ATOM      3  O   UNL A   1      33.116  27.561  26.361  1.00  0.00    -0.459 OA
BRANCH   3   4
ATOM      4  C   UNL A   1      32.511  26.392  26.120  1.00  0.00     0.338 C 
ATOM      5  O   UNL A   1      31.806  25.741  26.848  1.00  0.00    -0.246 OA
BRANCH   4   6
ATOM      6  C   UNL A   1      33.344  26.035  24.988  1.00  0.00     0.087 C 
ATOM      7  C   UNL A   1      34.559  25.337  25.347  1.00  0.00     0.029 C 
ATOM      8  C   UNL A   1      31.902  25.321  23.949  1.00  0.00     0.316 C 
ATOM      9  C   UNL A   1      34.814  23.581  25.075  1.00  0.00     0.037 A 
ATOM     10  O   UNL A   1      32.085  23.401  23.725  1.00  0.00    -0.474 OA
ATOM     11  C   UNL A   1      35.942  22.982  25.580  1.00  0.00     0.052 A 
ATOM     12  C   UNL A   1      33.577  22.562  24.396  1.00  0.00     0.148 A 
ATOM     13  Cl  UNL A   1      37.246  23.849  26.275  1.00  0.00    -0.084 Cl
ATOM     14  C   UNL A   1      35.961  21.582  25.525  1.00  0.00     0.023 A 
ATOM     15  C   UNL A   1      33.684  21.197  24.393  1.00  0.00     0.083 A 
ATOM     16  C   UNL A   1      34.896  20.745  24.981  1.00  0.00     0.026 A 
ATOM     17  Cl  UNL A   1      32.508  20.107  23.840  1.00  0.00    -0.080 Cl
BRANCH   8  18
ATOM     18  C   UNL A   1      31.985  26.611  22.979  1.00  0.00     0.430 C 
ATOM     19  F   UNL A   1      33.227  26.860  22.588  1.00  0.00    -0.167 F 
ATOM     20  F   UNL A   1      31.361  26.319  21.793  1.00  0.00    -0.167 F 
ATOM     21  F   UNL A   1      31.363  27.742  23.371  1.00  0.00    -0.167 F 
ENDBRANCH   8  18
ENDBRANCH   4   6
ENDBRANCH   3   4
ENDBRANCH   2   3
ENDBRANCH   1   2
BRANCH   1  22
ATOM     22  O   UNL A   1      34.077  31.274  27.755  1.00  0.00    -0.458 OA
BRANCH  22  23
ATOM     23  C   UNL A   1      34.851  31.388  28.900  1.00  0.00     0.338 C 
ATOM     24  O   UNL A   1      34.619  31.997  29.928  1.00  0.00    -0.246 OA
BRANCH  23  25
ATOM     25  C   UNL A   1      35.890  30.301  28.840  1.00  0.00     0.060 A 
ATOM     26  C   UNL A   1      36.591  30.072  27.637  1.00  0.00     0.016 A 
ATOM     27  C   UNL A   1      36.408  29.809  30.032  1.00  0.00     0.016 A 
ATOM     28  C   UNL A   1      37.940  29.639  27.689  1.00  0.00     0.010 A 
ATOM     29  C   UNL A   1      37.732  29.360  30.072  1.00  0.00     0.010 A 
ATOM     30  C   UNL A   1      38.551  29.388  28.928  1.00  0.00    -0.014 A 
BRANCH  30  31
ATOM     31  C   UNL A   1      39.980  28.971  29.073  1.00  0.00     0.031 A 
ATOM     32  C   UNL A   1      40.941  30.069  29.408  1.00  0.00     0.074 A 
ATOM     33  C   UNL A   1      40.453  27.733  28.786  1.00  0.00     0.049 A 
ATOM     34  N   UNL A   1      42.245  30.065  29.398  1.00  0.00    -0.248 NA
ATOM     35  C   UNL A   1      40.334  31.364  29.759  1.00  0.00     0.031 C 
ATOM     36  C   UNL A   1      39.650  26.561  28.441  1.00  0.00     0.029 A 
ATOM     37  N   UNL A   1      41.751  27.257  28.708  1.00  0.00    -0.354 N 
ATOM     38  C   UNL A   1      42.612  31.362  29.719  1.00  0.00     0.074 A 
ATOM     39  C   UNL A   1      41.401  32.133  29.876  1.00  0.00     0.031 C 
ATOM     40  C   UNL A   1      40.463  25.518  28.169  1.00  0.00     0.029 A 
ATOM     41  C   UNL A   1      41.857  25.941  28.291  1.00  0.00     0.049 A 
ATOM     42  H   UNL A   1      42.534  27.809  28.932  1.00  0.00     0.167 HD
ATOM     43  C   UNL A   1      43.851  31.872  29.880  1.00  0.00     0.037 A 
ATOM     44  C   UNL A   1      42.946  25.180  28.021  1.00  0.00     0.037 A 
ATOM     45  C   UNL A   1      45.060  31.120  29.728  1.00  0.00     0.049 A 
ATOM     46  C   UNL A   1      44.327  25.796  28.170  1.00  0.00     0.074 A 
ATOM     47  C   UNL A   1      46.361  31.547  29.919  1.00  0.00     0.029 A 
ATOM     48  N   UNL A   1      45.120  29.792  29.337  1.00  0.00    -0.354 N 
ATOM     49  N   UNL A   1      44.656  27.003  28.568  1.00  0.00    -0.248 NA
ATOM     50  C   UNL A   1      45.487  24.953  27.828  1.00  0.00     0.031 C 
ATOM     51  C   UNL A   1      47.213  30.492  29.591  1.00  0.00     0.029 A 
ATOM     52  C   UNL A   1      46.441  29.392  29.250  1.00  0.00     0.049 A 
ATOM     53  H   UNL A   1      44.342  29.220  29.151  1.00  0.00     0.167 HD
ATOM     54  C   UNL A   1      46.050  27.047  28.552  1.00  0.00     0.074 A 
ATOM     55  C   UNL A   1      46.507  25.744  28.127  1.00  0.00     0.031 C 
ATOM     56  C   UNL A   1      46.879  28.078  28.855  1.00  0.00     0.037 A 
BRANCH  43  57
ATOM     57  C   UNL A   1      43.942  33.324  30.232  1.00  0.00     0.058 A 
ATOM     58  C   UNL A   1      43.914  33.754  31.567  1.00  0.00     0.135 A 
ATOM     59  C   UNL A   1      44.056  34.291  29.223  1.00  0.00     0.135 A 
ATOM     60  F   UNL A   1      43.760  32.866  32.563  1.00  0.00    -0.206 F 
ATOM     61  C   UNL A   1      43.983  35.101  31.892  1.00  0.00     0.059 A 
ATOM     62  C   UNL A   1      44.159  35.642  29.527  1.00  0.00     0.059 A 
ATOM     63  F   UNL A   1      44.062  33.926  27.932  1.00  0.00    -0.206 F 
ATOM     64  C   UNL A   1      44.116  36.036  30.864  1.00  0.00     0.060 A 
BRANCH  64  65
ATOM     65  S   UNL A   1      44.255  37.777  31.309  1.00  0.00     0.124 S 
ATOM     66  O   UNL A   1      45.691  37.999  31.174  1.00  0.00    -0.237 OA
ATOM     67  O   UNL A   1      43.418  38.421  30.302  1.00  0.00    -0.237 OA
ATOM     68  O   UNL A   1      43.738  37.822  32.673  1.00  0.00    -0.744 OA
ENDBRANCH  64  65
ENDBRANCH  43  57
BRANCH  44  69
ATOM     69  C   UNL A   1      42.838  23.756  27.550  1.00  0.00     0.058 A 
ATOM     70  C   UNL A   1      42.699  23.447  26.184  1.00  0.00     0.135 A 
ATOM     71  C   UNL A   1      42.742  22.684  28.455  1.00  0.00     0.135 A 
ATOM     72  F   UNL A   1      42.751  24.427  25.268  1.00  0.00    -0.206 F 
ATOM     73  C   UNL A   1      42.426  22.152  25.739  1.00  0.00     0.059 A 
ATOM     74  C   UNL A   1      42.501  21.375  28.031  1.00  0.00     0.059 A 
ATOM     75  F   UNL A   1      42.858  22.906  29.773  1.00  0.00    -0.206 F 
ATOM     76  C   UNL A   1      42.321  21.121  26.673  1.00  0.00     0.060 A 
BRANCH  76  77
ATOM     77  S   UNL A   1      41.954  19.447  26.088  1.00  0.00     0.124 S 
ATOM     78  O   UNL A   1      42.282  18.644  27.260  1.00  0.00    -0.237 OA
ATOM     79  O   UNL A   1      40.536  19.540  25.756  1.00  0.00    -0.237 OA
ATOM     80  O   UNL A   1      42.849  19.287  24.944  1.00  0.00    -0.744 OA
ENDBRANCH  76  77
ENDBRANCH  44  69
BRANCH  56  81
ATOM     81  C   UNL A   1      48.364  27.849  28.778  1.00  0.00     0.058 A 
ATOM     82  C   UNL A   1      49.075  27.265  29.839  1.00  0.00     0.135 A 
ATOM     83  C   UNL A   1      49.060  28.102  27.584  1.00  0.00     0.135 A 
ATOM     84  F   UNL A   1      48.459  27.004  31.002  1.00  0.00    -0.206 F 
ATOM     85  C   UNL A   1      50.423  26.945  29.718  1.00  0.00     0.059 A 
ATOM     86  C   UNL A   1      50.400  27.762  27.431  1.00  0.00     0.059 A 
ATOM     87  F   UNL A   1      48.424  28.646  26.534  1.00  0.00    -0.206 F 
ATOM     88  C   UNL A   1      51.075  27.185  28.507  1.00  0.00     0.060 A 
BRANCH  88  89
ATOM     89  S   UNL A   1      52.803  26.693  28.341  1.00  0.00     0.124 S 
ATOM     90  O   UNL A   1      53.418  27.928  27.866  1.00  0.00    -0.237 OA
ATOM     91  O   UNL A   1      53.146  26.298  29.704  1.00  0.00    -0.237 OA
ATOM     92  O   UNL A   1      52.757  25.602  27.373  1.00  0.00    -0.744 OA
ENDBRANCH  88  89
ENDBRANCH  56  81
ENDBRANCH  30  31
ENDBRANCH  23  25
ENDBRANCH  22  23
ENDBRANCH   1  22
TORSDOF 15
ENDMDL
MODEL 3
REMARK VINA RESULT:     -12.9      4.107     10.051
REMARK SMILES O=C(OCCOC(=O)c1ccc(-c2c3nc(c(-c4c(F)cc(S(=O)(=O)[O-])cc4F)c4ccc([nH]4)c(-c4c(F)cc(S(=O)(=O)[O-])cc4F)c4nc(c(-c5c(F)cc(S(=O)(=O)[O-])cc5F)c5ccc2[nH]5)C=C4)C=C3)cc1)C1=Cc2c(Cl)ccc(Cl)c2O[C@@H]1C(F)(F)F
REMARK SMILES IDX 5 1 4 2 3 3 2 4 1 5 75 6 76 7 86 8 77 9 85 10 78 11 84 12
REMARK SMILES IDX 79 13 80 14 82 15 81 16 83 17 87 18 88 19 89 20 90 21 6 22
REMARK SMILES IDX 7 23 8 24 9 25 10 26 74 27 11 28 73 29 12 30 13 31 14 32
REMARK SMILES IDX 67 33 15 34 72 35 66 36 68 37 16 38 71 39 65 40 64 41 17 43
REMARK SMILES IDX 51 44 30 45 50 46 31 47 34 48 49 49 69 50 32 51 33 52 48 54
REMARK SMILES IDX 70 55 35 56 18 57 19 58 28 59 20 60 21 61 27 62 29 63 22 64
REMARK SMILES IDX 23 65 24 66 25 67 26 68 52 69 53 70 62 71 54 72 55 73 61 74
REMARK SMILES IDX 63 75 56 76 57 77 58 78 59 79 60 80 36 81 37 82 46 83 38 84
REMARK SMILES IDX 39 85 45 86 47 87 40 88 41 89 42 90 43 91 44 92
REMARK H PARENT 68 42 34 53
REMARK Flexibility Score: inf
ROOT
ATOM      1  C   UNL A   1      32.501  30.736  26.613  1.00  0.00     0.275 C 
ENDROOT
BRANCH   1   2
ATOM      2  C   UNL A   1      31.965  28.819  25.763  1.00  0.00     0.275 C 
BRANCH   2   3
ATOM      3  O   UNL A   1      32.921  27.770  25.161  1.00  0.00    -0.459 OA
BRANCH   3   4
ATOM      4  C   UNL A   1      32.425  26.527  25.210  1.00  0.00     0.338 C 
ATOM      5  O   UNL A   1      31.791  26.001  26.088  1.00  0.00    -0.246 OA
BRANCH   4   6
ATOM      6  C   UNL A   1      33.279  25.996  24.165  1.00  0.00     0.087 C 
ATOM      7  C   UNL A   1      34.461  25.322  24.654  1.00  0.00     0.029 C 
ATOM      8  C   UNL A   1      31.844  25.185  23.188  1.00  0.00     0.316 C 
ATOM      9  C   UNL A   1      34.670  23.539  24.633  1.00  0.00     0.037 A 
ATOM     10  O   UNL A   1      31.975  23.248  23.235  1.00  0.00    -0.474 OA
ATOM     11  C   UNL A   1      35.764  22.986  25.250  1.00  0.00     0.052 A 
ATOM     12  C   UNL A   1      33.421  22.470  24.061  1.00  0.00     0.148 A 
ATOM     13  Cl  UNL A   1      37.074  23.906  25.861  1.00  0.00    -0.084 Cl
ATOM     14  C   UNL A   1      35.742  21.591  25.389  1.00  0.00     0.023 A 
ATOM     15  C   UNL A   1      33.486  21.115  24.248  1.00  0.00     0.083 A 
ATOM     16  C   UNL A   1      34.667  20.716  24.931  1.00  0.00     0.026 A 
ATOM     17  Cl  UNL A   1      32.293  19.991  23.813  1.00  0.00    -0.080 Cl
BRANCH   8  18
ATOM     18  C   UNL A   1      31.994  26.326  22.054  1.00  0.00     0.430 C 
ATOM     19  F   UNL A   1      31.834  25.837  20.832  1.00  0.00    -0.167 F 
ATOM     20  F   UNL A   1      30.941  27.199  22.156  1.00  0.00    -0.167 F 
ATOM     21  F   UNL A   1      33.064  27.145  22.113  1.00  0.00    -0.167 F 
ENDBRANCH   8  18
ENDBRANCH   4   6
ENDBRANCH   3   4
ENDBRANCH   2   3
ENDBRANCH   1   2
BRANCH   1  22
ATOM     22  O   UNL A   1      33.538  30.921  28.030  1.00  0.00    -0.458 OA
BRANCH  22  23
ATOM     23  C   UNL A   1      34.757  31.436  28.443  1.00  0.00     0.338 C 
ATOM     24  O   UNL A   1      34.997  32.492  28.998  1.00  0.00    -0.246 OA
BRANCH  23  25
ATOM     25  C   UNL A   1      35.738  30.295  28.451  1.00  0.00     0.060 A 
ATOM     26  C   UNL A   1      36.546  30.061  27.319  1.00  0.00     0.016 A 
ATOM     27  C   UNL A   1      36.104  29.740  29.672  1.00  0.00     0.016 A 
ATOM     28  C   UNL A   1      37.857  29.551  27.493  1.00  0.00     0.010 A 
ATOM     29  C   UNL A   1      37.391  29.217  29.831  1.00  0.00     0.010 A 
ATOM     30  C   UNL A   1      38.323  29.231  28.778  1.00  0.00    -0.014 A 
BRANCH  30  31
ATOM     31  C   UNL A   1      39.706  28.731  29.052  1.00  0.00     0.031 A 
ATOM     32  C   UNL A   1      40.666  29.749  29.581  1.00  0.00     0.074 A 
ATOM     33  C   UNL A   1      40.155  27.494  28.724  1.00  0.00     0.049 A 
ATOM     34  N   UNL A   1      41.961  29.678  29.721  1.00  0.00    -0.248 NA
ATOM     35  C   UNL A   1      40.079  31.045  29.962  1.00  0.00     0.031 C 
ATOM     36  C   UNL A   1      39.349  26.395  28.197  1.00  0.00     0.029 A 
ATOM     37  N   UNL A   1      41.431  26.958  28.758  1.00  0.00    -0.354 N 
ATOM     38  C   UNL A   1      42.344  30.927  30.184  1.00  0.00     0.074 A 
ATOM     39  C   UNL A   1      41.157  31.746  30.262  1.00  0.00     0.031 C 
ATOM     40  C   UNL A   1      40.143  25.334  27.939  1.00  0.00     0.029 A 
ATOM     41  C   UNL A   1      41.529  25.673  28.253  1.00  0.00     0.049 A 
ATOM     42  H   UNL A   1      42.206  27.450  29.114  1.00  0.00     0.167 HD
ATOM     43  C   UNL A   1      43.576  31.358  30.527  1.00  0.00     0.037 A 
ATOM     44  C   UNL A   1      42.609  24.878  28.050  1.00  0.00     0.037 A 
ATOM     45  C   UNL A   1      44.760  30.558  30.455  1.00  0.00     0.049 A 
ATOM     46  C   UNL A   1      43.988  25.408  28.405  1.00  0.00     0.074 A 
ATOM     47  C   UNL A   1      46.046  30.901  30.827  1.00  0.00     0.029 A 
ATOM     48  N   UNL A   1      44.809  29.261  29.969  1.00  0.00    -0.354 N 
ATOM     49  N   UNL A   1      44.319  26.564  28.932  1.00  0.00    -0.248 NA
ATOM     50  C   UNL A   1      45.142  24.533  28.133  1.00  0.00     0.031 C 
ATOM     51  C   UNL A   1      46.886  29.829  30.516  1.00  0.00     0.029 A 
ATOM     52  C   UNL A   1      46.113  28.800  30.003  1.00  0.00     0.049 A 
ATOM     53  H   UNL A   1      44.034  28.746  29.650  1.00  0.00     0.167 HD
ATOM     54  C   UNL A   1      45.705  26.537  29.081  1.00  0.00     0.074 A 
ATOM     55  C   UNL A   1      46.154  25.246  28.608  1.00  0.00     0.031 C 
ATOM     56  C   UNL A   1      46.537  27.497  29.557  1.00  0.00     0.037 A 
BRANCH  43  57
ATOM     57  C   UNL A   1      43.687  32.773  31.000  1.00  0.00     0.058 A 
ATOM     58  C   UNL A   1      43.955  33.822  30.107  1.00  0.00     0.135 A 
ATOM     59  C   UNL A   1      43.525  33.081  32.358  1.00  0.00     0.135 A 
ATOM     60  F   UNL A   1      44.161  33.567  28.804  1.00  0.00    -0.206 F 
ATOM     61  C   UNL A   1      44.072  35.132  30.547  1.00  0.00     0.059 A 
ATOM     62  C   UNL A   1      43.608  34.390  32.817  1.00  0.00     0.059 A 
ATOM     63  F   UNL A   1      43.293  32.106  33.250  1.00  0.00    -0.206 F 
ATOM     64  C   UNL A   1      43.886  35.406  31.904  1.00  0.00     0.060 A 
BRANCH  64  65
ATOM     65  S   UNL A   1      43.993  37.121  32.449  1.00  0.00     0.124 S 
ATOM     66  O   UNL A   1      42.959  37.165  33.478  1.00  0.00    -0.237 OA
ATOM     67  O   UNL A   1      45.368  37.206  32.929  1.00  0.00    -0.237 OA
ATOM     68  O   UNL A   1      43.706  37.882  31.237  1.00  0.00    -0.744 OA
ENDBRANCH  64  65
ENDBRANCH  43  57
BRANCH  44  69
ATOM     69  C   UNL A   1      42.496  23.500  27.458  1.00  0.00     0.058 A 
ATOM     70  C   UNL A   1      42.280  22.372  28.271  1.00  0.00     0.135 A 
ATOM     71  C   UNL A   1      42.727  23.262  26.093  1.00  0.00     0.135 A 
ATOM     72  F   UNL A   1      42.080  22.526  29.590  1.00  0.00    -0.206 F 
ATOM     73  C   UNL A   1      42.341  21.070  27.769  1.00  0.00     0.059 A 
ATOM     74  C   UNL A   1      42.762  21.971  25.561  1.00  0.00     0.059 A 
ATOM     75  F   UNL A   1      42.947  24.290  25.259  1.00  0.00    -0.206 F 
ATOM     76  C   UNL A   1      42.591  20.879  26.410  1.00  0.00     0.060 A 
BRANCH  76  77
ATOM     77  S   UNL A   1      42.682  19.188  25.769  1.00  0.00     0.124 S 
ATOM     78  O   UNL A   1      41.272  18.862  25.589  1.00  0.00    -0.237 OA
ATOM     79  O   UNL A   1      43.457  19.363  24.545  1.00  0.00    -0.237 OA
ATOM     80  O   UNL A   1      43.365  18.461  26.836  1.00  0.00    -0.744 OA
ENDBRANCH  76  77
ENDBRANCH  44  69
BRANCH  56  81
ATOM     81  C   UNL A   1      48.009  27.197  29.634  1.00  0.00     0.058 A 
ATOM     82  C   UNL A   1      48.871  27.457  28.557  1.00  0.00     0.135 A 
ATOM     83  C   UNL A   1      48.582  26.762  30.841  1.00  0.00     0.135 A 
ATOM     84  F   UNL A   1      48.376  27.874  27.381  1.00  0.00    -0.206 F 
ATOM     85  C   UNL A   1      50.247  27.292  28.674  1.00  0.00     0.059 A 
ATOM     86  C   UNL A   1      49.958  26.619  30.989  1.00  0.00     0.059 A 
ATOM     87  F   UNL A   1      47.804  26.513  31.907  1.00  0.00    -0.206 F 
ATOM     88  C   UNL A   1      50.783  26.885  29.897  1.00  0.00     0.060 A 
BRANCH  88  89
ATOM     89  S   UNL A   1      52.576  26.750  30.054  1.00  0.00     0.124 S 
ATOM     90  O   UNL A   1      52.964  26.370  28.700  1.00  0.00    -0.237 OA
ATOM     91  O   UNL A   1      52.954  28.099  30.467  1.00  0.00    -0.237 OA
ATOM     92  O   UNL A   1      52.754  25.718  31.070  1.00  0.00    -0.744 OA
ENDBRANCH  88  89
ENDBRANCH  56  81
ENDBRANCH  30  31
ENDBRANCH  23  25
ENDBRANCH  22  23
ENDBRANCH   1  22
TORSDOF 15
ENDMDL
