MODEL 1
REMARK VINA RESULT:      -9.8      0.000      0.000
REMARK SMILES C[C@H]1C[C@H](C)CN(S(=O)(=O)N[C@@H](CCC(N)=O)C(=O)OCCOC(=O)c2ccc(-c3c4nc(c(-c5c(F)cc(S(=O)(=O)[O-])cc5F)c5ccc([nH]5)c(-c5c(F)cc(S(=O)(=O)[O-])cc5F)c5nc(c(-c6c(F)cc(S(=O)(=O)[O-])cc6F)c6ccc3[nH]6)C=C5)C=C4)cc2)C1
REMARK SMILES IDX 21 1 20 2 18 3 19 4 12 5 11 6 8 8 9 9 10 10 7 11 1 12 2 13
REMARK SMILES IDX 3 14 92 15 4 16 5 17 6 18 13 19 14 20 15 21 16 22 17 23
REMARK SMILES IDX 22 26 23 27 24 28 25 29 26 30 27 31 91 32 28 33 90 34 29 35
REMARK SMILES IDX 30 36 31 37 84 38 32 39 89 40 83 41 85 42 33 43 88 44 82 45
REMARK SMILES IDX 81 46 34 48 68 49 47 50 67 51 48 52 51 53 66 54 86 55 49 56
REMARK SMILES IDX 50 57 65 59 87 60 52 61 35 62 36 63 45 64 37 65 38 66 44 67
REMARK SMILES IDX 46 68 39 69 40 70 41 71 42 72 43 73 69 74 70 75 79 76 71 77
REMARK SMILES IDX 72 78 78 79 80 80 73 81 74 82 75 83 76 84 77 85 53 86 54 87
REMARK SMILES IDX 63 88 55 89 56 90 62 91 64 92 57 93 58 94 59 95 60 96 61 97
REMARK H PARENT 11 7 16 24 16 25 85 47 51 58
REMARK Flexibility Score: inf
ROOT
ATOM      1  C   UNL A   1      40.075  21.287  26.293  1.00  0.00     0.274 C 
ENDROOT
BRANCH   1   2
ATOM      2  O   UNL A   1      41.394  21.203  25.711  1.00  0.00    -0.461 OA
BRANCH   2   3
ATOM      3  C   UNL A   1      42.435  21.336  26.575  1.00  0.00     0.324 C 
ATOM      4  O   UNL A   1      42.481  20.831  27.694  1.00  0.00    -0.250 OA
BRANCH   3   5
ATOM      5  C   UNL A   1      43.535  22.262  26.061  1.00  0.00     0.181 C 
BRANCH   5   6
ATOM      6  N   UNL A   1      44.482  22.728  27.097  1.00  0.00    -0.188 NA
ATOM      7  H   UNL A   1      43.916  22.890  27.930  1.00  0.00     0.143 HD
BRANCH   6   8
ATOM      8  S   UNL A   1      45.461  24.063  26.960  1.00  0.00     0.280 S 
ATOM      9  O   UNL A   1      44.944  24.908  25.909  1.00  0.00    -0.195 OA
ATOM     10  O   UNL A   1      46.815  23.569  26.887  1.00  0.00    -0.195 OA
BRANCH   8  11
ATOM     11  N   UNL A   1      45.314  24.922  28.432  1.00  0.00    -0.188 NA
ATOM     12  C   UNL A   1      44.102  23.694  31.921  1.00  0.00     0.009 C 
ATOM     13  C   UNL A   1      44.546  24.701  30.858  1.00  0.00     0.001 C 
ATOM     14  C   UNL A   1      45.843  25.382  31.301  1.00  0.00     0.009 C 
ATOM     15  C   UNL A   1      44.714  24.024  29.490  1.00  0.00     0.106 C 
ATOM     16  C   UNL A   1      46.324  26.356  30.233  1.00  0.00     0.001 C 
ATOM     17  C   UNL A   1      45.383  27.560  30.108  1.00  0.00     0.009 C 
ATOM     18  C   UNL A   1      46.529  25.614  28.910  1.00  0.00     0.106 C 
ENDBRANCH   8  11
ENDBRANCH   6   8
ENDBRANCH   5   6
BRANCH   5  19
ATOM     19  C   UNL A   1      44.131  21.659  24.783  1.00  0.00     0.042 C 
BRANCH  19  20
ATOM     20  C   UNL A   1      45.162  20.545  24.961  1.00  0.00     0.102 C 
BRANCH  20  21
ATOM     21  C   UNL A   1      44.766  19.223  24.344  1.00  0.00     0.217 C 
ATOM     22  N   UNL A   1      44.840  19.148  22.986  1.00  0.00    -0.370 N 
ATOM     23  O   UNL A   1      44.418  18.250  25.003  1.00  0.00    -0.275 OA
ATOM     24  H   UNL A   1      45.120  19.935  22.465  1.00  0.00     0.159 HD
ATOM     25  H   UNL A   1      44.613  18.308  22.526  1.00  0.00     0.159 HD
ENDBRANCH  20  21
ENDBRANCH  19  20
ENDBRANCH   5  19
ENDBRANCH   3   5
ENDBRANCH   2   3
ENDBRANCH   1   2
BRANCH   1  26
ATOM     26  C   UNL A   1      39.441  22.660  26.072  1.00  0.00     0.275 C 
BRANCH  26  27
ATOM     27  O   UNL A   1      39.677  23.531  27.190  1.00  0.00    -0.458 OA
BRANCH  27  28
ATOM     28  C   UNL A   1      40.351  24.661  26.875  1.00  0.00     0.338 C 
ATOM     29  O   UNL A   1      40.694  25.036  25.767  1.00  0.00    -0.246 OA
BRANCH  28  30
ATOM     30  C   UNL A   1      40.507  25.486  28.074  1.00  0.00     0.060 A 
ATOM     31  C   UNL A   1      39.382  25.700  28.865  1.00  0.00     0.016 A 
ATOM     32  C   UNL A   1      41.698  26.159  28.336  1.00  0.00     0.016 A 
ATOM     33  C   UNL A   1      39.419  26.649  29.877  1.00  0.00     0.010 A 
ATOM     34  C   UNL A   1      41.740  27.091  29.380  1.00  0.00     0.010 A 
ATOM     35  C   UNL A   1      40.585  27.384  30.128  1.00  0.00    -0.014 A 
BRANCH  35  36
ATOM     36  C   UNL A   1      40.563  28.509  31.104  1.00  0.00     0.031 A 
ATOM     37  C   UNL A   1      41.523  28.519  32.269  1.00  0.00     0.074 A 
ATOM     38  C   UNL A   1      39.714  29.542  30.933  1.00  0.00     0.049 A 
ATOM     39  N   UNL A   1      41.544  29.299  33.319  1.00  0.00    -0.248 NA
ATOM     40  C   UNL A   1      42.594  27.508  32.257  1.00  0.00     0.031 C 
ATOM     41  C   UNL A   1      38.785  29.697  29.812  1.00  0.00     0.029 A 
ATOM     42  N   UNL A   1      39.492  30.657  31.701  1.00  0.00    -0.354 N 
ATOM     43  C   UNL A   1      42.587  28.840  34.119  1.00  0.00     0.074 A 
ATOM     44  C   UNL A   1      43.172  27.708  33.434  1.00  0.00     0.031 C 
ATOM     45  C   UNL A   1      38.110  30.847  29.953  1.00  0.00     0.029 A 
ATOM     46  C   UNL A   1      38.486  31.462  31.222  1.00  0.00     0.049 A 
ATOM     47  H   UNL A   1      40.004  30.861  32.518  1.00  0.00     0.167 HD
ATOM     48  C   UNL A   1      43.010  29.318  35.314  1.00  0.00     0.037 A 
ATOM     49  C   UNL A   1      37.887  32.540  31.764  1.00  0.00     0.037 A 
ATOM     50  C   UNL A   1      42.449  30.479  35.961  1.00  0.00     0.049 A 
ATOM     51  C   UNL A   1      38.336  33.022  33.114  1.00  0.00     0.074 A 
ATOM     52  C   UNL A   1      42.815  31.056  37.164  1.00  0.00     0.029 A 
ATOM     53  N   UNL A   1      41.409  31.244  35.452  1.00  0.00    -0.354 N 
ATOM     54  N   UNL A   1      39.285  32.544  33.885  1.00  0.00    -0.248 NA
ATOM     55  C   UNL A   1      37.626  34.178  33.676  1.00  0.00     0.031 C 
ATOM     56  C   UNL A   1      41.965  32.140  37.407  1.00  0.00     0.029 A 
ATOM     57  C   UNL A   1      41.109  32.277  36.327  1.00  0.00     0.049 A 
ATOM     58  H   UNL A   1      40.951  31.078  34.597  1.00  0.00     0.167 HD
ATOM     59  C   UNL A   1      39.302  33.357  35.012  1.00  0.00     0.074 A 
ATOM     60  C   UNL A   1      38.278  34.364  34.815  1.00  0.00     0.031 C 
ATOM     61  C   UNL A   1      40.091  33.277  36.112  1.00  0.00     0.037 A 
BRANCH  48  62
ATOM     62  C   UNL A   1      44.109  28.571  36.028  1.00  0.00     0.058 A 
ATOM     63  C   UNL A   1      43.851  27.478  36.870  1.00  0.00     0.135 A 
ATOM     64  C   UNL A   1      45.452  28.931  35.825  1.00  0.00     0.135 A 
ATOM     65  F   UNL A   1      42.588  27.095  37.113  1.00  0.00    -0.206 F 
ATOM     66  C   UNL A   1      44.881  26.788  37.506  1.00  0.00     0.059 A 
ATOM     67  C   UNL A   1      46.500  28.237  36.425  1.00  0.00     0.059 A 
ATOM     68  F   UNL A   1      45.761  29.966  35.027  1.00  0.00    -0.206 F 
ATOM     69  C   UNL A   1      46.203  27.175  37.276  1.00  0.00     0.060 A 
BRANCH  69  70
ATOM     70  S   UNL A   1      47.528  26.265  38.100  1.00  0.00     0.124 S 
ATOM     71  O   UNL A   1      48.562  27.289  38.206  1.00  0.00    -0.237 OA
ATOM     72  O   UNL A   1      46.899  25.867  39.355  1.00  0.00    -0.237 OA
ATOM     73  O   UNL A   1      47.818  25.173  37.174  1.00  0.00    -0.744 OA
ENDBRANCH  69  70
ENDBRANCH  48  62
BRANCH  49  74
ATOM     74  C   UNL A   1      36.767  33.203  31.042  1.00  0.00     0.058 A 
ATOM     75  C   UNL A   1      37.001  33.977  29.897  1.00  0.00     0.135 A 
ATOM     76  C   UNL A   1      35.438  33.054  31.469  1.00  0.00     0.135 A 
ATOM     77  F   UNL A   1      38.254  34.158  29.454  1.00  0.00    -0.206 F 
ATOM     78  C   UNL A   1      35.959  34.583  29.203  1.00  0.00     0.059 A 
ATOM     79  C   UNL A   1      34.376  33.623  30.774  1.00  0.00     0.059 A 
ATOM     80  F   UNL A   1      35.157  32.313  32.553  1.00  0.00    -0.206 F 
ATOM     81  C   UNL A   1      34.649  34.394  29.646  1.00  0.00     0.060 A 
BRANCH  81  82
ATOM     82  S   UNL A   1      33.299  35.132  28.701  1.00  0.00     0.124 S 
ATOM     83  O   UNL A   1      33.991  36.197  27.984  1.00  0.00    -0.237 OA
ATOM     84  O   UNL A   1      32.843  34.006  27.891  1.00  0.00    -0.237 OA
ATOM     85  O   UNL A   1      32.364  35.569  29.734  1.00  0.00    -0.744 OA
ENDBRANCH  81  82
ENDBRANCH  49  74
BRANCH  61  86
ATOM     86  C   UNL A   1      39.914  34.334  37.167  1.00  0.00     0.058 A 
ATOM     87  C   UNL A   1      39.157  34.106  38.327  1.00  0.00     0.135 A 
ATOM     88  C   UNL A   1      40.545  35.582  37.030  1.00  0.00     0.135 A 
ATOM     89  F   UNL A   1      38.527  32.934  38.502  1.00  0.00    -0.206 F 
ATOM     90  C   UNL A   1      39.010  35.087  39.301  1.00  0.00     0.059 A 
ATOM     91  C   UNL A   1      40.435  36.567  38.006  1.00  0.00     0.059 A 
ATOM     92  F   UNL A   1      41.287  35.849  35.944  1.00  0.00    -0.206 F 
ATOM     93  C   UNL A   1      39.654  36.314  39.133  1.00  0.00     0.060 A 
BRANCH  93  94
ATOM     94  S   UNL A   1      39.474  37.570  40.418  1.00  0.00     0.124 S 
ATOM     95  O   UNL A   1      38.730  38.607  39.712  1.00  0.00    -0.237 OA
ATOM     96  O   UNL A   1      38.737  36.852  41.453  1.00  0.00    -0.237 OA
ATOM     97  O   UNL A   1      40.853  37.908  40.758  1.00  0.00    -0.744 OA
ENDBRANCH  93  94
ENDBRANCH  61  86
ENDBRANCH  35  36
ENDBRANCH  28  30
ENDBRANCH  27  28
ENDBRANCH  26  27
ENDBRANCH   1  26
TORSDOF 20
ENDMDL
MODEL 2
REMARK VINA RESULT:      -9.4      3.860     10.072
REMARK SMILES C[C@H]1C[C@H](C)CN(S(=O)(=O)N[C@@H](CCC(N)=O)C(=O)OCCOC(=O)c2ccc(-c3c4nc(c(-c5c(F)cc(S(=O)(=O)[O-])cc5F)c5ccc([nH]5)c(-c5c(F)cc(S(=O)(=O)[O-])cc5F)c5nc(c(-c6c(F)cc(S(=O)(=O)[O-])cc6F)c6ccc3[nH]6)C=C5)C=C4)cc2)C1
REMARK SMILES IDX 21 1 20 2 18 3 19 4 12 5 11 6 8 8 9 9 10 10 7 11 1 12 2 13
REMARK SMILES IDX 3 14 92 15 4 16 5 17 6 18 13 19 14 20 15 21 16 22 17 23
REMARK SMILES IDX 22 26 23 27 24 28 25 29 26 30 27 31 91 32 28 33 90 34 29 35
REMARK SMILES IDX 30 36 31 37 84 38 32 39 89 40 83 41 85 42 33 43 88 44 82 45
REMARK SMILES IDX 81 46 34 48 68 49 47 50 67 51 48 52 51 53 66 54 86 55 49 56
REMARK SMILES IDX 50 57 65 59 87 60 52 61 35 62 36 63 45 64 37 65 38 66 44 67
REMARK SMILES IDX 46 68 39 69 40 70 41 71 42 72 43 73 69 74 70 75 79 76 71 77
REMARK SMILES IDX 72 78 78 79 80 80 73 81 74 82 75 83 76 84 77 85 53 86 54 87
REMARK SMILES IDX 63 88 55 89 56 90 62 91 64 92 57 93 58 94 59 95 60 96 61 97
REMARK H PARENT 11 7 16 24 16 25 85 47 51 58
REMARK Flexibility Score: inf
ROOT
ATOM      1  C   UNL A   1      38.395  22.568  25.768  1.00  0.00     0.274 C 
ENDROOT
BRANCH   1   2
ATOM      2  O   UNL A   1      37.416  23.547  25.357  1.00  0.00    -0.461 OA
BRANCH   2   3
ATOM      3  C   UNL A   1      36.535  23.143  24.403  1.00  0.00     0.324 C 
ATOM      4  O   UNL A   1      36.829  22.924  23.230  1.00  0.00    -0.250 OA
BRANCH   3   5
ATOM      5  C   UNL A   1      35.095  23.064  24.904  1.00  0.00     0.181 C 
BRANCH   5   6
ATOM      6  N   UNL A   1      34.329  24.323  24.773  1.00  0.00    -0.188 NA
ATOM      7  H   UNL A   1      33.843  24.441  25.662  1.00  0.00     0.143 HD
BRANCH   6   8
ATOM      8  S   UNL A   1      33.189  24.625  23.602  1.00  0.00     0.280 S 
ATOM      9  O   UNL A   1      31.995  23.875  23.916  1.00  0.00    -0.195 OA
ATOM     10  O   UNL A   1      33.848  24.432  22.333  1.00  0.00    -0.195 OA
BRANCH   8  11
ATOM     11  N   UNL A   1      32.802  26.287  23.724  1.00  0.00    -0.188 NA
ATOM     12  C   UNL A   1      33.682  28.850  26.517  1.00  0.00     0.009 C 
ATOM     13  C   UNL A   1      33.005  28.325  25.250  1.00  0.00     0.001 C 
ATOM     14  C   UNL A   1      33.458  29.149  24.042  1.00  0.00     0.009 C 
ATOM     15  C   UNL A   1      33.297  26.832  25.044  1.00  0.00     0.106 C 
ATOM     16  C   UNL A   1      32.828  28.611  22.764  1.00  0.00     0.001 C 
ATOM     17  C   UNL A   1      31.315  28.854  22.740  1.00  0.00     0.009 C 
ATOM     18  C   UNL A   1      33.202  27.137  22.583  1.00  0.00     0.106 C 
ENDBRANCH   8  11
ENDBRANCH   6   8
ENDBRANCH   5   6
BRANCH   5  19
ATOM     19  C   UNL A   1      34.449  21.787  24.354  1.00  0.00     0.042 C 
BRANCH  19  20
ATOM     20  C   UNL A   1      34.383  20.586  25.297  1.00  0.00     0.102 C 
BRANCH  20  21
ATOM     21  C   UNL A   1      32.991  20.039  25.515  1.00  0.00     0.217 C 
ATOM     22  N   UNL A   1      32.910  18.855  26.182  1.00  0.00    -0.370 N 
ATOM     23  O   UNL A   1      31.975  20.617  25.146  1.00  0.00    -0.275 OA
ATOM     24  H   UNL A   1      33.732  18.397  26.475  1.00  0.00     0.159 HD
ATOM     25  H   UNL A   1      32.030  18.456  26.373  1.00  0.00     0.159 HD
ENDBRANCH  20  21
ENDBRANCH  19  20
ENDBRANCH   5  19
ENDBRANCH   3   5
ENDBRANCH   2   3
ENDBRANCH   1   2
BRANCH   1  26
ATOM     26  C   UNL A   1      39.359  23.130  26.812  1.00  0.00     0.275 C 
BRANCH  26  27
ATOM     27  O   UNL A   1      39.990  24.334  26.346  1.00  0.00    -0.458 OA
BRANCH  27  28
ATOM     28  C   UNL A   1      41.086  24.692  27.055  1.00  0.00     0.338 C 
ATOM     29  O   UNL A   1      42.223  24.273  26.925  1.00  0.00    -0.246 OA
BRANCH  28  30
ATOM     30  C   UNL A   1      40.745  25.797  27.953  1.00  0.00     0.060 A 
ATOM     31  C   UNL A   1      41.704  26.785  28.157  1.00  0.00     0.016 A 
ATOM     32  C   UNL A   1      39.567  25.786  28.695  1.00  0.00     0.016 A 
ATOM     33  C   UNL A   1      41.525  27.725  29.163  1.00  0.00     0.010 A 
ATOM     34  C   UNL A   1      39.376  26.756  29.686  1.00  0.00     0.010 A 
ATOM     35  C   UNL A   1      40.376  27.705  29.966  1.00  0.00    -0.014 A 
BRANCH  35  36
ATOM     36  C   UNL A   1      40.271  28.613  31.141  1.00  0.00     0.031 A 
ATOM     37  C   UNL A   1      39.241  29.717  31.155  1.00  0.00     0.074 A 
ATOM     38  C   UNL A   1      41.068  28.433  32.214  1.00  0.00     0.049 A 
ATOM     39  N   UNL A   1      39.109  30.716  31.990  1.00  0.00    -0.248 NA
ATOM     40  C   UNL A   1      38.234  29.700  30.082  1.00  0.00     0.031 C 
ATOM     41  C   UNL A   1      42.056  27.362  32.364  1.00  0.00     0.029 A 
ATOM     42  N   UNL A   1      41.177  29.147  33.381  1.00  0.00    -0.354 N 
ATOM     43  C   UNL A   1      38.047  31.478  31.511  1.00  0.00     0.074 A 
ATOM     44  C   UNL A   1      37.572  30.827  30.310  1.00  0.00     0.031 C 
ATOM     45  C   UNL A   1      42.653  27.476  33.559  1.00  0.00     0.029 A 
ATOM     46  C   UNL A   1      42.163  28.682  34.218  1.00  0.00     0.049 A 
ATOM     47  H   UNL A   1      40.604  29.918  33.597  1.00  0.00     0.167 HD
ATOM     48  C   UNL A   1      37.522  32.616  32.027  1.00  0.00     0.037 A 
ATOM     49  C   UNL A   1      42.663  29.195  35.359  1.00  0.00     0.037 A 
ATOM     50  C   UNL A   1      37.973  33.226  33.254  1.00  0.00     0.049 A 
ATOM     51  C   UNL A   1      42.102  30.485  35.886  1.00  0.00     0.074 A 
ATOM     52  C   UNL A   1      37.499  34.370  33.873  1.00  0.00     0.029 A 
ATOM     53  N   UNL A   1      38.997  32.737  34.053  1.00  0.00    -0.354 N 
ATOM     54  N   UNL A   1      41.136  31.225  35.393  1.00  0.00    -0.248 NA
ATOM     55  C   UNL A   1      42.707  31.020  37.112  1.00  0.00     0.031 C 
ATOM     56  C   UNL A   1      38.268  34.599  35.018  1.00  0.00     0.029 A 
ATOM     57  C   UNL A   1      39.181  33.566  35.149  1.00  0.00     0.049 A 
ATOM     58  H   UNL A   1      39.516  31.921  33.869  1.00  0.00     0.167 HD
ATOM     59  C   UNL A   1      41.001  32.300  36.264  1.00  0.00     0.074 A 
ATOM     60  C   UNL A   1      41.975  32.106  37.319  1.00  0.00     0.031 C 
ATOM     61  C   UNL A   1      40.150  33.353  36.196  1.00  0.00     0.037 A 
BRANCH  48  62
ATOM     62  C   UNL A   1      36.426  33.306  31.254  1.00  0.00     0.058 A 
ATOM     63  C   UNL A   1      35.093  33.326  31.694  1.00  0.00     0.135 A 
ATOM     64  C   UNL A   1      36.729  34.001  30.071  1.00  0.00     0.135 A 
ATOM     65  F   UNL A   1      34.739  32.668  32.810  1.00  0.00    -0.206 F 
ATOM     66  C   UNL A   1      34.098  33.985  30.976  1.00  0.00     0.059 A 
ATOM     67  C   UNL A   1      35.757  34.693  29.353  1.00  0.00     0.059 A 
ATOM     68  F   UNL A   1      37.987  34.021  29.602  1.00  0.00    -0.206 F 
ATOM     69  C   UNL A   1      34.440  34.667  29.807  1.00  0.00     0.060 A 
BRANCH  69  70
ATOM     70  S   UNL A   1      33.140  35.524  28.892  1.00  0.00     0.124 S 
ATOM     71  O   UNL A   1      32.514  34.420  28.171  1.00  0.00    -0.237 OA
ATOM     72  O   UNL A   1      32.343  36.115  29.962  1.00  0.00    -0.237 OA
ATOM     73  O   UNL A   1      33.876  36.476  28.064  1.00  0.00    -0.744 OA
ENDBRANCH  69  70
ENDBRANCH  48  62
BRANCH  49  74
ATOM     74  C   UNL A   1      43.785  28.504  36.049  1.00  0.00     0.058 A 
ATOM     75  C   UNL A   1      45.114  28.910  35.857  1.00  0.00     0.135 A 
ATOM     76  C   UNL A   1      43.550  27.439  36.934  1.00  0.00     0.135 A 
ATOM     77  F   UNL A   1      45.393  29.916  35.014  1.00  0.00    -0.206 F 
ATOM     78  C   UNL A   1      46.168  28.284  36.514  1.00  0.00     0.059 A 
ATOM     79  C   UNL A   1      44.584  26.819  37.627  1.00  0.00     0.059 A 
ATOM     80  F   UNL A   1      42.295  27.019  37.164  1.00  0.00    -0.206 F 
ATOM     81  C   UNL A   1      45.891  27.243  37.402  1.00  0.00     0.060 A 
BRANCH  81  82
ATOM     82  S   UNL A   1      47.261  26.481  38.298  1.00  0.00     0.124 S 
ATOM     83  O   UNL A   1      47.242  25.124  37.762  1.00  0.00    -0.237 OA
ATOM     84  O   UNL A   1      48.391  27.312  37.893  1.00  0.00    -0.237 OA
ATOM     85  O   UNL A   1      46.865  26.614  39.697  1.00  0.00    -0.744 OA
ENDBRANCH  81  82
ENDBRANCH  49  74
BRANCH  61  86
ATOM     86  C   UNL A   1      40.199  34.354  37.318  1.00  0.00     0.058 A 
ATOM     87  C   UNL A   1      39.383  34.235  38.454  1.00  0.00     0.135 A 
ATOM     88  C   UNL A   1      41.105  35.427  37.270  1.00  0.00     0.135 A 
ATOM     89  F   UNL A   1      38.494  33.234  38.546  1.00  0.00    -0.206 F 
ATOM     90  C   UNL A   1      39.445  35.161  39.491  1.00  0.00     0.059 A 
ATOM     91  C   UNL A   1      41.205  36.346  38.309  1.00  0.00     0.059 A 
ATOM     92  F   UNL A   1      41.914  35.581  36.210  1.00  0.00    -0.206 F 
ATOM     93  C   UNL A   1      40.360  36.212  39.410  1.00  0.00     0.060 A 
BRANCH  93  94
ATOM     94  S   UNL A   1      40.447  37.390  40.774  1.00  0.00     0.124 S 
ATOM     95  O   UNL A   1      41.790  37.145  41.289  1.00  0.00    -0.237 OA
ATOM     96  O   UNL A   1      40.252  38.667  40.095  1.00  0.00    -0.237 OA
ATOM     97  O   UNL A   1      39.354  36.979  41.650  1.00  0.00    -0.744 OA
ENDBRANCH  93  94
ENDBRANCH  61  86
ENDBRANCH  35  36
ENDBRANCH  28  30
ENDBRANCH  27  28
ENDBRANCH  26  27
ENDBRANCH   1  26
TORSDOF 20
ENDMDL
MODEL 3
REMARK VINA RESULT:      -9.4      5.797     11.992
REMARK SMILES C[C@H]1C[C@H](C)CN(S(=O)(=O)N[C@@H](CCC(N)=O)C(=O)OCCOC(=O)c2ccc(-c3c4nc(c(-c5c(F)cc(S(=O)(=O)[O-])cc5F)c5ccc([nH]5)c(-c5c(F)cc(S(=O)(=O)[O-])cc5F)c5nc(c(-c6c(F)cc(S(=O)(=O)[O-])cc6F)c6ccc3[nH]6)C=C5)C=C4)cc2)C1
REMARK SMILES IDX 21 1 20 2 18 3 19 4 12 5 11 6 8 8 9 9 10 10 7 11 1 12 2 13
REMARK SMILES IDX 3 14 92 15 4 16 5 17 6 18 13 19 14 20 15 21 16 22 17 23
REMARK SMILES IDX 22 26 23 27 24 28 25 29 26 30 27 31 91 32 28 33 90 34 29 35
REMARK SMILES IDX 30 36 31 37 84 38 32 39 89 40 83 41 85 42 33 43 88 44 82 45
REMARK SMILES IDX 81 46 34 48 68 49 47 50 67 51 48 52 51 53 66 54 86 55 49 56
REMARK SMILES IDX 50 57 65 59 87 60 52 61 35 62 36 63 45 64 37 65 38 66 44 67
REMARK SMILES IDX 46 68 39 69 40 70 41 71 42 72 43 73 69 74 70 75 79 76 71 77
REMARK SMILES IDX 72 78 78 79 80 80 73 81 74 82 75 83 76 84 77 85 53 86 54 87
REMARK SMILES IDX 63 88 55 89 56 90 62 91 64 92 57 93 58 94 59 95 60 96 61 97
REMARK H PARENT 11 7 16 24 16 25 85 47 51 58
REMARK Flexibility Score: inf
ROOT
ATOM      1  C   UNL A   1      32.733  26.702  26.425  1.00  0.00     0.274 C 
ENDROOT
BRANCH   1   2
ATOM      2  O   UNL A   1      33.633  26.041  25.510  1.00  0.00    -0.461 OA
BRANCH   2   3
ATOM      3  C   UNL A   1      33.058  25.175  24.632  1.00  0.00     0.324 C 
ATOM      4  O   UNL A   1      32.030  25.404  24.000  1.00  0.00    -0.250 OA
BRANCH   3   5
ATOM      5  C   UNL A   1      33.769  23.826  24.559  1.00  0.00     0.181 C 
BRANCH   5   6
ATOM      6  N   UNL A   1      32.869  22.667  24.365  1.00  0.00    -0.188 NA
ATOM      7  H   UNL A   1      32.073  23.026  23.837  1.00  0.00     0.143 HD
BRANCH   6   8
ATOM      8  S   UNL A   1      32.216  21.756  25.590  1.00  0.00     0.280 S 
ATOM      9  O   UNL A   1      30.809  22.067  25.698  1.00  0.00    -0.195 OA
ATOM     10  O   UNL A   1      33.082  21.929  26.732  1.00  0.00    -0.195 OA
BRANCH   8  11
ATOM     11  N   UNL A   1      32.348  20.123  25.099  1.00  0.00    -0.188 NA
ATOM     12  C   UNL A   1      32.244  18.582  21.526  1.00  0.00     0.009 C 
ATOM     13  C   UNL A   1      32.267  18.592  23.056  1.00  0.00     0.001 C 
ATOM     14  C   UNL A   1      33.538  17.902  23.558  1.00  0.00     0.009 C 
ATOM     15  C   UNL A   1      32.160  20.022  23.602  1.00  0.00     0.106 C 
ATOM     16  C   UNL A   1      33.600  17.943  25.079  1.00  0.00     0.001 C 
ATOM     17  C   UNL A   1      32.515  17.061  25.708  1.00  0.00     0.009 C 
ATOM     18  C   UNL A   1      33.548  19.395  25.561  1.00  0.00     0.106 C 
ENDBRANCH   8  11
ENDBRANCH   6   8
ENDBRANCH   5   6
BRANCH   5  19
ATOM     19  C   UNL A   1      34.970  23.950  23.615  1.00  0.00     0.042 C 
BRANCH  19  20
ATOM     20  C   UNL A   1      36.147  23.009  23.867  1.00  0.00     0.102 C 
BRANCH  20  21
ATOM     21  C   UNL A   1      36.458  22.776  25.329  1.00  0.00     0.217 C 
ATOM     22  N   UNL A   1      36.966  23.841  26.010  1.00  0.00    -0.370 N 
ATOM     23  O   UNL A   1      36.253  21.712  25.900  1.00  0.00    -0.275 OA
ATOM     24  H   UNL A   1      37.127  24.693  25.543  1.00  0.00     0.159 HD
ATOM     25  H   UNL A   1      37.171  23.759  26.969  1.00  0.00     0.159 HD
ENDBRANCH  20  21
ENDBRANCH  19  20
ENDBRANCH   5  19
ENDBRANCH   3   5
ENDBRANCH   2   3
ENDBRANCH   1   2
BRANCH   1  26
ATOM     26  C   UNL A   1      33.079  28.182  26.595  1.00  0.00     0.275 C 
BRANCH  26  27
ATOM     27  O   UNL A   1      34.085  28.371  27.603  1.00  0.00    -0.458 OA
BRANCH  27  28
ATOM     28  C   UNL A   1      34.465  29.659  27.767  1.00  0.00     0.338 C 
ATOM     29  O   UNL A   1      33.761  30.653  27.709  1.00  0.00    -0.246 OA
BRANCH  28  30
ATOM     30  C   UNL A   1      35.870  29.705  28.176  1.00  0.00     0.060 A 
ATOM     31  C   UNL A   1      36.816  30.034  27.209  1.00  0.00     0.016 A 
ATOM     32  C   UNL A   1      36.265  29.288  29.444  1.00  0.00     0.016 A 
ATOM     33  C   UNL A   1      38.168  29.872  27.481  1.00  0.00     0.010 A 
ATOM     34  C   UNL A   1      37.631  29.158  29.724  1.00  0.00     0.010 A 
ATOM     35  C   UNL A   1      38.595  29.399  28.729  1.00  0.00    -0.014 A 
BRANCH  35  36
ATOM     36  C   UNL A   1      40.032  29.076  28.952  1.00  0.00     0.031 A 
ATOM     37  C   UNL A   1      40.964  30.123  29.512  1.00  0.00     0.074 A 
ATOM     38  C   UNL A   1      40.500  27.839  28.691  1.00  0.00     0.049 A 
ATOM     39  N   UNL A   1      42.269  30.104  29.608  1.00  0.00    -0.248 NA
ATOM     40  C   UNL A   1      40.347  31.360  30.020  1.00  0.00     0.031 C 
ATOM     41  C   UNL A   1      39.694  26.712  28.217  1.00  0.00     0.029 A 
ATOM     42  N   UNL A   1      41.767  27.321  28.786  1.00  0.00    -0.354 N 
ATOM     43  C   UNL A   1      42.634  31.342  30.129  1.00  0.00     0.074 A 
ATOM     44  C   UNL A   1      41.412  32.091  30.325  1.00  0.00     0.031 C 
ATOM     45  C   UNL A   1      40.479  25.633  28.083  1.00  0.00     0.029 A 
ATOM     46  C   UNL A   1      41.859  26.015  28.366  1.00  0.00     0.049 A 
ATOM     47  H   UNL A   1      42.537  27.835  29.122  1.00  0.00     0.167 HD
ATOM     48  C   UNL A   1      43.874  31.809  30.413  1.00  0.00     0.037 A 
ATOM     49  C   UNL A   1      42.933  25.226  28.170  1.00  0.00     0.037 A 
ATOM     50  C   UNL A   1      45.080  31.031  30.261  1.00  0.00     0.049 A 
ATOM     51  C   UNL A   1      44.303  25.781  28.441  1.00  0.00     0.074 A 
ATOM     52  C   UNL A   1      46.385  31.403  30.535  1.00  0.00     0.029 A 
ATOM     53  N   UNL A   1      45.127  29.723  29.801  1.00  0.00    -0.354 N 
ATOM     54  N   UNL A   1      44.638  26.972  28.879  1.00  0.00    -0.248 NA
ATOM     55  C   UNL A   1      45.442  24.892  28.177  1.00  0.00     0.031 C 
ATOM     56  C   UNL A   1      47.225  30.337  30.195  1.00  0.00     0.029 A 
ATOM     57  C   UNL A   1      46.440  29.279  29.767  1.00  0.00     0.049 A 
ATOM     58  H   UNL A   1      44.344  29.188  29.538  1.00  0.00     0.167 HD
ATOM     59  C   UNL A   1      46.025  26.967  28.967  1.00  0.00     0.074 A 
ATOM     60  C   UNL A   1      46.464  25.650  28.549  1.00  0.00     0.031 C 
ATOM     61  C   UNL A   1      46.860  27.961  29.356  1.00  0.00     0.037 A 
BRANCH  48  62
ATOM     62  C   UNL A   1      44.006  33.236  30.882  1.00  0.00     0.058 A 
ATOM     63  C   UNL A   1      43.941  33.591  32.238  1.00  0.00     0.135 A 
ATOM     64  C   UNL A   1      44.250  34.262  29.953  1.00  0.00     0.135 A 
ATOM     65  F   UNL A   1      43.697  32.657  33.171  1.00  0.00    -0.206 F 
ATOM     66  C   UNL A   1      44.083  34.914  32.653  1.00  0.00     0.059 A 
ATOM     67  C   UNL A   1      44.427  35.586  30.347  1.00  0.00     0.059 A 
ATOM     68  F   UNL A   1      44.326  33.983  28.642  1.00  0.00    -0.206 F 
ATOM     69  C   UNL A   1      44.328  35.904  31.700  1.00  0.00     0.060 A 
BRANCH  69  70
ATOM     70  S   UNL A   1      44.520  37.612  32.255  1.00  0.00     0.124 S 
ATOM     71  O   UNL A   1      45.794  37.975  31.642  1.00  0.00    -0.237 OA
ATOM     72  O   UNL A   1      43.339  38.258  31.693  1.00  0.00    -0.237 OA
ATOM     73  O   UNL A   1      44.536  37.497  33.711  1.00  0.00    -0.744 OA
ENDBRANCH  69  70
ENDBRANCH  48  62
BRANCH  49  74
ATOM     74  C   UNL A   1      42.749  23.845  27.649  1.00  0.00     0.058 A 
ATOM     75  C   UNL A   1      42.583  22.759  28.520  1.00  0.00     0.135 A 
ATOM     76  C   UNL A   1      42.711  23.588  26.269  1.00  0.00     0.135 A 
ATOM     77  F   UNL A   1      42.621  22.951  29.847  1.00  0.00    -0.206 F 
ATOM     78  C   UNL A   1      42.389  21.467  28.043  1.00  0.00     0.059 A 
ATOM     79  C   UNL A   1      42.487  22.310  25.768  1.00  0.00     0.059 A 
ATOM     80  F   UNL A   1      42.853  24.594  25.392  1.00  0.00    -0.206 F 
ATOM     81  C   UNL A   1      42.336  21.254  26.664  1.00  0.00     0.060 A 
BRANCH  81  82
ATOM     82  S   UNL A   1      42.020  19.584  26.056  1.00  0.00     0.124 S 
ATOM     83  O   UNL A   1      42.412  18.775  27.204  1.00  0.00    -0.237 OA
ATOM     84  O   UNL A   1      40.590  19.630  25.765  1.00  0.00    -0.237 OA
ATOM     85  O   UNL A   1      42.886  19.482  24.885  1.00  0.00    -0.744 OA
ENDBRANCH  81  82
ENDBRANCH  49  74
BRANCH  61  86
ATOM     86  C   UNL A   1      48.331  27.651  29.396  1.00  0.00     0.058 A 
ATOM     87  C   UNL A   1      48.923  26.999  30.490  1.00  0.00     0.135 A 
ATOM     88  C   UNL A   1      49.153  27.979  28.305  1.00  0.00     0.135 A 
ATOM     89  F   UNL A   1      48.185  26.673  31.562  1.00  0.00    -0.206 F 
ATOM     90  C   UNL A   1      50.283  26.708  30.511  1.00  0.00     0.059 A 
ATOM     91  C   UNL A   1      50.509  27.669  28.292  1.00  0.00     0.059 A 
ATOM     92  F   UNL A   1      48.635  28.596  27.231  1.00  0.00    -0.206 F 
ATOM     93  C   UNL A   1      51.068  27.045  29.406  1.00  0.00     0.060 A 
BRANCH  93  94
ATOM     94  S   UNL A   1      52.826  26.638  29.436  1.00  0.00     0.124 S 
ATOM     95  O   UNL A   1      53.434  27.963  29.467  1.00  0.00    -0.237 OA
ATOM     96  O   UNL A   1      52.943  25.857  30.664  1.00  0.00    -0.237 OA
ATOM     97  O   UNL A   1      53.022  25.885  28.201  1.00  0.00    -0.744 OA
ENDBRANCH  93  94
ENDBRANCH  61  86
ENDBRANCH  35  36
ENDBRANCH  28  30
ENDBRANCH  27  28
ENDBRANCH  26  27
ENDBRANCH   1  26
TORSDOF 20
ENDMDL
