MODEL 1
REMARK VINA RESULT:     -11.2      0.000      0.000
REMARK SMILES Cc1ccc(C)c(N2C(=O)C[C@@H](SCC(=O)OCCOC(=O)c3ccc(-c4c5nc(c(-c6c(F)cc(S(=O)(=O)[O-])cc6F)c6ccc([nH]6)c(-c6c(F)cc(S(=O)(=O)[O-])cc6F)c6nc(c(-c7c(F)cc(S(=O)(=O)[O-])cc7F)c7ccc4[nH]7)C=C6)C=C5)cc3)C2=O)c1
REMARK SMILES IDX 18 1 17 2 15 3 16 4 14 5 13 6 12 7 8 8 9 9 89 10 10 11 11 12
REMARK SMILES IDX 90 13 7 14 1 15 2 16 3 17 91 18 4 19 5 20 6 21 19 22 20 23
REMARK SMILES IDX 21 24 22 25 23 26 24 27 88 28 25 29 87 30 26 31 27 32 28 33
REMARK SMILES IDX 81 34 29 35 86 36 80 37 82 38 30 39 85 40 79 41 78 42 31 44
REMARK SMILES IDX 65 45 44 46 64 47 45 48 48 49 63 50 83 51 46 52 47 53 62 55
REMARK SMILES IDX 84 56 49 57 32 58 33 59 42 60 34 61 35 62 41 63 43 64 36 65
REMARK SMILES IDX 37 66 38 67 39 68 40 69 66 70 67 71 76 72 68 73 69 74 75 75
REMARK SMILES IDX 77 76 70 77 71 78 72 79 73 80 74 81 50 82 51 83 60 84 52 85
REMARK SMILES IDX 53 86 59 87 61 88 54 89 55 90 56 91 57 92 58 93
REMARK H PARENT 82 43 48 54
REMARK Flexibility Score: inf
ROOT
ATOM      1  C   UNL A   1      42.292  19.985  26.624  1.00  0.00     0.274 C 
ENDROOT
BRANCH   1   2
ATOM      2  O   UNL A   1      42.872  20.177  25.333  1.00  0.00    -0.461 OA
BRANCH   2   3
ATOM      3  C   UNL A   1      44.043  19.549  25.075  1.00  0.00     0.316 C 
ATOM      4  O   UNL A   1      44.134  18.367  24.775  1.00  0.00    -0.251 OA
BRANCH   3   5
ATOM      5  C   UNL A   1      45.210  20.506  25.001  1.00  0.00     0.192 C 
BRANCH   5   6
ATOM      6  S   UNL A   1      44.854  22.108  24.229  1.00  0.00    -0.136 SA
BRANCH   6   7
ATOM      7  C   UNL A   1      44.363  23.131  25.687  1.00  0.00     0.146 C 
ATOM      8  N   UNL A   1      45.546  25.126  25.712  1.00  0.00    -0.249 N 
ATOM      9  C   UNL A   1      44.290  25.480  25.303  1.00  0.00     0.235 C 
ATOM     10  C   UNL A   1      45.613  23.829  26.153  1.00  0.00     0.247 C 
ATOM     11  O   UNL A   1      43.893  26.591  24.962  1.00  0.00    -0.274 OA
ATOM     12  C   UNL A   1      43.408  24.269  25.369  1.00  0.00     0.125 C 
ATOM     13  O   UNL A   1      46.504  23.303  26.806  1.00  0.00    -0.273 OA
BRANCH   8  14
ATOM     14  C   UNL A   1      46.654  25.986  25.724  1.00  0.00     0.055 A 
ATOM     15  C   UNL A   1      49.529  26.910  23.403  1.00  0.00     0.044 C 
ATOM     16  C   UNL A   1      48.613  26.869  24.588  1.00  0.00    -0.049 A 
ATOM     17  C   UNL A   1      48.822  27.741  25.661  1.00  0.00     0.004 A 
ATOM     18  C   UNL A   1      47.536  25.976  24.636  1.00  0.00     0.030 A 
ATOM     19  C   UNL A   1      47.965  27.733  26.760  1.00  0.00     0.006 A 
ATOM     20  C   UNL A   1      46.874  26.856  26.810  1.00  0.00    -0.027 A 
ATOM     21  C   UNL A   1      46.023  26.871  28.051  1.00  0.00     0.046 C 
ENDBRANCH   8  14
ENDBRANCH   6   7
ENDBRANCH   5   6
ENDBRANCH   3   5
ENDBRANCH   2   3
ENDBRANCH   1   2
BRANCH   1  22
ATOM     22  C   UNL A   1      40.846  20.499  26.583  1.00  0.00     0.275 C 
BRANCH  22  23
ATOM     23  O   UNL A   1      40.545  21.734  27.326  1.00  0.00    -0.458 OA
BRANCH  23  24
ATOM     24  C   UNL A   1      39.846  22.850  26.989  1.00  0.00     0.338 C 
ATOM     25  O   UNL A   1      38.692  22.766  26.588  1.00  0.00    -0.246 OA
BRANCH  24  26
ATOM     26  C   UNL A   1      40.461  24.170  27.202  1.00  0.00     0.060 A 
ATOM     27  C   UNL A   1      40.032  25.284  26.461  1.00  0.00     0.016 A 
ATOM     28  C   UNL A   1      41.370  24.318  28.231  1.00  0.00     0.016 A 
ATOM     29  C   UNL A   1      40.373  26.566  26.890  1.00  0.00     0.010 A 
ATOM     30  C   UNL A   1      41.554  25.570  28.754  1.00  0.00     0.010 A 
ATOM     31  C   UNL A   1      41.083  26.703  28.087  1.00  0.00    -0.014 A 
BRANCH  31  32
ATOM     32  C   UNL A   1      41.227  27.984  28.778  1.00  0.00     0.031 A 
ATOM     33  C   UNL A   1      42.351  28.853  28.314  1.00  0.00     0.074 A 
ATOM     34  C   UNL A   1      40.219  28.482  29.530  1.00  0.00     0.049 A 
ATOM     35  N   UNL A   1      43.452  29.124  28.935  1.00  0.00    -0.248 NA
ATOM     36  C   UNL A   1      42.313  29.394  26.947  1.00  0.00     0.031 C 
ATOM     37  C   UNL A   1      38.923  27.853  29.838  1.00  0.00     0.029 A 
ATOM     38  N   UNL A   1      40.085  29.714  30.088  1.00  0.00    -0.354 N 
ATOM     39  C   UNL A   1      44.114  30.080  28.157  1.00  0.00     0.074 A 
ATOM     40  C   UNL A   1      43.489  30.024  26.865  1.00  0.00     0.031 C 
ATOM     41  C   UNL A   1      38.057  28.780  30.298  1.00  0.00     0.029 A 
ATOM     42  C   UNL A   1      38.800  29.999  30.541  1.00  0.00     0.049 A 
ATOM     43  H   UNL A   1      40.831  30.351  30.165  1.00  0.00     0.167 HD
ATOM     44  C   UNL A   1      44.915  31.025  28.736  1.00  0.00     0.037 A 
ATOM     45  C   UNL A   1      38.377  31.125  31.159  1.00  0.00     0.037 A 
ATOM     46  C   UNL A   1      45.084  30.721  30.138  1.00  0.00     0.049 A 
ATOM     47  C   UNL A   1      39.577  31.725  31.782  1.00  0.00     0.074 A 
ATOM     48  C   UNL A   1      45.720  29.752  30.881  1.00  0.00     0.029 A 
ATOM     49  N   UNL A   1      44.143  31.305  30.948  1.00  0.00    -0.354 N 
ATOM     50  N   UNL A   1      40.263  31.131  32.723  1.00  0.00    -0.248 NA
ATOM     51  C   UNL A   1      40.273  32.797  31.088  1.00  0.00     0.031 C 
ATOM     52  C   UNL A   1      44.906  29.569  32.041  1.00  0.00     0.029 A 
ATOM     53  C   UNL A   1      43.852  30.484  32.003  1.00  0.00     0.049 A 
ATOM     54  H   UNL A   1      43.738  32.188  30.793  1.00  0.00     0.167 HD
ATOM     55  C   UNL A   1      41.582  31.435  32.434  1.00  0.00     0.074 A 
ATOM     56  C   UNL A   1      41.512  32.591  31.543  1.00  0.00     0.031 C 
ATOM     57  C   UNL A   1      42.581  30.542  32.702  1.00  0.00     0.037 A 
BRANCH  44  58
ATOM     58  C   UNL A   1      45.167  32.448  28.244  1.00  0.00     0.058 A 
ATOM     59  C   UNL A   1      46.496  32.834  27.937  1.00  0.00     0.135 A 
ATOM     60  C   UNL A   1      44.250  33.515  28.348  1.00  0.00     0.135 A 
ATOM     61  F   UNL A   1      47.460  31.911  27.786  1.00  0.00    -0.206 F 
ATOM     62  C   UNL A   1      46.899  34.169  27.852  1.00  0.00     0.059 A 
ATOM     63  C   UNL A   1      44.622  34.854  28.220  1.00  0.00     0.059 A 
ATOM     64  F   UNL A   1      42.965  33.327  28.664  1.00  0.00    -0.206 F 
ATOM     65  C   UNL A   1      45.955  35.175  28.018  1.00  0.00     0.060 A 
BRANCH  65  66
ATOM     66  S   UNL A   1      46.487  36.898  28.008  1.00  0.00     0.124 S 
ATOM     67  O   UNL A   1      46.363  37.251  29.417  1.00  0.00    -0.237 OA
ATOM     68  O   UNL A   1      47.848  36.792  27.492  1.00  0.00    -0.237 OA
ATOM     69  O   UNL A   1      45.531  37.539  27.110  1.00  0.00    -0.744 OA
ENDBRANCH  65  66
ENDBRANCH  44  58
BRANCH  45  70
ATOM     70  C   UNL A   1      37.070  31.812  31.059  1.00  0.00     0.058 A 
ATOM     71  C   UNL A   1      36.135  31.775  32.106  1.00  0.00     0.135 A 
ATOM     72  C   UNL A   1      36.840  32.764  30.046  1.00  0.00     0.135 A 
ATOM     73  F   UNL A   1      36.288  30.902  33.115  1.00  0.00    -0.206 F 
ATOM     74  C   UNL A   1      35.063  32.670  32.179  1.00  0.00     0.059 A 
ATOM     75  C   UNL A   1      35.779  33.670  30.097  1.00  0.00     0.059 A 
ATOM     76  F   UNL A   1      37.701  32.899  29.026  1.00  0.00    -0.206 F 
ATOM     77  C   UNL A   1      34.907  33.632  31.181  1.00  0.00     0.060 A 
BRANCH  77  78
ATOM     78  S   UNL A   1      33.631  34.904  31.369  1.00  0.00     0.124 S 
ATOM     79  O   UNL A   1      32.891  34.419  32.527  1.00  0.00    -0.237 OA
ATOM     80  O   UNL A   1      34.426  36.109  31.579  1.00  0.00    -0.237 OA
ATOM     81  O   UNL A   1      32.910  34.850  30.099  1.00  0.00    -0.744 OA
ENDBRANCH  77  78
ENDBRANCH  45  70
BRANCH  57  82
ATOM     82  C   UNL A   1      42.294  29.446  33.695  1.00  0.00     0.058 A 
ATOM     83  C   UNL A   1      42.027  28.104  33.373  1.00  0.00     0.135 A 
ATOM     84  C   UNL A   1      42.404  29.758  35.058  1.00  0.00     0.135 A 
ATOM     85  F   UNL A   1      41.992  27.694  32.101  1.00  0.00    -0.206 F 
ATOM     86  C   UNL A   1      41.840  27.129  34.353  1.00  0.00     0.059 A 
ATOM     87  C   UNL A   1      42.250  28.798  36.054  1.00  0.00     0.059 A 
ATOM     88  F   UNL A   1      42.714  31.009  35.435  1.00  0.00    -0.206 F 
ATOM     89  C   UNL A   1      41.950  27.487  35.694  1.00  0.00     0.060 A 
BRANCH  89  90
ATOM     90  S   UNL A   1      41.755  26.218  36.961  1.00  0.00     0.124 S 
ATOM     91  O   UNL A   1      41.711  24.995  36.165  1.00  0.00    -0.237 OA
ATOM     92  O   UNL A   1      42.951  26.397  37.779  1.00  0.00    -0.237 OA
ATOM     93  O   UNL A   1      40.502  26.580  37.617  1.00  0.00    -0.744 OA
ENDBRANCH  89  90
ENDBRANCH  57  82
ENDBRANCH  31  32
ENDBRANCH  24  26
ENDBRANCH  23  24
ENDBRANCH  22  23
ENDBRANCH   1  22
TORSDOF 17
ENDMDL
MODEL 2
REMARK VINA RESULT:     -11.2      3.335      6.140
REMARK SMILES Cc1ccc(C)c(N2C(=O)C[C@@H](SCC(=O)OCCOC(=O)c3ccc(-c4c5nc(c(-c6c(F)cc(S(=O)(=O)[O-])cc6F)c6ccc([nH]6)c(-c6c(F)cc(S(=O)(=O)[O-])cc6F)c6nc(c(-c7c(F)cc(S(=O)(=O)[O-])cc7F)c7ccc4[nH]7)C=C6)C=C5)cc3)C2=O)c1
REMARK SMILES IDX 18 1 17 2 15 3 16 4 14 5 13 6 12 7 8 8 9 9 89 10 10 11 11 12
REMARK SMILES IDX 90 13 7 14 1 15 2 16 3 17 91 18 4 19 5 20 6 21 19 22 20 23
REMARK SMILES IDX 21 24 22 25 23 26 24 27 88 28 25 29 87 30 26 31 27 32 28 33
REMARK SMILES IDX 81 34 29 35 86 36 80 37 82 38 30 39 85 40 79 41 78 42 31 44
REMARK SMILES IDX 65 45 44 46 64 47 45 48 48 49 63 50 83 51 46 52 47 53 62 55
REMARK SMILES IDX 84 56 49 57 32 58 33 59 42 60 34 61 35 62 41 63 43 64 36 65
REMARK SMILES IDX 37 66 38 67 39 68 40 69 66 70 67 71 76 72 68 73 69 74 75 75
REMARK SMILES IDX 77 76 70 77 71 78 72 79 73 80 74 81 50 82 51 83 60 84 52 85
REMARK SMILES IDX 53 86 59 87 61 88 54 89 55 90 56 91 57 92 58 93
REMARK H PARENT 82 43 48 54
REMARK Flexibility Score: inf
ROOT
ATOM      1  C   UNL A   1      36.921  21.013  25.311  1.00  0.00     0.274 C 
ENDROOT
BRANCH   1   2
ATOM      2  O   UNL A   1      35.803  21.890  25.450  1.00  0.00    -0.461 OA
BRANCH   2   3
ATOM      3  C   UNL A   1      34.645  21.525  24.851  1.00  0.00     0.316 C 
ATOM      4  O   UNL A   1      34.301  20.365  24.675  1.00  0.00    -0.251 OA
BRANCH   3   5
ATOM      5  C   UNL A   1      33.728  22.699  24.600  1.00  0.00     0.192 C 
BRANCH   5   6
ATOM      6  S   UNL A   1      34.557  24.265  24.216  1.00  0.00    -0.136 SA
BRANCH   6   7
ATOM      7  C   UNL A   1      33.179  25.255  23.486  1.00  0.00     0.146 C 
ATOM      8  N   UNL A   1      33.195  27.414  24.335  1.00  0.00    -0.249 N 
ATOM      9  C   UNL A   1      33.683  27.544  23.064  1.00  0.00     0.235 C 
ATOM     10  C   UNL A   1      32.687  26.165  24.581  1.00  0.00     0.247 C 
ATOM     11  O   UNL A   1      34.099  28.561  22.516  1.00  0.00    -0.274 OA
ATOM     12  C   UNL A   1      33.600  26.211  22.383  1.00  0.00     0.125 C 
ATOM     13  O   UNL A   1      31.965  25.816  25.506  1.00  0.00    -0.273 OA
BRANCH   8  14
ATOM     14  C   UNL A   1      33.172  28.441  25.290  1.00  0.00     0.055 A 
ATOM     15  C   UNL A   1      35.410  29.746  28.080  1.00  0.00     0.044 C 
ATOM     16  C   UNL A   1      34.261  29.593  27.131  1.00  0.00    -0.049 A 
ATOM     17  C   UNL A   1      33.214  30.520  27.151  1.00  0.00     0.004 A 
ATOM     18  C   UNL A   1      34.223  28.541  26.210  1.00  0.00     0.030 A 
ATOM     19  C   UNL A   1      32.149  30.407  26.258  1.00  0.00     0.006 A 
ATOM     20  C   UNL A   1      32.110  29.368  25.320  1.00  0.00    -0.027 A 
ATOM     21  C   UNL A   1      30.905  29.283  24.423  1.00  0.00     0.046 C 
ENDBRANCH   8  14
ENDBRANCH   6   7
ENDBRANCH   5   6
ENDBRANCH   3   5
ENDBRANCH   2   3
ENDBRANCH   1   2
BRANCH   1  22
ATOM     22  C   UNL A   1      38.203  21.856  25.356  1.00  0.00     0.275 C 
BRANCH  22  23
ATOM     23  O   UNL A   1      38.550  22.492  26.638  1.00  0.00    -0.458 OA
BRANCH  23  24
ATOM     24  C   UNL A   1      39.745  22.713  27.249  1.00  0.00     0.338 C 
ATOM     25  O   UNL A   1      40.429  21.775  27.639  1.00  0.00    -0.246 OA
BRANCH  24  26
ATOM     26  C   UNL A   1      40.251  24.090  27.351  1.00  0.00     0.060 A 
ATOM     27  C   UNL A   1      39.495  25.168  26.859  1.00  0.00     0.016 A 
ATOM     28  C   UNL A   1      41.419  24.315  28.055  1.00  0.00     0.016 A 
ATOM     29  C   UNL A   1      39.817  26.467  27.250  1.00  0.00     0.010 A 
ATOM     30  C   UNL A   1      41.625  25.562  28.580  1.00  0.00     0.010 A 
ATOM     31  C   UNL A   1      40.851  26.650  28.173  1.00  0.00    -0.014 A 
BRANCH  31  32
ATOM     32  C   UNL A   1      41.070  27.916  28.872  1.00  0.00     0.031 A 
ATOM     33  C   UNL A   1      42.206  28.748  28.374  1.00  0.00     0.074 A 
ATOM     34  C   UNL A   1      40.111  28.442  29.670  1.00  0.00     0.049 A 
ATOM     35  N   UNL A   1      43.340  28.970  28.954  1.00  0.00    -0.248 NA
ATOM     36  C   UNL A   1      42.135  29.309  27.016  1.00  0.00     0.031 C 
ATOM     37  C   UNL A   1      38.805  27.857  30.021  1.00  0.00     0.029 A 
ATOM     38  N   UNL A   1      40.045  29.670  30.246  1.00  0.00    -0.354 N 
ATOM     39  C   UNL A   1      44.007  29.911  28.161  1.00  0.00     0.074 A 
ATOM     40  C   UNL A   1      43.330  29.895  26.895  1.00  0.00     0.031 C 
ATOM     41  C   UNL A   1      37.993  28.809  30.526  1.00  0.00     0.029 A 
ATOM     42  C   UNL A   1      38.791  29.997  30.753  1.00  0.00     0.049 A 
ATOM     43  H   UNL A   1      40.817  30.278  30.300  1.00  0.00     0.167 HD
ATOM     44  C   UNL A   1      44.865  30.818  28.719  1.00  0.00     0.037 A 
ATOM     45  C   UNL A   1      38.435  31.130  31.400  1.00  0.00     0.037 A 
ATOM     46  C   UNL A   1      45.077  30.490  30.109  1.00  0.00     0.049 A 
ATOM     47  C   UNL A   1      39.680  31.676  31.982  1.00  0.00     0.074 A 
ATOM     48  C   UNL A   1      45.705  29.489  30.816  1.00  0.00     0.029 A 
ATOM     49  N   UNL A   1      44.191  31.098  30.962  1.00  0.00    -0.354 N 
ATOM     50  N   UNL A   1      40.380  31.046  32.888  1.00  0.00    -0.248 NA
ATOM     51  C   UNL A   1      40.388  32.731  31.273  1.00  0.00     0.031 C 
ATOM     52  C   UNL A   1      44.931  29.322  32.005  1.00  0.00     0.029 A 
ATOM     53  C   UNL A   1      43.911  30.275  32.019  1.00  0.00     0.049 A 
ATOM     54  H   UNL A   1      43.813  31.998  30.834  1.00  0.00     0.167 HD
ATOM     55  C   UNL A   1      41.697  31.304  32.550  1.00  0.00     0.074 A 
ATOM     56  C   UNL A   1      41.636  32.473  31.676  1.00  0.00     0.031 C 
ATOM     57  C   UNL A   1      42.671  30.372  32.769  1.00  0.00     0.037 A 
BRANCH  44  58
ATOM     58  C   UNL A   1      45.150  32.237  28.234  1.00  0.00     0.058 A 
ATOM     59  C   UNL A   1      46.484  32.585  27.900  1.00  0.00     0.135 A 
ATOM     60  C   UNL A   1      44.270  33.331  28.367  1.00  0.00     0.135 A 
ATOM     61  F   UNL A   1      47.415  31.633  27.720  1.00  0.00    -0.206 F 
ATOM     62  C   UNL A   1      46.927  33.907  27.817  1.00  0.00     0.059 A 
ATOM     63  C   UNL A   1      44.681  34.659  28.243  1.00  0.00     0.059 A 
ATOM     64  F   UNL A   1      42.987  33.181  28.710  1.00  0.00    -0.206 F 
ATOM     65  C   UNL A   1      46.019  34.941  28.013  1.00  0.00     0.060 A 
BRANCH  65  66
ATOM     66  S   UNL A   1      46.605  36.646  28.006  1.00  0.00     0.124 S 
ATOM     67  O   UNL A   1      46.385  37.024  26.614  1.00  0.00    -0.237 OA
ATOM     68  O   UNL A   1      45.725  37.274  28.986  1.00  0.00    -0.237 OA
ATOM     69  O   UNL A   1      48.001  36.522  28.413  1.00  0.00    -0.744 OA
ENDBRANCH  65  66
ENDBRANCH  44  58
BRANCH  45  70
ATOM     70  C   UNL A   1      37.151  31.866  31.360  1.00  0.00     0.058 A 
ATOM     71  C   UNL A   1      36.313  31.949  32.483  1.00  0.00     0.135 A 
ATOM     72  C   UNL A   1      36.869  32.750  30.299  1.00  0.00     0.135 A 
ATOM     73  F   UNL A   1      36.522  31.148  33.540  1.00  0.00    -0.206 F 
ATOM     74  C   UNL A   1      35.287  32.895  32.578  1.00  0.00     0.059 A 
ATOM     75  C   UNL A   1      35.852  33.703  30.371  1.00  0.00     0.059 A 
ATOM     76  F   UNL A   1      37.640  32.769  29.201  1.00  0.00    -0.206 F 
ATOM     77  C   UNL A   1      35.080  33.786  31.525  1.00  0.00     0.060 A 
BRANCH  77  78
ATOM     78  S   UNL A   1      33.876  35.125  31.722  1.00  0.00     0.124 S 
ATOM     79  O   UNL A   1      33.548  35.441  30.337  1.00  0.00    -0.237 OA
ATOM     80  O   UNL A   1      32.820  34.479  32.495  1.00  0.00    -0.237 OA
ATOM     81  O   UNL A   1      34.628  36.153  32.438  1.00  0.00    -0.744 OA
ENDBRANCH  77  78
ENDBRANCH  45  70
BRANCH  57  82
ATOM     82  C   UNL A   1      42.382  29.274  33.760  1.00  0.00     0.058 A 
ATOM     83  C   UNL A   1      42.041  27.951  33.433  1.00  0.00     0.135 A 
ATOM     84  C   UNL A   1      42.570  29.560  35.120  1.00  0.00     0.135 A 
ATOM     85  F   UNL A   1      41.927  27.561  32.159  1.00  0.00    -0.206 F 
ATOM     86  C   UNL A   1      41.856  26.970  34.407  1.00  0.00     0.059 A 
ATOM     87  C   UNL A   1      42.420  28.593  36.109  1.00  0.00     0.059 A 
ATOM     88  F   UNL A   1      42.953  30.791  35.498  1.00  0.00    -0.206 F 
ATOM     89  C   UNL A   1      42.046  27.302  35.747  1.00  0.00     0.060 A 
BRANCH  89  90
ATOM     90  S   UNL A   1      41.853  26.023  37.005  1.00  0.00     0.124 S 
ATOM     91  O   UNL A   1      42.058  24.802  36.234  1.00  0.00    -0.237 OA
ATOM     92  O   UNL A   1      42.908  26.354  37.959  1.00  0.00    -0.237 OA
ATOM     93  O   UNL A   1      40.494  26.230  37.497  1.00  0.00    -0.744 OA
ENDBRANCH  89  90
ENDBRANCH  57  82
ENDBRANCH  31  32
ENDBRANCH  24  26
ENDBRANCH  23  24
ENDBRANCH  22  23
ENDBRANCH   1  22
TORSDOF 17
ENDMDL
MODEL 3
REMARK VINA RESULT:     -11.1      3.945      6.587
REMARK SMILES Cc1ccc(C)c(N2C(=O)C[C@@H](SCC(=O)OCCOC(=O)c3ccc(-c4c5nc(c(-c6c(F)cc(S(=O)(=O)[O-])cc6F)c6ccc([nH]6)c(-c6c(F)cc(S(=O)(=O)[O-])cc6F)c6nc(c(-c7c(F)cc(S(=O)(=O)[O-])cc7F)c7ccc4[nH]7)C=C6)C=C5)cc3)C2=O)c1
REMARK SMILES IDX 18 1 17 2 15 3 16 4 14 5 13 6 12 7 8 8 9 9 89 10 10 11 11 12
REMARK SMILES IDX 90 13 7 14 1 15 2 16 3 17 91 18 4 19 5 20 6 21 19 22 20 23
REMARK SMILES IDX 21 24 22 25 23 26 24 27 88 28 25 29 87 30 26 31 27 32 28 33
REMARK SMILES IDX 81 34 29 35 86 36 80 37 82 38 30 39 85 40 79 41 78 42 31 44
REMARK SMILES IDX 65 45 44 46 64 47 45 48 48 49 63 50 83 51 46 52 47 53 62 55
REMARK SMILES IDX 84 56 49 57 32 58 33 59 42 60 34 61 35 62 41 63 43 64 36 65
REMARK SMILES IDX 37 66 38 67 39 68 40 69 66 70 67 71 76 72 68 73 69 74 75 75
REMARK SMILES IDX 77 76 70 77 71 78 72 79 73 80 74 81 50 82 51 83 60 84 52 85
REMARK SMILES IDX 53 86 59 87 61 88 54 89 55 90 56 91 57 92 58 93
REMARK H PARENT 82 43 48 54
REMARK Flexibility Score: inf
ROOT
ATOM      1  C   UNL A   1      37.136  21.492  24.802  1.00  0.00     0.274 C 
ENDROOT
BRANCH   1   2
ATOM      2  O   UNL A   1      36.193  20.735  25.561  1.00  0.00    -0.461 OA
BRANCH   2   3
ATOM      3  C   UNL A   1      34.969  20.536  25.017  1.00  0.00     0.316 C 
ATOM      4  O   UNL A   1      34.564  19.452  24.621  1.00  0.00    -0.251 OA
BRANCH   3   5
ATOM      5  C   UNL A   1      34.080  21.751  25.130  1.00  0.00     0.192 C 
BRANCH   5   6
ATOM      6  S   UNL A   1      33.526  22.458  23.554  1.00  0.00    -0.136 SA
BRANCH   6   7
ATOM      7  C   UNL A   1      34.522  24.012  23.465  1.00  0.00     0.146 C 
ATOM      8  N   UNL A   1      33.157  25.865  23.756  1.00  0.00    -0.249 N 
ATOM      9  C   UNL A   1      33.831  25.749  24.940  1.00  0.00     0.235 C 
ATOM     10  C   UNL A   1      33.650  25.033  22.783  1.00  0.00     0.247 C 
ATOM     11  O   UNL A   1      33.698  26.429  25.954  1.00  0.00    -0.274 OA
ATOM     12  C   UNL A   1      34.835  24.642  24.811  1.00  0.00     0.125 C 
ATOM     13  O   UNL A   1      33.442  25.081  21.578  1.00  0.00    -0.273 OA
BRANCH   8  14
ATOM     14  C   UNL A   1      32.100  26.757  23.523  1.00  0.00     0.055 A 
ATOM     15  C   UNL A   1      28.304  26.768  23.831  1.00  0.00     0.044 C 
ATOM     16  C   UNL A   1      29.712  27.205  23.563  1.00  0.00    -0.049 A 
ATOM     17  C   UNL A   1      29.968  28.519  23.159  1.00  0.00     0.004 A 
ATOM     18  C   UNL A   1      30.784  26.320  23.722  1.00  0.00     0.030 A 
ATOM     19  C   UNL A   1      31.273  28.950  22.929  1.00  0.00     0.006 A 
ATOM     20  C   UNL A   1      32.355  28.078  23.103  1.00  0.00    -0.027 A 
ATOM     21  C   UNL A   1      33.730  28.601  22.788  1.00  0.00     0.046 C 
ENDBRANCH   8  14
ENDBRANCH   6   7
ENDBRANCH   5   6
ENDBRANCH   3   5
ENDBRANCH   2   3
ENDBRANCH   1   2
BRANCH   1  22
ATOM     22  C   UNL A   1      38.499  21.405  25.504  1.00  0.00     0.275 C 
BRANCH  22  23
ATOM     23  O   UNL A   1      38.865  22.507  26.410  1.00  0.00    -0.458 OA
BRANCH  23  24
ATOM     24  C   UNL A   1      39.929  22.688  27.237  1.00  0.00     0.338 C 
ATOM     25  O   UNL A   1      40.468  21.731  27.779  1.00  0.00    -0.246 OA
BRANCH  24  26
ATOM     26  C   UNL A   1      40.486  24.040  27.399  1.00  0.00     0.060 A 
ATOM     27  C   UNL A   1      39.865  25.145  26.792  1.00  0.00     0.016 A 
ATOM     28  C   UNL A   1      41.548  24.217  28.264  1.00  0.00     0.016 A 
ATOM     29  C   UNL A   1      40.195  26.433  27.213  1.00  0.00     0.010 A 
ATOM     30  C   UNL A   1      41.740  25.461  28.802  1.00  0.00     0.010 A 
ATOM     31  C   UNL A   1      41.091  26.580  28.276  1.00  0.00    -0.014 A 
BRANCH  31  32
ATOM     32  C   UNL A   1      41.271  27.845  28.988  1.00  0.00     0.031 A 
ATOM     33  C   UNL A   1      42.354  28.736  28.471  1.00  0.00     0.074 A 
ATOM     34  C   UNL A   1      40.312  28.315  29.819  1.00  0.00     0.049 A 
ATOM     35  N   UNL A   1      43.492  29.002  29.023  1.00  0.00    -0.248 NA
ATOM     36  C   UNL A   1      42.219  29.311  27.125  1.00  0.00     0.031 C 
ATOM     37  C   UNL A   1      39.045  27.665  30.197  1.00  0.00     0.029 A 
ATOM     38  N   UNL A   1      40.206  29.531  30.416  1.00  0.00    -0.354 N 
ATOM     39  C   UNL A   1      44.092  29.984  28.227  1.00  0.00     0.074 A 
ATOM     40  C   UNL A   1      43.382  29.954  26.980  1.00  0.00     0.031 C 
ATOM     41  C   UNL A   1      38.204  28.572  30.739  1.00  0.00     0.029 A 
ATOM     42  C   UNL A   1      38.953  29.792  30.962  1.00  0.00     0.049 A 
ATOM     43  H   UNL A   1      40.950  30.173  30.458  1.00  0.00     0.167 HD
ATOM     44  C   UNL A   1      44.923  30.922  28.774  1.00  0.00     0.037 A 
ATOM     45  C   UNL A   1      38.563  30.898  31.636  1.00  0.00     0.037 A 
ATOM     46  C   UNL A   1      45.189  30.585  30.153  1.00  0.00     0.049 A 
ATOM     47  C   UNL A   1      39.798  31.494  32.191  1.00  0.00     0.074 A 
ATOM     48  C   UNL A   1      45.882  29.604  30.828  1.00  0.00     0.029 A 
ATOM     49  N   UNL A   1      44.301  31.139  31.040  1.00  0.00    -0.354 N 
ATOM     50  N   UNL A   1      40.551  30.884  33.068  1.00  0.00    -0.248 NA
ATOM     51  C   UNL A   1      40.436  32.590  31.479  1.00  0.00     0.031 C 
ATOM     52  C   UNL A   1      45.150  29.384  32.034  1.00  0.00     0.029 A 
ATOM     53  C   UNL A   1      44.088  30.290  32.091  1.00  0.00     0.049 A 
ATOM     54  H   UNL A   1      43.878  32.022  30.935  1.00  0.00     0.167 HD
ATOM     55  C   UNL A   1      41.845  31.207  32.698  1.00  0.00     0.074 A 
ATOM     56  C   UNL A   1      41.705  32.384  31.844  1.00  0.00     0.031 C 
ATOM     57  C   UNL A   1      42.867  30.318  32.876  1.00  0.00     0.037 A 
BRANCH  44  58
ATOM     58  C   UNL A   1      45.129  32.359  28.303  1.00  0.00     0.058 A 
ATOM     59  C   UNL A   1      46.439  32.779  27.960  1.00  0.00     0.135 A 
ATOM     60  C   UNL A   1      44.196  33.404  28.459  1.00  0.00     0.135 A 
ATOM     61  F   UNL A   1      47.416  31.879  27.758  1.00  0.00    -0.206 F 
ATOM     62  C   UNL A   1      46.812  34.123  27.888  1.00  0.00     0.059 A 
ATOM     63  C   UNL A   1      44.536  34.753  28.346  1.00  0.00     0.059 A 
ATOM     64  F   UNL A   1      42.926  33.184  28.814  1.00  0.00    -0.206 F 
ATOM     65  C   UNL A   1      45.854  35.106  28.105  1.00  0.00     0.060 A 
BRANCH  65  66
ATOM     66  S   UNL A   1      46.351  36.839  28.112  1.00  0.00     0.124 S 
ATOM     67  O   UNL A   1      45.705  37.334  26.902  1.00  0.00    -0.237 OA
ATOM     68  O   UNL A   1      45.792  37.311  29.374  1.00  0.00    -0.237 OA
ATOM     69  O   UNL A   1      47.809  36.770  28.065  1.00  0.00    -0.744 OA
ENDBRANCH  65  66
ENDBRANCH  44  58
BRANCH  45  70
ATOM     70  C   UNL A   1      37.247  31.574  31.641  1.00  0.00     0.058 A 
ATOM     71  C   UNL A   1      36.551  31.824  32.835  1.00  0.00     0.135 A 
ATOM     72  C   UNL A   1      36.787  32.252  30.494  1.00  0.00     0.135 A 
ATOM     73  F   UNL A   1      36.932  31.225  33.974  1.00  0.00    -0.206 F 
ATOM     74  C   UNL A   1      35.495  32.738  32.904  1.00  0.00     0.059 A 
ATOM     75  C   UNL A   1      35.737  33.170  30.538  1.00  0.00     0.059 A 
ATOM     76  F   UNL A   1      37.414  32.105  29.317  1.00  0.00    -0.206 F 
ATOM     77  C   UNL A   1      35.111  33.427  31.753  1.00  0.00     0.060 A 
BRANCH  77  78
ATOM     78  S   UNL A   1      33.870  34.740  31.880  1.00  0.00     0.124 S 
ATOM     79  O   UNL A   1      33.373  34.817  30.512  1.00  0.00    -0.237 OA
ATOM     80  O   UNL A   1      32.943  34.194  32.866  1.00  0.00    -0.237 OA
ATOM     81  O   UNL A   1      34.644  35.894  32.330  1.00  0.00    -0.744 OA
ENDBRANCH  77  78
ENDBRANCH  45  70
BRANCH  57  82
ATOM     82  C   UNL A   1      42.656  29.195  33.858  1.00  0.00     0.058 A 
ATOM     83  C   UNL A   1      42.661  29.324  35.257  1.00  0.00     0.135 A 
ATOM     84  C   UNL A   1      42.321  27.935  33.341  1.00  0.00     0.135 A 
ATOM     85  F   UNL A   1      42.882  30.507  35.840  1.00  0.00    -0.206 F 
ATOM     86  C   UNL A   1      42.388  28.249  36.103  1.00  0.00     0.059 A 
ATOM     87  C   UNL A   1      42.016  26.854  34.163  1.00  0.00     0.059 A 
ATOM     88  F   UNL A   1      42.241  27.755  32.012  1.00  0.00    -0.206 F 
ATOM     89  C   UNL A   1      42.068  27.013  35.545  1.00  0.00     0.060 A 
BRANCH  89  90
ATOM     90  S   UNL A   1      41.668  25.633  36.636  1.00  0.00     0.124 S 
ATOM     91  O   UNL A   1      40.583  26.186  37.442  1.00  0.00    -0.237 OA
ATOM     92  O   UNL A   1      41.285  24.584  35.696  1.00  0.00    -0.237 OA
ATOM     93  O   UNL A   1      42.916  25.391  37.353  1.00  0.00    -0.744 OA
ENDBRANCH  89  90
ENDBRANCH  57  82
ENDBRANCH  31  32
ENDBRANCH  24  26
ENDBRANCH  23  24
ENDBRANCH  22  23
ENDBRANCH   1  22
TORSDOF 17
ENDMDL
