MODEL 1
REMARK VINA RESULT:     -13.0      0.000      0.000
REMARK SMILES Cc1cnn(C2(C(=O)OCCOC(=O)c3ccc(-c4c5nc(c(-c6c(F)cc(S(=O)(=O)[O-])cc6F)c6ccc([nH]6)c(-c6c(F)cc(S(=O)(=O)[O-])cc6F)c6nc(c(-c7c(F)cc(S(=O)(=O)[O-])cc7F)c7ccc4[nH]7)C=C6)C=C5)cc3)CCN(C(=O)c3cc4ccccc4[nH]3)CC2)c1
REMARK SMILES IDX 11 1 10 2 9 3 7 4 8 5 6 6 81 7 96 8 82 9 95 10 83 11 84 12
REMARK SMILES IDX 85 13 5 14 1 15 2 16 3 17 97 18 4 19 86 20 87 21 94 22 88 23
REMARK SMILES IDX 93 24 89 26 92 27 90 28 91 29 12 30 13 31 14 32 15 33 16 34
REMARK SMILES IDX 80 35 17 36 79 37 18 38 19 39 20 40 73 41 21 42 78 43 72 44
REMARK SMILES IDX 74 45 22 46 77 47 71 48 70 49 23 51 57 52 36 53 56 54 37 55
REMARK SMILES IDX 40 56 55 57 75 58 38 59 39 60 54 62 76 63 41 64 24 65 25 66
REMARK SMILES IDX 34 67 26 68 27 69 33 70 35 71 28 72 29 73 30 74 31 75 32 76
REMARK SMILES IDX 58 77 59 78 68 79 60 80 61 81 67 82 69 83 62 84 63 85 64 86
REMARK SMILES IDX 65 87 66 88 42 89 43 90 52 91 44 92 45 93 51 94 53 95 46 96
REMARK SMILES IDX 47 97 48 98 49 99 50 100
REMARK H PARENT 94 25 74 50 40 61
REMARK Flexibility Score: inf
ROOT
ATOM      1  C   UNL A   1      38.416  21.027  25.358  1.00  0.00     0.275 C 
ENDROOT
BRANCH   1   2
ATOM      2  C   UNL A   1      36.925  20.880  25.060  1.00  0.00     0.274 C 
BRANCH   2   3
ATOM      3  O   UNL A   1      36.130  21.816  25.818  1.00  0.00    -0.460 OA
BRANCH   3   4
ATOM      4  C   UNL A   1      35.509  22.820  25.109  1.00  0.00     0.334 C 
ATOM      5  O   UNL A   1      36.162  23.711  24.581  1.00  0.00    -0.249 OA
BRANCH   4   6
ATOM      6  C   UNL A   1      33.955  22.768  25.277  1.00  0.00     0.163 C 
ATOM      7  C   UNL A   1      33.510  23.233  26.697  1.00  0.00     0.064 C 
ATOM      8  C   UNL A   1      33.504  23.760  24.191  1.00  0.00     0.064 C 
ATOM      9  C   UNL A   1      32.144  23.904  26.802  1.00  0.00     0.123 C 
ATOM     10  C   UNL A   1      32.082  24.248  24.353  1.00  0.00     0.123 C 
ATOM     11  N   UNL A   1      31.857  24.793  25.688  1.00  0.00    -0.337 N 
ATOM     12  C   UNL A   1      31.359  26.068  25.955  1.00  0.00     0.270 C 
ATOM     13  O   UNL A   1      31.392  26.564  27.090  1.00  0.00    -0.267 OA
BRANCH   6  14
ATOM     14  N   UNL A   1      33.388  21.421  24.981  1.00  0.00    -0.255 N 
ATOM     15  C   UNL A   1      32.337  18.587  22.896  1.00  0.00     0.048 C 
ATOM     16  C   UNL A   1      32.723  19.574  23.929  1.00  0.00    -0.013 A 
ATOM     17  C   UNL A   1      32.834  19.390  25.317  1.00  0.00     0.138 A 
ATOM     18  C   UNL A   1      33.057  20.898  23.751  1.00  0.00     0.113 A 
ATOM     19  N   UNL A   1      33.229  20.495  25.947  1.00  0.00    -0.180 NA
ENDBRANCH   6  14
BRANCH  12  20
ATOM     20  C   UNL A   1      30.853  26.839  24.848  1.00  0.00     0.105 A 
ATOM     21  C   UNL A   1      31.491  27.696  23.964  1.00  0.00     0.042 A 
ATOM     22  N   UNL A   1      29.533  26.803  24.466  1.00  0.00    -0.351 N 
ATOM     23  C   UNL A   1      30.492  28.391  23.239  1.00  0.00     0.000 A 
ATOM     24  C   UNL A   1      29.269  27.810  23.569  1.00  0.00     0.046 A 
ATOM     25  H   UNL A   1      28.871  26.150  24.790  1.00  0.00     0.167 HD
ATOM     26  C   UNL A   1      30.515  29.483  22.354  1.00  0.00     0.010 A 
ATOM     27  C   UNL A   1      28.056  28.254  23.036  1.00  0.00     0.026 A 
ATOM     28  C   UNL A   1      29.307  29.962  21.836  1.00  0.00     0.001 A 
ATOM     29  C   UNL A   1      28.099  29.351  22.168  1.00  0.00     0.002 A 
ENDBRANCH  12  20
ENDBRANCH   4   6
ENDBRANCH   3   4
ENDBRANCH   2   3
ENDBRANCH   1   2
BRANCH   1  30
ATOM     30  O   UNL A   1      38.652  22.057  26.320  1.00  0.00    -0.458 OA
BRANCH  30  31
ATOM     31  C   UNL A   1      39.868  21.991  26.889  1.00  0.00     0.338 C 
ATOM     32  O   UNL A   1      40.308  21.046  27.557  1.00  0.00    -0.246 OA
BRANCH  31  33
ATOM     33  C   UNL A   1      40.610  23.235  26.761  1.00  0.00     0.060 A 
ATOM     34  C   UNL A   1      41.811  23.324  27.479  1.00  0.00     0.016 A 
ATOM     35  C   UNL A   1      39.939  24.366  26.283  1.00  0.00     0.016 A 
ATOM     36  C   UNL A   1      42.211  24.555  27.939  1.00  0.00     0.010 A 
ATOM     37  C   UNL A   1      40.342  25.596  26.743  1.00  0.00     0.010 A 
ATOM     38  C   UNL A   1      41.405  25.656  27.651  1.00  0.00    -0.014 A 
BRANCH  38  39
ATOM     39  C   UNL A   1      41.635  26.869  28.409  1.00  0.00     0.031 A 
ATOM     40  C   UNL A   1      42.842  27.640  28.038  1.00  0.00     0.074 A 
ATOM     41  C   UNL A   1      40.699  27.302  29.276  1.00  0.00     0.049 A 
ATOM     42  N   UNL A   1      43.778  28.093  28.806  1.00  0.00    -0.248 NA
ATOM     43  C   UNL A   1      43.078  27.862  26.603  1.00  0.00     0.031 C 
ATOM     44  C   UNL A   1      39.357  26.749  29.496  1.00  0.00     0.029 A 
ATOM     45  N   UNL A   1      40.692  28.431  30.028  1.00  0.00    -0.354 N 
ATOM     46  C   UNL A   1      44.635  28.805  27.974  1.00  0.00     0.074 A 
ATOM     47  C   UNL A   1      44.234  28.520  26.620  1.00  0.00     0.031 C 
ATOM     48  C   UNL A   1      38.597  27.680  30.109  1.00  0.00     0.029 A 
ATOM     49  C   UNL A   1      39.421  28.841  30.400  1.00  0.00     0.049 A 
ATOM     50  H   UNL A   1      41.511  28.915  30.285  1.00  0.00     0.167 HD
ATOM     51  C   UNL A   1      45.509  29.735  28.444  1.00  0.00     0.037 A 
ATOM     52  C   UNL A   1      39.066  30.096  30.770  1.00  0.00     0.037 A 
ATOM     53  C   UNL A   1      45.746  29.594  29.854  1.00  0.00     0.049 A 
ATOM     54  C   UNL A   1      40.310  30.797  31.197  1.00  0.00     0.074 A 
ATOM     55  C   UNL A   1      46.268  28.586  30.641  1.00  0.00     0.029 A 
ATOM     56  N   UNL A   1      45.114  30.454  30.719  1.00  0.00    -0.354 N 
ATOM     57  N   UNL A   1      41.016  30.472  32.247  1.00  0.00    -0.248 NA
ATOM     58  C   UNL A   1      41.016  31.601  30.207  1.00  0.00     0.031 C 
ATOM     59  C   UNL A   1      45.532  28.642  31.859  1.00  0.00     0.029 A 
ATOM     60  C   UNL A   1      44.622  29.694  31.751  1.00  0.00     0.049 A 
ATOM     61  H   UNL A   1      45.030  31.430  30.616  1.00  0.00     0.167 HD
ATOM     62  C   UNL A   1      42.340  30.669  31.871  1.00  0.00     0.074 A 
ATOM     63  C   UNL A   1      42.269  31.464  30.649  1.00  0.00     0.031 C 
ATOM     64  C   UNL A   1      43.359  29.939  32.417  1.00  0.00     0.037 A 
BRANCH  51  65
ATOM     65  C   UNL A   1      45.931  30.942  27.653  1.00  0.00     0.058 A 
ATOM     66  C   UNL A   1      47.288  31.153  27.354  1.00  0.00     0.135 A 
ATOM     67  C   UNL A   1      45.063  32.028  27.392  1.00  0.00     0.135 A 
ATOM     68  F   UNL A   1      48.196  30.193  27.586  1.00  0.00    -0.206 F 
ATOM     69  C   UNL A   1      47.760  32.376  26.873  1.00  0.00     0.059 A 
ATOM     70  C   UNL A   1      45.501  33.232  26.858  1.00  0.00     0.059 A 
ATOM     71  F   UNL A   1      43.768  31.998  27.736  1.00  0.00    -0.206 F 
ATOM     72  C   UNL A   1      46.858  33.414  26.646  1.00  0.00     0.060 A 
BRANCH  72  73
ATOM     73  S   UNL A   1      47.472  35.034  26.152  1.00  0.00     0.124 S 
ATOM     74  O   UNL A   1      48.475  35.285  27.180  1.00  0.00    -0.237 OA
ATOM     75  O   UNL A   1      47.982  34.774  24.810  1.00  0.00    -0.237 OA
ATOM     76  O   UNL A   1      46.280  35.874  26.211  1.00  0.00    -0.744 OA
ENDBRANCH  72  73
ENDBRANCH  51  65
BRANCH  52  77
ATOM     77  C   UNL A   1      37.806  30.801  30.395  1.00  0.00     0.058 A 
ATOM     78  C   UNL A   1      37.044  31.487  31.356  1.00  0.00     0.135 A 
ATOM     79  C   UNL A   1      37.437  31.023  29.049  1.00  0.00     0.135 A 
ATOM     80  F   UNL A   1      37.342  31.373  32.659  1.00  0.00    -0.206 F 
ATOM     81  C   UNL A   1      36.004  32.358  31.004  1.00  0.00     0.059 A 
ATOM     82  C   UNL A   1      36.389  31.859  28.676  1.00  0.00     0.059 A 
ATOM     83  F   UNL A   1      38.142  30.508  28.031  1.00  0.00    -0.206 F 
ATOM     84  C   UNL A   1      35.691  32.545  29.658  1.00  0.00     0.060 A 
BRANCH  84  85
ATOM     85  S   UNL A   1      34.462  33.781  29.182  1.00  0.00     0.124 S 
ATOM     86  O   UNL A   1      33.784  34.035  30.448  1.00  0.00    -0.237 OA
ATOM     87  O   UNL A   1      35.297  34.865  28.675  1.00  0.00    -0.237 OA
ATOM     88  O   UNL A   1      33.662  33.093  28.172  1.00  0.00    -0.744 OA
ENDBRANCH  84  85
ENDBRANCH  52  77
BRANCH  64  89
ATOM     89  C   UNL A   1      43.062  29.089  33.629  1.00  0.00     0.058 A 
ATOM     90  C   UNL A   1      42.462  27.820  33.557  1.00  0.00     0.135 A 
ATOM     91  C   UNL A   1      43.562  29.483  34.879  1.00  0.00     0.135 A 
ATOM     92  F   UNL A   1      42.068  27.311  32.383  1.00  0.00    -0.206 F 
ATOM     93  C   UNL A   1      42.324  27.000  34.676  1.00  0.00     0.059 A 
ATOM     94  C   UNL A   1      43.465  28.667  36.007  1.00  0.00     0.059 A 
ATOM     95  F   UNL A   1      44.213  30.652  35.005  1.00  0.00    -0.206 F 
ATOM     96  C   UNL A   1      42.832  27.430  35.899  1.00  0.00     0.060 A 
BRANCH  96  97
ATOM     97  S   UNL A   1      42.748  26.316  37.319  1.00  0.00     0.124 S 
ATOM     98  O   UNL A   1      43.698  26.927  38.242  1.00  0.00    -0.237 OA
ATOM     99  O   UNL A   1      41.343  26.398  37.709  1.00  0.00    -0.237 OA
ATOM    100  O   UNL A   1      43.155  25.027  36.764  1.00  0.00    -0.744 OA
ENDBRANCH  96  97
ENDBRANCH  64  89
ENDBRANCH  38  39
ENDBRANCH  31  33
ENDBRANCH  30  31
ENDBRANCH   1  30
TORSDOF 16
ENDMDL
MODEL 2
REMARK VINA RESULT:     -12.8      2.439      9.249
REMARK SMILES Cc1cnn(C2(C(=O)OCCOC(=O)c3ccc(-c4c5nc(c(-c6c(F)cc(S(=O)(=O)[O-])cc6F)c6ccc([nH]6)c(-c6c(F)cc(S(=O)(=O)[O-])cc6F)c6nc(c(-c7c(F)cc(S(=O)(=O)[O-])cc7F)c7ccc4[nH]7)C=C6)C=C5)cc3)CCN(C(=O)c3cc4ccccc4[nH]3)CC2)c1
REMARK SMILES IDX 11 1 10 2 9 3 7 4 8 5 6 6 81 7 96 8 82 9 95 10 83 11 84 12
REMARK SMILES IDX 85 13 5 14 1 15 2 16 3 17 97 18 4 19 86 20 87 21 94 22 88 23
REMARK SMILES IDX 93 24 89 26 92 27 90 28 91 29 12 30 13 31 14 32 15 33 16 34
REMARK SMILES IDX 80 35 17 36 79 37 18 38 19 39 20 40 73 41 21 42 78 43 72 44
REMARK SMILES IDX 74 45 22 46 77 47 71 48 70 49 23 51 57 52 36 53 56 54 37 55
REMARK SMILES IDX 40 56 55 57 75 58 38 59 39 60 54 62 76 63 41 64 24 65 25 66
REMARK SMILES IDX 34 67 26 68 27 69 33 70 35 71 28 72 29 73 30 74 31 75 32 76
REMARK SMILES IDX 58 77 59 78 68 79 60 80 61 81 67 82 69 83 62 84 63 85 64 86
REMARK SMILES IDX 65 87 66 88 42 89 43 90 52 91 44 92 45 93 51 94 53 95 46 96
REMARK SMILES IDX 47 97 48 98 49 99 50 100
REMARK H PARENT 94 25 74 50 40 61
REMARK Flexibility Score: inf
ROOT
ATOM      1  C   UNL A   1      33.040  31.205  27.207  1.00  0.00     0.275 C 
ENDROOT
BRANCH   1   2
ATOM      2  C   UNL A   1      32.042  30.263  26.536  1.00  0.00     0.274 C 
BRANCH   2   3
ATOM      3  O   UNL A   1      32.582  28.936  26.368  1.00  0.00    -0.460 OA
BRANCH   3   4
ATOM      4  C   UNL A   1      31.683  27.892  26.395  1.00  0.00     0.334 C 
ATOM      5  O   UNL A   1      31.227  27.485  27.455  1.00  0.00    -0.249 OA
BRANCH   4   6
ATOM      6  C   UNL A   1      31.540  27.219  24.990  1.00  0.00     0.163 C 
ATOM      7  C   UNL A   1      32.851  27.337  24.155  1.00  0.00     0.064 C 
ATOM      8  C   UNL A   1      31.251  25.761  25.386  1.00  0.00     0.064 C 
ATOM      9  C   UNL A   1      33.138  26.211  23.167  1.00  0.00     0.123 C 
ATOM     10  C   UNL A   1      31.459  24.765  24.268  1.00  0.00     0.123 C 
ATOM     11  N   UNL A   1      32.789  24.896  23.680  1.00  0.00    -0.337 N 
ATOM     12  C   UNL A   1      33.709  23.856  23.550  1.00  0.00     0.270 C 
ATOM     13  O   UNL A   1      34.893  24.058  23.250  1.00  0.00    -0.267 OA
BRANCH   6  14
ATOM     14  N   UNL A   1      30.389  27.756  24.209  1.00  0.00    -0.255 N 
ATOM     15  C   UNL A   1      28.666  29.934  21.807  1.00  0.00     0.048 C 
ATOM     16  C   UNL A   1      29.147  28.924  22.776  1.00  0.00    -0.013 A 
ATOM     17  C   UNL A   1      28.494  27.768  23.233  1.00  0.00     0.138 A 
ATOM     18  C   UNL A   1      30.351  28.901  23.445  1.00  0.00     0.113 A 
ATOM     19  N   UNL A   1      29.235  27.071  24.092  1.00  0.00    -0.180 NA
ENDBRANCH   6  14
BRANCH  12  20
ATOM     20  C   UNL A   1      33.258  22.518  23.838  1.00  0.00     0.105 A 
ATOM     21  C   UNL A   1      33.256  21.789  25.017  1.00  0.00     0.042 A 
ATOM     22  N   UNL A   1      32.685  21.711  22.883  1.00  0.00    -0.351 N 
ATOM     23  C   UNL A   1      32.947  20.444  24.693  1.00  0.00     0.000 A 
ATOM     24  C   UNL A   1      32.588  20.421  23.346  1.00  0.00     0.046 A 
ATOM     25  H   UNL A   1      32.387  22.014  21.995  1.00  0.00     0.167 HD
ATOM     26  C   UNL A   1      32.971  19.239  25.417  1.00  0.00     0.010 A 
ATOM     27  C   UNL A   1      32.224  19.245  22.685  1.00  0.00     0.026 A 
ATOM     28  C   UNL A   1      32.641  18.048  24.763  1.00  0.00     0.001 A 
ATOM     29  C   UNL A   1      32.267  18.055  23.420  1.00  0.00     0.002 A 
ENDBRANCH  12  20
ENDBRANCH   4   6
ENDBRANCH   3   4
ENDBRANCH   2   3
ENDBRANCH   1   2
BRANCH   1  30
ATOM     30  O   UNL A   1      34.324  30.591  27.333  1.00  0.00    -0.458 OA
BRANCH  30  31
ATOM     31  C   UNL A   1      35.265  31.414  27.827  1.00  0.00     0.338 C 
ATOM     32  O   UNL A   1      35.475  32.578  27.467  1.00  0.00    -0.246 OA
BRANCH  31  33
ATOM     33  C   UNL A   1      36.146  30.745  28.773  1.00  0.00     0.060 A 
ATOM     34  C   UNL A   1      36.887  31.572  29.628  1.00  0.00     0.016 A 
ATOM     35  C   UNL A   1      36.495  29.413  28.533  1.00  0.00     0.016 A 
ATOM     36  C   UNL A   1      38.123  31.143  30.046  1.00  0.00     0.010 A 
ATOM     37  C   UNL A   1      37.732  28.985  28.954  1.00  0.00     0.010 A 
ATOM     38  C   UNL A   1      38.567  29.897  29.609  1.00  0.00    -0.014 A 
BRANCH  38  39
ATOM     39  C   UNL A   1      39.976  29.598  29.760  1.00  0.00     0.031 A 
ATOM     40  C   UNL A   1      40.457  29.449  31.152  1.00  0.00     0.074 A 
ATOM     41  C   UNL A   1      40.723  29.328  28.671  1.00  0.00     0.049 A 
ATOM     42  N   UNL A   1      41.471  30.013  31.720  1.00  0.00    -0.248 NA
ATOM     43  C   UNL A   1      39.642  28.621  32.054  1.00  0.00     0.031 C 
ATOM     44  C   UNL A   1      40.263  29.180  27.284  1.00  0.00     0.029 A 
ATOM     45  N   UNL A   1      42.030  28.969  28.601  1.00  0.00    -0.354 N 
ATOM     46  C   UNL A   1      41.525  29.482  33.005  1.00  0.00     0.074 A 
ATOM     47  C   UNL A   1      40.308  28.738  33.200  1.00  0.00     0.031 C 
ATOM     48  C   UNL A   1      41.206  28.517  26.582  1.00  0.00     0.029 A 
ATOM     49  C   UNL A   1      42.354  28.283  27.441  1.00  0.00     0.049 A 
ATOM     50  H   UNL A   1      42.685  29.176  29.307  1.00  0.00     0.167 HD
ATOM     51  C   UNL A   1      42.648  29.528  33.770  1.00  0.00     0.037 A 
ATOM     52  C   UNL A   1      43.418  27.459  27.275  1.00  0.00     0.037 A 
ATOM     53  C   UNL A   1      43.583  30.515  33.305  1.00  0.00     0.049 A 
ATOM     54  C   UNL A   1      44.417  27.816  28.323  1.00  0.00     0.074 A 
ATOM     55  C   UNL A   1      43.532  31.887  33.153  1.00  0.00     0.029 A 
ATOM     56  N   UNL A   1      44.675  30.100  32.581  1.00  0.00    -0.354 N 
ATOM     57  N   UNL A   1      45.053  28.956  28.377  1.00  0.00    -0.248 NA
ATOM     58  C   UNL A   1      44.398  27.063  29.570  1.00  0.00     0.031 C 
ATOM     59  C   UNL A   1      44.299  32.165  31.986  1.00  0.00     0.029 A 
ATOM     60  C   UNL A   1      44.791  30.949  31.509  1.00  0.00     0.049 A 
ATOM     61  H   UNL A   1      45.262  29.338  32.793  1.00  0.00     0.167 HD
ATOM     62  C   UNL A   1      45.154  29.251  29.732  1.00  0.00     0.074 A 
ATOM     63  C   UNL A   1      44.831  28.002  30.414  1.00  0.00     0.031 C 
ATOM     64  C   UNL A   1      45.210  30.541  30.183  1.00  0.00     0.037 A 
BRANCH  51  65
ATOM     65  C   UNL A   1      42.998  28.473  34.782  1.00  0.00     0.058 A 
ATOM     66  C   UNL A   1      43.225  28.826  36.124  1.00  0.00     0.135 A 
ATOM     67  C   UNL A   1      43.359  27.154  34.420  1.00  0.00     0.135 A 
ATOM     68  F   UNL A   1      42.937  30.061  36.563  1.00  0.00    -0.206 F 
ATOM     69  C   UNL A   1      43.815  27.946  37.033  1.00  0.00     0.059 A 
ATOM     70  C   UNL A   1      43.892  26.243  35.322  1.00  0.00     0.059 A 
ATOM     71  F   UNL A   1      43.300  26.727  33.151  1.00  0.00    -0.206 F 
ATOM     72  C   UNL A   1      44.160  26.662  36.614  1.00  0.00     0.060 A 
BRANCH  72  73
ATOM     73  S   UNL A   1      45.039  25.566  37.741  1.00  0.00     0.124 S 
ATOM     74  O   UNL A   1      44.655  24.257  37.225  1.00  0.00    -0.237 OA
ATOM     75  O   UNL A   1      46.429  25.956  37.528  1.00  0.00    -0.237 OA
ATOM     76  O   UNL A   1      44.490  25.918  39.046  1.00  0.00    -0.744 OA
ENDBRANCH  72  73
ENDBRANCH  51  65
BRANCH  52  77
ATOM     77  C   UNL A   1      43.423  26.166  26.533  1.00  0.00     0.058 A 
ATOM     78  C   UNL A   1      44.286  25.956  25.443  1.00  0.00     0.135 A 
ATOM     79  C   UNL A   1      42.755  25.017  27.014  1.00  0.00     0.135 A 
ATOM     80  F   UNL A   1      44.995  26.978  24.940  1.00  0.00    -0.206 F 
ATOM     81  C   UNL A   1      44.494  24.687  24.886  1.00  0.00     0.059 A 
ATOM     82  C   UNL A   1      42.923  23.752  26.459  1.00  0.00     0.059 A 
ATOM     83  F   UNL A   1      41.980  25.059  28.108  1.00  0.00    -0.206 F 
ATOM     84  C   UNL A   1      43.814  23.588  25.410  1.00  0.00     0.060 A 
BRANCH  84  85
ATOM     85  S   UNL A   1      44.190  21.926  24.809  1.00  0.00     0.124 S 
ATOM     86  O   UNL A   1      45.414  21.611  25.539  1.00  0.00    -0.237 OA
ATOM     87  O   UNL A   1      43.001  21.180  25.203  1.00  0.00    -0.237 OA
ATOM     88  O   UNL A   1      44.354  22.115  23.369  1.00  0.00    -0.744 OA
ENDBRANCH  84  85
ENDBRANCH  52  77
BRANCH  64  89
ATOM     89  C   UNL A   1      45.424  31.644  29.176  1.00  0.00     0.058 A 
ATOM     90  C   UNL A   1      46.694  32.044  28.724  1.00  0.00     0.135 A 
ATOM     91  C   UNL A   1      44.315  32.187  28.510  1.00  0.00     0.135 A 
ATOM     92  F   UNL A   1      47.807  31.486  29.216  1.00  0.00    -0.206 F 
ATOM     93  C   UNL A   1      46.857  32.970  27.694  1.00  0.00     0.059 A 
ATOM     94  C   UNL A   1      44.453  33.089  27.454  1.00  0.00     0.059 A 
ATOM     95  F   UNL A   1      43.073  31.793  28.840  1.00  0.00    -0.206 F 
ATOM     96  C   UNL A   1      45.730  33.486  27.061  1.00  0.00     0.060 A 
BRANCH  96  97
ATOM     97  S   UNL A   1      45.951  34.599  25.655  1.00  0.00     0.124 S 
ATOM     98  O   UNL A   1      45.578  35.889  26.225  1.00  0.00    -0.237 OA
ATOM     99  O   UNL A   1      47.366  34.434  25.333  1.00  0.00    -0.237 OA
ATOM    100  O   UNL A   1      45.030  34.068  24.652  1.00  0.00    -0.744 OA
ENDBRANCH  96  97
ENDBRANCH  64  89
ENDBRANCH  38  39
ENDBRANCH  31  33
ENDBRANCH  30  31
ENDBRANCH   1  30
TORSDOF 16
ENDMDL
MODEL 3
REMARK VINA RESULT:     -11.9      3.185      8.099
REMARK SMILES Cc1cnn(C2(C(=O)OCCOC(=O)c3ccc(-c4c5nc(c(-c6c(F)cc(S(=O)(=O)[O-])cc6F)c6ccc([nH]6)c(-c6c(F)cc(S(=O)(=O)[O-])cc6F)c6nc(c(-c7c(F)cc(S(=O)(=O)[O-])cc7F)c7ccc4[nH]7)C=C6)C=C5)cc3)CCN(C(=O)c3cc4ccccc4[nH]3)CC2)c1
REMARK SMILES IDX 11 1 10 2 9 3 7 4 8 5 6 6 81 7 96 8 82 9 95 10 83 11 84 12
REMARK SMILES IDX 85 13 5 14 1 15 2 16 3 17 97 18 4 19 86 20 87 21 94 22 88 23
REMARK SMILES IDX 93 24 89 26 92 27 90 28 91 29 12 30 13 31 14 32 15 33 16 34
REMARK SMILES IDX 80 35 17 36 79 37 18 38 19 39 20 40 73 41 21 42 78 43 72 44
REMARK SMILES IDX 74 45 22 46 77 47 71 48 70 49 23 51 57 52 36 53 56 54 37 55
REMARK SMILES IDX 40 56 55 57 75 58 38 59 39 60 54 62 76 63 41 64 24 65 25 66
REMARK SMILES IDX 34 67 26 68 27 69 33 70 35 71 28 72 29 73 30 74 31 75 32 76
REMARK SMILES IDX 58 77 59 78 68 79 60 80 61 81 67 82 69 83 62 84 63 85 64 86
REMARK SMILES IDX 65 87 66 88 42 89 43 90 52 91 44 92 45 93 51 94 53 95 46 96
REMARK SMILES IDX 47 97 48 98 49 99 50 100
REMARK H PARENT 94 25 74 50 40 61
REMARK Flexibility Score: inf
ROOT
ATOM      1  C   UNL A   1      33.714  30.684  26.955  1.00  0.00     0.275 C 
ENDROOT
BRANCH   1   2
ATOM      2  C   UNL A   1      33.192  29.782  25.839  1.00  0.00     0.274 C 
BRANCH   2   3
ATOM      3  O   UNL A   1      33.252  28.386  26.201  1.00  0.00    -0.460 OA
BRANCH   3   4
ATOM      4  C   UNL A   1      32.054  27.708  26.259  1.00  0.00     0.334 C 
ATOM      5  O   UNL A   1      31.453  27.587  27.318  1.00  0.00    -0.249 OA
BRANCH   4   6
ATOM      6  C   UNL A   1      31.739  26.979  24.911  1.00  0.00     0.163 C 
ATOM      7  C   UNL A   1      32.949  27.031  23.929  1.00  0.00     0.064 C 
ATOM      8  C   UNL A   1      31.471  25.546  25.402  1.00  0.00     0.064 C 
ATOM      9  C   UNL A   1      33.100  25.858  22.965  1.00  0.00     0.123 C 
ATOM     10  C   UNL A   1      31.531  24.500  24.313  1.00  0.00     0.123 C 
ATOM     11  N   UNL A   1      32.788  24.574  23.573  1.00  0.00    -0.337 N 
ATOM     12  C   UNL A   1      33.667  23.508  23.386  1.00  0.00     0.270 C 
ATOM     13  O   UNL A   1      34.813  23.670  22.946  1.00  0.00    -0.267 OA
BRANCH   6  14
ATOM     14  N   UNL A   1      30.517  27.509  24.242  1.00  0.00    -0.255 N 
ATOM     15  C   UNL A   1      28.543  29.755  22.111  1.00  0.00     0.048 C 
ATOM     16  C   UNL A   1      29.132  28.708  22.974  1.00  0.00    -0.013 A 
ATOM     17  C   UNL A   1      28.564  27.492  23.388  1.00  0.00     0.138 A 
ATOM     18  C   UNL A   1      30.377  28.700  23.565  1.00  0.00     0.113 A 
ATOM     19  N   UNL A   1      29.390  26.776  24.148  1.00  0.00    -0.180 NA
ENDBRANCH   6  14
BRANCH  12  20
ATOM     20  C   UNL A   1      33.228  22.195  23.784  1.00  0.00     0.105 A 
ATOM     21  C   UNL A   1      33.220  21.569  25.021  1.00  0.00     0.042 A 
ATOM     22  N   UNL A   1      32.676  21.302  22.895  1.00  0.00    -0.351 N 
ATOM     23  C   UNL A   1      32.931  20.198  24.810  1.00  0.00     0.000 A 
ATOM     24  C   UNL A   1      32.588  20.055  23.466  1.00  0.00     0.046 A 
ATOM     25  H   UNL A   1      32.386  21.524  21.981  1.00  0.00     0.167 HD
ATOM     26  C   UNL A   1      32.959  19.061  25.635  1.00  0.00     0.010 A 
ATOM     27  C   UNL A   1      32.245  18.822  22.905  1.00  0.00     0.026 A 
ATOM     28  C   UNL A   1      32.650  17.814  25.082  1.00  0.00     0.001 A 
ATOM     29  C   UNL A   1      32.293  17.700  23.739  1.00  0.00     0.002 A 
ENDBRANCH  12  20
ENDBRANCH   4   6
ENDBRANCH   3   4
ENDBRANCH   2   3
ENDBRANCH   1   2
BRANCH   1  30
ATOM     30  O   UNL A   1      32.639  31.302  27.665  1.00  0.00    -0.458 OA
BRANCH  30  31
ATOM     31  C   UNL A   1      32.727  32.643  27.710  1.00  0.00     0.338 C 
ATOM     32  O   UNL A   1      31.994  33.440  27.113  1.00  0.00    -0.246 OA
BRANCH  31  33
ATOM     33  C   UNL A   1      33.894  33.098  28.449  1.00  0.00     0.060 A 
ATOM     34  C   UNL A   1      34.955  33.608  27.689  1.00  0.00     0.016 A 
ATOM     35  C   UNL A   1      34.060  32.663  29.768  1.00  0.00     0.016 A 
ATOM     36  C   UNL A   1      36.236  33.449  28.160  1.00  0.00     0.010 A 
ATOM     37  C   UNL A   1      35.342  32.506  30.238  1.00  0.00     0.010 A 
ATOM     38  C   UNL A   1      36.409  32.800  29.382  1.00  0.00    -0.014 A 
BRANCH  38  39
ATOM     39  C   UNL A   1      37.741  32.333  29.708  1.00  0.00     0.031 A 
ATOM     40  C   UNL A   1      38.042  30.933  29.336  1.00  0.00     0.074 A 
ATOM     41  C   UNL A   1      38.657  33.204  30.175  1.00  0.00     0.049 A 
ATOM     42  N   UNL A   1      38.545  29.994  30.068  1.00  0.00    -0.248 NA
ATOM     43  C   UNL A   1      37.647  30.502  27.986  1.00  0.00     0.031 C 
ATOM     44  C   UNL A   1      38.524  34.660  30.307  1.00  0.00     0.029 A 
ATOM     45  N   UNL A   1      39.962  32.986  30.480  1.00  0.00    -0.354 N 
ATOM     46  C   UNL A   1      38.690  28.898  29.225  1.00  0.00     0.074 A 
ATOM     47  C   UNL A   1      38.004  29.220  28.000  1.00  0.00     0.031 C 
ATOM     48  C   UNL A   1      39.756  35.203  30.406  1.00  0.00     0.029 A 
ATOM     49  C   UNL A   1      40.739  34.134  30.436  1.00  0.00     0.049 A 
ATOM     50  H   UNL A   1      40.323  32.099  30.709  1.00  0.00     0.167 HD
ATOM     51  C   UNL A   1      39.523  27.860  29.508  1.00  0.00     0.037 A 
ATOM     52  C   UNL A   1      42.085  34.177  30.277  1.00  0.00     0.037 A 
ATOM     53  C   UNL A   1      39.881  27.815  30.898  1.00  0.00     0.049 A 
ATOM     54  C   UNL A   1      42.617  32.841  30.670  1.00  0.00     0.074 A 
ATOM     55  C   UNL A   1      39.162  27.664  32.068  1.00  0.00     0.029 A 
ATOM     56  N   UNL A   1      41.117  28.280  31.277  1.00  0.00    -0.354 N 
ATOM     57  N   UNL A   1      42.574  32.358  31.884  1.00  0.00    -0.248 NA
ATOM     58  C   UNL A   1      42.818  31.849  29.622  1.00  0.00     0.031 C 
ATOM     59  C   UNL A   1      39.829  28.479  33.027  1.00  0.00     0.029 A 
ATOM     60  C   UNL A   1      40.927  29.060  32.391  1.00  0.00     0.049 A 
ATOM     61  H   UNL A   1      41.975  28.090  30.833  1.00  0.00     0.167 HD
ATOM     62  C   UNL A   1      42.331  30.999  31.726  1.00  0.00     0.074 A 
ATOM     63  C   UNL A   1      42.599  30.730  30.317  1.00  0.00     0.031 C 
ATOM     64  C   UNL A   1      41.666  30.273  32.676  1.00  0.00     0.037 A 
BRANCH  51  65
ATOM     65  C   UNL A   1      40.222  27.054  28.449  1.00  0.00     0.058 A 
ATOM     66  C   UNL A   1      39.944  25.683  28.306  1.00  0.00     0.135 A 
ATOM     67  C   UNL A   1      41.340  27.537  27.732  1.00  0.00     0.135 A 
ATOM     68  F   UNL A   1      38.918  25.121  28.963  1.00  0.00    -0.206 F 
ATOM     69  C   UNL A   1      40.751  24.839  27.540  1.00  0.00     0.059 A 
ATOM     70  C   UNL A   1      42.121  26.729  26.917  1.00  0.00     0.059 A 
ATOM     71  F   UNL A   1      41.779  28.796  27.868  1.00  0.00    -0.206 F 
ATOM     72  C   UNL A   1      41.848  25.372  26.864  1.00  0.00     0.060 A 
BRANCH  72  73
ATOM     73  S   UNL A   1      42.969  24.272  25.982  1.00  0.00     0.124 S 
ATOM     74  O   UNL A   1      43.050  24.928  24.682  1.00  0.00    -0.237 OA
ATOM     75  O   UNL A   1      44.172  24.333  26.806  1.00  0.00    -0.237 OA
ATOM     76  O   UNL A   1      42.266  22.993  26.003  1.00  0.00    -0.744 OA
ENDBRANCH  72  73
ENDBRANCH  51  65
BRANCH  52  77
ATOM     77  C   UNL A   1      42.842  35.158  29.448  1.00  0.00     0.058 A 
ATOM     78  C   UNL A   1      42.400  35.520  28.164  1.00  0.00     0.135 A 
ATOM     79  C   UNL A   1      43.888  35.947  29.979  1.00  0.00     0.135 A 
ATOM     80  F   UNL A   1      41.385  34.856  27.590  1.00  0.00    -0.206 F 
ATOM     81  C   UNL A   1      42.939  36.608  27.465  1.00  0.00     0.059 A 
ATOM     82  C   UNL A   1      44.459  37.014  29.293  1.00  0.00     0.059 A 
ATOM     83  F   UNL A   1      44.336  35.772  31.231  1.00  0.00    -0.206 F 
ATOM     84  C   UNL A   1      43.963  37.357  28.045  1.00  0.00     0.060 A 
BRANCH  84  85
ATOM     85  S   UNL A   1      44.557  38.855  27.228  1.00  0.00     0.124 S 
ATOM     86  O   UNL A   1      45.647  38.339  26.408  1.00  0.00    -0.237 OA
ATOM     87  O   UNL A   1      43.371  39.303  26.506  1.00  0.00    -0.237 OA
ATOM     88  O   UNL A   1      44.964  39.710  28.340  1.00  0.00    -0.744 OA
ENDBRANCH  84  85
ENDBRANCH  52  77
BRANCH  64  89
ATOM     89  C   UNL A   1      41.423  30.908  34.023  1.00  0.00     0.058 A 
ATOM     90  C   UNL A   1      42.353  30.871  35.076  1.00  0.00     0.135 A 
ATOM     91  C   UNL A   1      40.303  31.736  34.197  1.00  0.00     0.135 A 
ATOM     92  F   UNL A   1      43.509  30.207  34.950  1.00  0.00    -0.206 F 
ATOM     93  C   UNL A   1      42.162  31.580  36.261  1.00  0.00     0.059 A 
ATOM     94  C   UNL A   1      40.106  32.482  35.360  1.00  0.00     0.059 A 
ATOM     95  F   UNL A   1      39.411  31.878  33.202  1.00  0.00    -0.206 F 
ATOM     96  C   UNL A   1      41.036  32.388  36.394  1.00  0.00     0.060 A 
BRANCH  96  97
ATOM     97  S   UNL A   1      40.851  33.389  37.886  1.00  0.00     0.124 S 
ATOM     98  O   UNL A   1      39.452  33.796  37.810  1.00  0.00    -0.237 OA
ATOM     99  O   UNL A   1      41.179  32.445  38.951  1.00  0.00    -0.237 OA
ATOM    100  O   UNL A   1      41.826  34.462  37.698  1.00  0.00    -0.744 OA
ENDBRANCH  96  97
ENDBRANCH  64  89
ENDBRANCH  38  39
ENDBRANCH  31  33
ENDBRANCH  30  31
ENDBRANCH   1  30
TORSDOF 16
ENDMDL
