MODEL 1
REMARK VINA RESULT:     -11.7      0.000      0.000
REMARK SMILES C[C@@H](C(=O)OCCOC(=O)c1ccc(-c2c3nc(c(-c4c(F)cc(S(=O)(=O)[O-])cc4F)c4ccc([nH]4)c(-c4c(F)cc(S(=O)(=O)[O-])cc4F)c4nc(c(-c5c(F)cc(S(=O)(=O)[O-])cc5F)c5ccc2[nH]5)C=C4)C=C3)cc1)c1ccc(N[C@H]2CCC[C@@H]2O)cc1F
REMARK SMILES IDX 6 1 5 2 3 3 4 4 2 5 1 6 77 7 78 8 89 9 79 10 88 11 90 12
REMARK SMILES IDX 80 13 81 14 82 16 83 17 86 18 84 19 85 20 87 21 7 23 8 24
REMARK SMILES IDX 9 25 10 26 11 27 12 28 76 29 13 30 75 31 14 32 15 33 16 34
REMARK SMILES IDX 69 35 17 36 74 37 68 38 70 39 18 40 73 41 67 42 66 43 19 45
REMARK SMILES IDX 53 46 32 47 52 48 33 49 36 50 51 51 71 52 34 53 35 54 50 56
REMARK SMILES IDX 72 57 37 58 20 59 21 60 30 61 22 62 23 63 29 64 31 65 24 66
REMARK SMILES IDX 25 67 26 68 27 69 28 70 54 71 55 72 64 73 56 74 57 75 63 76
REMARK SMILES IDX 65 77 58 78 59 79 60 80 61 81 62 82 38 83 39 84 48 85 40 86
REMARK SMILES IDX 41 87 47 88 49 89 42 90 43 91 44 92 45 93 46 94
REMARK H PARENT 81 15 87 22 70 44 36 55
REMARK Flexibility Score: inf
ROOT
ATOM      1  C   UNL A   1      33.441  29.920  27.346  1.00  0.00     0.274 C 
ENDROOT
BRANCH   1   2
ATOM      2  O   UNL A   1      33.535  28.484  27.271  1.00  0.00    -0.462 OA
BRANCH   2   3
ATOM      3  C   UNL A   1      32.353  27.817  27.141  1.00  0.00     0.313 C 
ATOM      4  O   UNL A   1      31.477  27.849  27.998  1.00  0.00    -0.252 OA
BRANCH   3   5
ATOM      5  C   UNL A   1      32.300  26.940  25.870  1.00  0.00     0.129 C 
ATOM      6  C   UNL A   1      33.705  26.667  25.321  1.00  0.00     0.025 C 
BRANCH   5   7
ATOM      7  C   UNL A   1      31.295  27.474  24.845  1.00  0.00     0.002 A 
ATOM      8  C   UNL A   1      30.151  26.716  24.553  1.00  0.00     0.010 A 
ATOM      9  C   UNL A   1      31.406  28.699  24.182  1.00  0.00     0.129 A 
ATOM     10  C   UNL A   1      29.144  27.199  23.703  1.00  0.00     0.026 A 
ATOM     11  C   UNL A   1      30.415  29.157  23.304  1.00  0.00     0.065 A 
ATOM     12  F   UNL A   1      32.465  29.496  24.374  1.00  0.00    -0.207 F 
ATOM     13  C   UNL A   1      29.247  28.427  23.060  1.00  0.00     0.037 A 
BRANCH  13  14
ATOM     14  N   UNL A   1      28.318  28.934  22.181  1.00  0.00    -0.380 N 
ATOM     15  H   UNL A   1      28.058  28.316  21.461  1.00  0.00     0.160 HD
BRANCH  14  16
ATOM     16  C   UNL A   1      27.651  30.241  22.136  1.00  0.00     0.107 C 
ATOM     17  C   UNL A   1      27.538  30.993  23.455  1.00  0.00     0.027 C 
ATOM     18  C   UNL A   1      28.277  31.188  21.108  1.00  0.00     0.136 C 
ATOM     19  C   UNL A   1      28.282  32.311  23.288  1.00  0.00     0.005 C 
ATOM     20  C   UNL A   1      28.459  32.534  21.796  1.00  0.00     0.034 C 
BRANCH  18  21
ATOM     21  O   UNL A   1      27.377  31.306  20.010  1.00  0.00    -0.391 OA
ATOM     22  H   UNL A   1      27.442  30.516  19.451  1.00  0.00     0.211 HD
ENDBRANCH  18  21
ENDBRANCH  14  16
ENDBRANCH  13  14
ENDBRANCH   5   7
ENDBRANCH   3   5
ENDBRANCH   2   3
ENDBRANCH   1   2
BRANCH   1  23
ATOM     23  C   UNL A   1      34.681  30.541  27.995  1.00  0.00     0.275 C 
BRANCH  23  24
ATOM     24  O   UNL A   1      35.561  29.541  28.541  1.00  0.00    -0.458 OA
BRANCH  24  25
ATOM     25  C   UNL A   1      36.307  29.942  29.597  1.00  0.00     0.338 C 
ATOM     26  O   UNL A   1      35.902  30.315  30.685  1.00  0.00    -0.246 OA
BRANCH  25  27
ATOM     27  C   UNL A   1      37.736  29.781  29.285  1.00  0.00     0.060 A 
ATOM     28  C   UNL A   1      38.128  29.908  27.956  1.00  0.00     0.016 A 
ATOM     29  C   UNL A   1      38.661  29.393  30.257  1.00  0.00     0.016 A 
ATOM     30  C   UNL A   1      39.436  29.618  27.581  1.00  0.00     0.010 A 
ATOM     31  C   UNL A   1      39.988  29.128  29.881  1.00  0.00     0.010 A 
ATOM     32  C   UNL A   1      40.380  29.221  28.535  1.00  0.00    -0.014 A 
BRANCH  32  33
ATOM     33  C   UNL A   1      41.743  28.848  28.072  1.00  0.00     0.031 A 
ATOM     34  C   UNL A   1      42.899  29.769  28.345  1.00  0.00     0.074 A 
ATOM     35  C   UNL A   1      41.958  27.634  27.525  1.00  0.00     0.049 A 
ATOM     36  N   UNL A   1      44.172  29.582  28.112  1.00  0.00    -0.248 NA
ATOM     37  C   UNL A   1      42.584  31.068  28.958  1.00  0.00     0.031 C 
ATOM     38  C   UNL A   1      40.922  26.629  27.288  1.00  0.00     0.029 A 
ATOM     39  N   UNL A   1      43.123  27.004  27.152  1.00  0.00    -0.354 N 
ATOM     40  C   UNL A   1      44.801  30.770  28.468  1.00  0.00     0.074 A 
ATOM     41  C   UNL A   1      43.776  31.648  28.993  1.00  0.00     0.031 C 
ATOM     42  C   UNL A   1      41.507  25.478  26.917  1.00  0.00     0.029 A 
ATOM     43  C   UNL A   1      42.954  25.667  26.854  1.00  0.00     0.049 A 
ATOM     44  H   UNL A   1      43.993  27.462  27.103  1.00  0.00     0.167 HD
ATOM     45  C   UNL A   1      46.104  31.112  28.323  1.00  0.00     0.037 A 
ATOM     46  C   UNL A   1      43.875  24.701  26.647  1.00  0.00     0.037 A 
ATOM     47  C   UNL A   1      47.126  30.225  27.830  1.00  0.00     0.049 A 
ATOM     48  C   UNL A   1      45.334  25.078  26.609  1.00  0.00     0.074 A 
ATOM     49  C   UNL A   1      48.457  30.502  27.571  1.00  0.00     0.029 A 
ATOM     50  N   UNL A   1      46.932  28.885  27.538  1.00  0.00    -0.354 N 
ATOM     51  N   UNL A   1      45.901  26.229  26.882  1.00  0.00    -0.248 NA
ATOM     52  C   UNL A   1      46.275  24.025  26.195  1.00  0.00     0.031 C 
ATOM     53  C   UNL A   1      49.059  29.336  27.082  1.00  0.00     0.029 A 
ATOM     54  C   UNL A   1      48.112  28.326  27.078  1.00  0.00     0.049 A 
ATOM     55  H   UNL A   1      46.081  28.401  27.642  1.00  0.00     0.167 HD
ATOM     56  C   UNL A   1      47.262  26.040  26.654  1.00  0.00     0.074 A 
ATOM     57  C   UNL A   1      47.439  24.651  26.289  1.00  0.00     0.031 C 
ATOM     58  C   UNL A   1      48.271  26.945  26.700  1.00  0.00     0.037 A 
BRANCH  45  59
ATOM     59  C   UNL A   1      46.472  32.545  28.579  1.00  0.00     0.058 A 
ATOM     60  C   UNL A   1      46.953  32.998  29.815  1.00  0.00     0.135 A 
ATOM     61  C   UNL A   1      46.347  33.481  27.538  1.00  0.00     0.135 A 
ATOM     62  F   UNL A   1      47.069  32.149  30.848  1.00  0.00    -0.206 F 
ATOM     63  C   UNL A   1      47.277  34.339  30.016  1.00  0.00     0.059 A 
ATOM     64  C   UNL A   1      46.684  34.818  27.710  1.00  0.00     0.059 A 
ATOM     65  F   UNL A   1      45.886  33.097  26.336  1.00  0.00    -0.206 F 
ATOM     66  C   UNL A   1      47.134  35.241  28.959  1.00  0.00     0.060 A 
BRANCH  66  67
ATOM     67  S   UNL A   1      47.543  36.978  29.231  1.00  0.00     0.124 S 
ATOM     68  O   UNL A   1      48.022  36.950  30.610  1.00  0.00    -0.237 OA
ATOM     69  O   UNL A   1      48.557  37.227  28.212  1.00  0.00    -0.237 OA
ATOM     70  O   UNL A   1      46.271  37.663  29.024  1.00  0.00    -0.744 OA
ENDBRANCH  66  67
ENDBRANCH  45  59
BRANCH  46  71
ATOM     71  C   UNL A   1      43.484  23.262  26.580  1.00  0.00     0.058 A 
ATOM     72  C   UNL A   1      43.405  22.618  25.333  1.00  0.00     0.135 A 
ATOM     73  C   UNL A   1      43.176  22.503  27.716  1.00  0.00     0.135 A 
ATOM     74  F   UNL A   1      43.675  23.298  24.208  1.00  0.00    -0.206 F 
ATOM     75  C   UNL A   1      43.045  21.281  25.212  1.00  0.00     0.059 A 
ATOM     76  C   UNL A   1      42.831  21.156  27.624  1.00  0.00     0.059 A 
ATOM     77  F   UNL A   1      43.227  23.062  28.935  1.00  0.00    -0.206 F 
ATOM     78  C   UNL A   1      42.760  20.556  26.365  1.00  0.00     0.060 A 
BRANCH  78  79
ATOM     79  S   UNL A   1      42.341  18.807  26.213  1.00  0.00     0.124 S 
ATOM     80  O   UNL A   1      41.015  18.876  25.613  1.00  0.00    -0.237 OA
ATOM     81  O   UNL A   1      43.406  18.301  25.353  1.00  0.00    -0.237 OA
ATOM     82  O   UNL A   1      42.389  18.337  27.594  1.00  0.00    -0.744 OA
ENDBRANCH  78  79
ENDBRANCH  46  71
BRANCH  58  83
ATOM     83  C   UNL A   1      49.636  26.483  26.270  1.00  0.00     0.058 A 
ATOM     84  C   UNL A   1      50.119  26.772  24.982  1.00  0.00     0.135 A 
ATOM     85  C   UNL A   1      50.492  25.809  27.153  1.00  0.00     0.135 A 
ATOM     86  F   UNL A   1      49.341  27.415  24.097  1.00  0.00    -0.206 F 
ATOM     87  C   UNL A   1      51.392  26.389  24.578  1.00  0.00     0.059 A 
ATOM     88  C   UNL A   1      51.781  25.437  26.778  1.00  0.00     0.059 A 
ATOM     89  F   UNL A   1      50.086  25.518  28.399  1.00  0.00    -0.206 F 
ATOM     90  C   UNL A   1      52.219  25.723  25.484  1.00  0.00     0.060 A 
BRANCH  90  91
ATOM     91  S   UNL A   1      53.888  25.276  24.960  1.00  0.00     0.124 S 
ATOM     92  O   UNL A   1      54.697  25.865  26.022  1.00  0.00    -0.237 OA
ATOM     93  O   UNL A   1      53.831  23.818  24.940  1.00  0.00    -0.237 OA
ATOM     94  O   UNL A   1      54.013  25.909  23.649  1.00  0.00    -0.744 OA
ENDBRANCH  90  91
ENDBRANCH  58  83
ENDBRANCH  32  33
ENDBRANCH  25  27
ENDBRANCH  24  25
ENDBRANCH  23  24
ENDBRANCH   1  23
TORSDOF 18
ENDMDL
MODEL 2
REMARK VINA RESULT:     -11.6      0.535      8.333
REMARK SMILES C[C@@H](C(=O)OCCOC(=O)c1ccc(-c2c3nc(c(-c4c(F)cc(S(=O)(=O)[O-])cc4F)c4ccc([nH]4)c(-c4c(F)cc(S(=O)(=O)[O-])cc4F)c4nc(c(-c5c(F)cc(S(=O)(=O)[O-])cc5F)c5ccc2[nH]5)C=C4)C=C3)cc1)c1ccc(N[C@H]2CCC[C@@H]2O)cc1F
REMARK SMILES IDX 6 1 5 2 3 3 4 4 2 5 1 6 77 7 78 8 89 9 79 10 88 11 90 12
REMARK SMILES IDX 80 13 81 14 82 16 83 17 86 18 84 19 85 20 87 21 7 23 8 24
REMARK SMILES IDX 9 25 10 26 11 27 12 28 76 29 13 30 75 31 14 32 15 33 16 34
REMARK SMILES IDX 69 35 17 36 74 37 68 38 70 39 18 40 73 41 67 42 66 43 19 45
REMARK SMILES IDX 53 46 32 47 52 48 33 49 36 50 51 51 71 52 34 53 35 54 50 56
REMARK SMILES IDX 72 57 37 58 20 59 21 60 30 61 22 62 23 63 29 64 31 65 24 66
REMARK SMILES IDX 25 67 26 68 27 69 28 70 54 71 55 72 64 73 56 74 57 75 63 76
REMARK SMILES IDX 65 77 58 78 59 79 60 80 61 81 62 82 38 83 39 84 48 85 40 86
REMARK SMILES IDX 41 87 47 88 49 89 42 90 43 91 44 92 45 93 46 94
REMARK H PARENT 81 15 87 22 70 44 36 55
REMARK Flexibility Score: inf
ROOT
ATOM      1  C   UNL A   1      33.430  29.910  27.284  1.00  0.00     0.274 C 
ENDROOT
BRANCH   1   2
ATOM      2  O   UNL A   1      33.524  28.472  27.260  1.00  0.00    -0.462 OA
BRANCH   2   3
ATOM      3  C   UNL A   1      32.343  27.801  27.139  1.00  0.00     0.313 C 
ATOM      4  O   UNL A   1      31.473  27.830  28.003  1.00  0.00    -0.252 OA
BRANCH   3   5
ATOM      5  C   UNL A   1      32.283  26.923  25.869  1.00  0.00     0.129 C 
ATOM      6  C   UNL A   1      33.688  26.563  25.373  1.00  0.00     0.025 C 
BRANCH   5   7
ATOM      7  C   UNL A   1      31.351  27.512  24.807  1.00  0.00     0.002 A 
ATOM      8  C   UNL A   1      30.136  26.867  24.532  1.00  0.00     0.010 A 
ATOM      9  C   UNL A   1      31.597  28.687  24.092  1.00  0.00     0.129 A 
ATOM     10  C   UNL A   1      29.194  27.415  23.647  1.00  0.00     0.026 A 
ATOM     11  C   UNL A   1      30.670  29.207  23.179  1.00  0.00     0.065 A 
ATOM     12  F   UNL A   1      32.734  29.376  24.263  1.00  0.00    -0.207 F 
ATOM     13  C   UNL A   1      29.433  28.593  22.951  1.00  0.00     0.037 A 
BRANCH  13  14
ATOM     14  N   UNL A   1      28.573  29.155  22.037  1.00  0.00    -0.380 N 
ATOM     15  H   UNL A   1      28.436  28.620  21.222  1.00  0.00     0.160 HD
BRANCH  14  16
ATOM     16  C   UNL A   1      27.824  30.418  22.070  1.00  0.00     0.107 C 
ATOM     17  C   UNL A   1      27.650  31.069  23.436  1.00  0.00     0.027 C 
ATOM     18  C   UNL A   1      28.399  31.471  21.118  1.00  0.00     0.136 C 
ATOM     19  C   UNL A   1      28.311  32.440  23.369  1.00  0.00     0.005 C 
ATOM     20  C   UNL A   1      28.489  32.775  21.899  1.00  0.00     0.034 C 
BRANCH  18  21
ATOM     21  O   UNL A   1      27.505  31.607  20.018  1.00  0.00    -0.391 OA
ATOM     22  H   UNL A   1      27.979  31.983  19.259  1.00  0.00     0.211 HD
ENDBRANCH  18  21
ENDBRANCH  14  16
ENDBRANCH  13  14
ENDBRANCH   5   7
ENDBRANCH   3   5
ENDBRANCH   2   3
ENDBRANCH   1   2
BRANCH   1  23
ATOM     23  C   UNL A   1      34.689  30.555  27.867  1.00  0.00     0.275 C 
BRANCH  23  24
ATOM     24  O   UNL A   1      35.697  29.578  28.187  1.00  0.00    -0.458 OA
BRANCH  24  25
ATOM     25  C   UNL A   1      36.296  29.737  29.390  1.00  0.00     0.338 C 
ATOM     26  O   UNL A   1      35.751  29.886  30.470  1.00  0.00    -0.246 OA
BRANCH  25  27
ATOM     27  C   UNL A   1      37.755  29.616  29.238  1.00  0.00     0.060 A 
ATOM     28  C   UNL A   1      38.277  29.635  27.948  1.00  0.00     0.016 A 
ATOM     29  C   UNL A   1      38.589  29.364  30.330  1.00  0.00     0.016 A 
ATOM     30  C   UNL A   1      39.626  29.374  27.734  1.00  0.00     0.010 A 
ATOM     31  C   UNL A   1      39.956  29.128  30.115  1.00  0.00     0.010 A 
ATOM     32  C   UNL A   1      40.481  29.113  28.811  1.00  0.00    -0.014 A 
BRANCH  32  33
ATOM     33  C   UNL A   1      41.898  28.763  28.525  1.00  0.00     0.031 A 
ATOM     34  C   UNL A   1      42.229  27.413  27.954  1.00  0.00     0.074 A 
ATOM     35  C   UNL A   1      42.861  29.698  28.658  1.00  0.00     0.049 A 
ATOM     36  N   UNL A   1      43.383  26.953  27.545  1.00  0.00    -0.248 NA
ATOM     37  C   UNL A   1      41.120  26.455  27.826  1.00  0.00     0.031 C 
ATOM     38  C   UNL A   1      42.640  31.065  29.127  1.00  0.00     0.029 A 
ATOM     39  N   UNL A   1      44.197  29.672  28.330  1.00  0.00    -0.354 N 
ATOM     40  C   UNL A   1      43.160  25.627  27.193  1.00  0.00     0.074 A 
ATOM     41  C   UNL A   1      41.746  25.376  27.376  1.00  0.00     0.031 C 
ATOM     42  C   UNL A   1      43.768  31.775  28.953  1.00  0.00     0.029 A 
ATOM     43  C   UNL A   1      44.804  30.910  28.395  1.00  0.00     0.049 A 
ATOM     44  H   UNL A   1      44.675  28.850  28.074  1.00  0.00     0.167 HD
ATOM     45  C   UNL A   1      44.061  24.694  26.802  1.00  0.00     0.037 A 
ATOM     46  C   UNL A   1      46.022  31.303  27.966  1.00  0.00     0.037 A 
ATOM     47  C   UNL A   1      45.461  24.956  26.592  1.00  0.00     0.049 A 
ATOM     48  C   UNL A   1      46.973  30.269  27.418  1.00  0.00     0.074 A 
ATOM     49  C   UNL A   1      46.469  24.062  26.274  1.00  0.00     0.029 A 
ATOM     50  N   UNL A   1      46.047  26.209  26.661  1.00  0.00    -0.354 N 
ATOM     51  N   UNL A   1      46.760  29.001  27.158  1.00  0.00    -0.248 NA
ATOM     52  C   UNL A   1      48.346  30.719  27.142  1.00  0.00     0.031 C 
ATOM     53  C   UNL A   1      47.673  24.771  26.191  1.00  0.00     0.029 A 
ATOM     54  C   UNL A   1      47.407  26.110  26.417  1.00  0.00     0.049 A 
ATOM     55  H   UNL A   1      45.568  27.048  26.856  1.00  0.00     0.167 HD
ATOM     56  C   UNL A   1      47.978  28.501  26.705  1.00  0.00     0.074 A 
ATOM     57  C   UNL A   1      48.901  29.616  26.662  1.00  0.00     0.031 C 
ATOM     58  C   UNL A   1      48.318  27.225  26.395  1.00  0.00     0.037 A 
BRANCH  45  59
ATOM     59  C   UNL A   1      43.583  23.274  26.704  1.00  0.00     0.058 A 
ATOM     60  C   UNL A   1      43.277  22.494  27.827  1.00  0.00     0.135 A 
ATOM     61  C   UNL A   1      43.419  22.693  25.434  1.00  0.00     0.135 A 
ATOM     62  F   UNL A   1      43.439  22.994  29.062  1.00  0.00    -0.206 F 
ATOM     63  C   UNL A   1      42.843  21.176  27.695  1.00  0.00     0.059 A 
ATOM     64  C   UNL A   1      42.967  21.389  25.279  1.00  0.00     0.059 A 
ATOM     65  F   UNL A   1      43.703  23.397  24.327  1.00  0.00    -0.206 F 
ATOM     66  C   UNL A   1      42.696  20.631  26.417  1.00  0.00     0.060 A 
BRANCH  66  67
ATOM     67  S   UNL A   1      42.147  18.920  26.254  1.00  0.00     0.124 S 
ATOM     68  O   UNL A   1      42.301  18.435  27.622  1.00  0.00    -0.237 OA
ATOM     69  O   UNL A   1      40.774  19.072  25.786  1.00  0.00    -0.237 OA
ATOM     70  O   UNL A   1      43.078  18.356  25.281  1.00  0.00    -0.744 OA
ENDBRANCH  66  67
ENDBRANCH  45  59
BRANCH  46  71
ATOM     71  C   UNL A   1      46.392  32.748  27.908  1.00  0.00     0.058 A 
ATOM     72  C   UNL A   1      47.085  33.334  28.983  1.00  0.00     0.135 A 
ATOM     73  C   UNL A   1      46.074  33.573  26.822  1.00  0.00     0.135 A 
ATOM     74  F   UNL A   1      47.405  32.596  30.057  1.00  0.00    -0.206 F 
ATOM     75  C   UNL A   1      47.453  34.674  28.983  1.00  0.00     0.059 A 
ATOM     76  C   UNL A   1      46.448  34.915  26.790  1.00  0.00     0.059 A 
ATOM     77  F   UNL A   1      45.409  33.075  25.769  1.00  0.00    -0.206 F 
ATOM     78  C   UNL A   1      47.131  35.458  27.880  1.00  0.00     0.060 A 
BRANCH  78  79
ATOM     79  S   UNL A   1      47.653  37.186  27.858  1.00  0.00     0.124 S 
ATOM     80  O   UNL A   1      46.677  37.797  28.751  1.00  0.00    -0.237 OA
ATOM     81  O   UNL A   1      49.020  37.110  28.363  1.00  0.00    -0.237 OA
ATOM     82  O   UNL A   1      47.536  37.546  26.448  1.00  0.00    -0.744 OA
ENDBRANCH  78  79
ENDBRANCH  46  71
BRANCH  58  83
ATOM     83  C   UNL A   1      49.758  26.954  26.061  1.00  0.00     0.058 A 
ATOM     84  C   UNL A   1      50.675  26.603  27.067  1.00  0.00     0.135 A 
ATOM     85  C   UNL A   1      50.220  26.978  24.736  1.00  0.00     0.135 A 
ATOM     86  F   UNL A   1      50.286  26.564  28.351  1.00  0.00    -0.206 F 
ATOM     87  C   UNL A   1      52.001  26.309  26.775  1.00  0.00     0.059 A 
ATOM     88  C   UNL A   1      51.539  26.664  24.418  1.00  0.00     0.059 A 
ATOM     89  F   UNL A   1      49.385  27.295  23.734  1.00  0.00    -0.206 F 
ATOM     90  C   UNL A   1      52.425  26.339  25.446  1.00  0.00     0.060 A 
BRANCH  90  91
ATOM     91  S   UNL A   1      54.139  25.907  25.078  1.00  0.00     0.124 S 
ATOM     92  O   UNL A   1      54.324  26.524  23.769  1.00  0.00    -0.237 OA
ATOM     93  O   UNL A   1      54.864  26.530  26.181  1.00  0.00    -0.237 OA
ATOM     94  O   UNL A   1      54.131  24.446  25.090  1.00  0.00    -0.744 OA
ENDBRANCH  90  91
ENDBRANCH  58  83
ENDBRANCH  32  33
ENDBRANCH  25  27
ENDBRANCH  24  25
ENDBRANCH  23  24
ENDBRANCH   1  23
TORSDOF 18
ENDMDL
MODEL 3
REMARK VINA RESULT:     -11.6      7.713     13.110
REMARK SMILES C[C@@H](C(=O)OCCOC(=O)c1ccc(-c2c3nc(c(-c4c(F)cc(S(=O)(=O)[O-])cc4F)c4ccc([nH]4)c(-c4c(F)cc(S(=O)(=O)[O-])cc4F)c4nc(c(-c5c(F)cc(S(=O)(=O)[O-])cc5F)c5ccc2[nH]5)C=C4)C=C3)cc1)c1ccc(N[C@H]2CCC[C@@H]2O)cc1F
REMARK SMILES IDX 6 1 5 2 3 3 4 4 2 5 1 6 77 7 78 8 89 9 79 10 88 11 90 12
REMARK SMILES IDX 80 13 81 14 82 16 83 17 86 18 84 19 85 20 87 21 7 23 8 24
REMARK SMILES IDX 9 25 10 26 11 27 12 28 76 29 13 30 75 31 14 32 15 33 16 34
REMARK SMILES IDX 69 35 17 36 74 37 68 38 70 39 18 40 73 41 67 42 66 43 19 45
REMARK SMILES IDX 53 46 32 47 52 48 33 49 36 50 51 51 71 52 34 53 35 54 50 56
REMARK SMILES IDX 72 57 37 58 20 59 21 60 30 61 22 62 23 63 29 64 31 65 24 66
REMARK SMILES IDX 25 67 26 68 27 69 28 70 54 71 55 72 64 73 56 74 57 75 63 76
REMARK SMILES IDX 65 77 58 78 59 79 60 80 61 81 62 82 38 83 39 84 48 85 40 86
REMARK SMILES IDX 41 87 47 88 49 89 42 90 43 91 44 92 45 93 46 94
REMARK H PARENT 81 15 87 22 70 44 36 55
REMARK Flexibility Score: inf
ROOT
ATOM      1  C   UNL A   1      37.764  22.591  25.429  1.00  0.00     0.274 C 
ENDROOT
BRANCH   1   2
ATOM      2  O   UNL A   1      36.954  23.670  24.922  1.00  0.00    -0.462 OA
BRANCH   2   3
ATOM      3  C   UNL A   1      36.191  23.379  23.831  1.00  0.00     0.313 C 
ATOM      4  O   UNL A   1      36.673  23.167  22.723  1.00  0.00    -0.252 OA
BRANCH   3   5
ATOM      5  C   UNL A   1      34.676  23.466  24.122  1.00  0.00     0.129 C 
ATOM      6  C   UNL A   1      34.394  24.315  25.366  1.00  0.00     0.025 C 
BRANCH   5   7
ATOM      7  C   UNL A   1      34.010  22.086  24.112  1.00  0.00     0.002 A 
ATOM      8  C   UNL A   1      34.517  21.079  24.947  1.00  0.00     0.010 A 
ATOM      9  C   UNL A   1      32.891  21.746  23.348  1.00  0.00     0.129 A 
ATOM     10  C   UNL A   1      33.887  19.829  25.060  1.00  0.00     0.026 A 
ATOM     11  C   UNL A   1      32.292  20.482  23.436  1.00  0.00     0.065 A 
ATOM     12  F   UNL A   1      32.335  22.626  22.505  1.00  0.00    -0.207 F 
ATOM     13  C   UNL A   1      32.763  19.499  24.313  1.00  0.00     0.037 A 
BRANCH  13  14
ATOM     14  N   UNL A   1      32.129  18.278  24.344  1.00  0.00    -0.380 N 
ATOM     15  H   UNL A   1      31.164  18.323  24.531  1.00  0.00     0.160 HD
BRANCH  14  16
ATOM     16  C   UNL A   1      32.651  16.920  24.147  1.00  0.00     0.107 C 
ATOM     17  C   UNL A   1      33.985  16.802  23.422  1.00  0.00     0.027 C 
ATOM     18  C   UNL A   1      32.757  16.132  25.456  1.00  0.00     0.136 C 
ATOM     19  C   UNL A   1      34.960  16.128  24.379  1.00  0.00     0.005 C 
ATOM     20  C   UNL A   1      34.130  15.475  25.470  1.00  0.00     0.034 C 
BRANCH  18  21
ATOM     21  O   UNL A   1      31.730  15.145  25.462  1.00  0.00    -0.391 OA
ATOM     22  H   UNL A   1      32.071  14.319  25.086  1.00  0.00     0.211 HD
ENDBRANCH  18  21
ENDBRANCH  14  16
ENDBRANCH  13  14
ENDBRANCH   5   7
ENDBRANCH   3   5
ENDBRANCH   2   3
ENDBRANCH   1   2
BRANCH   1  23
ATOM     23  C   UNL A   1      38.940  23.103  26.264  1.00  0.00     0.275 C 
BRANCH  23  24
ATOM     24  O   UNL A   1      38.844  24.516  26.521  1.00  0.00    -0.458 OA
BRANCH  24  25
ATOM     25  C   UNL A   1      40.018  25.190  26.494  1.00  0.00     0.338 C 
ATOM     26  O   UNL A   1      40.842  25.198  25.596  1.00  0.00    -0.246 OA
BRANCH  25  27
ATOM     27  C   UNL A   1      40.143  26.019  27.704  1.00  0.00     0.060 A 
ATOM     28  C   UNL A   1      39.269  25.765  28.757  1.00  0.00     0.016 A 
ATOM     29  C   UNL A   1      41.016  27.107  27.762  1.00  0.00     0.016 A 
ATOM     30  C   UNL A   1      39.239  26.611  29.861  1.00  0.00     0.010 A 
ATOM     31  C   UNL A   1      41.004  27.945  28.889  1.00  0.00     0.010 A 
ATOM     32  C   UNL A   1      40.100  27.712  29.940  1.00  0.00    -0.014 A 
BRANCH  32  33
ATOM     33  C   UNL A   1      39.975  28.629  31.103  1.00  0.00     0.031 A 
ATOM     34  C   UNL A   1      41.094  28.720  32.103  1.00  0.00     0.074 A 
ATOM     35  C   UNL A   1      38.920  29.465  31.189  1.00  0.00     0.049 A 
ATOM     36  N   UNL A   1      41.219  29.525  33.126  1.00  0.00    -0.248 NA
ATOM     37  C   UNL A   1      42.215  27.784  31.932  1.00  0.00     0.031 C 
ATOM     38  C   UNL A   1      37.816  29.519  30.230  1.00  0.00     0.029 A 
ATOM     39  N   UNL A   1      38.645  30.487  32.069  1.00  0.00    -0.354 N 
ATOM     40  C   UNL A   1      42.388  29.138  33.771  1.00  0.00     0.074 A 
ATOM     41  C   UNL A   1      42.968  28.068  32.986  1.00  0.00     0.031 C 
ATOM     42  C   UNL A   1      37.047  30.585  30.509  1.00  0.00     0.029 A 
ATOM     43  C   UNL A   1      37.577  31.272  31.684  1.00  0.00     0.049 A 
ATOM     44  H   UNL A   1      39.159  30.642  32.893  1.00  0.00     0.167 HD
ATOM     45  C   UNL A   1      42.902  29.601  34.936  1.00  0.00     0.037 A 
ATOM     46  C   UNL A   1      37.146  32.453  32.176  1.00  0.00     0.037 A 
ATOM     47  C   UNL A   1      42.340  30.686  35.697  1.00  0.00     0.049 A 
ATOM     48  C   UNL A   1      37.810  33.017  33.407  1.00  0.00     0.074 A 
ATOM     49  C   UNL A   1      42.740  31.176  36.928  1.00  0.00     0.029 A 
ATOM     50  N   UNL A   1      41.268  31.462  35.288  1.00  0.00    -0.354 N 
ATOM     51  N   UNL A   1      38.877  32.594  34.042  1.00  0.00    -0.248 NA
ATOM     52  C   UNL A   1      37.182  34.205  34.007  1.00  0.00     0.031 C 
ATOM     53  C   UNL A   1      41.881  32.223  37.283  1.00  0.00     0.029 A 
ATOM     54  C   UNL A   1      40.975  32.411  36.254  1.00  0.00     0.049 A 
ATOM     55  H   UNL A   1      40.784  31.355  34.437  1.00  0.00     0.167 HD
ATOM     56  C   UNL A   1      39.033  33.454  35.127  1.00  0.00     0.074 A 
ATOM     57  C   UNL A   1      37.996  34.458  35.021  1.00  0.00     0.031 C 
ATOM     58  C   UNL A   1      39.928  33.393  36.145  1.00  0.00     0.037 A 
BRANCH  45  59
ATOM     59  C   UNL A   1      44.060  28.847  35.525  1.00  0.00     0.058 A 
ATOM     60  C   UNL A   1      45.396  29.196  35.287  1.00  0.00     0.135 A 
ATOM     61  C   UNL A   1      43.805  27.749  36.366  1.00  0.00     0.135 A 
ATOM     62  F   UNL A   1      45.692  30.222  34.474  1.00  0.00    -0.206 F 
ATOM     63  C   UNL A   1      46.444  28.467  35.846  1.00  0.00     0.059 A 
ATOM     64  C   UNL A   1      44.834  27.021  36.950  1.00  0.00     0.059 A 
ATOM     65  F   UNL A   1      42.542  27.372  36.621  1.00  0.00    -0.206 F 
ATOM     66  C   UNL A   1      46.152  27.378  36.672  1.00  0.00     0.060 A 
BRANCH  66  67
ATOM     67  S   UNL A   1      47.514  26.430  37.382  1.00  0.00     0.124 S 
ATOM     68  O   UNL A   1      48.203  27.453  38.163  1.00  0.00    -0.237 OA
ATOM     69  O   UNL A   1      46.818  25.406  38.153  1.00  0.00    -0.237 OA
ATOM     70  O   UNL A   1      48.236  25.944  36.211  1.00  0.00    -0.744 OA
ENDBRANCH  66  67
ENDBRANCH  45  59
BRANCH  46  71
ATOM     71  C   UNL A   1      36.119  33.262  31.458  1.00  0.00     0.058 A 
ATOM     72  C   UNL A   1      36.448  33.887  30.242  1.00  0.00     0.135 A 
ATOM     73  C   UNL A   1      34.817  33.444  31.942  1.00  0.00     0.135 A 
ATOM     74  F   UNL A   1      37.684  33.760  29.735  1.00  0.00    -0.206 F 
ATOM     75  C   UNL A   1      35.531  34.652  29.531  1.00  0.00     0.059 A 
ATOM     76  C   UNL A   1      33.874  34.191  31.239  1.00  0.00     0.059 A 
ATOM     77  F   UNL A   1      34.443  32.879  33.100  1.00  0.00    -0.206 F 
ATOM     78  C   UNL A   1      34.244  34.799  30.038  1.00  0.00     0.060 A 
BRANCH  78  79
ATOM     79  S   UNL A   1      33.038  35.751  29.091  1.00  0.00     0.124 S 
ATOM     80  O   UNL A   1      32.422  34.712  28.275  1.00  0.00    -0.237 OA
ATOM     81  O   UNL A   1      32.197  36.325  30.136  1.00  0.00    -0.237 OA
ATOM     82  O   UNL A   1      33.869  36.712  28.372  1.00  0.00    -0.744 OA
ENDBRANCH  78  79
ENDBRANCH  46  71
BRANCH  58  83
ATOM     83  C   UNL A   1      39.774  34.389  37.261  1.00  0.00     0.058 A 
ATOM     84  C   UNL A   1      38.970  34.098  38.377  1.00  0.00     0.135 A 
ATOM     85  C   UNL A   1      40.474  35.605  37.259  1.00  0.00     0.135 A 
ATOM     86  F   UNL A   1      38.280  32.948  38.430  1.00  0.00    -0.206 F 
ATOM     87  C   UNL A   1      38.846  34.986  39.438  1.00  0.00     0.059 A 
ATOM     88  C   UNL A   1      40.383  36.500  38.322  1.00  0.00     0.059 A 
ATOM     89  F   UNL A   1      41.265  35.928  36.225  1.00  0.00    -0.206 F 
ATOM     90  C   UNL A   1      39.559  36.186  39.404  1.00  0.00     0.060 A 
BRANCH  90  91
ATOM     91  S   UNL A   1      39.425  37.307  40.813  1.00  0.00     0.124 S 
ATOM     92  O   UNL A   1      40.808  37.743  40.973  1.00  0.00    -0.237 OA
ATOM     93  O   UNL A   1      38.494  38.319  40.322  1.00  0.00    -0.237 OA
ATOM     94  O   UNL A   1      38.907  36.453  41.878  1.00  0.00    -0.744 OA
ENDBRANCH  90  91
ENDBRANCH  58  83
ENDBRANCH  32  33
ENDBRANCH  25  27
ENDBRANCH  24  25
ENDBRANCH  23  24
ENDBRANCH   1  23
TORSDOF 18
ENDMDL
