MODEL 1
REMARK VINA RESULT:     -12.6      0.000      0.000
REMARK SMILES CC1=NN(c2ccc(C(=O)OCCOC(=O)c3ccc(-c4c5nc(c(-c6c(F)cc(S(=O)(=O)[O-])cc6F)c6ccc([nH]6)c(-c6c(F)cc(S(=O)(=O)[O-])cc6F)c6nc(c(-c7c(F)cc(S(=O)(=O)[O-])cc7F)c7ccc4[nH]7)C=C6)C=C5)cc3)cc2)C(=O)/C1=C\c1ccc(N2CCCC2)cc1
REMARK SMILES IDX 12 1 11 2 9 3 10 4 8 5 5 6 6 7 84 8 7 9 83 10 4 11 1 12 2 13
REMARK SMILES IDX 3 14 87 15 85 16 88 17 86 18 89 19 90 20 99 21 91 22 98 23
REMARK SMILES IDX 92 24 93 25 94 26 97 27 95 28 96 29 13 30 14 31 15 32 16 33
REMARK SMILES IDX 17 34 18 35 82 36 19 37 81 38 20 39 21 40 22 41 75 42 23 43
REMARK SMILES IDX 80 44 74 45 76 46 24 47 79 48 73 49 72 50 25 52 59 53 38 54
REMARK SMILES IDX 58 55 39 56 42 57 57 58 77 59 40 60 41 61 56 63 78 64 43 65
REMARK SMILES IDX 26 66 27 67 36 68 28 69 29 70 35 71 37 72 30 73 31 74 32 75
REMARK SMILES IDX 33 76 34 77 60 78 61 79 70 80 62 81 63 82 69 83 71 84 64 85
REMARK SMILES IDX 65 86 66 87 67 88 68 89 44 90 45 91 54 92 46 93 47 94 53 95
REMARK SMILES IDX 55 96 48 97 49 98 50 99 51 100 52 101
REMARK H PARENT 76 51 42 62
REMARK Flexibility Score: inf
ROOT
ATOM      1  C   UNL A   1      42.797  22.185  26.543  1.00  0.00     0.275 C 
ENDROOT
BRANCH   1   2
ATOM      2  O   UNL A   1      41.597  21.808  25.838  1.00  0.00    -0.458 OA
BRANCH   2   3
ATOM      3  C   UNL A   1      40.829  20.885  26.463  1.00  0.00     0.338 C 
ATOM      4  O   UNL A   1      41.158  20.172  27.397  1.00  0.00    -0.246 OA
BRANCH   3   5
ATOM      5  C   UNL A   1      39.476  20.855  25.879  1.00  0.00     0.060 A 
ATOM      6  C   UNL A   1      36.774  20.729  25.154  1.00  0.00     0.069 A 
ATOM      7  C   UNL A   1      37.325  21.940  25.566  1.00  0.00     0.029 A 
ATOM      8  C   UNL A   1      37.603  19.602  25.039  1.00  0.00     0.029 A 
ATOM      9  C   UNL A   1      38.658  21.988  25.961  1.00  0.00     0.018 A 
ATOM     10  C   UNL A   1      38.958  19.665  25.377  1.00  0.00     0.018 A 
BRANCH   6  11
ATOM     11  N   UNL A   1      35.384  20.633  24.974  1.00  0.00    -0.196 N 
ATOM     12  C   UNL A   1      32.522  18.578  24.237  1.00  0.00     0.069 C 
ATOM     13  C   UNL A   1      33.539  19.640  24.485  1.00  0.00     0.071 C 
ATOM     14  N   UNL A   1      34.806  19.399  24.702  1.00  0.00    -0.169 NA
ATOM     15  C   UNL A   1      33.240  21.082  24.504  1.00  0.00     0.065 C 
ATOM     16  C   UNL A   1      34.508  21.723  24.935  1.00  0.00     0.280 C 
ATOM     17  C   UNL A   1      32.119  21.681  24.085  1.00  0.00     0.024 C 
ATOM     18  O   UNL A   1      34.704  22.900  25.146  1.00  0.00    -0.267 OA
BRANCH  17  19
ATOM     19  C   UNL A   1      32.049  23.130  23.887  1.00  0.00    -0.025 A 
ATOM     20  C   UNL A   1      32.495  23.727  22.710  1.00  0.00     0.010 A 
ATOM     21  C   UNL A   1      31.440  23.924  24.864  1.00  0.00     0.010 A 
ATOM     22  C   UNL A   1      32.317  25.104  22.514  1.00  0.00     0.026 A 
ATOM     23  C   UNL A   1      31.278  25.298  24.660  1.00  0.00     0.026 A 
ATOM     24  C   UNL A   1      31.712  25.919  23.484  1.00  0.00     0.037 A 
BRANCH  24  25
ATOM     25  N   UNL A   1      31.530  27.264  23.255  1.00  0.00    -0.372 N 
ATOM     26  C   UNL A   1      32.045  28.316  24.124  1.00  0.00     0.116 C 
ATOM     27  C   UNL A   1      30.356  27.708  22.503  1.00  0.00     0.116 C 
ATOM     28  C   UNL A   1      30.919  29.344  24.156  1.00  0.00     0.023 C 
ATOM     29  C   UNL A   1      30.296  29.212  22.775  1.00  0.00     0.023 C 
ENDBRANCH  24  25
ENDBRANCH  17  19
ENDBRANCH   6  11
ENDBRANCH   3   5
ENDBRANCH   2   3
ENDBRANCH   1   2
BRANCH   1  30
ATOM     30  C   UNL A   1      42.862  23.695  26.770  1.00  0.00     0.275 C 
BRANCH  30  31
ATOM     31  O   UNL A   1      41.573  24.309  26.571  1.00  0.00    -0.458 OA
BRANCH  31  32
ATOM     32  C   UNL A   1      41.615  25.599  26.170  1.00  0.00     0.338 C 
ATOM     33  O   UNL A   1      41.995  26.024  25.090  1.00  0.00    -0.246 OA
BRANCH  32  34
ATOM     34  C   UNL A   1      41.065  26.488  27.203  1.00  0.00     0.060 A 
ATOM     35  C   UNL A   1      41.597  27.764  27.323  1.00  0.00     0.016 A 
ATOM     36  C   UNL A   1      40.224  25.991  28.195  1.00  0.00     0.016 A 
ATOM     37  C   UNL A   1      41.454  28.469  28.512  1.00  0.00     0.010 A 
ATOM     38  C   UNL A   1      39.936  26.784  29.314  1.00  0.00     0.010 A 
ATOM     39  C   UNL A   1      40.591  28.012  29.517  1.00  0.00    -0.014 A 
BRANCH  39  40
ATOM     40  C   UNL A   1      40.388  28.818  30.761  1.00  0.00     0.031 A 
ATOM     41  C   UNL A   1      39.304  29.869  30.831  1.00  0.00     0.074 A 
ATOM     42  C   UNL A   1      41.172  28.606  31.841  1.00  0.00     0.049 A 
ATOM     43  N   UNL A   1      39.106  30.795  31.735  1.00  0.00    -0.248 NA
ATOM     44  C   UNL A   1      38.324  29.896  29.731  1.00  0.00     0.031 C 
ATOM     45  C   UNL A   1      42.232  27.597  31.940  1.00  0.00     0.029 A 
ATOM     46  N   UNL A   1      41.201  29.222  33.070  1.00  0.00    -0.354 N 
ATOM     47  C   UNL A   1      38.027  31.551  31.285  1.00  0.00     0.074 A 
ATOM     48  C   UNL A   1      37.615  30.979  30.020  1.00  0.00     0.031 C 
ATOM     49  C   UNL A   1      42.766  27.627  33.167  1.00  0.00     0.029 A 
ATOM     50  C   UNL A   1      42.180  28.736  33.906  1.00  0.00     0.049 A 
ATOM     51  H   UNL A   1      40.580  29.941  33.327  1.00  0.00     0.167 HD
ATOM     52  C   UNL A   1      37.437  32.620  31.872  1.00  0.00     0.037 A 
ATOM     53  C   UNL A   1      42.613  29.164  35.107  1.00  0.00     0.037 A 
ATOM     54  C   UNL A   1      37.821  33.145  33.159  1.00  0.00     0.049 A 
ATOM     55  C   UNL A   1      41.975  30.378  35.717  1.00  0.00     0.074 A 
ATOM     56  C   UNL A   1      37.273  34.213  33.852  1.00  0.00     0.029 A 
ATOM     57  N   UNL A   1      38.837  32.636  33.955  1.00  0.00    -0.354 N 
ATOM     58  N   UNL A   1      40.990  31.110  35.253  1.00  0.00    -0.248 NA
ATOM     59  C   UNL A   1      42.515  30.835  37.003  1.00  0.00     0.031 C 
ATOM     60  C   UNL A   1      37.989  34.377  35.042  1.00  0.00     0.029 A 
ATOM     61  C   UNL A   1      38.945  33.378  35.121  1.00  0.00     0.049 A 
ATOM     62  H   UNL A   1      39.399  31.861  33.725  1.00  0.00     0.167 HD
ATOM     63  C   UNL A   1      40.780  32.104  36.201  1.00  0.00     0.074 A 
ATOM     64  C   UNL A   1      41.727  31.867  37.271  1.00  0.00     0.031 C 
ATOM     65  C   UNL A   1      39.886  33.123  36.183  1.00  0.00     0.037 A 
BRANCH  52  66
ATOM     66  C   UNL A   1      36.334  33.324  31.121  1.00  0.00     0.058 A 
ATOM     67  C   UNL A   1      34.995  33.284  31.544  1.00  0.00     0.135 A 
ATOM     68  C   UNL A   1      36.634  34.097  29.986  1.00  0.00     0.135 A 
ATOM     69  F   UNL A   1      34.645  32.554  32.614  1.00  0.00    -0.206 F 
ATOM     70  C   UNL A   1      33.993  33.961  30.853  1.00  0.00     0.059 A 
ATOM     71  C   UNL A   1      35.653  34.804  29.296  1.00  0.00     0.059 A 
ATOM     72  F   UNL A   1      37.897  34.175  29.537  1.00  0.00    -0.206 F 
ATOM     73  C   UNL A   1      34.331  34.719  29.730  1.00  0.00     0.060 A 
BRANCH  73  74
ATOM     74  S   UNL A   1      33.020  35.597  28.851  1.00  0.00     0.124 S 
ATOM     75  O   UNL A   1      32.211  36.099  29.959  1.00  0.00    -0.237 OA
ATOM     76  O   UNL A   1      33.764  36.604  28.103  1.00  0.00    -0.237 OA
ATOM     77  O   UNL A   1      32.394  34.554  28.042  1.00  0.00    -0.744 OA
ENDBRANCH  73  74
ENDBRANCH  52  66
BRANCH  53  78
ATOM     78  C   UNL A   1      43.745  28.470  35.780  1.00  0.00     0.058 A 
ATOM     79  C   UNL A   1      45.074  28.845  35.535  1.00  0.00     0.135 A 
ATOM     80  C   UNL A   1      43.522  27.431  36.700  1.00  0.00     0.135 A 
ATOM     81  F   UNL A   1      45.342  29.826  34.659  1.00  0.00    -0.206 F 
ATOM     82  C   UNL A   1      46.140  28.209  36.164  1.00  0.00     0.059 A 
ATOM     83  C   UNL A   1      44.568  26.804  37.366  1.00  0.00     0.059 A 
ATOM     84  F   UNL A   1      42.269  27.041  36.983  1.00  0.00    -0.206 F 
ATOM     85  C   UNL A   1      45.875  27.191  37.082  1.00  0.00     0.060 A 
BRANCH  85  86
ATOM     86  S   UNL A   1      47.263  26.401  37.925  1.00  0.00     0.124 S 
ATOM     87  O   UNL A   1      48.317  27.393  37.746  1.00  0.00    -0.237 OA
ATOM     88  O   UNL A   1      46.751  26.250  39.283  1.00  0.00    -0.237 OA
ATOM     89  O   UNL A   1      47.437  25.153  37.187  1.00  0.00    -0.744 OA
ENDBRANCH  85  86
ENDBRANCH  53  78
BRANCH  65  90
ATOM     90  C   UNL A   1      39.858  34.030  37.381  1.00  0.00     0.058 A 
ATOM     91  C   UNL A   1      40.635  35.196  37.447  1.00  0.00     0.135 A 
ATOM     92  C   UNL A   1      39.009  33.745  38.463  1.00  0.00     0.135 A 
ATOM     93  F   UNL A   1      41.471  35.509  36.445  1.00  0.00    -0.206 F 
ATOM     94  C   UNL A   1      40.593  36.035  38.556  1.00  0.00     0.059 A 
ATOM     95  C   UNL A   1      38.928  34.585  39.569  1.00  0.00     0.059 A 
ATOM     96  F   UNL A   1      38.238  32.645  38.448  1.00  0.00    -0.206 F 
ATOM     97  C   UNL A   1      39.734  35.722  39.611  1.00  0.00     0.060 A 
BRANCH  97  98
ATOM     98  S   UNL A   1      39.664  36.836  41.029  1.00  0.00     0.124 S 
ATOM     99  O   UNL A   1      38.879  37.944  40.494  1.00  0.00    -0.237 OA
ATOM    100  O   UNL A   1      38.998  36.017  42.038  1.00  0.00    -0.237 OA
ATOM    101  O   UNL A   1      41.067  37.134  41.297  1.00  0.00    -0.744 OA
ENDBRANCH  97  98
ENDBRANCH  65  90
ENDBRANCH  39  40
ENDBRANCH  32  34
ENDBRANCH  31  32
ENDBRANCH  30  31
ENDBRANCH   1  30
TORSDOF 17
ENDMDL
MODEL 2
REMARK VINA RESULT:     -12.3      2.539      9.681
REMARK SMILES CC1=NN(c2ccc(C(=O)OCCOC(=O)c3ccc(-c4c5nc(c(-c6c(F)cc(S(=O)(=O)[O-])cc6F)c6ccc([nH]6)c(-c6c(F)cc(S(=O)(=O)[O-])cc6F)c6nc(c(-c7c(F)cc(S(=O)(=O)[O-])cc7F)c7ccc4[nH]7)C=C6)C=C5)cc3)cc2)C(=O)/C1=C\c1ccc(N2CCCC2)cc1
REMARK SMILES IDX 12 1 11 2 9 3 10 4 8 5 5 6 6 7 84 8 7 9 83 10 4 11 1 12 2 13
REMARK SMILES IDX 3 14 87 15 85 16 88 17 86 18 89 19 90 20 99 21 91 22 98 23
REMARK SMILES IDX 92 24 93 25 94 26 97 27 95 28 96 29 13 30 14 31 15 32 16 33
REMARK SMILES IDX 17 34 18 35 82 36 19 37 81 38 20 39 21 40 22 41 75 42 23 43
REMARK SMILES IDX 80 44 74 45 76 46 24 47 79 48 73 49 72 50 25 52 59 53 38 54
REMARK SMILES IDX 58 55 39 56 42 57 57 58 77 59 40 60 41 61 56 63 78 64 43 65
REMARK SMILES IDX 26 66 27 67 36 68 28 69 29 70 35 71 37 72 30 73 31 74 32 75
REMARK SMILES IDX 33 76 34 77 60 78 61 79 70 80 62 81 63 82 69 83 71 84 64 85
REMARK SMILES IDX 65 86 66 87 67 88 68 89 44 90 45 91 54 92 46 93 47 94 53 95
REMARK SMILES IDX 55 96 48 97 49 98 50 99 51 100 52 101
REMARK H PARENT 76 51 42 62
REMARK Flexibility Score: inf
ROOT
ATOM      1  C   UNL A   1      34.538  34.427  28.874  1.00  0.00     0.275 C 
ENDROOT
BRANCH   1   2
ATOM      2  O   UNL A   1      34.279  33.030  29.112  1.00  0.00    -0.458 OA
BRANCH   2   3
ATOM      3  C   UNL A   1      34.953  32.175  28.306  1.00  0.00     0.338 C 
ATOM      4  O   UNL A   1      36.163  32.111  28.159  1.00  0.00    -0.246 OA
BRANCH   3   5
ATOM      5  C   UNL A   1      34.020  31.268  27.615  1.00  0.00     0.060 A 
ATOM      6  C   UNL A   1      32.416  29.684  25.953  1.00  0.00     0.069 A 
ATOM      7  C   UNL A   1      33.661  29.215  26.368  1.00  0.00     0.029 A 
ATOM      8  C   UNL A   1      31.953  30.919  26.436  1.00  0.00     0.029 A 
ATOM      9  C   UNL A   1      34.468  30.022  27.162  1.00  0.00     0.018 A 
ATOM     10  C   UNL A   1      32.739  31.702  27.285  1.00  0.00     0.018 A 
BRANCH   6  11
ATOM     11  N   UNL A   1      31.704  28.970  24.975  1.00  0.00    -0.196 N 
ATOM     12  C   UNL A   1      28.924  28.837  22.692  1.00  0.00     0.069 C 
ATOM     13  C   UNL A   1      30.088  28.619  23.599  1.00  0.00     0.071 C 
ATOM     14  N   UNL A   1      30.591  29.545  24.373  1.00  0.00    -0.169 NA
ATOM     15  C   UNL A   1      30.800  27.337  23.735  1.00  0.00     0.065 C 
ATOM     16  C   UNL A   1      31.957  27.642  24.615  1.00  0.00     0.280 C 
ATOM     17  C   UNL A   1      30.405  26.141  23.284  1.00  0.00     0.024 C 
ATOM     18  O   UNL A   1      32.848  26.892  24.946  1.00  0.00    -0.267 OA
BRANCH  17  19
ATOM     19  C   UNL A   1      31.049  24.902  23.727  1.00  0.00    -0.025 A 
ATOM     20  C   UNL A   1      30.631  24.233  24.875  1.00  0.00     0.010 A 
ATOM     21  C   UNL A   1      32.046  24.329  22.931  1.00  0.00     0.010 A 
ATOM     22  C   UNL A   1      31.200  22.996  25.210  1.00  0.00     0.026 A 
ATOM     23  C   UNL A   1      32.614  23.100  23.283  1.00  0.00     0.026 A 
ATOM     24  C   UNL A   1      32.205  22.407  24.428  1.00  0.00     0.037 A 
BRANCH  24  25
ATOM     25  N   UNL A   1      32.730  21.181  24.768  1.00  0.00    -0.372 N 
ATOM     26  C   UNL A   1      33.974  21.004  25.510  1.00  0.00     0.116 C 
ATOM     27  C   UNL A   1      32.426  20.017  23.936  1.00  0.00     0.116 C 
ATOM     28  C   UNL A   1      34.635  19.810  24.832  1.00  0.00     0.023 C 
ATOM     29  C   UNL A   1      33.449  18.971  24.382  1.00  0.00     0.023 C 
ENDBRANCH  24  25
ENDBRANCH  17  19
ENDBRANCH   6  11
ENDBRANCH   3   5
ENDBRANCH   2   3
ENDBRANCH   1   2
BRANCH   1  30
ATOM     30  C   UNL A   1      33.296  35.280  29.139  1.00  0.00     0.275 C 
BRANCH  30  31
ATOM     31  O   UNL A   1      32.647  34.889  30.364  1.00  0.00    -0.458 OA
BRANCH  31  32
ATOM     32  C   UNL A   1      32.950  35.655  31.436  1.00  0.00     0.338 C 
ATOM     33  O   UNL A   1      32.453  36.728  31.740  1.00  0.00    -0.246 OA
BRANCH  32  34
ATOM     34  C   UNL A   1      33.953  34.997  32.285  1.00  0.00     0.060 A 
ATOM     35  C   UNL A   1      35.207  35.582  32.394  1.00  0.00     0.016 A 
ATOM     36  C   UNL A   1      33.747  33.704  32.758  1.00  0.00     0.016 A 
ATOM     37  C   UNL A   1      36.299  34.819  32.791  1.00  0.00     0.010 A 
ATOM     38  C   UNL A   1      34.819  33.000  33.326  1.00  0.00     0.010 A 
ATOM     39  C   UNL A   1      36.123  33.526  33.300  1.00  0.00    -0.014 A 
BRANCH  39  40
ATOM     40  C   UNL A   1      37.298  32.742  33.794  1.00  0.00     0.031 A 
ATOM     41  C   UNL A   1      37.928  33.057  35.132  1.00  0.00     0.074 A 
ATOM     42  C   UNL A   1      37.804  31.737  33.047  1.00  0.00     0.049 A 
ATOM     43  N   UNL A   1      39.060  32.632  35.634  1.00  0.00    -0.248 NA
ATOM     44  C   UNL A   1      37.200  33.986  36.013  1.00  0.00     0.031 C 
ATOM     45  C   UNL A   1      37.277  31.287  31.754  1.00  0.00     0.029 A 
ATOM     46  N   UNL A   1      38.875  30.902  33.263  1.00  0.00    -0.354 N 
ATOM     47  C   UNL A   1      39.212  33.286  36.854  1.00  0.00     0.074 A 
ATOM     48  C   UNL A   1      38.057  34.144  37.013  1.00  0.00     0.031 C 
ATOM     49  C   UNL A   1      37.986  30.237  31.322  1.00  0.00     0.029 A 
ATOM     50  C   UNL A   1      39.094  30.011  32.238  1.00  0.00     0.049 A 
ATOM     51  H   UNL A   1      39.430  30.938  34.075  1.00  0.00     0.167 HD
ATOM     52  C   UNL A   1      40.220  33.180  37.754  1.00  0.00     0.037 A 
ATOM     53  C   UNL A   1      40.104  29.148  32.013  1.00  0.00     0.037 A 
ATOM     54  C   UNL A   1      41.336  32.278  37.608  1.00  0.00     0.049 A 
ATOM     55  C   UNL A   1      41.231  29.080  33.001  1.00  0.00     0.074 A 
ATOM     56  C   UNL A   1      42.400  32.079  38.473  1.00  0.00     0.029 A 
ATOM     57  N   UNL A   1      41.528  31.416  36.538  1.00  0.00    -0.354 N 
ATOM     58  N   UNL A   1      41.384  29.744  34.123  1.00  0.00    -0.248 NA
ATOM     59  C   UNL A   1      42.333  28.162  32.687  1.00  0.00     0.031 C 
ATOM     60  C   UNL A   1      43.258  31.132  37.902  1.00  0.00     0.029 A 
ATOM     61  C   UNL A   1      42.701  30.697  36.711  1.00  0.00     0.049 A 
ATOM     62  H   UNL A   1      40.921  31.327  35.768  1.00  0.00     0.167 HD
ATOM     63  C   UNL A   1      42.589  29.307  34.658  1.00  0.00     0.074 A 
ATOM     64  C   UNL A   1      43.115  28.312  33.747  1.00  0.00     0.031 C 
ATOM     65  C   UNL A   1      43.206  29.700  35.800  1.00  0.00     0.037 A 
BRANCH  52  66
ATOM     66  C   UNL A   1      40.190  34.079  38.964  1.00  0.00     0.058 A 
ATOM     67  C   UNL A   1      40.824  35.331  38.983  1.00  0.00     0.135 A 
ATOM     68  C   UNL A   1      39.468  33.698  40.109  1.00  0.00     0.135 A 
ATOM     69  F   UNL A   1      41.538  35.745  37.924  1.00  0.00    -0.206 F 
ATOM     70  C   UNL A   1      40.766  36.160  40.101  1.00  0.00     0.059 A 
ATOM     71  C   UNL A   1      39.373  34.523  41.227  1.00  0.00     0.059 A 
ATOM     72  F   UNL A   1      38.839  32.513  40.147  1.00  0.00    -0.206 F 
ATOM     73  C   UNL A   1      40.037  35.748  41.219  1.00  0.00     0.060 A 
BRANCH  73  74
ATOM     74  S   UNL A   1      39.966  36.838  42.656  1.00  0.00     0.124 S 
ATOM     75  O   UNL A   1      39.555  38.100  42.046  1.00  0.00    -0.237 OA
ATOM     76  O   UNL A   1      38.966  36.185  43.495  1.00  0.00    -0.237 OA
ATOM     77  O   UNL A   1      41.330  36.810  43.175  1.00  0.00    -0.744 OA
ENDBRANCH  73  74
ENDBRANCH  52  66
BRANCH  53  78
ATOM     78  C   UNL A   1      40.116  28.325  30.773  1.00  0.00     0.058 A 
ATOM     79  C   UNL A   1      40.959  28.645  29.700  1.00  0.00     0.135 A 
ATOM     80  C   UNL A   1      39.301  27.187  30.645  1.00  0.00     0.135 A 
ATOM     81  F   UNL A   1      41.751  29.726  29.769  1.00  0.00    -0.206 F 
ATOM     82  C   UNL A   1      40.985  27.878  28.538  1.00  0.00     0.059 A 
ATOM     83  C   UNL A   1      39.335  26.386  29.509  1.00  0.00     0.059 A 
ATOM     84  F   UNL A   1      38.486  26.827  31.648  1.00  0.00    -0.206 F 
ATOM     85  C   UNL A   1      40.172  26.746  28.455  1.00  0.00     0.060 A 
BRANCH  85  86
ATOM     86  S   UNL A   1      40.244  25.734  26.962  1.00  0.00     0.124 S 
ATOM     87  O   UNL A   1      41.198  24.703  27.353  1.00  0.00    -0.237 OA
ATOM     88  O   UNL A   1      38.857  25.301  26.819  1.00  0.00    -0.237 OA
ATOM     89  O   UNL A   1      40.707  26.671  25.943  1.00  0.00    -0.744 OA
ENDBRANCH  85  86
ENDBRANCH  53  78
BRANCH  65  90
ATOM     90  C   UNL A   1      44.497  29.015  36.152  1.00  0.00     0.058 A 
ATOM     91  C   UNL A   1      45.743  29.553  35.797  1.00  0.00     0.135 A 
ATOM     92  C   UNL A   1      44.483  27.819  36.889  1.00  0.00     0.135 A 
ATOM     93  F   UNL A   1      45.811  30.688  35.084  1.00  0.00    -0.206 F 
ATOM     94  C   UNL A   1      46.932  28.917  36.138  1.00  0.00     0.059 A 
ATOM     95  C   UNL A   1      45.661  27.182  37.266  1.00  0.00     0.059 A 
ATOM     96  F   UNL A   1      43.318  27.265  37.259  1.00  0.00    -0.206 F 
ATOM     97  C   UNL A   1      46.880  27.732  36.875  1.00  0.00     0.060 A 
BRANCH  97  98
ATOM     98  S   UNL A   1      48.431  26.934  37.339  1.00  0.00     0.124 S 
ATOM     99  O   UNL A   1      48.750  27.615  38.589  1.00  0.00    -0.237 OA
ATOM    100  O   UNL A   1      48.037  25.533  37.462  1.00  0.00    -0.237 OA
ATOM    101  O   UNL A   1      49.316  27.233  36.218  1.00  0.00    -0.744 OA
ENDBRANCH  97  98
ENDBRANCH  65  90
ENDBRANCH  39  40
ENDBRANCH  32  34
ENDBRANCH  31  32
ENDBRANCH  30  31
ENDBRANCH   1  30
TORSDOF 17
ENDMDL
MODEL 3
REMARK VINA RESULT:     -12.2      1.200      1.630
REMARK SMILES CC1=NN(c2ccc(C(=O)OCCOC(=O)c3ccc(-c4c5nc(c(-c6c(F)cc(S(=O)(=O)[O-])cc6F)c6ccc([nH]6)c(-c6c(F)cc(S(=O)(=O)[O-])cc6F)c6nc(c(-c7c(F)cc(S(=O)(=O)[O-])cc7F)c7ccc4[nH]7)C=C6)C=C5)cc3)cc2)C(=O)/C1=C\c1ccc(N2CCCC2)cc1
REMARK SMILES IDX 12 1 11 2 9 3 10 4 8 5 5 6 6 7 84 8 7 9 83 10 4 11 1 12 2 13
REMARK SMILES IDX 3 14 87 15 85 16 88 17 86 18 89 19 90 20 99 21 91 22 98 23
REMARK SMILES IDX 92 24 93 25 94 26 97 27 95 28 96 29 13 30 14 31 15 32 16 33
REMARK SMILES IDX 17 34 18 35 82 36 19 37 81 38 20 39 21 40 22 41 75 42 23 43
REMARK SMILES IDX 80 44 74 45 76 46 24 47 79 48 73 49 72 50 25 52 59 53 38 54
REMARK SMILES IDX 58 55 39 56 42 57 57 58 77 59 40 60 41 61 56 63 78 64 43 65
REMARK SMILES IDX 26 66 27 67 36 68 28 69 29 70 35 71 37 72 30 73 31 74 32 75
REMARK SMILES IDX 33 76 34 77 60 78 61 79 70 80 62 81 63 82 69 83 71 84 64 85
REMARK SMILES IDX 65 86 66 87 67 88 68 89 44 90 45 91 54 92 46 93 47 94 53 95
REMARK SMILES IDX 55 96 48 97 49 98 50 99 51 100 52 101
REMARK H PARENT 76 51 42 62
REMARK Flexibility Score: inf
ROOT
ATOM      1  C   UNL A   1      43.991  23.311  26.170  1.00  0.00     0.275 C 
ENDROOT
BRANCH   1   2
ATOM      2  O   UNL A   1      42.815  22.684  26.719  1.00  0.00    -0.458 OA
BRANCH   2   3
ATOM      3  C   UNL A   1      42.340  21.633  26.011  1.00  0.00     0.338 C 
ATOM      4  O   UNL A   1      42.996  20.823  25.376  1.00  0.00    -0.246 OA
BRANCH   3   5
ATOM      5  C   UNL A   1      40.872  21.556  26.119  1.00  0.00     0.060 A 
ATOM      6  C   UNL A   1      38.080  21.460  25.917  1.00  0.00     0.069 A 
ATOM      7  C   UNL A   1      38.827  20.294  25.759  1.00  0.00     0.029 A 
ATOM      8  C   UNL A   1      38.738  22.656  26.249  1.00  0.00     0.029 A 
ATOM      9  C   UNL A   1      40.215  20.356  25.823  1.00  0.00     0.018 A 
ATOM     10  C   UNL A   1      40.128  22.704  26.375  1.00  0.00     0.018 A 
BRANCH   6  11
ATOM     11  N   UNL A   1      36.705  21.439  25.630  1.00  0.00    -0.196 N 
ATOM     12  C   UNL A   1      33.893  19.691  24.220  1.00  0.00     0.069 C 
ATOM     13  C   UNL A   1      34.894  20.637  24.791  1.00  0.00     0.071 C 
ATOM     14  N   UNL A   1      36.143  20.324  25.020  1.00  0.00    -0.169 NA
ATOM     15  C   UNL A   1      34.599  22.034  25.151  1.00  0.00     0.065 C 
ATOM     16  C   UNL A   1      35.837  22.522  25.809  1.00  0.00     0.280 C 
ATOM     17  C   UNL A   1      33.510  22.741  24.825  1.00  0.00     0.024 C 
ATOM     18  O   UNL A   1      36.022  23.604  26.321  1.00  0.00    -0.267 OA
BRANCH  17  19
ATOM     19  C   UNL A   1      33.458  24.195  24.993  1.00  0.00    -0.025 A 
ATOM     20  C   UNL A   1      33.889  25.059  23.990  1.00  0.00     0.010 A 
ATOM     21  C   UNL A   1      32.882  24.728  26.150  1.00  0.00     0.010 A 
ATOM     22  C   UNL A   1      33.727  26.444  24.144  1.00  0.00     0.026 A 
ATOM     23  C   UNL A   1      32.737  26.111  26.296  1.00  0.00     0.026 A 
ATOM     24  C   UNL A   1      33.156  26.999  25.299  1.00  0.00     0.037 A 
BRANCH  24  25
ATOM     25  N   UNL A   1      32.989  28.361  25.414  1.00  0.00    -0.372 N 
ATOM     26  C   UNL A   1      33.790  29.209  26.291  1.00  0.00     0.116 C 
ATOM     27  C   UNL A   1      31.675  28.945  25.146  1.00  0.00     0.116 C 
ATOM     28  C   UNL A   1      32.779  30.198  26.860  1.00  0.00     0.023 C 
ATOM     29  C   UNL A   1      31.778  30.357  25.726  1.00  0.00     0.023 C 
ENDBRANCH  24  25
ENDBRANCH  17  19
ENDBRANCH   6  11
ENDBRANCH   3   5
ENDBRANCH   2   3
ENDBRANCH   1   2
BRANCH   1  30
ATOM     30  C   UNL A   1      43.642  24.226  24.996  1.00  0.00     0.275 C 
BRANCH  30  31
ATOM     31  O   UNL A   1      43.573  25.604  25.411  1.00  0.00    -0.458 OA
BRANCH  31  32
ATOM     32  C   UNL A   1      42.336  26.035  25.745  1.00  0.00     0.338 C 
ATOM     33  O   UNL A   1      41.315  25.929  25.085  1.00  0.00    -0.246 OA
BRANCH  32  34
ATOM     34  C   UNL A   1      42.331  26.624  27.091  1.00  0.00     0.060 A 
ATOM     35  C   UNL A   1      41.524  26.043  28.060  1.00  0.00     0.016 A 
ATOM     36  C   UNL A   1      42.909  27.869  27.325  1.00  0.00     0.016 A 
ATOM     37  C   UNL A   1      41.134  26.779  29.173  1.00  0.00     0.010 A 
ATOM     38  C   UNL A   1      42.655  28.529  28.535  1.00  0.00     0.010 A 
ATOM     39  C   UNL A   1      41.719  28.020  29.453  1.00  0.00    -0.014 A 
BRANCH  39  40
ATOM     40  C   UNL A   1      41.346  28.768  30.695  1.00  0.00     0.031 A 
ATOM     41  C   UNL A   1      40.149  29.691  30.709  1.00  0.00     0.074 A 
ATOM     42  C   UNL A   1      42.078  28.618  31.821  1.00  0.00     0.049 A 
ATOM     43  N   UNL A   1      39.791  30.568  31.613  1.00  0.00    -0.248 NA
ATOM     44  C   UNL A   1      39.247  29.636  29.546  1.00  0.00     0.031 C 
ATOM     45  C   UNL A   1      43.235  27.731  31.974  1.00  0.00     0.029 A 
ATOM     46  N   UNL A   1      41.958  29.204  33.059  1.00  0.00    -0.354 N 
ATOM     47  C   UNL A   1      38.665  31.210  31.104  1.00  0.00     0.074 A 
ATOM     48  C   UNL A   1      38.403  30.626  29.806  1.00  0.00     0.031 C 
ATOM     49  C   UNL A   1      43.683  27.791  33.235  1.00  0.00     0.029 A 
ATOM     50  C   UNL A   1      42.929  28.809  33.951  1.00  0.00     0.049 A 
ATOM     51  H   UNL A   1      41.245  29.844  33.286  1.00  0.00     0.167 HD
ATOM     52  C   UNL A   1      37.922  32.193  31.668  1.00  0.00     0.037 A 
ATOM     53  C   UNL A   1      43.233  29.254  35.185  1.00  0.00     0.037 A 
ATOM     54  C   UNL A   1      38.161  32.726  32.987  1.00  0.00     0.049 A 
ATOM     55  C   UNL A   1      42.425  30.374  35.771  1.00  0.00     0.074 A 
ATOM     56  C   UNL A   1      37.454  33.710  33.659  1.00  0.00     0.029 A 
ATOM     57  N   UNL A   1      39.174  32.313  33.840  1.00  0.00    -0.354 N 
ATOM     58  N   UNL A   1      41.396  31.005  35.254  1.00  0.00    -0.248 NA
ATOM     59  C   UNL A   1      42.825  30.858  37.098  1.00  0.00     0.031 C 
ATOM     60  C   UNL A   1      38.068  33.924  34.897  1.00  0.00     0.029 A 
ATOM     61  C   UNL A   1      39.122  33.034  35.023  1.00  0.00     0.049 A 
ATOM     62  H   UNL A   1      39.834  31.611  33.636  1.00  0.00     0.167 HD
ATOM     63  C   UNL A   1      41.016  31.946  36.202  1.00  0.00     0.074 A 
ATOM     64  C   UNL A   1      41.912  31.790  37.330  1.00  0.00     0.031 C 
ATOM     65  C   UNL A   1      40.016  32.860  36.142  1.00  0.00     0.037 A 
BRANCH  52  66
ATOM     66  C   UNL A   1      36.798  32.789  30.857  1.00  0.00     0.058 A 
ATOM     67  C   UNL A   1      35.448  32.548  31.157  1.00  0.00     0.135 A 
ATOM     68  C   UNL A   1      37.082  33.659  29.790  1.00  0.00     0.135 A 
ATOM     69  F   UNL A   1      35.115  31.717  32.158  1.00  0.00    -0.206 F 
ATOM     70  C   UNL A   1      34.422  33.126  30.413  1.00  0.00     0.059 A 
ATOM     71  C   UNL A   1      36.073  34.270  29.051  1.00  0.00     0.059 A 
ATOM     72  F   UNL A   1      38.355  33.929  29.459  1.00  0.00    -0.206 F 
ATOM     73  C   UNL A   1      34.744  33.987  29.362  1.00  0.00     0.060 A 
BRANCH  73  74
ATOM     74  S   UNL A   1      33.401  34.734  28.413  1.00  0.00     0.124 S 
ATOM     75  O   UNL A   1      32.527  35.219  29.477  1.00  0.00    -0.237 OA
ATOM     76  O   UNL A   1      34.095  35.762  27.646  1.00  0.00    -0.237 OA
ATOM     77  O   UNL A   1      32.875  33.619  27.630  1.00  0.00    -0.744 OA
ENDBRANCH  73  74
ENDBRANCH  52  66
BRANCH  53  78
ATOM     78  C   UNL A   1      44.390  28.673  35.921  1.00  0.00     0.058 A 
ATOM     79  C   UNL A   1      45.683  29.192  35.762  1.00  0.00     0.135 A 
ATOM     80  C   UNL A   1      44.223  27.602  36.815  1.00  0.00     0.135 A 
ATOM     81  F   UNL A   1      45.897  30.210  34.915  1.00  0.00    -0.206 F 
ATOM     82  C   UNL A   1      46.771  28.662  36.451  1.00  0.00     0.059 A 
ATOM     83  C   UNL A   1      45.288  27.079  37.539  1.00  0.00     0.059 A 
ATOM     84  F   UNL A   1      43.004  27.076  37.015  1.00  0.00    -0.206 F 
ATOM     85  C   UNL A   1      46.561  27.608  37.341  1.00  0.00     0.060 A 
BRANCH  85  86
ATOM     86  S   UNL A   1      47.971  26.956  38.261  1.00  0.00     0.124 S 
ATOM     87  O   UNL A   1      47.349  26.587  39.528  1.00  0.00    -0.237 OA
ATOM     88  O   UNL A   1      48.404  25.848  37.414  1.00  0.00    -0.237 OA
ATOM     89  O   UNL A   1      48.890  28.089  38.314  1.00  0.00    -0.744 OA
ENDBRANCH  85  86
ENDBRANCH  53  78
BRANCH  65  90
ATOM     90  C   UNL A   1      39.808  33.729  37.350  1.00  0.00     0.058 A 
ATOM     91  C   UNL A   1      40.525  34.921  37.538  1.00  0.00     0.135 A 
ATOM     92  C   UNL A   1      38.849  33.380  38.315  1.00  0.00     0.135 A 
ATOM     93  F   UNL A   1      41.460  35.294  36.651  1.00  0.00    -0.206 F 
ATOM     94  C   UNL A   1      40.317  35.724  38.654  1.00  0.00     0.059 A 
ATOM     95  C   UNL A   1      38.604  34.184  39.424  1.00  0.00     0.059 A 
ATOM     96  F   UNL A   1      38.131  32.254  38.180  1.00  0.00    -0.206 F 
ATOM     97  C   UNL A   1      39.352  35.348  39.591  1.00  0.00     0.060 A 
BRANCH  97  98
ATOM     98  S   UNL A   1      39.069  36.416  41.018  1.00  0.00     0.124 S 
ATOM     99  O   UNL A   1      38.488  37.599  40.389  1.00  0.00    -0.237 OA
ATOM    100  O   UNL A   1      38.156  35.617  41.830  1.00  0.00    -0.237 OA
ATOM    101  O   UNL A   1      40.404  36.596  41.578  1.00  0.00    -0.744 OA
ENDBRANCH  97  98
ENDBRANCH  65  90
ENDBRANCH  39  40
ENDBRANCH  32  34
ENDBRANCH  31  32
ENDBRANCH  30  31
ENDBRANCH   1  30
TORSDOF 17
ENDMDL
