MODEL 1
REMARK VINA RESULT:     -11.0      0.000      0.000
REMARK SMILES C=C1c2ccccc2C(=O)N1[C@](C)(CC)C(=O)OCCOC(=O)c1ccc(-c2c3nc(c(-c4c(F)cc(S(=O)(=O)[O-])cc4F)c4ccc([nH]4)c(-c4c(F)cc(S(=O)(=O)[O-])cc4F)c4nc(c(-c5c(F)cc(S(=O)(=O)[O-])cc5F)c5ccc2[nH]5)C=C4)C=C3)cc1
REMARK SMILES IDX 20 1 19 2 18 3 16 4 17 5 12 6 13 7 11 8 1 9 2 10 3 11 4 12
REMARK SMILES IDX 8 13 9 14 5 15 7 16 10 17 6 18 14 19 15 20 21 21 22 22 23 23
REMARK SMILES IDX 24 24 25 25 89 26 26 27 88 28 27 29 28 30 29 31 82 32 30 33
REMARK SMILES IDX 87 34 81 35 83 36 31 37 86 38 80 39 79 40 32 42 66 43 45 44
REMARK SMILES IDX 65 45 46 46 49 47 64 48 84 49 47 50 48 51 63 53 85 54 50 55
REMARK SMILES IDX 33 56 34 57 43 58 35 59 36 60 42 61 44 62 37 63 38 64 39 65
REMARK SMILES IDX 40 66 41 67 67 68 68 69 77 70 69 71 70 72 76 73 78 74 71 75
REMARK SMILES IDX 72 76 73 77 74 78 75 79 51 80 52 81 61 82 53 83 54 84 60 85
REMARK SMILES IDX 62 86 55 87 56 88 57 89 58 90 59 91
REMARK H PARENT 83 41 49 52
REMARK Flexibility Score: inf
ROOT
ATOM      1  C   UNL A   1      43.830  24.662  25.193  1.00  0.00     0.275 C 
ENDROOT
BRANCH   1   2
ATOM      2  C   UNL A   1      43.616  23.203  24.790  1.00  0.00     0.274 C 
BRANCH   2   3
ATOM      3  O   UNL A   1      42.283  22.720  25.058  1.00  0.00    -0.460 OA
BRANCH   3   4
ATOM      4  C   UNL A   1      42.206  21.618  25.859  1.00  0.00     0.332 C 
ATOM      5  O   UNL A   1      42.791  20.571  25.592  1.00  0.00    -0.249 OA
BRANCH   4   6
ATOM      6  C   UNL A   1      41.188  21.746  27.019  1.00  0.00     0.142 C 
ATOM      7  C   UNL A   1      41.136  20.358  27.715  1.00  0.00     0.048 C 
BRANCH   6   8
ATOM      8  N   UNL A   1      39.801  22.045  26.522  1.00  0.00    -0.292 N 
ATOM      9  C   UNL A   1      39.342  24.466  26.991  1.00  0.00     0.038 C 
ATOM     10  C   UNL A   1      39.074  23.244  26.522  1.00  0.00     0.046 C 
ATOM     11  C   UNL A   1      37.809  22.987  25.827  1.00  0.00     0.010 A 
ATOM     12  C   UNL A   1      36.706  23.785  25.561  1.00  0.00     0.011 A 
ATOM     13  C   UNL A   1      37.822  21.668  25.398  1.00  0.00     0.049 A 
ATOM     14  C   UNL A   1      39.078  21.057  25.827  1.00  0.00     0.259 C 
ATOM     15  C   UNL A   1      35.634  23.230  24.854  1.00  0.00     0.001 A 
ATOM     16  C   UNL A   1      36.782  21.095  24.688  1.00  0.00     0.014 A 
ATOM     17  O   UNL A   1      39.362  19.903  25.577  1.00  0.00    -0.269 OA
ATOM     18  C   UNL A   1      35.674  21.896  24.416  1.00  0.00     0.001 A 
ENDBRANCH   6   8
BRANCH   6  19
ATOM     19  C   UNL A   1      41.648  22.811  28.068  1.00  0.00     0.037 C 
ATOM     20  C   UNL A   1      43.103  22.739  28.539  1.00  0.00     0.007 C 
ENDBRANCH   6  19
ENDBRANCH   4   6
ENDBRANCH   3   4
ENDBRANCH   2   3
ENDBRANCH   1   2
BRANCH   1  21
ATOM     21  O   UNL A   1      42.598  25.288  25.594  1.00  0.00    -0.458 OA
BRANCH  21  22
ATOM     22  C   UNL A   1      42.627  26.639  25.588  1.00  0.00     0.338 C 
ATOM     23  O   UNL A   1      42.655  27.366  24.608  1.00  0.00    -0.246 OA
BRANCH  22  24
ATOM     24  C   UNL A   1      42.566  27.190  26.950  1.00  0.00     0.060 A 
ATOM     25  C   UNL A   1      41.922  26.463  27.944  1.00  0.00     0.016 A 
ATOM     26  C   UNL A   1      42.912  28.517  27.179  1.00  0.00     0.016 A 
ATOM     27  C   UNL A   1      41.497  27.077  29.110  1.00  0.00     0.010 A 
ATOM     28  C   UNL A   1      42.605  29.101  28.413  1.00  0.00     0.010 A 
ATOM     29  C   UNL A   1      41.861  28.396  29.377  1.00  0.00    -0.014 A 
BRANCH  29  30
ATOM     30  C   UNL A   1      41.446  29.029  30.654  1.00  0.00     0.031 A 
ATOM     31  C   UNL A   1      40.223  29.901  30.691  1.00  0.00     0.074 A 
ATOM     32  C   UNL A   1      42.168  28.813  31.772  1.00  0.00     0.049 A 
ATOM     33  N   UNL A   1      39.831  30.728  31.624  1.00  0.00    -0.248 NA
ATOM     34  C   UNL A   1      39.333  29.853  29.519  1.00  0.00     0.031 C 
ATOM     35  C   UNL A   1      43.334  27.927  31.877  1.00  0.00     0.029 A 
ATOM     36  N   UNL A   1      42.037  29.326  33.038  1.00  0.00    -0.354 N 
ATOM     37  C   UNL A   1      38.688  31.345  31.127  1.00  0.00     0.074 A 
ATOM     38  C   UNL A   1      38.446  30.795  29.811  1.00  0.00     0.031 C 
ATOM     39  C   UNL A   1      43.794  27.942  33.135  1.00  0.00     0.029 A 
ATOM     40  C   UNL A   1      43.033  28.922  33.897  1.00  0.00     0.049 A 
ATOM     41  H   UNL A   1      41.302  29.923  33.305  1.00  0.00     0.167 HD
ATOM     42  C   UNL A   1      37.923  32.291  31.723  1.00  0.00     0.037 A 
ATOM     43  C   UNL A   1      43.347  29.343  35.136  1.00  0.00     0.037 A 
ATOM     44  C   UNL A   1      38.160  32.781  33.057  1.00  0.00     0.049 A 
ATOM     45  C   UNL A   1      42.515  30.431  35.751  1.00  0.00     0.074 A 
ATOM     46  C   UNL A   1      37.441  33.725  33.767  1.00  0.00     0.029 A 
ATOM     47  N   UNL A   1      39.191  32.357  33.885  1.00  0.00    -0.354 N 
ATOM     48  N   UNL A   1      41.470  31.048  35.254  1.00  0.00    -0.248 NA
ATOM     49  C   UNL A   1      42.911  30.892  37.087  1.00  0.00     0.031 C 
ATOM     50  C   UNL A   1      38.064  33.908  35.006  1.00  0.00     0.029 A 
ATOM     51  C   UNL A   1      39.137  33.035  35.092  1.00  0.00     0.049 A 
ATOM     52  H   UNL A   1      39.861  31.675  33.650  1.00  0.00     0.167 HD
ATOM     53  C   UNL A   1      41.066  31.953  36.227  1.00  0.00     0.074 A 
ATOM     54  C   UNL A   1      41.971  31.790  37.347  1.00  0.00     0.031 C 
ATOM     55  C   UNL A   1      40.042  32.841  36.197  1.00  0.00     0.037 A 
BRANCH  42  56
ATOM     56  C   UNL A   1      36.789  32.890  30.936  1.00  0.00     0.058 A 
ATOM     57  C   UNL A   1      35.447  32.560  31.181  1.00  0.00     0.135 A 
ATOM     58  C   UNL A   1      37.052  33.866  29.958  1.00  0.00     0.135 A 
ATOM     59  F   UNL A   1      35.137  31.620  32.088  1.00  0.00    -0.206 F 
ATOM     60  C   UNL A   1      34.409  33.166  30.478  1.00  0.00     0.059 A 
ATOM     61  C   UNL A   1      36.029  34.505  29.264  1.00  0.00     0.059 A 
ATOM     62  F   UNL A   1      38.318  34.216  29.677  1.00  0.00    -0.206 F 
ATOM     63  C   UNL A   1      34.710  34.144  29.527  1.00  0.00     0.060 A 
BRANCH  63  64
ATOM     64  S   UNL A   1      33.349  34.947  28.652  1.00  0.00     0.124 S 
ATOM     65  O   UNL A   1      32.523  35.413  29.762  1.00  0.00    -0.237 OA
ATOM     66  O   UNL A   1      34.039  35.988  27.895  1.00  0.00    -0.237 OA
ATOM     67  O   UNL A   1      32.775  33.871  27.852  1.00  0.00    -0.744 OA
ENDBRANCH  63  64
ENDBRANCH  42  56
BRANCH  43  68
ATOM     68  C   UNL A   1      44.534  28.785  35.839  1.00  0.00     0.058 A 
ATOM     69  C   UNL A   1      44.410  27.698  36.716  1.00  0.00     0.135 A 
ATOM     70  C   UNL A   1      45.818  29.323  35.646  1.00  0.00     0.135 A 
ATOM     71  F   UNL A   1      43.207  27.150  36.939  1.00  0.00    -0.206 F 
ATOM     72  C   UNL A   1      45.509  27.182  37.397  1.00  0.00     0.059 A 
ATOM     73  C   UNL A   1      46.937  28.802  36.287  1.00  0.00     0.059 A 
ATOM     74  F   UNL A   1      45.998  30.354  34.804  1.00  0.00    -0.206 F 
ATOM     75  C   UNL A   1      46.769  27.741  37.175  1.00  0.00     0.060 A 
BRANCH  75  76
ATOM     76  S   UNL A   1      48.191  27.052  38.048  1.00  0.00     0.124 S 
ATOM     77  O   UNL A   1      49.223  28.036  37.748  1.00  0.00    -0.237 OA
ATOM     78  O   UNL A   1      47.717  27.022  39.430  1.00  0.00    -0.237 OA
ATOM     79  O   UNL A   1      48.365  25.743  37.426  1.00  0.00    -0.744 OA
ENDBRANCH  75  76
ENDBRANCH  43  68
BRANCH  55  80
ATOM     80  C   UNL A   1      39.816  33.662  37.434  1.00  0.00     0.058 A 
ATOM     81  C   UNL A   1      40.483  34.878  37.649  1.00  0.00     0.135 A 
ATOM     82  C   UNL A   1      38.885  33.243  38.398  1.00  0.00     0.135 A 
ATOM     83  F   UNL A   1      41.391  35.317  36.762  1.00  0.00    -0.206 F 
ATOM     84  C   UNL A   1      40.255  35.638  38.791  1.00  0.00     0.059 A 
ATOM     85  C   UNL A   1      38.617  34.003  39.530  1.00  0.00     0.059 A 
ATOM     86  F   UNL A   1      38.214  32.091  38.235  1.00  0.00    -0.206 F 
ATOM     87  C   UNL A   1      39.316  35.193  39.725  1.00  0.00     0.060 A 
BRANCH  87  88
ATOM     88  S   UNL A   1      39.005  36.206  41.184  1.00  0.00     0.124 S 
ATOM     89  O   UNL A   1      40.270  36.084  41.902  1.00  0.00    -0.237 OA
ATOM     90  O   UNL A   1      38.729  37.515  40.603  1.00  0.00    -0.237 OA
ATOM     91  O   UNL A   1      37.861  35.552  41.814  1.00  0.00    -0.744 OA
ENDBRANCH  87  88
ENDBRANCH  55  80
ENDBRANCH  29  30
ENDBRANCH  22  24
ENDBRANCH  21  22
ENDBRANCH   1  21
TORSDOF 16
ENDMDL
MODEL 2
REMARK VINA RESULT:     -11.0      6.227     11.173
REMARK SMILES C=C1c2ccccc2C(=O)N1[C@](C)(CC)C(=O)OCCOC(=O)c1ccc(-c2c3nc(c(-c4c(F)cc(S(=O)(=O)[O-])cc4F)c4ccc([nH]4)c(-c4c(F)cc(S(=O)(=O)[O-])cc4F)c4nc(c(-c5c(F)cc(S(=O)(=O)[O-])cc5F)c5ccc2[nH]5)C=C4)C=C3)cc1
REMARK SMILES IDX 20 1 19 2 18 3 16 4 17 5 12 6 13 7 11 8 1 9 2 10 3 11 4 12
REMARK SMILES IDX 8 13 9 14 5 15 7 16 10 17 6 18 14 19 15 20 21 21 22 22 23 23
REMARK SMILES IDX 24 24 25 25 89 26 26 27 88 28 27 29 28 30 29 31 82 32 30 33
REMARK SMILES IDX 87 34 81 35 83 36 31 37 86 38 80 39 79 40 32 42 66 43 45 44
REMARK SMILES IDX 65 45 46 46 49 47 64 48 84 49 47 50 48 51 63 53 85 54 50 55
REMARK SMILES IDX 33 56 34 57 43 58 35 59 36 60 42 61 44 62 37 63 38 64 39 65
REMARK SMILES IDX 40 66 41 67 67 68 68 69 77 70 69 71 70 72 76 73 78 74 71 75
REMARK SMILES IDX 72 76 73 77 74 78 75 79 51 80 52 81 61 82 53 83 54 84 60 85
REMARK SMILES IDX 62 86 55 87 56 88 57 89 58 90 59 91
REMARK H PARENT 83 41 49 52
REMARK Flexibility Score: inf
ROOT
ATOM      1  C   UNL A   1      32.770  28.666  26.503  1.00  0.00     0.275 C 
ENDROOT
BRANCH   1   2
ATOM      2  C   UNL A   1      31.818  27.595  27.037  1.00  0.00     0.274 C 
BRANCH   2   3
ATOM      3  O   UNL A   1      32.190  26.253  26.661  1.00  0.00    -0.460 OA
BRANCH   3   4
ATOM      4  C   UNL A   1      31.222  25.529  26.028  1.00  0.00     0.332 C 
ATOM      5  O   UNL A   1      30.413  24.837  26.642  1.00  0.00    -0.249 OA
BRANCH   4   6
ATOM      6  C   UNL A   1      31.345  25.518  24.484  1.00  0.00     0.142 C 
ATOM      7  C   UNL A   1      32.864  25.545  24.162  1.00  0.00     0.048 C 
BRANCH   6   8
ATOM      8  N   UNL A   1      30.738  26.743  23.860  1.00  0.00    -0.292 N 
ATOM      9  C   UNL A   1      32.589  28.009  22.738  1.00  0.00     0.038 C 
ATOM     10  C   UNL A   1      31.328  27.765  23.103  1.00  0.00     0.046 C 
ATOM     11  C   UNL A   1      30.252  28.660  22.666  1.00  0.00     0.010 A 
ATOM     12  C   UNL A   1      30.252  29.836  21.930  1.00  0.00     0.011 A 
ATOM     13  C   UNL A   1      29.054  28.141  23.132  1.00  0.00     0.049 A 
ATOM     14  C   UNL A   1      29.342  26.925  23.888  1.00  0.00     0.259 C 
ATOM     15  C   UNL A   1      29.029  30.463  21.672  1.00  0.00     0.001 A 
ATOM     16  C   UNL A   1      27.828  28.732  22.883  1.00  0.00     0.014 A 
ATOM     17  O   UNL A   1      28.470  26.255  24.404  1.00  0.00    -0.269 OA
ATOM     18  C   UNL A   1      27.824  29.913  22.141  1.00  0.00     0.001 A 
ENDBRANCH   6   8
BRANCH   6  19
ATOM     19  C   UNL A   1      30.730  24.216  23.872  1.00  0.00     0.037 C 
ATOM     20  C   UNL A   1      31.663  23.333  23.039  1.00  0.00     0.007 C 
ENDBRANCH   6  19
ENDBRANCH   4   6
ENDBRANCH   3   4
ENDBRANCH   2   3
ENDBRANCH   1   2
BRANCH   1  21
ATOM     21  O   UNL A   1      34.024  28.660  27.209  1.00  0.00    -0.458 OA
BRANCH  21  22
ATOM     22  C   UNL A   1      34.369  29.850  27.750  1.00  0.00     0.338 C 
ATOM     23  O   UNL A   1      33.636  30.806  27.942  1.00  0.00    -0.246 OA
BRANCH  22  24
ATOM     24  C   UNL A   1      35.781  29.873  28.158  1.00  0.00     0.060 A 
ATOM     25  C   UNL A   1      36.757  30.106  27.196  1.00  0.00     0.016 A 
ATOM     26  C   UNL A   1      36.148  29.416  29.419  1.00  0.00     0.016 A 
ATOM     27  C   UNL A   1      38.079  29.762  27.428  1.00  0.00     0.010 A 
ATOM     28  C   UNL A   1      37.501  29.198  29.700  1.00  0.00     0.010 A 
ATOM     29  C   UNL A   1      38.476  29.333  28.693  1.00  0.00    -0.014 A 
BRANCH  29  30
ATOM     30  C   UNL A   1      39.904  29.017  28.948  1.00  0.00     0.031 A 
ATOM     31  C   UNL A   1      40.824  30.085  29.467  1.00  0.00     0.074 A 
ATOM     32  C   UNL A   1      40.364  27.771  28.716  1.00  0.00     0.049 A 
ATOM     33  N   UNL A   1      42.129  30.090  29.526  1.00  0.00    -0.248 NA
ATOM     34  C   UNL A   1      40.197  31.321  29.969  1.00  0.00     0.031 C 
ATOM     35  C   UNL A   1      39.550  26.629  28.281  1.00  0.00     0.029 A 
ATOM     36  N   UNL A   1      41.630  27.250  28.805  1.00  0.00    -0.354 N 
ATOM     37  C   UNL A   1      42.483  31.345  30.008  1.00  0.00     0.074 A 
ATOM     38  C   UNL A   1      41.255  32.076  30.230  1.00  0.00     0.031 C 
ATOM     39  C   UNL A   1      40.329  25.545  28.163  1.00  0.00     0.029 A 
ATOM     40  C   UNL A   1      41.710  25.937  28.400  1.00  0.00     0.049 A 
ATOM     41  H   UNL A   1      42.404  27.765  29.128  1.00  0.00     0.167 HD
ATOM     42  C   UNL A   1      43.726  31.834  30.232  1.00  0.00     0.037 A 
ATOM     43  C   UNL A   1      42.781  25.154  28.174  1.00  0.00     0.037 A 
ATOM     44  C   UNL A   1      44.928  31.062  30.050  1.00  0.00     0.049 A 
ATOM     45  C   UNL A   1      44.148  25.738  28.379  1.00  0.00     0.074 A 
ATOM     46  C   UNL A   1      46.240  31.449  30.263  1.00  0.00     0.029 A 
ATOM     47  N   UNL A   1      44.966  29.741  29.622  1.00  0.00    -0.354 N 
ATOM     48  N   UNL A   1      44.476  26.942  28.783  1.00  0.00    -0.248 NA
ATOM     49  C   UNL A   1      45.292  24.866  28.085  1.00  0.00     0.031 C 
ATOM     50  C   UNL A   1      47.072  30.380  29.917  1.00  0.00     0.029 A 
ATOM     51  C   UNL A   1      46.279  29.305  29.546  1.00  0.00     0.049 A 
ATOM     52  H   UNL A   1      44.176  29.196  29.405  1.00  0.00     0.167 HD
ATOM     53  C   UNL A   1      45.865  26.966  28.816  1.00  0.00     0.074 A 
ATOM     54  C   UNL A   1      46.312  25.649  28.407  1.00  0.00     0.031 C 
ATOM     55  C   UNL A   1      46.695  27.983  29.151  1.00  0.00     0.037 A 
BRANCH  42  56
ATOM     56  C   UNL A   1      43.860  33.272  30.657  1.00  0.00     0.058 A 
ATOM     57  C   UNL A   1      43.939  33.653  32.005  1.00  0.00     0.135 A 
ATOM     58  C   UNL A   1      43.977  34.282  29.686  1.00  0.00     0.135 A 
ATOM     59  F   UNL A   1      43.814  32.735  32.976  1.00  0.00    -0.206 F 
ATOM     60  C   UNL A   1      44.118  34.983  32.375  1.00  0.00     0.059 A 
ATOM     61  C   UNL A   1      44.185  35.614  30.032  1.00  0.00     0.059 A 
ATOM     62  F   UNL A   1      43.901  33.976  28.380  1.00  0.00    -0.206 F 
ATOM     63  C   UNL A   1      44.248  35.956  31.381  1.00  0.00     0.060 A 
BRANCH  63  64
ATOM     64  S   UNL A   1      44.518  37.671  31.878  1.00  0.00     0.124 S 
ATOM     65  O   UNL A   1      43.810  37.720  33.154  1.00  0.00    -0.237 OA
ATOM     66  O   UNL A   1      45.973  37.746  31.956  1.00  0.00    -0.237 OA
ATOM     67  O   UNL A   1      43.911  38.439  30.796  1.00  0.00    -0.744 OA
ENDBRANCH  63  64
ENDBRANCH  42  56
BRANCH  43  68
ATOM     68  C   UNL A   1      42.600  23.766  27.667  1.00  0.00     0.058 A 
ATOM     69  C   UNL A   1      42.506  23.505  26.292  1.00  0.00     0.135 A 
ATOM     70  C   UNL A   1      42.520  22.671  28.544  1.00  0.00     0.135 A 
ATOM     71  F   UNL A   1      42.571  24.515  25.411  1.00  0.00    -0.206 F 
ATOM     72  C   UNL A   1      42.313  22.215  25.807  1.00  0.00     0.059 A 
ATOM     73  C   UNL A   1      42.364  21.369  28.082  1.00  0.00     0.059 A 
ATOM     74  F   UNL A   1      42.621  22.861  29.870  1.00  0.00    -0.206 F 
ATOM     75  C   UNL A   1      42.245  21.153  26.710  1.00  0.00     0.060 A 
BRANCH  75  76
ATOM     76  S   UNL A   1      42.014  19.481  26.069  1.00  0.00     0.124 S 
ATOM     77  O   UNL A   1      42.498  18.673  27.181  1.00  0.00    -0.237 OA
ATOM     78  O   UNL A   1      40.575  19.441  25.827  1.00  0.00    -0.237 OA
ATOM     79  O   UNL A   1      42.844  19.465  24.868  1.00  0.00    -0.744 OA
ENDBRANCH  75  76
ENDBRANCH  43  68
BRANCH  55  80
ATOM     80  C   UNL A   1      48.168  27.692  29.142  1.00  0.00     0.058 A 
ATOM     81  C   UNL A   1      48.981  28.016  28.045  1.00  0.00     0.135 A 
ATOM     82  C   UNL A   1      48.780  27.116  30.268  1.00  0.00     0.135 A 
ATOM     83  F   UNL A   1      48.443  28.558  26.941  1.00  0.00    -0.206 F 
ATOM     84  C   UNL A   1      50.347  27.756  28.054  1.00  0.00     0.059 A 
ATOM     85  C   UNL A   1      50.148  26.878  30.311  1.00  0.00     0.059 A 
ATOM     86  F   UNL A   1      48.047  26.795  31.346  1.00  0.00    -0.206 F 
ATOM     87  C   UNL A   1      50.922  27.189  29.193  1.00  0.00     0.060 A 
BRANCH  87  88
ATOM     88  S   UNL A   1      52.701  26.888  29.204  1.00  0.00     0.124 S 
ATOM     89  O   UNL A   1      52.858  26.011  28.048  1.00  0.00    -0.237 OA
ATOM     90  O   UNL A   1      53.246  28.234  29.057  1.00  0.00    -0.237 OA
ATOM     91  O   UNL A   1      52.932  26.262  30.502  1.00  0.00    -0.744 OA
ENDBRANCH  87  88
ENDBRANCH  55  80
ENDBRANCH  29  30
ENDBRANCH  22  24
ENDBRANCH  21  22
ENDBRANCH   1  21
TORSDOF 16
ENDMDL
MODEL 3
REMARK VINA RESULT:     -10.9      5.762     11.040
REMARK SMILES C=C1c2ccccc2C(=O)N1[C@](C)(CC)C(=O)OCCOC(=O)c1ccc(-c2c3nc(c(-c4c(F)cc(S(=O)(=O)[O-])cc4F)c4ccc([nH]4)c(-c4c(F)cc(S(=O)(=O)[O-])cc4F)c4nc(c(-c5c(F)cc(S(=O)(=O)[O-])cc5F)c5ccc2[nH]5)C=C4)C=C3)cc1
REMARK SMILES IDX 20 1 19 2 18 3 16 4 17 5 12 6 13 7 11 8 1 9 2 10 3 11 4 12
REMARK SMILES IDX 8 13 9 14 5 15 7 16 10 17 6 18 14 19 15 20 21 21 22 22 23 23
REMARK SMILES IDX 24 24 25 25 89 26 26 27 88 28 27 29 28 30 29 31 82 32 30 33
REMARK SMILES IDX 87 34 81 35 83 36 31 37 86 38 80 39 79 40 32 42 66 43 45 44
REMARK SMILES IDX 65 45 46 46 49 47 64 48 84 49 47 50 48 51 63 53 85 54 50 55
REMARK SMILES IDX 33 56 34 57 43 58 35 59 36 60 42 61 44 62 37 63 38 64 39 65
REMARK SMILES IDX 40 66 41 67 67 68 68 69 77 70 69 71 70 72 76 73 78 74 71 75
REMARK SMILES IDX 72 76 73 77 74 78 75 79 51 80 52 81 61 82 53 83 54 84 60 85
REMARK SMILES IDX 62 86 55 87 56 88 57 89 58 90 59 91
REMARK H PARENT 83 41 49 52
REMARK Flexibility Score: inf
ROOT
ATOM      1  C   UNL A   1      33.294  30.167  26.672  1.00  0.00     0.275 C 
ENDROOT
BRANCH   1   2
ATOM      2  C   UNL A   1      31.793  29.921  26.520  1.00  0.00     0.274 C 
BRANCH   2   3
ATOM      3  O   UNL A   1      31.476  28.759  25.725  1.00  0.00    -0.460 OA
BRANCH   3   4
ATOM      4  C   UNL A   1      31.195  27.625  26.430  1.00  0.00     0.332 C 
ATOM      5  O   UNL A   1      31.271  27.577  27.655  1.00  0.00    -0.249 OA
BRANCH   4   6
ATOM      6  C   UNL A   1      30.951  26.375  25.548  1.00  0.00     0.142 C 
ATOM      7  C   UNL A   1      29.813  25.568  26.231  1.00  0.00     0.048 C 
BRANCH   6   8
ATOM      8  N   UNL A   1      32.157  25.479  25.494  1.00  0.00    -0.292 N 
ATOM      9  C   UNL A   1      33.712  26.417  23.764  1.00  0.00     0.038 C 
ATOM     10  C   UNL A   1      33.321  25.566  24.717  1.00  0.00     0.046 C 
ATOM     11  C   UNL A   1      34.210  24.480  25.140  1.00  0.00     0.010 A 
ATOM     12  C   UNL A   1      35.461  24.069  24.703  1.00  0.00     0.011 A 
ATOM     13  C   UNL A   1      33.585  23.798  26.172  1.00  0.00     0.049 A 
ATOM     14  C   UNL A   1      32.284  24.419  26.412  1.00  0.00     0.259 C 
ATOM     15  C   UNL A   1      36.061  22.972  25.331  1.00  0.00     0.001 A 
ATOM     16  C   UNL A   1      34.158  22.718  26.819  1.00  0.00     0.014 A 
ATOM     17  O   UNL A   1      31.523  24.028  27.274  1.00  0.00    -0.269 OA
ATOM     18  C   UNL A   1      35.416  22.304  26.385  1.00  0.00     0.001 A 
ENDBRANCH   6   8
BRANCH   6  19
ATOM     19  C   UNL A   1      30.485  26.772  24.109  1.00  0.00     0.037 C 
ATOM     20  C   UNL A   1      28.995  26.611  23.793  1.00  0.00     0.007 C 
ENDBRANCH   6  19
ENDBRANCH   4   6
ENDBRANCH   3   4
ENDBRANCH   2   3
ENDBRANCH   1   2
BRANCH   1  21
ATOM     21  O   UNL A   1      33.746  29.877  28.007  1.00  0.00    -0.458 OA
BRANCH  21  22
ATOM     22  C   UNL A   1      34.708  30.707  28.467  1.00  0.00     0.338 C 
ATOM     23  O   UNL A   1      34.559  31.854  28.856  1.00  0.00    -0.246 OA
BRANCH  22  24
ATOM     24  C   UNL A   1      36.021  30.049  28.508  1.00  0.00     0.060 A 
ATOM     25  C   UNL A   1      36.515  29.604  29.729  1.00  0.00     0.016 A 
ATOM     26  C   UNL A   1      36.861  30.102  27.401  1.00  0.00     0.016 A 
ATOM     27  C   UNL A   1      37.865  29.341  29.895  1.00  0.00     0.010 A 
ATOM     28  C   UNL A   1      38.196  29.705  27.535  1.00  0.00     0.010 A 
ATOM     29  C   UNL A   1      38.719  29.356  28.795  1.00  0.00    -0.014 A 
BRANCH  29  30
ATOM     30  C   UNL A   1      40.154  29.022  28.973  1.00  0.00     0.031 A 
ATOM     31  C   UNL A   1      41.115  30.079  29.439  1.00  0.00     0.074 A 
ATOM     32  C   UNL A   1      40.585  27.769  28.720  1.00  0.00     0.049 A 
ATOM     33  N   UNL A   1      42.421  30.066  29.426  1.00  0.00    -0.248 NA
ATOM     34  C   UNL A   1      40.532  31.324  29.969  1.00  0.00     0.031 C 
ATOM     35  C   UNL A   1      39.734  26.637  28.333  1.00  0.00     0.029 A 
ATOM     36  N   UNL A   1      41.847  27.232  28.743  1.00  0.00    -0.354 N 
ATOM     37  C   UNL A   1      42.817  31.318  29.885  1.00  0.00     0.074 A 
ATOM     38  C   UNL A   1      41.612  32.066  30.170  1.00  0.00     0.031 C 
ATOM     39  C   UNL A   1      40.491  25.542  28.177  1.00  0.00     0.029 A 
ATOM     40  C   UNL A   1      41.888  25.917  28.339  1.00  0.00     0.049 A 
ATOM     41  H   UNL A   1      42.644  27.737  29.022  1.00  0.00     0.167 HD
ATOM     42  C   UNL A   1      44.076  31.792  30.040  1.00  0.00     0.037 A 
ATOM     43  C   UNL A   1      42.935  25.119  28.058  1.00  0.00     0.037 A 
ATOM     44  C   UNL A   1      45.257  31.003  29.796  1.00  0.00     0.049 A 
ATOM     45  C   UNL A   1      44.319  25.685  28.187  1.00  0.00     0.074 A 
ATOM     46  C   UNL A   1      46.583  31.373  29.937  1.00  0.00     0.029 A 
ATOM     47  N   UNL A   1      45.254  29.681  29.371  1.00  0.00    -0.354 N 
ATOM     48  N   UNL A   1      44.684  26.887  28.568  1.00  0.00    -0.248 NA
ATOM     49  C   UNL A   1      45.434  24.798  27.834  1.00  0.00     0.031 C 
ATOM     50  C   UNL A   1      47.382  30.293  29.549  1.00  0.00     0.029 A 
ATOM     51  C   UNL A   1      46.555  29.228  29.225  1.00  0.00     0.049 A 
ATOM     52  H   UNL A   1      44.447  29.146  29.199  1.00  0.00     0.167 HD
ATOM     53  C   UNL A   1      46.072  26.892  28.527  1.00  0.00     0.074 A 
ATOM     54  C   UNL A   1      46.480  25.569  28.098  1.00  0.00     0.031 C 
ATOM     55  C   UNL A   1      46.933  27.899  28.813  1.00  0.00     0.037 A 
BRANCH  42  56
ATOM     56  C   UNL A   1      44.252  33.228  30.452  1.00  0.00     0.058 A 
ATOM     57  C   UNL A   1      44.395  33.613  31.794  1.00  0.00     0.135 A 
ATOM     58  C   UNL A   1      44.344  34.233  29.473  1.00  0.00     0.135 A 
ATOM     59  F   UNL A   1      44.295  32.701  32.774  1.00  0.00    -0.206 F 
ATOM     60  C   UNL A   1      44.611  34.942  32.151  1.00  0.00     0.059 A 
ATOM     61  C   UNL A   1      44.588  35.562  29.804  1.00  0.00     0.059 A 
ATOM     62  F   UNL A   1      44.208  33.923  28.173  1.00  0.00    -0.206 F 
ATOM     63  C   UNL A   1      44.713  35.908  31.147  1.00  0.00     0.060 A 
BRANCH  63  64
ATOM     64  S   UNL A   1      45.032  37.621  31.625  1.00  0.00     0.124 S 
ATOM     65  O   UNL A   1      43.797  38.276  31.206  1.00  0.00    -0.237 OA
ATOM     66  O   UNL A   1      45.234  37.508  33.066  1.00  0.00    -0.237 OA
ATOM     67  O   UNL A   1      46.220  37.974  30.855  1.00  0.00    -0.744 OA
ENDBRANCH  63  64
ENDBRANCH  42  56
BRANCH  43  68
ATOM     68  C   UNL A   1      42.709  23.733  27.565  1.00  0.00     0.058 A 
ATOM     69  C   UNL A   1      42.608  22.656  28.458  1.00  0.00     0.135 A 
ATOM     70  C   UNL A   1      42.587  23.455  26.193  1.00  0.00     0.135 A 
ATOM     71  F   UNL A   1      42.722  22.865  29.777  1.00  0.00    -0.206 F 
ATOM     72  C   UNL A   1      42.420  21.352  28.008  1.00  0.00     0.059 A 
ATOM     73  C   UNL A   1      42.363  22.166  25.721  1.00  0.00     0.059 A 
ATOM     74  F   UNL A   1      42.659  24.450  25.295  1.00  0.00    -0.206 F 
ATOM     75  C   UNL A   1      42.298  21.117  26.637  1.00  0.00     0.060 A 
BRANCH  75  76
ATOM     76  S   UNL A   1      42.035  19.425  26.066  1.00  0.00     0.124 S 
ATOM     77  O   UNL A   1      42.479  18.655  27.220  1.00  0.00    -0.237 OA
ATOM     78  O   UNL A   1      40.599  19.411  25.801  1.00  0.00    -0.237 OA
ATOM     79  O   UNL A   1      42.883  19.335  24.881  1.00  0.00    -0.744 OA
ENDBRANCH  75  76
ENDBRANCH  43  68
BRANCH  55  80
ATOM     80  C   UNL A   1      48.400  27.589  28.726  1.00  0.00     0.058 A 
ATOM     81  C   UNL A   1      49.151  27.880  27.577  1.00  0.00     0.135 A 
ATOM     82  C   UNL A   1      49.068  27.028  29.826  1.00  0.00     0.135 A 
ATOM     83  F   UNL A   1      48.556  28.406  26.494  1.00  0.00    -0.206 F 
ATOM     84  C   UNL A   1      50.513  27.601  27.512  1.00  0.00     0.059 A 
ATOM     85  C   UNL A   1      50.434  26.773  29.795  1.00  0.00     0.059 A 
ATOM     86  F   UNL A   1      48.396  26.740  30.951  1.00  0.00    -0.206 F 
ATOM     87  C   UNL A   1      51.146  27.051  28.629  1.00  0.00     0.060 A 
BRANCH  87  88
ATOM     88  S   UNL A   1      52.918  26.727  28.543  1.00  0.00     0.124 S 
ATOM     89  O   UNL A   1      53.204  26.293  29.907  1.00  0.00    -0.237 OA
ATOM     90  O   UNL A   1      52.997  25.691  27.518  1.00  0.00    -0.237 OA
ATOM     91  O   UNL A   1      53.482  28.020  28.165  1.00  0.00    -0.744 OA
ENDBRANCH  87  88
ENDBRANCH  55  80
ENDBRANCH  29  30
ENDBRANCH  22  24
ENDBRANCH  21  22
ENDBRANCH   1  21
TORSDOF 16
ENDMDL
