MODEL 1
REMARK VINA RESULT:     -10.8      0.000      0.000
REMARK SMILES C[C@@H](C(=O)[C@H](C)[C@@H](C)C(=O)OCCOC(=O)c1ccc(-c2c3nc(c(-c4c(F)cc(S(=O)(=O)[O-])cc4F)c4ccc([nH]4)c(-c4c(F)cc(S(=O)(=O)[O-])cc4F)c4nc(c(-c5c(F)cc(S(=O)(=O)[O-])cc5F)c5ccc2[nH]5)C=C4)C=C3)cc1)c1ccccc1
REMARK SMILES IDX 12 1 11 2 9 3 10 4 7 5 8 6 5 7 6 8 3 9 4 10 2 11 1 12 83 13
REMARK SMILES IDX 84 14 88 15 85 16 87 17 86 18 13 19 14 20 15 21 16 22 17 23
REMARK SMILES IDX 18 24 82 25 19 26 81 27 20 28 21 29 22 30 75 31 23 32 80 33
REMARK SMILES IDX 74 34 76 35 24 36 79 37 73 38 72 39 25 41 59 42 38 43 58 44
REMARK SMILES IDX 39 45 42 46 57 47 77 48 40 49 41 50 56 52 78 53 43 54 26 55
REMARK SMILES IDX 27 56 36 57 28 58 29 59 35 60 37 61 30 62 31 63 32 64 33 65
REMARK SMILES IDX 34 66 60 67 61 68 70 69 62 70 63 71 69 72 71 73 64 74 65 75
REMARK SMILES IDX 66 76 67 77 68 78 44 79 45 80 54 81 46 82 47 83 53 84 55 85
REMARK SMILES IDX 48 86 49 87 50 88 51 89 52 90
REMARK H PARENT 76 40 42 51
REMARK Flexibility Score: inf
ROOT
ATOM      1  C   UNL A   1      40.078  20.990  26.286  1.00  0.00     0.274 C 
ENDROOT
BRANCH   1   2
ATOM      2  O   UNL A   1      38.933  21.857  26.324  1.00  0.00    -0.462 OA
BRANCH   2   3
ATOM      3  C   UNL A   1      37.972  21.567  25.408  1.00  0.00     0.309 C 
ATOM      4  O   UNL A   1      37.766  20.452  24.947  1.00  0.00    -0.252 OA
BRANCH   3   5
ATOM      5  C   UNL A   1      37.120  22.806  25.131  1.00  0.00     0.106 C 
ATOM      6  C   UNL A   1      37.811  24.000  25.815  1.00  0.00     0.021 C 
BRANCH   5   7
ATOM      7  C   UNL A   1      35.652  22.624  25.595  1.00  0.00     0.067 C 
ATOM      8  C   UNL A   1      35.016  23.895  26.171  1.00  0.00     0.017 C 
BRANCH   7   9
ATOM      9  C   UNL A   1      34.646  22.025  24.581  1.00  0.00     0.143 C 
ATOM     10  O   UNL A   1      34.816  22.295  23.385  1.00  0.00    -0.299 OA
BRANCH   9  11
ATOM     11  C   UNL A   1      33.488  21.122  25.045  1.00  0.00     0.083 C 
ATOM     12  C   UNL A   1      33.339  21.042  26.566  1.00  0.00     0.021 C 
BRANCH  11  13
ATOM     13  C   UNL A   1      33.509  19.715  24.428  1.00  0.00    -0.038 A 
ATOM     14  C   UNL A   1      32.502  19.254  23.560  1.00  0.00     0.004 A 
ATOM     15  C   UNL A   1      34.592  18.857  24.683  1.00  0.00     0.004 A 
ATOM     16  C   UNL A   1      32.607  18.014  22.924  1.00  0.00     0.000 A 
ATOM     17  C   UNL A   1      34.693  17.612  24.053  1.00  0.00     0.000 A 
ATOM     18  C   UNL A   1      33.708  17.197  23.162  1.00  0.00     0.000 A 
ENDBRANCH  11  13
ENDBRANCH   9  11
ENDBRANCH   7   9
ENDBRANCH   5   7
ENDBRANCH   3   5
ENDBRANCH   2   3
ENDBRANCH   1   2
BRANCH   1  19
ATOM     19  C   UNL A   1      41.331  21.863  26.168  1.00  0.00     0.275 C 
BRANCH  19  20
ATOM     20  O   UNL A   1      41.344  23.123  26.893  1.00  0.00    -0.458 OA
BRANCH  20  21
ATOM     21  C   UNL A   1      41.843  24.238  26.320  1.00  0.00     0.338 C 
ATOM     22  O   UNL A   1      42.539  24.303  25.319  1.00  0.00    -0.246 OA
BRANCH  21  23
ATOM     23  C   UNL A   1      41.580  25.432  27.154  1.00  0.00     0.060 A 
ATOM     24  C   UNL A   1      40.626  25.286  28.168  1.00  0.00     0.016 A 
ATOM     25  C   UNL A   1      42.250  26.649  26.992  1.00  0.00     0.016 A 
ATOM     26  C   UNL A   1      40.357  26.338  29.034  1.00  0.00     0.010 A 
ATOM     27  C   UNL A   1      42.034  27.682  27.915  1.00  0.00     0.010 A 
ATOM     28  C   UNL A   1      41.113  27.516  28.963  1.00  0.00    -0.014 A 
BRANCH  28  29
ATOM     29  C   UNL A   1      41.048  28.464  30.104  1.00  0.00     0.031 A 
ATOM     30  C   UNL A   1      41.984  28.366  31.267  1.00  0.00     0.074 A 
ATOM     31  C   UNL A   1      40.116  29.438  30.054  1.00  0.00     0.049 A 
ATOM     32  N   UNL A   1      41.997  29.071  32.368  1.00  0.00    -0.248 NA
ATOM     33  C   UNL A   1      43.045  27.353  31.184  1.00  0.00     0.031 C 
ATOM     34  C   UNL A   1      39.166  29.632  28.952  1.00  0.00     0.029 A 
ATOM     35  N   UNL A   1      39.811  30.448  30.930  1.00  0.00    -0.354 N 
ATOM     36  C   UNL A   1      43.044  28.570  33.131  1.00  0.00     0.074 A 
ATOM     37  C   UNL A   1      43.650  27.503  32.357  1.00  0.00     0.031 C 
ATOM     38  C   UNL A   1      38.405  30.704  29.205  1.00  0.00     0.029 A 
ATOM     39  C   UNL A   1      38.744  31.216  30.526  1.00  0.00     0.049 A 
ATOM     40  H   UNL A   1      40.306  30.607  31.765  1.00  0.00     0.167 HD
ATOM     41  C   UNL A   1      43.444  28.962  34.364  1.00  0.00     0.037 A 
ATOM     42  C   UNL A   1      38.065  32.186  31.166  1.00  0.00     0.037 A 
ATOM     43  C   UNL A   1      42.825  30.034  35.108  1.00  0.00     0.049 A 
ATOM     44  C   UNL A   1      38.502  32.577  32.542  1.00  0.00     0.074 A 
ATOM     45  C   UNL A   1      43.170  30.529  36.354  1.00  0.00     0.029 A 
ATOM     46  N   UNL A   1      41.727  30.769  34.680  1.00  0.00    -0.354 N 
ATOM     47  N   UNL A   1      39.487  32.085  33.255  1.00  0.00    -0.248 NA
ATOM     48  C   UNL A   1      37.740  33.639  33.205  1.00  0.00     0.031 C 
ATOM     49  C   UNL A   1      42.253  31.530  36.698  1.00  0.00     0.029 A 
ATOM     50  C   UNL A   1      41.365  31.694  35.647  1.00  0.00     0.049 A 
ATOM     51  H   UNL A   1      41.271  30.649  33.815  1.00  0.00     0.167 HD
ATOM     52  C   UNL A   1      39.464  32.775  34.458  1.00  0.00     0.074 A 
ATOM     53  C   UNL A   1      38.379  33.735  34.364  1.00  0.00     0.031 C 
ATOM     54  C   UNL A   1      40.267  32.626  35.540  1.00  0.00     0.037 A 
BRANCH  41  55
ATOM     55  C   UNL A   1      44.562  28.193  35.012  1.00  0.00     0.058 A 
ATOM     56  C   UNL A   1      45.907  28.581  34.896  1.00  0.00     0.135 A 
ATOM     57  C   UNL A   1      44.277  27.054  35.786  1.00  0.00     0.135 A 
ATOM     58  F   UNL A   1      46.239  29.651  34.158  1.00  0.00    -0.206 F 
ATOM     59  C   UNL A   1      46.929  27.851  35.497  1.00  0.00     0.059 A 
ATOM     60  C   UNL A   1      45.281  26.323  36.414  1.00  0.00     0.059 A 
ATOM     61  F   UNL A   1      43.010  26.637  35.933  1.00  0.00    -0.206 F 
ATOM     62  C   UNL A   1      46.607  26.720  36.249  1.00  0.00     0.060 A 
BRANCH  62  63
ATOM     63  S   UNL A   1      47.944  25.771  37.008  1.00  0.00     0.124 S 
ATOM     64  O   UNL A   1      47.337  24.448  37.111  1.00  0.00    -0.237 OA
ATOM     65  O   UNL A   1      49.017  25.901  36.028  1.00  0.00    -0.237 OA
ATOM     66  O   UNL A   1      48.171  26.457  38.276  1.00  0.00    -0.744 OA
ENDBRANCH  62  63
ENDBRANCH  41  55
BRANCH  42  67
ATOM     67  C   UNL A   1      36.872  32.779  30.509  1.00  0.00     0.058 A 
ATOM     68  C   UNL A   1      35.575  32.359  30.830  1.00  0.00     0.135 A 
ATOM     69  C   UNL A   1      37.011  33.867  29.629  1.00  0.00     0.135 A 
ATOM     70  F   UNL A   1      35.390  31.321  31.660  1.00  0.00    -0.206 F 
ATOM     71  C   UNL A   1      34.455  33.012  30.321  1.00  0.00     0.059 A 
ATOM     72  C   UNL A   1      35.910  34.551  29.130  1.00  0.00     0.059 A 
ATOM     73  F   UNL A   1      38.235  34.317  29.307  1.00  0.00    -0.206 F 
ATOM     74  C   UNL A   1      34.634  34.117  29.484  1.00  0.00     0.060 A 
BRANCH  74  75
ATOM     75  S   UNL A   1      33.181  35.037  28.931  1.00  0.00     0.124 S 
ATOM     76  O   UNL A   1      32.477  35.256  30.188  1.00  0.00    -0.237 OA
ATOM     77  O   UNL A   1      33.780  36.220  28.319  1.00  0.00    -0.237 OA
ATOM     78  O   UNL A   1      32.539  34.117  27.997  1.00  0.00    -0.744 OA
ENDBRANCH  74  75
ENDBRANCH  42  67
BRANCH  54  79
ATOM     79  C   UNL A   1      40.000  33.536  36.704  1.00  0.00     0.058 A 
ATOM     80  C   UNL A   1      40.678  34.755  36.852  1.00  0.00     0.135 A 
ATOM     81  C   UNL A   1      39.043  33.191  37.671  1.00  0.00     0.135 A 
ATOM     82  F   UNL A   1      41.613  35.121  35.961  1.00  0.00    -0.206 F 
ATOM     83  C   UNL A   1      40.434  35.592  37.935  1.00  0.00     0.059 A 
ATOM     84  C   UNL A   1      38.765  34.024  38.748  1.00  0.00     0.059 A 
ATOM     85  F   UNL A   1      38.364  32.038  37.569  1.00  0.00    -0.206 F 
ATOM     86  C   UNL A   1      39.477  35.216  38.879  1.00  0.00     0.060 A 
BRANCH  86  87
ATOM     87  S   UNL A   1      39.154  36.318  40.272  1.00  0.00     0.124 S 
ATOM     88  O   UNL A   1      38.682  37.519  39.590  1.00  0.00    -0.237 OA
ATOM     89  O   UNL A   1      38.146  35.582  41.028  1.00  0.00    -0.237 OA
ATOM     90  O   UNL A   1      40.455  36.434  40.921  1.00  0.00    -0.744 OA
ENDBRANCH  86  87
ENDBRANCH  54  79
ENDBRANCH  28  29
ENDBRANCH  21  23
ENDBRANCH  20  21
ENDBRANCH  19  20
ENDBRANCH   1  19
TORSDOF 18
ENDMDL
MODEL 2
REMARK VINA RESULT:     -10.7      6.960     12.455
REMARK SMILES C[C@@H](C(=O)[C@H](C)[C@@H](C)C(=O)OCCOC(=O)c1ccc(-c2c3nc(c(-c4c(F)cc(S(=O)(=O)[O-])cc4F)c4ccc([nH]4)c(-c4c(F)cc(S(=O)(=O)[O-])cc4F)c4nc(c(-c5c(F)cc(S(=O)(=O)[O-])cc5F)c5ccc2[nH]5)C=C4)C=C3)cc1)c1ccccc1
REMARK SMILES IDX 12 1 11 2 9 3 10 4 7 5 8 6 5 7 6 8 3 9 4 10 2 11 1 12 83 13
REMARK SMILES IDX 84 14 88 15 85 16 87 17 86 18 13 19 14 20 15 21 16 22 17 23
REMARK SMILES IDX 18 24 82 25 19 26 81 27 20 28 21 29 22 30 75 31 23 32 80 33
REMARK SMILES IDX 74 34 76 35 24 36 79 37 73 38 72 39 25 41 59 42 38 43 58 44
REMARK SMILES IDX 39 45 42 46 57 47 77 48 40 49 41 50 56 52 78 53 43 54 26 55
REMARK SMILES IDX 27 56 36 57 28 58 29 59 35 60 37 61 30 62 31 63 32 64 33 65
REMARK SMILES IDX 34 66 60 67 61 68 70 69 62 70 63 71 69 72 71 73 64 74 65 75
REMARK SMILES IDX 66 76 67 77 68 78 44 79 45 80 54 81 46 82 47 83 53 84 55 85
REMARK SMILES IDX 48 86 49 87 50 88 51 89 52 90
REMARK H PARENT 76 40 42 51
REMARK Flexibility Score: inf
ROOT
ATOM      1  C   UNL A   1      34.188  29.631  27.223  1.00  0.00     0.274 C 
ENDROOT
BRANCH   1   2
ATOM      2  O   UNL A   1      33.122  29.642  26.260  1.00  0.00    -0.462 OA
BRANCH   2   3
ATOM      3  C   UNL A   1      32.163  28.701  26.466  1.00  0.00     0.309 C 
ATOM      4  O   UNL A   1      31.498  28.600  27.488  1.00  0.00    -0.252 OA
BRANCH   3   5
ATOM      5  C   UNL A   1      31.961  27.871  25.198  1.00  0.00     0.106 C 
ATOM      6  C   UNL A   1      33.159  26.910  25.084  1.00  0.00     0.021 C 
BRANCH   5   7
ATOM      7  C   UNL A   1      31.788  28.757  23.939  1.00  0.00     0.067 C 
ATOM      8  C   UNL A   1      33.018  28.790  23.023  1.00  0.00     0.017 C 
BRANCH   7   9
ATOM      9  C   UNL A   1      30.554  28.498  23.041  1.00  0.00     0.143 C 
ATOM     10  O   UNL A   1      30.739  27.885  21.981  1.00  0.00    -0.299 OA
BRANCH   9  11
ATOM     11  C   UNL A   1      29.150  28.976  23.456  1.00  0.00     0.083 C 
ATOM     12  C   UNL A   1      28.066  27.905  23.315  1.00  0.00     0.021 C 
BRANCH  11  13
ATOM     13  C   UNL A   1      28.711  30.283  22.777  1.00  0.00    -0.038 A 
ATOM     14  C   UNL A   1      28.690  31.517  23.451  1.00  0.00     0.004 A 
ATOM     15  C   UNL A   1      28.362  30.279  21.415  1.00  0.00     0.004 A 
ATOM     16  C   UNL A   1      28.397  32.705  22.776  1.00  0.00     0.000 A 
ATOM     17  C   UNL A   1      28.061  31.468  20.741  1.00  0.00     0.000 A 
ATOM     18  C   UNL A   1      28.093  32.683  21.419  1.00  0.00     0.000 A 
ENDBRANCH  11  13
ENDBRANCH   9  11
ENDBRANCH   7   9
ENDBRANCH   5   7
ENDBRANCH   3   5
ENDBRANCH   2   3
ENDBRANCH   1   2
BRANCH   1  19
ATOM     19  C   UNL A   1      34.424  31.071  27.687  1.00  0.00     0.275 C 
BRANCH  19  20
ATOM     20  O   UNL A   1      35.770  31.433  28.097  1.00  0.00    -0.458 OA
BRANCH  20  21
ATOM     21  C   UNL A   1      36.211  31.137  29.338  1.00  0.00     0.338 C 
ATOM     22  O   UNL A   1      35.733  31.511  30.398  1.00  0.00    -0.246 OA
BRANCH  21  23
ATOM     23  C   UNL A   1      37.494  30.402  29.289  1.00  0.00     0.060 A 
ATOM     24  C   UNL A   1      37.942  30.015  28.020  1.00  0.00     0.016 A 
ATOM     25  C   UNL A   1      38.264  30.115  30.421  1.00  0.00     0.016 A 
ATOM     26  C   UNL A   1      39.163  29.370  27.875  1.00  0.00     0.010 A 
ATOM     27  C   UNL A   1      39.530  29.535  30.264  1.00  0.00     0.010 A 
ATOM     28  C   UNL A   1      40.001  29.194  28.986  1.00  0.00    -0.014 A 
BRANCH  28  29
ATOM     29  C   UNL A   1      41.421  28.830  28.746  1.00  0.00     0.031 A 
ATOM     30  C   UNL A   1      42.521  29.840  28.841  1.00  0.00     0.074 A 
ATOM     31  C   UNL A   1      41.694  27.543  28.450  1.00  0.00     0.049 A 
ATOM     32  N   UNL A   1      43.794  29.688  28.583  1.00  0.00    -0.248 NA
ATOM     33  C   UNL A   1      42.150  31.190  29.287  1.00  0.00     0.031 C 
ATOM     34  C   UNL A   1      40.692  26.475  28.353  1.00  0.00     0.029 A 
ATOM     35  N   UNL A   1      42.878  26.905  28.184  1.00  0.00    -0.354 N 
ATOM     36  C   UNL A   1      44.379  30.929  28.801  1.00  0.00     0.074 A 
ATOM     37  C   UNL A   1      43.317  31.822  29.223  1.00  0.00     0.031 C 
ATOM     38  C   UNL A   1      41.303  25.317  28.075  1.00  0.00     0.029 A 
ATOM     39  C   UNL A   1      42.723  25.573  27.879  1.00  0.00     0.049 A 
ATOM     40  H   UNL A   1      43.753  27.355  28.210  1.00  0.00     0.167 HD
ATOM     41  C   UNL A   1      45.678  31.281  28.647  1.00  0.00     0.037 A 
ATOM     42  C   UNL A   1      43.608  24.663  27.430  1.00  0.00     0.037 A 
ATOM     43  C   UNL A   1      46.716  30.367  28.233  1.00  0.00     0.049 A 
ATOM     44  C   UNL A   1      45.029  25.085  27.233  1.00  0.00     0.074 A 
ATOM     45  C   UNL A   1      48.068  30.614  28.073  1.00  0.00     0.029 A 
ATOM     46  N   UNL A   1      46.515  29.032  27.903  1.00  0.00    -0.354 N 
ATOM     47  N   UNL A   1      45.565  26.266  27.432  1.00  0.00    -0.248 NA
ATOM     48  C   UNL A   1      45.963  24.066  26.745  1.00  0.00     0.031 C 
ATOM     49  C   UNL A   1      48.676  29.444  27.602  1.00  0.00     0.029 A 
ATOM     50  C   UNL A   1      47.713  28.451  27.514  1.00  0.00     0.049 A 
ATOM     51  H   UNL A   1      45.648  28.567  27.939  1.00  0.00     0.167 HD
ATOM     52  C   UNL A   1      46.902  26.137  27.090  1.00  0.00     0.074 A 
ATOM     53  C   UNL A   1      47.097  24.753  26.693  1.00  0.00     0.031 C 
ATOM     54  C   UNL A   1      47.879  27.077  27.102  1.00  0.00     0.037 A 
BRANCH  41  55
ATOM     55  C   UNL A   1      46.040  32.724  28.869  1.00  0.00     0.058 A 
ATOM     56  C   UNL A   1      46.005  33.675  27.837  1.00  0.00     0.135 A 
ATOM     57  C   UNL A   1      46.409  33.167  30.151  1.00  0.00     0.135 A 
ATOM     58  F   UNL A   1      45.674  33.305  26.590  1.00  0.00    -0.206 F 
ATOM     59  C   UNL A   1      46.352  35.005  28.060  1.00  0.00     0.059 A 
ATOM     60  C   UNL A   1      46.738  34.496  30.402  1.00  0.00     0.059 A 
ATOM     61  F   UNL A   1      46.460  32.302  31.176  1.00  0.00    -0.206 F 
ATOM     62  C   UNL A   1      46.723  35.405  29.345  1.00  0.00     0.060 A 
BRANCH  62  63
ATOM     63  S   UNL A   1      47.189  37.128  29.618  1.00  0.00     0.124 S 
ATOM     64  O   UNL A   1      46.503  37.418  30.873  1.00  0.00    -0.237 OA
ATOM     65  O   UNL A   1      48.645  37.052  29.696  1.00  0.00    -0.237 OA
ATOM     66  O   UNL A   1      46.662  37.813  28.443  1.00  0.00    -0.744 OA
ENDBRANCH  62  63
ENDBRANCH  41  55
BRANCH  42  67
ATOM     67  C   UNL A   1      43.123  23.302  27.084  1.00  0.00     0.058 A 
ATOM     68  C   UNL A   1      42.912  22.916  25.755  1.00  0.00     0.135 A 
ATOM     69  C   UNL A   1      42.979  22.324  28.084  1.00  0.00     0.135 A 
ATOM     70  F   UNL A   1      43.032  23.815  24.767  1.00  0.00    -0.206 F 
ATOM     71  C   UNL A   1      42.597  21.601  25.424  1.00  0.00     0.059 A 
ATOM     72  C   UNL A   1      42.691  21.000  27.776  1.00  0.00     0.059 A 
ATOM     73  F   UNL A   1      43.190  22.642  29.371  1.00  0.00    -0.206 F 
ATOM     74  C   UNL A   1      42.505  20.646  26.441  1.00  0.00     0.060 A 
BRANCH  74  75
ATOM     75  S   UNL A   1      42.222  18.919  25.994  1.00  0.00     0.124 S 
ATOM     76  O   UNL A   1      43.125  18.758  24.861  1.00  0.00    -0.237 OA
ATOM     77  O   UNL A   1      42.601  18.219  27.218  1.00  0.00    -0.237 OA
ATOM     78  O   UNL A   1      40.798  18.885  25.680  1.00  0.00    -0.744 OA
ENDBRANCH  74  75
ENDBRANCH  42  67
BRANCH  54  79
ATOM     79  C   UNL A   1      49.248  26.629  26.682  1.00  0.00     0.058 A 
ATOM     80  C   UNL A   1      49.695  26.776  25.361  1.00  0.00     0.135 A 
ATOM     81  C   UNL A   1      50.129  26.063  27.617  1.00  0.00     0.135 A 
ATOM     82  F   UNL A   1      48.883  27.299  24.427  1.00  0.00    -0.206 F 
ATOM     83  C   UNL A   1      50.961  26.354  24.973  1.00  0.00     0.059 A 
ATOM     84  C   UNL A   1      51.409  25.656  27.257  1.00  0.00     0.059 A 
ATOM     85  F   UNL A   1      49.749  25.907  28.895  1.00  0.00    -0.206 F 
ATOM     86  C   UNL A   1      51.810  25.792  25.929  1.00  0.00     0.060 A 
BRANCH  86  87
ATOM     87  S   UNL A   1      53.459  25.264  25.420  1.00  0.00     0.124 S 
ATOM     88  O   UNL A   1      53.591  25.925  24.126  1.00  0.00    -0.237 OA
ATOM     89  O   UNL A   1      54.302  25.789  26.489  1.00  0.00    -0.237 OA
ATOM     90  O   UNL A   1      53.349  23.809  25.374  1.00  0.00    -0.744 OA
ENDBRANCH  86  87
ENDBRANCH  54  79
ENDBRANCH  28  29
ENDBRANCH  21  23
ENDBRANCH  20  21
ENDBRANCH  19  20
ENDBRANCH   1  19
TORSDOF 18
ENDMDL
MODEL 3
REMARK VINA RESULT:     -10.7      6.577     12.185
REMARK SMILES C[C@@H](C(=O)[C@H](C)[C@@H](C)C(=O)OCCOC(=O)c1ccc(-c2c3nc(c(-c4c(F)cc(S(=O)(=O)[O-])cc4F)c4ccc([nH]4)c(-c4c(F)cc(S(=O)(=O)[O-])cc4F)c4nc(c(-c5c(F)cc(S(=O)(=O)[O-])cc5F)c5ccc2[nH]5)C=C4)C=C3)cc1)c1ccccc1
REMARK SMILES IDX 12 1 11 2 9 3 10 4 7 5 8 6 5 7 6 8 3 9 4 10 2 11 1 12 83 13
REMARK SMILES IDX 84 14 88 15 85 16 87 17 86 18 13 19 14 20 15 21 16 22 17 23
REMARK SMILES IDX 18 24 82 25 19 26 81 27 20 28 21 29 22 30 75 31 23 32 80 33
REMARK SMILES IDX 74 34 76 35 24 36 79 37 73 38 72 39 25 41 59 42 38 43 58 44
REMARK SMILES IDX 39 45 42 46 57 47 77 48 40 49 41 50 56 52 78 53 43 54 26 55
REMARK SMILES IDX 27 56 36 57 28 58 29 59 35 60 37 61 30 62 31 63 32 64 33 65
REMARK SMILES IDX 34 66 60 67 61 68 70 69 62 70 63 71 69 72 71 73 64 74 65 75
REMARK SMILES IDX 66 76 67 77 68 78 44 79 45 80 54 81 46 82 47 83 53 84 55 85
REMARK SMILES IDX 48 86 49 87 50 88 51 89 52 90
REMARK H PARENT 76 40 42 51
REMARK Flexibility Score: inf
ROOT
ATOM      1  C   UNL A   1      34.013  30.153  27.103  1.00  0.00     0.274 C 
ENDROOT
BRANCH   1   2
ATOM      2  O   UNL A   1      32.644  29.967  27.497  1.00  0.00    -0.462 OA
BRANCH   2   3
ATOM      3  C   UNL A   1      31.927  29.146  26.685  1.00  0.00     0.309 C 
ATOM      4  O   UNL A   1      31.448  28.075  27.029  1.00  0.00    -0.252 OA
BRANCH   3   5
ATOM      5  C   UNL A   1      31.714  29.810  25.324  1.00  0.00     0.106 C 
ATOM      6  C   UNL A   1      30.971  31.136  25.573  1.00  0.00     0.021 C 
BRANCH   5   7
ATOM      7  C   UNL A   1      30.963  28.886  24.332  1.00  0.00     0.067 C 
ATOM      8  C   UNL A   1      29.863  29.591  23.530  1.00  0.00     0.017 C 
BRANCH   7   9
ATOM      9  C   UNL A   1      31.812  28.068  23.328  1.00  0.00     0.143 C 
ATOM     10  O   UNL A   1      31.237  27.629  22.323  1.00  0.00    -0.299 OA
BRANCH   9  11
ATOM     11  C   UNL A   1      33.313  27.820  23.567  1.00  0.00     0.083 C 
ATOM     12  C   UNL A   1      34.218  28.435  22.497  1.00  0.00     0.021 C 
BRANCH  11  13
ATOM     13  C   UNL A   1      33.672  26.344  23.798  1.00  0.00    -0.038 A 
ATOM     14  C   UNL A   1      33.662  25.392  22.763  1.00  0.00     0.004 A 
ATOM     15  C   UNL A   1      34.082  25.916  25.073  1.00  0.00     0.004 A 
ATOM     16  C   UNL A   1      34.104  24.084  22.979  1.00  0.00     0.000 A 
ATOM     17  C   UNL A   1      34.517  24.605  25.291  1.00  0.00     0.000 A 
ATOM     18  C   UNL A   1      34.542  23.692  24.240  1.00  0.00     0.000 A 
ENDBRANCH  11  13
ENDBRANCH   9  11
ENDBRANCH   7   9
ENDBRANCH   5   7
ENDBRANCH   3   5
ENDBRANCH   2   3
ENDBRANCH   1   2
BRANCH   1  19
ATOM     19  C   UNL A   1      34.509  31.467  27.712  1.00  0.00     0.275 C 
BRANCH  19  20
ATOM     20  O   UNL A   1      35.894  31.527  28.148  1.00  0.00    -0.458 OA
BRANCH  20  21
ATOM     21  C   UNL A   1      36.256  31.027  29.349  1.00  0.00     0.338 C 
ATOM     22  O   UNL A   1      35.712  31.226  30.423  1.00  0.00    -0.246 OA
BRANCH  21  23
ATOM     23  C   UNL A   1      37.540  30.298  29.260  1.00  0.00     0.060 A 
ATOM     24  C   UNL A   1      37.966  29.942  27.974  1.00  0.00     0.016 A 
ATOM     25  C   UNL A   1      38.332  29.988  30.370  1.00  0.00     0.016 A 
ATOM     26  C   UNL A   1      39.187  29.304  27.792  1.00  0.00     0.010 A 
ATOM     27  C   UNL A   1      39.597  29.417  30.177  1.00  0.00     0.010 A 
ATOM     28  C   UNL A   1      40.045  29.106  28.883  1.00  0.00    -0.014 A 
BRANCH  28  29
ATOM     29  C   UNL A   1      41.461  28.754  28.609  1.00  0.00     0.031 A 
ATOM     30  C   UNL A   1      42.552  29.778  28.648  1.00  0.00     0.074 A 
ATOM     31  C   UNL A   1      41.742  27.463  28.334  1.00  0.00     0.049 A 
ATOM     32  N   UNL A   1      43.818  29.635  28.356  1.00  0.00    -0.248 NA
ATOM     33  C   UNL A   1      42.178  31.133  29.074  1.00  0.00     0.031 C 
ATOM     34  C   UNL A   1      40.750  26.382  28.291  1.00  0.00     0.029 A 
ATOM     35  N   UNL A   1      42.925  26.833  28.047  1.00  0.00    -0.354 N 
ATOM     36  C   UNL A   1      44.394  30.887  28.528  1.00  0.00     0.074 A 
ATOM     37  C   UNL A   1      43.335  31.777  28.961  1.00  0.00     0.031 C 
ATOM     38  C   UNL A   1      41.366  25.225  28.021  1.00  0.00     0.029 A 
ATOM     39  C   UNL A   1      42.777  25.492  27.777  1.00  0.00     0.049 A 
ATOM     40  H   UNL A   1      43.795  27.294  28.036  1.00  0.00     0.167 HD
ATOM     41  C   UNL A   1      45.684  31.250  28.327  1.00  0.00     0.037 A 
ATOM     42  C   UNL A   1      43.659  24.583  27.322  1.00  0.00     0.037 A 
ATOM     43  C   UNL A   1      46.720  30.339  27.903  1.00  0.00     0.049 A 
ATOM     44  C   UNL A   1      45.068  25.016  27.073  1.00  0.00     0.074 A 
ATOM     45  C   UNL A   1      48.064  30.598  27.696  1.00  0.00     0.029 A 
ATOM     46  N   UNL A   1      46.526  28.995  27.609  1.00  0.00    -0.354 N 
ATOM     47  N   UNL A   1      45.596  26.207  27.229  1.00  0.00    -0.248 NA
ATOM     48  C   UNL A   1      46.000  23.997  26.580  1.00  0.00     0.031 C 
ATOM     49  C   UNL A   1      48.672  29.424  27.234  1.00  0.00     0.029 A 
ATOM     50  C   UNL A   1      47.719  28.419  27.198  1.00  0.00     0.049 A 
ATOM     51  H   UNL A   1      45.666  28.520  27.682  1.00  0.00     0.167 HD
ATOM     52  C   UNL A   1      46.924  26.086  26.850  1.00  0.00     0.074 A 
ATOM     53  C   UNL A   1      47.123  24.696  26.479  1.00  0.00     0.031 C 
ATOM     54  C   UNL A   1      47.889  27.037  26.812  1.00  0.00     0.037 A 
BRANCH  41  55
ATOM     55  C   UNL A   1      46.036  32.702  28.506  1.00  0.00     0.058 A 
ATOM     56  C   UNL A   1      45.897  33.641  27.471  1.00  0.00     0.135 A 
ATOM     57  C   UNL A   1      46.500  33.165  29.749  1.00  0.00     0.135 A 
ATOM     58  F   UNL A   1      45.471  33.252  26.259  1.00  0.00    -0.206 F 
ATOM     59  C   UNL A   1      46.235  34.979  27.653  1.00  0.00     0.059 A 
ATOM     60  C   UNL A   1      46.823  34.502  29.960  1.00  0.00     0.059 A 
ATOM     61  F   UNL A   1      46.652  32.312  30.774  1.00  0.00    -0.206 F 
ATOM     62  C   UNL A   1      46.703  35.400  28.900  1.00  0.00     0.060 A 
BRANCH  62  63
ATOM     63  S   UNL A   1      47.156  37.134  29.118  1.00  0.00     0.124 S 
ATOM     64  O   UNL A   1      46.542  37.434  30.408  1.00  0.00    -0.237 OA
ATOM     65  O   UNL A   1      48.615  37.081  29.108  1.00  0.00    -0.237 OA
ATOM     66  O   UNL A   1      46.548  37.792  27.967  1.00  0.00    -0.744 OA
ENDBRANCH  62  63
ENDBRANCH  41  55
BRANCH  42  67
ATOM     67  C   UNL A   1      43.181  23.209  27.021  1.00  0.00     0.058 A 
ATOM     68  C   UNL A   1      43.052  22.750  25.705  1.00  0.00     0.135 A 
ATOM     69  C   UNL A   1      42.958  22.290  28.063  1.00  0.00     0.135 A 
ATOM     70  F   UNL A   1      43.248  23.591  24.678  1.00  0.00    -0.206 F 
ATOM     71  C   UNL A   1      42.743  21.421  25.428  1.00  0.00     0.059 A 
ATOM     72  C   UNL A   1      42.675  20.953  27.811  1.00  0.00     0.059 A 
ATOM     73  F   UNL A   1      43.089  22.679  29.341  1.00  0.00    -0.206 F 
ATOM     74  C   UNL A   1      42.572  20.527  26.489  1.00  0.00     0.060 A 
BRANCH  74  75
ATOM     75  S   UNL A   1      42.298  18.779  26.122  1.00  0.00     0.124 S 
ATOM     76  O   UNL A   1      42.599  18.160  27.407  1.00  0.00    -0.237 OA
ATOM     77  O   UNL A   1      40.895  18.766  25.719  1.00  0.00    -0.237 OA
ATOM     78  O   UNL A   1      43.250  18.510  25.050  1.00  0.00    -0.744 OA
ENDBRANCH  74  75
ENDBRANCH  42  67
BRANCH  54  79
ATOM     79  C   UNL A   1      49.250  26.595  26.361  1.00  0.00     0.058 A 
ATOM     80  C   UNL A   1      49.719  26.868  25.067  1.00  0.00     0.135 A 
ATOM     81  C   UNL A   1      50.102  25.908  27.240  1.00  0.00     0.135 A 
ATOM     82  F   UNL A   1      48.935  27.510  24.186  1.00  0.00    -0.206 F 
ATOM     83  C   UNL A   1      50.978  26.451  24.651  1.00  0.00     0.059 A 
ATOM     84  C   UNL A   1      51.374  25.504  26.853  1.00  0.00     0.059 A 
ATOM     85  F   UNL A   1      49.701  25.630  28.491  1.00  0.00    -0.206 F 
ATOM     86  C   UNL A   1      51.797  25.767  25.551  1.00  0.00     0.060 A 
BRANCH  86  87
ATOM     87  S   UNL A   1      53.437  25.246  25.006  1.00  0.00     0.124 S 
ATOM     88  O   UNL A   1      53.428  23.831  25.365  1.00  0.00    -0.237 OA
ATOM     89  O   UNL A   1      53.402  25.538  23.577  1.00  0.00    -0.237 OA
ATOM     90  O   UNL A   1      54.337  26.086  25.790  1.00  0.00    -0.744 OA
ENDBRANCH  86  87
ENDBRANCH  54  79
ENDBRANCH  28  29
ENDBRANCH  21  23
ENDBRANCH  20  21
ENDBRANCH  19  20
ENDBRANCH   1  19
TORSDOF 18
ENDMDL
