MODEL 1
REMARK VINA RESULT:     -12.5      0.000      0.000
REMARK SMILES C[C@@H]1CCCN(C(=O)CSc2nnc3c4ccccc4n(CC(=O)OCCOC(=O)c4ccc(-c5c6nc(c(-c7c(F)cc(S(=O)(=O)[O-])cc7F)c7ccc([nH]7)c(-c7c(F)cc(S(=O)(=O)[O-])cc7F)c7nc(c(-c8c(F)cc(S(=O)(=O)[O-])cc8F)c8ccc5[nH]8)C=C7)C=C6)cc4)c3n2)C1
REMARK SMILES IDX 26 1 25 2 23 3 24 4 22 5 21 6 11 7 12 8 98 9 13 10 97 11
REMARK SMILES IDX 14 12 15 13 20 14 16 15 19 16 17 17 18 18 10 19 9 20 7 21
REMARK SMILES IDX 8 22 6 23 1 24 2 25 3 26 99 27 4 28 5 29 27 30 28 31 29 32
REMARK SMILES IDX 30 33 31 34 32 35 96 36 33 37 95 38 34 39 35 40 36 41 89 42
REMARK SMILES IDX 37 43 94 44 88 45 90 46 38 47 93 48 87 49 86 50 39 52 73 53
REMARK SMILES IDX 52 54 72 55 53 56 56 57 71 58 91 59 54 60 55 61 70 63 92 64
REMARK SMILES IDX 57 65 40 66 41 67 50 68 42 69 43 70 49 71 51 72 44 73 45 74
REMARK SMILES IDX 46 75 47 76 48 77 74 78 75 79 84 80 76 81 77 82 83 83 85 84
REMARK SMILES IDX 78 85 79 86 80 87 81 88 82 89 58 90 59 91 68 92 60 93 61 94
REMARK SMILES IDX 67 95 69 96 62 97 63 98 64 99 65 100 66 101
REMARK H PARENT 90 51 56 62
REMARK Flexibility Score: inf
ROOT
ATOM      1  C   UNL A   1      36.609  22.539  25.060  1.00  0.00     0.274 C 
ENDROOT
BRANCH   1   2
ATOM      2  O   UNL A   1      35.701  22.253  26.152  1.00  0.00    -0.461 OA
BRANCH   2   3
ATOM      3  C   UNL A   1      34.820  23.236  26.466  1.00  0.00     0.326 C 
ATOM      4  O   UNL A   1      33.950  23.124  27.325  1.00  0.00    -0.250 OA
BRANCH   3   5
ATOM      5  C   UNL A   1      34.997  24.522  25.708  1.00  0.00     0.246 C 
BRANCH   5   6
ATOM      6  N   UNL A   1      33.814  25.217  25.213  1.00  0.00    -0.313 N 
ATOM      7  C   UNL A   1      31.839  22.918  23.390  1.00  0.00     0.211 A 
ATOM      8  N   UNL A   1      30.733  23.683  23.195  1.00  0.00    -0.122 NA
ATOM      9  N   UNL A   1      32.963  23.294  24.023  1.00  0.00    -0.201 NA
ATOM     10  N   UNL A   1      30.666  24.929  23.680  1.00  0.00    -0.144 NA
ATOM     11  C   UNL A   1      32.858  24.547  24.493  1.00  0.00     0.165 A 
ATOM     12  C   UNL A   1      31.758  25.369  24.353  1.00  0.00     0.138 A 
ATOM     13  C   UNL A   1      32.037  26.584  25.026  1.00  0.00     0.030 A 
ATOM     14  C   UNL A   1      33.320  26.460  25.587  1.00  0.00     0.053 A 
ATOM     15  C   UNL A   1      31.308  27.777  25.229  1.00  0.00     0.013 A 
ATOM     16  C   UNL A   1      33.858  27.501  26.360  1.00  0.00     0.027 A 
ATOM     17  C   UNL A   1      31.839  28.796  26.025  1.00  0.00     0.001 A 
ATOM     18  C   UNL A   1      33.093  28.648  26.597  1.00  0.00     0.002 A 
BRANCH   7  19
ATOM     19  S   UNL A   1      31.929  21.334  22.599  1.00  0.00    -0.074 SA
BRANCH  19  20
ATOM     20  C   UNL A   1      33.276  20.583  23.545  1.00  0.00     0.178 C 
BRANCH  20  21
ATOM     21  C   UNL A   1      32.820  19.674  24.671  1.00  0.00     0.233 C 
ATOM     22  O   UNL A   1      31.761  19.934  25.250  1.00  0.00    -0.274 OA
BRANCH  21  23
ATOM     23  N   UNL A   1      33.563  18.546  24.975  1.00  0.00    -0.342 N 
ATOM     24  C   UNL A   1      31.917  15.295  25.988  1.00  0.00     0.009 C 
ATOM     25  C   UNL A   1      32.626  16.311  25.101  1.00  0.00     0.005 C 
ATOM     26  C   UNL A   1      33.898  15.754  24.439  1.00  0.00     0.007 C 
ATOM     27  C   UNL A   1      32.997  17.565  25.900  1.00  0.00     0.122 C 
ATOM     28  C   UNL A   1      34.574  16.806  23.558  1.00  0.00     0.022 C 
ATOM     29  C   UNL A   1      34.799  18.108  24.324  1.00  0.00     0.119 C 
ENDBRANCH  21  23
ENDBRANCH  20  21
ENDBRANCH  19  20
ENDBRANCH   7  19
ENDBRANCH   5   6
ENDBRANCH   3   5
ENDBRANCH   2   3
ENDBRANCH   1   2
BRANCH   1  30
ATOM     30  C   UNL A   1      38.001  21.966  25.341  1.00  0.00     0.275 C 
BRANCH  30  31
ATOM     31  O   UNL A   1      38.515  22.558  26.544  1.00  0.00    -0.458 OA
BRANCH  31  32
ATOM     32  C   UNL A   1      39.862  22.591  26.679  1.00  0.00     0.338 C 
ATOM     33  O   UNL A   1      40.671  21.796  26.231  1.00  0.00    -0.246 OA
BRANCH  32  34
ATOM     34  C   UNL A   1      40.186  23.963  27.111  1.00  0.00     0.060 A 
ATOM     35  C   UNL A   1      41.257  24.236  27.961  1.00  0.00     0.016 A 
ATOM     36  C   UNL A   1      39.237  24.948  26.831  1.00  0.00     0.016 A 
ATOM     37  C   UNL A   1      41.290  25.461  28.622  1.00  0.00     0.010 A 
ATOM     38  C   UNL A   1      39.225  26.128  27.550  1.00  0.00     0.010 A 
ATOM     39  C   UNL A   1      40.229  26.369  28.475  1.00  0.00    -0.014 A 
BRANCH  39  40
ATOM     40  C   UNL A   1      40.345  27.707  29.030  1.00  0.00     0.031 A 
ATOM     41  C   UNL A   1      41.558  28.400  28.532  1.00  0.00     0.074 A 
ATOM     42  C   UNL A   1      39.466  28.406  29.771  1.00  0.00     0.049 A 
ATOM     43  N   UNL A   1      42.693  28.505  29.134  1.00  0.00    -0.248 NA
ATOM     44  C   UNL A   1      41.560  28.881  27.143  1.00  0.00     0.031 C 
ATOM     45  C   UNL A   1      38.058  28.157  30.071  1.00  0.00     0.029 A 
ATOM     46  N   UNL A   1      39.719  29.579  30.420  1.00  0.00    -0.354 N 
ATOM     47  C   UNL A   1      43.503  29.241  28.282  1.00  0.00     0.074 A 
ATOM     48  C   UNL A   1      42.825  29.283  27.013  1.00  0.00     0.031 C 
ATOM     49  C   UNL A   1      37.543  29.232  30.728  1.00  0.00     0.029 A 
ATOM     50  C   UNL A   1      38.626  30.154  31.046  1.00  0.00     0.049 A 
ATOM     51  H   UNL A   1      40.615  29.987  30.443  1.00  0.00     0.167 HD
ATOM     52  C   UNL A   1      44.575  29.935  28.750  1.00  0.00     0.037 A 
ATOM     53  C   UNL A   1      38.637  31.298  31.780  1.00  0.00     0.037 A 
ATOM     54  C   UNL A   1      44.934  29.510  30.083  1.00  0.00     0.049 A 
ATOM     55  C   UNL A   1      40.032  31.588  32.177  1.00  0.00     0.074 A 
ATOM     56  C   UNL A   1      45.295  28.299  30.648  1.00  0.00     0.029 A 
ATOM     57  N   UNL A   1      44.564  30.308  31.139  1.00  0.00    -0.354 N 
ATOM     58  N   UNL A   1      40.697  30.897  33.057  1.00  0.00    -0.248 NA
ATOM     59  C   UNL A   1      40.837  32.422  31.296  1.00  0.00     0.031 C 
ATOM     60  C   UNL A   1      44.659  28.278  31.926  1.00  0.00     0.029 A 
ATOM     61  C   UNL A   1      43.986  29.490  32.078  1.00  0.00     0.049 A 
ATOM     62  H   UNL A   1      44.689  31.283  31.208  1.00  0.00     0.167 HD
ATOM     63  C   UNL A   1      42.000  30.885  32.586  1.00  0.00     0.074 A 
ATOM     64  C   UNL A   1      42.044  31.917  31.556  1.00  0.00     0.031 C 
ATOM     65  C   UNL A   1      42.849  29.862  32.888  1.00  0.00     0.037 A 
BRANCH  52  66
ATOM     66  C   UNL A   1      45.086  31.210  28.133  1.00  0.00     0.058 A 
ATOM     67  C   UNL A   1      44.241  32.336  28.082  1.00  0.00     0.135 A 
ATOM     68  C   UNL A   1      46.267  31.297  27.363  1.00  0.00     0.135 A 
ATOM     69  F   UNL A   1      43.086  32.358  28.767  1.00  0.00    -0.206 F 
ATOM     70  C   UNL A   1      44.515  33.436  27.270  1.00  0.00     0.059 A 
ATOM     71  C   UNL A   1      46.590  32.409  26.595  1.00  0.00     0.059 A 
ATOM     72  F   UNL A   1      47.117  30.271  27.233  1.00  0.00    -0.206 F 
ATOM     73  C   UNL A   1      45.686  33.453  26.517  1.00  0.00     0.060 A 
BRANCH  73  74
ATOM     74  S   UNL A   1      45.977  34.808  25.369  1.00  0.00     0.124 S 
ATOM     75  O   UNL A   1      45.136  34.417  24.243  1.00  0.00    -0.237 OA
ATOM     76  O   UNL A   1      45.523  35.962  26.139  1.00  0.00    -0.237 OA
ATOM     77  O   UNL A   1      47.417  34.745  25.135  1.00  0.00    -0.744 OA
ENDBRANCH  73  74
ENDBRANCH  52  66
BRANCH  53  78
ATOM     78  C   UNL A   1      37.642  32.385  31.768  1.00  0.00     0.058 A 
ATOM     79  C   UNL A   1      37.259  33.086  30.616  1.00  0.00     0.135 A 
ATOM     80  C   UNL A   1      36.823  32.528  32.898  1.00  0.00     0.135 A 
ATOM     81  F   UNL A   1      37.930  32.910  29.469  1.00  0.00    -0.206 F 
ATOM     82  C   UNL A   1      36.158  33.954  30.611  1.00  0.00     0.059 A 
ATOM     83  C   UNL A   1      35.706  33.357  32.905  1.00  0.00     0.059 A 
ATOM     84  F   UNL A   1      37.083  31.822  34.007  1.00  0.00    -0.206 F 
ATOM     85  C   UNL A   1      35.393  34.090  31.769  1.00  0.00     0.060 A 
BRANCH  85  86
ATOM     86  S   UNL A   1      34.027  35.270  31.870  1.00  0.00     0.124 S 
ATOM     87  O   UNL A   1      32.999  34.525  32.588  1.00  0.00    -0.237 OA
ATOM     88  O   UNL A   1      34.639  36.376  32.598  1.00  0.00    -0.237 OA
ATOM     89  O   UNL A   1      33.730  35.525  30.462  1.00  0.00    -0.744 OA
ENDBRANCH  85  86
ENDBRANCH  53  78
BRANCH  65  90
ATOM     90  C   UNL A   1      42.439  28.910  33.979  1.00  0.00     0.058 A 
ATOM     91  C   UNL A   1      41.576  27.815  33.792  1.00  0.00     0.135 A 
ATOM     92  C   UNL A   1      43.062  29.030  35.229  1.00  0.00     0.135 A 
ATOM     93  F   UNL A   1      41.005  27.585  32.600  1.00  0.00    -0.206 F 
ATOM     94  C   UNL A   1      41.332  26.890  34.809  1.00  0.00     0.059 A 
ATOM     95  C   UNL A   1      42.855  28.105  36.249  1.00  0.00     0.059 A 
ATOM     96  F   UNL A   1      43.930  30.032  35.453  1.00  0.00    -0.206 F 
ATOM     97  C   UNL A   1      41.987  27.038  36.032  1.00  0.00     0.060 A 
BRANCH  97  98
ATOM     98  S   UNL A   1      41.773  25.770  37.302  1.00  0.00     0.124 S 
ATOM     99  O   UNL A   1      42.039  24.542  36.563  1.00  0.00    -0.237 OA
ATOM    100  O   UNL A   1      42.778  26.146  38.293  1.00  0.00    -0.237 OA
ATOM    101  O   UNL A   1      40.389  25.950  37.735  1.00  0.00    -0.744 OA
ENDBRANCH  97  98
ENDBRANCH  65  90
ENDBRANCH  39  40
ENDBRANCH  32  34
ENDBRANCH  31  32
ENDBRANCH  30  31
ENDBRANCH   1  30
TORSDOF 19
ENDMDL
MODEL 2
REMARK VINA RESULT:     -12.5      3.015      9.207
REMARK SMILES C[C@@H]1CCCN(C(=O)CSc2nnc3c4ccccc4n(CC(=O)OCCOC(=O)c4ccc(-c5c6nc(c(-c7c(F)cc(S(=O)(=O)[O-])cc7F)c7ccc([nH]7)c(-c7c(F)cc(S(=O)(=O)[O-])cc7F)c7nc(c(-c8c(F)cc(S(=O)(=O)[O-])cc8F)c8ccc5[nH]8)C=C7)C=C6)cc4)c3n2)C1
REMARK SMILES IDX 26 1 25 2 23 3 24 4 22 5 21 6 11 7 12 8 98 9 13 10 97 11
REMARK SMILES IDX 14 12 15 13 20 14 16 15 19 16 17 17 18 18 10 19 9 20 7 21
REMARK SMILES IDX 8 22 6 23 1 24 2 25 3 26 99 27 4 28 5 29 27 30 28 31 29 32
REMARK SMILES IDX 30 33 31 34 32 35 96 36 33 37 95 38 34 39 35 40 36 41 89 42
REMARK SMILES IDX 37 43 94 44 88 45 90 46 38 47 93 48 87 49 86 50 39 52 73 53
REMARK SMILES IDX 52 54 72 55 53 56 56 57 71 58 91 59 54 60 55 61 70 63 92 64
REMARK SMILES IDX 57 65 40 66 41 67 50 68 42 69 43 70 49 71 51 72 44 73 45 74
REMARK SMILES IDX 46 75 47 76 48 77 74 78 75 79 84 80 76 81 77 82 83 83 85 84
REMARK SMILES IDX 78 85 79 86 80 87 81 88 82 89 58 90 59 91 68 92 60 93 61 94
REMARK SMILES IDX 67 95 69 96 62 97 63 98 64 99 65 100 66 101
REMARK H PARENT 90 51 56 62
REMARK Flexibility Score: inf
ROOT
ATOM      1  C   UNL A   1      32.590  30.151  26.978  1.00  0.00     0.274 C 
ENDROOT
BRANCH   1   2
ATOM      2  O   UNL A   1      32.344  30.095  25.551  1.00  0.00    -0.461 OA
BRANCH   2   3
ATOM      3  C   UNL A   1      33.147  29.263  24.842  1.00  0.00     0.326 C 
ATOM      4  O   UNL A   1      34.177  28.763  25.288  1.00  0.00    -0.250 OA
BRANCH   3   5
ATOM      5  C   UNL A   1      32.673  28.943  23.451  1.00  0.00     0.246 C 
BRANCH   5   6
ATOM      6  N   UNL A   1      31.430  28.200  23.284  1.00  0.00    -0.313 N 
ATOM      7  C   UNL A   1      32.099  24.761  23.774  1.00  0.00     0.211 A 
ATOM      8  N   UNL A   1      30.826  24.286  23.775  1.00  0.00    -0.122 NA
ATOM      9  N   UNL A   1      32.469  26.041  23.598  1.00  0.00    -0.201 NA
ATOM     10  N   UNL A   1      29.784  25.115  23.625  1.00  0.00    -0.144 NA
ATOM     11  C   UNL A   1      31.399  26.839  23.450  1.00  0.00     0.165 A 
ATOM     12  C   UNL A   1      30.082  26.428  23.465  1.00  0.00     0.138 A 
ATOM     13  C   UNL A   1      29.268  27.579  23.322  1.00  0.00     0.030 A 
ATOM     14  C   UNL A   1      30.130  28.686  23.240  1.00  0.00     0.053 A 
ATOM     15  C   UNL A   1      27.871  27.787  23.272  1.00  0.00     0.013 A 
ATOM     16  C   UNL A   1      29.605  29.984  23.137  1.00  0.00     0.027 A 
ATOM     17  C   UNL A   1      27.358  29.084  23.200  1.00  0.00     0.001 A 
ATOM     18  C   UNL A   1      28.219  30.170  23.151  1.00  0.00     0.002 A 
BRANCH   7  19
ATOM     19  S   UNL A   1      33.440  23.603  23.826  1.00  0.00    -0.074 SA
BRANCH  19  20
ATOM     20  C   UNL A   1      33.917  23.747  25.566  1.00  0.00     0.178 C 
BRANCH  20  21
ATOM     21  C   UNL A   1      34.944  22.729  26.021  1.00  0.00     0.233 C 
ATOM     22  O   UNL A   1      34.634  21.932  26.912  1.00  0.00    -0.274 OA
BRANCH  21  23
ATOM     23  N   UNL A   1      36.172  22.674  25.385  1.00  0.00    -0.342 N 
ATOM     24  C   UNL A   1      39.234  24.360  26.828  1.00  0.00     0.009 C 
ATOM     25  C   UNL A   1      38.272  23.237  26.463  1.00  0.00     0.005 C 
ATOM     26  C   UNL A   1      38.952  22.075  25.720  1.00  0.00     0.007 C 
ATOM     27  C   UNL A   1      37.121  23.766  25.602  1.00  0.00     0.122 C 
ATOM     28  C   UNL A   1      37.950  20.971  25.376  1.00  0.00     0.022 C 
ATOM     29  C   UNL A   1      36.731  21.537  24.650  1.00  0.00     0.119 C 
ENDBRANCH  21  23
ENDBRANCH  20  21
ENDBRANCH  19  20
ENDBRANCH   7  19
ENDBRANCH   5   6
ENDBRANCH   3   5
ENDBRANCH   2   3
ENDBRANCH   1   2
BRANCH   1  30
ATOM     30  C   UNL A   1      33.195  31.501  27.376  1.00  0.00     0.275 C 
BRANCH  30  31
ATOM     31  O   UNL A   1      34.615  31.349  27.530  1.00  0.00    -0.458 OA
BRANCH  31  32
ATOM     32  C   UNL A   1      35.221  32.169  28.421  1.00  0.00     0.338 C 
ATOM     33  O   UNL A   1      34.736  33.132  28.992  1.00  0.00    -0.246 OA
BRANCH  32  34
ATOM     34  C   UNL A   1      36.427  31.448  28.869  1.00  0.00     0.060 A 
ATOM     35  C   UNL A   1      37.577  32.119  29.282  1.00  0.00     0.016 A 
ATOM     36  C   UNL A   1      36.455  30.072  28.638  1.00  0.00     0.016 A 
ATOM     37  C   UNL A   1      38.779  31.417  29.333  1.00  0.00     0.010 A 
ATOM     38  C   UNL A   1      37.661  29.396  28.606  1.00  0.00     0.010 A 
ATOM     39  C   UNL A   1      38.828  30.077  28.916  1.00  0.00    -0.014 A 
BRANCH  39  40
ATOM     40  C   UNL A   1      40.039  29.302  29.127  1.00  0.00     0.031 A 
ATOM     41  C   UNL A   1      40.380  29.204  30.567  1.00  0.00     0.074 A 
ATOM     42  C   UNL A   1      40.758  28.580  28.248  1.00  0.00     0.049 A 
ATOM     43  N   UNL A   1      41.230  29.927  31.212  1.00  0.00    -0.248 NA
ATOM     44  C   UNL A   1      39.564  28.323  31.414  1.00  0.00     0.031 C 
ATOM     45  C   UNL A   1      40.455  28.159  26.882  1.00  0.00     0.029 A 
ATOM     46  N   UNL A   1      41.990  28.038  28.473  1.00  0.00    -0.354 N 
ATOM     47  C   UNL A   1      41.204  29.460  32.518  1.00  0.00     0.074 A 
ATOM     48  C   UNL A   1      40.044  28.614  32.623  1.00  0.00     0.031 C 
ATOM     49  C   UNL A   1      41.421  27.302  26.452  1.00  0.00     0.029 A 
ATOM     50  C   UNL A   1      42.489  27.260  27.443  1.00  0.00     0.049 A 
ATOM     51  H   UNL A   1      42.489  28.190  29.309  1.00  0.00     0.167 HD
ATOM     52  C   UNL A   1      42.260  29.644  33.356  1.00  0.00     0.037 A 
ATOM     53  C   UNL A   1      43.703  26.647  27.419  1.00  0.00     0.037 A 
ATOM     54  C   UNL A   1      43.165  30.647  32.847  1.00  0.00     0.049 A 
ATOM     55  C   UNL A   1      44.570  27.285  28.435  1.00  0.00     0.074 A 
ATOM     56  C   UNL A   1      43.035  31.979  32.493  1.00  0.00     0.029 A 
ATOM     57  N   UNL A   1      44.330  30.225  32.250  1.00  0.00    -0.354 N 
ATOM     58  N   UNL A   1      45.060  28.486  28.323  1.00  0.00    -0.248 NA
ATOM     59  C   UNL A   1      44.574  26.729  29.781  1.00  0.00     0.031 C 
ATOM     60  C   UNL A   1      43.840  32.137  31.326  1.00  0.00     0.029 A 
ATOM     61  C   UNL A   1      44.444  30.907  31.064  1.00  0.00     0.049 A 
ATOM     62  H   UNL A   1      44.962  29.559  32.606  1.00  0.00     0.167 HD
ATOM     63  C   UNL A   1      45.055  28.991  29.613  1.00  0.00     0.074 A 
ATOM     64  C   UNL A   1      44.838  27.836  30.476  1.00  0.00     0.031 C 
ATOM     65  C   UNL A   1      44.961  30.331  29.844  1.00  0.00     0.037 A 
BRANCH  52  66
ATOM     66  C   UNL A   1      42.632  28.691  34.461  1.00  0.00     0.058 A 
ATOM     67  C   UNL A   1      42.787  29.183  35.772  1.00  0.00     0.135 A 
ATOM     68  C   UNL A   1      43.093  27.372  34.245  1.00  0.00     0.135 A 
ATOM     69  F   UNL A   1      42.394  30.427  36.087  1.00  0.00    -0.206 F 
ATOM     70  C   UNL A   1      43.417  28.447  36.773  1.00  0.00     0.059 A 
ATOM     71  C   UNL A   1      43.669  26.598  35.244  1.00  0.00     0.059 A 
ATOM     72  F   UNL A   1      43.103  26.805  33.032  1.00  0.00    -0.206 F 
ATOM     73  C   UNL A   1      43.870  27.161  36.493  1.00  0.00     0.060 A 
BRANCH  73  74
ATOM     74  S   UNL A   1      44.802  26.260  37.742  1.00  0.00     0.124 S 
ATOM     75  O   UNL A   1      43.934  26.402  38.905  1.00  0.00    -0.237 OA
ATOM     76  O   UNL A   1      44.881  24.925  37.158  1.00  0.00    -0.237 OA
ATOM     77  O   UNL A   1      46.067  26.987  37.804  1.00  0.00    -0.744 OA
ENDBRANCH  73  74
ENDBRANCH  52  66
BRANCH  53  78
ATOM     78  C   UNL A   1      44.017  25.289  26.943  1.00  0.00     0.058 A 
ATOM     79  C   UNL A   1      43.426  24.124  27.450  1.00  0.00     0.135 A 
ATOM     80  C   UNL A   1      44.712  25.170  25.730  1.00  0.00     0.135 A 
ATOM     81  F   UNL A   1      42.654  24.182  28.544  1.00  0.00    -0.206 F 
ATOM     82  C   UNL A   1      43.588  22.880  26.823  1.00  0.00     0.059 A 
ATOM     83  C   UNL A   1      44.856  23.954  25.073  1.00  0.00     0.059 A 
ATOM     84  F   UNL A   1      45.230  26.261  25.147  1.00  0.00    -0.206 F 
ATOM     85  C   UNL A   1      44.317  22.806  25.636  1.00  0.00     0.060 A 
BRANCH  85  86
ATOM     86  S   UNL A   1      44.659  21.224  24.830  1.00  0.00     0.124 S 
ATOM     87  O   UNL A   1      44.641  21.565  23.412  1.00  0.00    -0.237 OA
ATOM     88  O   UNL A   1      45.961  20.878  25.387  1.00  0.00    -0.237 OA
ATOM     89  O   UNL A   1      43.539  20.398  25.277  1.00  0.00    -0.744 OA
ENDBRANCH  85  86
ENDBRANCH  53  78
BRANCH  65  90
ATOM     90  C   UNL A   1      45.167  31.260  28.677  1.00  0.00     0.058 A 
ATOM     91  C   UNL A   1      44.180  31.560  27.721  1.00  0.00     0.135 A 
ATOM     92  C   UNL A   1      46.366  31.983  28.612  1.00  0.00     0.135 A 
ATOM     93  F   UNL A   1      42.977  30.970  27.765  1.00  0.00    -0.206 F 
ATOM     94  C   UNL A   1      44.385  32.527  26.734  1.00  0.00     0.059 A 
ATOM     95  C   UNL A   1      46.581  32.969  27.653  1.00  0.00     0.059 A 
ATOM     96  F   UNL A   1      47.329  31.770  29.525  1.00  0.00    -0.206 F 
ATOM     97  C   UNL A   1      45.586  33.235  26.716  1.00  0.00     0.060 A 
BRANCH  97  98
ATOM     98  S   UNL A   1      45.799  34.574  25.522  1.00  0.00     0.124 S 
ATOM     99  O   UNL A   1      45.350  35.738  26.277  1.00  0.00    -0.237 OA
ATOM    100  O   UNL A   1      47.230  34.516  25.236  1.00  0.00    -0.237 OA
ATOM    101  O   UNL A   1      44.937  34.181  24.409  1.00  0.00    -0.744 OA
ENDBRANCH  97  98
ENDBRANCH  65  90
ENDBRANCH  39  40
ENDBRANCH  32  34
ENDBRANCH  31  32
ENDBRANCH  30  31
ENDBRANCH   1  30
TORSDOF 19
ENDMDL
MODEL 3
REMARK VINA RESULT:     -12.5      1.577      4.362
REMARK SMILES C[C@@H]1CCCN(C(=O)CSc2nnc3c4ccccc4n(CC(=O)OCCOC(=O)c4ccc(-c5c6nc(c(-c7c(F)cc(S(=O)(=O)[O-])cc7F)c7ccc([nH]7)c(-c7c(F)cc(S(=O)(=O)[O-])cc7F)c7nc(c(-c8c(F)cc(S(=O)(=O)[O-])cc8F)c8ccc5[nH]8)C=C7)C=C6)cc4)c3n2)C1
REMARK SMILES IDX 26 1 25 2 23 3 24 4 22 5 21 6 11 7 12 8 98 9 13 10 97 11
REMARK SMILES IDX 14 12 15 13 20 14 16 15 19 16 17 17 18 18 10 19 9 20 7 21
REMARK SMILES IDX 8 22 6 23 1 24 2 25 3 26 99 27 4 28 5 29 27 30 28 31 29 32
REMARK SMILES IDX 30 33 31 34 32 35 96 36 33 37 95 38 34 39 35 40 36 41 89 42
REMARK SMILES IDX 37 43 94 44 88 45 90 46 38 47 93 48 87 49 86 50 39 52 73 53
REMARK SMILES IDX 52 54 72 55 53 56 56 57 71 58 91 59 54 60 55 61 70 63 92 64
REMARK SMILES IDX 57 65 40 66 41 67 50 68 42 69 43 70 49 71 51 72 44 73 45 74
REMARK SMILES IDX 46 75 47 76 48 77 74 78 75 79 84 80 76 81 77 82 83 83 85 84
REMARK SMILES IDX 78 85 79 86 80 87 81 88 82 89 58 90 59 91 68 92 60 93 61 94
REMARK SMILES IDX 67 95 69 96 62 97 63 98 64 99 65 100 66 101
REMARK H PARENT 90 51 56 62
REMARK Flexibility Score: inf
ROOT
ATOM      1  C   UNL A   1      38.593  21.110  25.686  1.00  0.00     0.274 C 
ENDROOT
BRANCH   1   2
ATOM      2  O   UNL A   1      38.341  22.517  25.452  1.00  0.00    -0.461 OA
BRANCH   2   3
ATOM      3  C   UNL A   1      37.037  22.880  25.358  1.00  0.00     0.326 C 
ATOM      4  O   UNL A   1      36.440  23.514  26.224  1.00  0.00    -0.250 OA
BRANCH   3   5
ATOM      5  C   UNL A   1      36.351  22.487  24.078  1.00  0.00     0.246 C 
BRANCH   5   6
ATOM      6  N   UNL A   1      34.949  22.090  24.123  1.00  0.00    -0.313 N 
ATOM      7  C   UNL A   1      32.988  24.727  22.817  1.00  0.00     0.211 A 
ATOM      8  N   UNL A   1      31.783  24.101  22.763  1.00  0.00    -0.122 NA
ATOM      9  N   UNL A   1      34.137  24.199  23.270  1.00  0.00    -0.201 NA
ATOM     10  N   UNL A   1      31.655  22.824  23.147  1.00  0.00    -0.144 NA
ATOM     11  C   UNL A   1      33.969  22.921  23.647  1.00  0.00     0.165 A 
ATOM     12  C   UNL A   1      32.783  22.218  23.595  1.00  0.00     0.138 A 
ATOM     13  C   UNL A   1      33.043  20.898  24.039  1.00  0.00     0.030 A 
ATOM     14  C   UNL A   1      34.414  20.826  24.338  1.00  0.00     0.053 A 
ATOM     15  C   UNL A   1      32.240  19.746  24.198  1.00  0.00     0.013 A 
ATOM     16  C   UNL A   1      34.982  19.615  24.764  1.00  0.00     0.027 A 
ATOM     17  C   UNL A   1      32.820  18.537  24.593  1.00  0.00     0.001 A 
ATOM     18  C   UNL A   1      34.180  18.472  24.855  1.00  0.00     0.002 A 
BRANCH   7  19
ATOM     19  S   UNL A   1      33.066  26.457  22.436  1.00  0.00    -0.074 SA
BRANCH  19  20
ATOM     20  C   UNL A   1      31.354  26.747  21.926  1.00  0.00     0.178 C 
BRANCH  20  21
ATOM     21  C   UNL A   1      30.699  27.946  22.586  1.00  0.00     0.233 C 
ATOM     22  O   UNL A   1      30.217  28.827  21.867  1.00  0.00    -0.274 OA
BRANCH  21  23
ATOM     23  N   UNL A   1      30.600  27.991  23.965  1.00  0.00    -0.342 N 
ATOM     24  C   UNL A   1      30.302  24.843  26.040  1.00  0.00     0.009 C 
ATOM     25  C   UNL A   1      30.947  26.067  25.403  1.00  0.00     0.005 C 
ATOM     26  C   UNL A   1      31.666  26.971  26.419  1.00  0.00     0.007 C 
ATOM     27  C   UNL A   1      29.905  26.902  24.652  1.00  0.00     0.122 C 
ATOM     28  C   UNL A   1      32.300  28.184  25.735  1.00  0.00     0.022 C 
ATOM     29  C   UNL A   1      31.284  28.922  24.865  1.00  0.00     0.119 C 
ENDBRANCH  21  23
ENDBRANCH  20  21
ENDBRANCH  19  20
ENDBRANCH   7  19
ENDBRANCH   5   6
ENDBRANCH   3   5
ENDBRANCH   2   3
ENDBRANCH   1   2
BRANCH   1  30
ATOM     30  C   UNL A   1      39.956  20.901  26.352  1.00  0.00     0.275 C 
BRANCH  30  31
ATOM     31  O   UNL A   1      40.401  22.150  26.905  1.00  0.00    -0.458 OA
BRANCH  31  32
ATOM     32  C   UNL A   1      41.567  22.646  26.427  1.00  0.00     0.338 C 
ATOM     33  O   UNL A   1      42.246  22.197  25.518  1.00  0.00    -0.246 OA
BRANCH  32  34
ATOM     34  C   UNL A   1      41.647  24.030  26.930  1.00  0.00     0.060 A 
ATOM     35  C   UNL A   1      42.595  24.417  27.875  1.00  0.00     0.016 A 
ATOM     36  C   UNL A   1      40.587  24.877  26.602  1.00  0.00     0.016 A 
ATOM     37  C   UNL A   1      42.393  25.604  28.577  1.00  0.00     0.010 A 
ATOM     38  C   UNL A   1      40.342  26.009  27.356  1.00  0.00     0.010 A 
ATOM     39  C   UNL A   1      41.224  26.353  28.370  1.00  0.00    -0.014 A 
BRANCH  39  40
ATOM     40  C   UNL A   1      41.095  27.667  28.975  1.00  0.00     0.031 A 
ATOM     41  C   UNL A   1      42.099  28.617  28.437  1.00  0.00     0.074 A 
ATOM     42  C   UNL A   1      40.141  28.141  29.798  1.00  0.00     0.049 A 
ATOM     43  N   UNL A   1      43.225  28.940  28.974  1.00  0.00    -0.248 NA
ATOM     44  C   UNL A   1      41.906  29.130  27.073  1.00  0.00     0.031 C 
ATOM     45  C   UNL A   1      38.840  27.591  30.172  1.00  0.00     0.029 A 
ATOM     46  N   UNL A   1      40.188  29.321  30.483  1.00  0.00    -0.354 N 
ATOM     47  C   UNL A   1      43.804  29.857  28.108  1.00  0.00     0.074 A 
ATOM     48  C   UNL A   1      43.047  29.794  26.886  1.00  0.00     0.031 C 
ATOM     49  C   UNL A   1      38.158  28.512  30.906  1.00  0.00     0.029 A 
ATOM     50  C   UNL A   1      39.044  29.632  31.198  1.00  0.00     0.049 A 
ATOM     51  H   UNL A   1      40.978  29.909  30.470  1.00  0.00     0.167 HD
ATOM     52  C   UNL A   1      44.736  30.747  28.542  1.00  0.00     0.037 A 
ATOM     53  C   UNL A   1      38.865  30.730  31.981  1.00  0.00     0.037 A 
ATOM     54  C   UNL A   1      45.266  30.367  29.830  1.00  0.00     0.049 A 
ATOM     55  C   UNL A   1      40.192  31.296  32.306  1.00  0.00     0.074 A 
ATOM     56  C   UNL A   1      45.910  29.243  30.318  1.00  0.00     0.029 A 
ATOM     57  N   UNL A   1      44.810  31.036  30.941  1.00  0.00    -0.354 N 
ATOM     58  N   UNL A   1      41.045  30.734  33.113  1.00  0.00    -0.248 NA
ATOM     59  C   UNL A   1      40.744  32.307  31.416  1.00  0.00     0.031 C 
ATOM     60  C   UNL A   1      45.381  29.049  31.629  1.00  0.00     0.029 A 
ATOM     61  C   UNL A   1      44.482  30.085  31.876  1.00  0.00     0.049 A 
ATOM     62  H   UNL A   1      44.733  32.012  31.046  1.00  0.00     0.167 HD
ATOM     63  C   UNL A   1      42.287  31.012  32.564  1.00  0.00     0.074 A 
ATOM     64  C   UNL A   1      42.044  32.062  31.580  1.00  0.00     0.031 C 
ATOM     65  C   UNL A   1      43.349  30.183  32.768  1.00  0.00     0.037 A 
BRANCH  52  66
ATOM     66  C   UNL A   1      44.926  32.120  27.952  1.00  0.00     0.058 A 
ATOM     67  C   UNL A   1      46.155  32.445  27.345  1.00  0.00     0.135 A 
ATOM     68  C   UNL A   1      44.052  33.207  28.184  1.00  0.00     0.135 A 
ATOM     69  F   UNL A   1      47.064  31.492  27.088  1.00  0.00    -0.206 F 
ATOM     70  C   UNL A   1      46.517  33.759  27.056  1.00  0.00     0.059 A 
ATOM     71  C   UNL A   1      44.369  34.517  27.848  1.00  0.00     0.059 A 
ATOM     72  F   UNL A   1      42.894  33.069  28.840  1.00  0.00    -0.206 F 
ATOM     73  C   UNL A   1      45.622  34.790  27.329  1.00  0.00     0.060 A 
BRANCH  73  74
ATOM     74  S   UNL A   1      46.139  36.496  27.082  1.00  0.00     0.124 S 
ATOM     75  O   UNL A   1      46.921  36.737  28.289  1.00  0.00    -0.237 OA
ATOM     76  O   UNL A   1      46.892  36.408  25.835  1.00  0.00    -0.237 OA
ATOM     77  O   UNL A   1      44.873  37.219  26.993  1.00  0.00    -0.744 OA
ENDBRANCH  73  74
ENDBRANCH  52  66
BRANCH  53  78
ATOM     78  C   UNL A   1      37.666  31.581  32.077  1.00  0.00     0.058 A 
ATOM     79  C   UNL A   1      37.037  31.917  33.283  1.00  0.00     0.135 A 
ATOM     80  C   UNL A   1      37.311  32.333  30.947  1.00  0.00     0.135 A 
ATOM     81  F   UNL A   1      37.406  31.318  34.424  1.00  0.00    -0.206 F 
ATOM     82  C   UNL A   1      36.040  32.901  33.348  1.00  0.00     0.059 A 
ATOM     83  C   UNL A   1      36.350  33.336  30.994  1.00  0.00     0.059 A 
ATOM     84  F   UNL A   1      37.935  32.120  29.779  1.00  0.00    -0.206 F 
ATOM     85  C   UNL A   1      35.696  33.599  32.190  1.00  0.00     0.060 A 
BRANCH  85  86
ATOM     86  S   UNL A   1      34.347  34.802  32.174  1.00  0.00     0.124 S 
ATOM     87  O   UNL A   1      34.914  35.944  32.883  1.00  0.00    -0.237 OA
ATOM     88  O   UNL A   1      34.125  34.985  30.744  1.00  0.00    -0.237 OA
ATOM     89  O   UNL A   1      33.290  34.095  32.893  1.00  0.00    -0.744 OA
ENDBRANCH  85  86
ENDBRANCH  53  78
BRANCH  65  90
ATOM     90  C   UNL A   1      43.223  29.133  33.839  1.00  0.00     0.058 A 
ATOM     91  C   UNL A   1      43.564  29.334  35.189  1.00  0.00     0.135 A 
ATOM     92  C   UNL A   1      42.597  27.924  33.508  1.00  0.00     0.135 A 
ATOM     93  F   UNL A   1      44.093  30.497  35.599  1.00  0.00    -0.206 F 
ATOM     94  C   UNL A   1      43.306  28.367  36.163  1.00  0.00     0.059 A 
ATOM     95  C   UNL A   1      42.306  26.957  34.467  1.00  0.00     0.059 A 
ATOM     96  F   UNL A   1      42.209  27.693  32.242  1.00  0.00    -0.206 F 
ATOM     97  C   UNL A   1      42.665  27.186  35.793  1.00  0.00     0.060 A 
BRANCH  97  98
ATOM     98  S   UNL A   1      42.215  25.992  37.073  1.00  0.00     0.124 S 
ATOM     99  O   UNL A   1      43.055  26.404  38.191  1.00  0.00    -0.237 OA
ATOM    100  O   UNL A   1      40.782  26.229  37.234  1.00  0.00    -0.237 OA
ATOM    101  O   UNL A   1      42.558  24.704  36.476  1.00  0.00    -0.744 OA
ENDBRANCH  97  98
ENDBRANCH  65  90
ENDBRANCH  39  40
ENDBRANCH  32  34
ENDBRANCH  31  32
ENDBRANCH  30  31
ENDBRANCH   1  30
TORSDOF 19
ENDMDL
