MODEL 1
REMARK VINA RESULT:     -11.9      0.000      0.000
REMARK SMILES COc1ccc2c(CC(=O)OCCOC(=O)c3ccc(-c4c5nc(c(-c6c(F)cc(S(=O)(=O)[O-])cc6F)c6ccc([nH]6)c(-c6c(F)cc(S(=O)(=O)[O-])cc6F)c6nc(c(-c7c(F)cc(S(=O)(=O)[O-])cc7F)c7ccc4[nH]7)C=C6)C=C5)cc3)c(C(=O)c3cc(C)ccn3)[nH]c2c1
REMARK SMILES IDX 12 1 11 2 9 3 10 4 8 5 7 6 3 7 4 8 95 9 5 10 94 11 6 12
REMARK SMILES IDX 93 13 83 14 2 16 1 17 84 18 85 19 86 20 87 21 92 22 88 23
REMARK SMILES IDX 91 24 89 25 90 26 13 27 14 28 15 29 16 30 17 31 18 32 82 33
REMARK SMILES IDX 19 34 81 35 20 36 21 37 22 38 75 39 23 40 80 41 74 42 76 43
REMARK SMILES IDX 24 44 79 45 73 46 72 47 25 49 59 50 38 51 58 52 39 53 42 54
REMARK SMILES IDX 57 55 77 56 40 57 41 58 56 60 78 61 43 62 26 63 27 64 36 65
REMARK SMILES IDX 28 66 29 67 35 68 37 69 30 70 31 71 32 72 33 73 34 74 60 75
REMARK SMILES IDX 61 76 70 77 62 78 63 79 69 80 71 81 64 82 65 83 66 84 67 85
REMARK SMILES IDX 68 86 44 87 45 88 54 89 46 90 47 91 53 92 55 93 48 94 49 95
REMARK SMILES IDX 50 96 51 97 52 98
REMARK H PARENT 93 15 76 48 42 59
REMARK Flexibility Score: inf
ROOT
ATOM      1  C   UNL A   1      31.725  27.982  27.514  1.00  0.00     0.274 C 
ENDROOT
BRANCH   1   2
ATOM      2  O   UNL A   1      30.851  27.706  26.401  1.00  0.00    -0.462 OA
BRANCH   2   3
ATOM      3  C   UNL A   1      30.764  26.399  26.034  1.00  0.00     0.310 C 
ATOM      4  O   UNL A   1      30.942  25.456  26.802  1.00  0.00    -0.252 OA
BRANCH   3   5
ATOM      5  C   UNL A   1      30.368  26.168  24.593  1.00  0.00     0.161 C 
BRANCH   5   6
ATOM      6  C   UNL A   1      30.613  27.295  23.633  1.00  0.00     0.000 A 
ATOM      7  C   UNL A   1      28.172  30.358  22.163  1.00  0.00     0.120 A 
ATOM      8  C   UNL A   1      27.497  29.342  22.837  1.00  0.00     0.047 A 
ATOM      9  C   UNL A   1      29.531  30.250  21.853  1.00  0.00     0.073 A 
ATOM     10  C   UNL A   1      28.196  28.229  23.312  1.00  0.00     0.014 A 
ATOM     11  C   UNL A   1      30.218  29.147  22.373  1.00  0.00     0.050 A 
ATOM     12  C   UNL A   1      29.591  28.158  23.123  1.00  0.00     0.004 A 
ATOM     13  N   UNL A   1      31.551  28.818  22.313  1.00  0.00    -0.351 N 
ATOM     14  C   UNL A   1      31.839  27.829  23.230  1.00  0.00     0.093 A 
ATOM     15  H   UNL A   1      32.206  29.228  21.702  1.00  0.00     0.167 HD
BRANCH   7  16
ATOM     16  O   UNL A   1      27.532  31.503  21.763  1.00  0.00    -0.497 OA
ATOM     17  C   UNL A   1      28.031  31.954  20.500  1.00  0.00     0.278 C 
ENDBRANCH   7  16
BRANCH  14  18
ATOM     18  C   UNL A   1      33.176  27.530  23.721  1.00  0.00     0.227 C 
ATOM     19  O   UNL A   1      33.986  28.402  24.027  1.00  0.00    -0.285 OA
BRANCH  18  20
ATOM     20  C   UNL A   1      33.650  26.126  23.734  1.00  0.00     0.113 A 
ATOM     21  C   UNL A   1      34.150  25.582  24.912  1.00  0.00     0.036 A 
ATOM     22  N   UNL A   1      33.526  25.441  22.574  1.00  0.00    -0.253 NA
ATOM     23  C   UNL A   1      34.534  24.239  24.906  1.00  0.00    -0.047 A 
ATOM     24  C   UNL A   1      33.824  24.127  22.618  1.00  0.00     0.112 A 
ATOM     25  C   UNL A   1      35.116  23.588  26.124  1.00  0.00     0.044 C 
ATOM     26  C   UNL A   1      34.332  23.493  23.742  1.00  0.00     0.023 A 
ENDBRANCH  18  20
ENDBRANCH  14  18
ENDBRANCH   5   6
ENDBRANCH   3   5
ENDBRANCH   2   3
ENDBRANCH   1   2
BRANCH   1  27
ATOM     27  C   UNL A   1      32.508  29.268  27.273  1.00  0.00     0.275 C 
BRANCH  27  28
ATOM     28  O   UNL A   1      33.899  29.043  27.556  1.00  0.00    -0.458 OA
BRANCH  28  29
ATOM     29  C   UNL A   1      34.548  30.092  28.113  1.00  0.00     0.338 C 
ATOM     30  O   UNL A   1      34.071  31.191  28.366  1.00  0.00    -0.246 OA
BRANCH  29  31
ATOM     31  C   UNL A   1      35.972  29.765  28.313  1.00  0.00     0.060 A 
ATOM     32  C   UNL A   1      36.456  29.329  29.548  1.00  0.00     0.016 A 
ATOM     33  C   UNL A   1      36.853  29.969  27.251  1.00  0.00     0.016 A 
ATOM     34  C   UNL A   1      37.827  29.165  29.739  1.00  0.00     0.010 A 
ATOM     35  C   UNL A   1      38.213  29.702  27.415  1.00  0.00     0.010 A 
ATOM     36  C   UNL A   1      38.719  29.310  28.665  1.00  0.00    -0.014 A 
BRANCH  36  37
ATOM     37  C   UNL A   1      40.165  28.994  28.821  1.00  0.00     0.031 A 
ATOM     38  C   UNL A   1      41.151  30.058  29.225  1.00  0.00     0.074 A 
ATOM     39  C   UNL A   1      40.602  27.749  28.540  1.00  0.00     0.049 A 
ATOM     40  N   UNL A   1      42.459  30.017  29.212  1.00  0.00    -0.248 NA
ATOM     41  C   UNL A   1      40.596  31.338  29.691  1.00  0.00     0.031 C 
ATOM     42  C   UNL A   1      39.751  26.622  28.148  1.00  0.00     0.029 A 
ATOM     43  N   UNL A   1      41.869  27.223  28.529  1.00  0.00    -0.354 N 
ATOM     44  C   UNL A   1      42.887  31.273  29.625  1.00  0.00     0.074 A 
ATOM     45  C   UNL A   1      41.696  32.058  29.880  1.00  0.00     0.031 C 
ATOM     46  C   UNL A   1      40.514  25.537  27.959  1.00  0.00     0.029 A 
ATOM     47  C   UNL A   1      41.913  25.907  28.134  1.00  0.00     0.049 A 
ATOM     48  H   UNL A   1      42.670  27.739  28.779  1.00  0.00     0.167 HD
ATOM     49  C   UNL A   1      44.155  31.727  29.778  1.00  0.00     0.037 A 
ATOM     50  C   UNL A   1      42.958  25.095  27.890  1.00  0.00     0.037 A 
ATOM     51  C   UNL A   1      45.336  30.927  29.562  1.00  0.00     0.049 A 
ATOM     52  C   UNL A   1      44.351  25.628  28.037  1.00  0.00     0.074 A 
ATOM     53  C   UNL A   1      46.662  31.288  29.721  1.00  0.00     0.029 A 
ATOM     54  N   UNL A   1      45.333  29.602  29.148  1.00  0.00    -0.354 N 
ATOM     55  N   UNL A   1      44.738  26.828  28.397  1.00  0.00    -0.248 NA
ATOM     56  C   UNL A   1      45.450  24.706  27.724  1.00  0.00     0.031 C 
ATOM     57  C   UNL A   1      47.462  30.193  29.375  1.00  0.00     0.029 A 
ATOM     58  C   UNL A   1      46.634  29.138  29.032  1.00  0.00     0.049 A 
ATOM     59  H   UNL A   1      44.524  29.071  28.964  1.00  0.00     0.167 HD
ATOM     60  C   UNL A   1      46.126  26.806  28.357  1.00  0.00     0.074 A 
ATOM     61  C   UNL A   1      46.511  25.466  27.957  1.00  0.00     0.031 C 
ATOM     62  C   UNL A   1      47.001  27.806  28.622  1.00  0.00     0.037 A 
BRANCH  49  63
ATOM     63  C   UNL A   1      44.342  33.165  30.176  1.00  0.00     0.058 A 
ATOM     64  C   UNL A   1      44.477  33.551  31.517  1.00  0.00     0.135 A 
ATOM     65  C   UNL A   1      44.435  34.166  29.194  1.00  0.00     0.135 A 
ATOM     66  F   UNL A   1      44.385  32.638  32.496  1.00  0.00    -0.206 F 
ATOM     67  C   UNL A   1      44.673  34.882  31.874  1.00  0.00     0.059 A 
ATOM     68  C   UNL A   1      44.651  35.500  29.527  1.00  0.00     0.059 A 
ATOM     69  F   UNL A   1      44.316  33.851  27.894  1.00  0.00    -0.206 F 
ATOM     70  C   UNL A   1      44.754  35.851  30.872  1.00  0.00     0.060 A 
BRANCH  70  71
ATOM     71  S   UNL A   1      45.001  37.575  31.350  1.00  0.00     0.124 S 
ATOM     72  O   UNL A   1      46.216  37.480  32.154  1.00  0.00    -0.237 OA
ATOM     73  O   UNL A   1      45.147  38.243  30.061  1.00  0.00    -0.237 OA
ATOM     74  O   UNL A   1      43.786  37.901  32.087  1.00  0.00    -0.744 OA
ENDBRANCH  70  71
ENDBRANCH  49  63
BRANCH  50  75
ATOM     75  C   UNL A   1      42.710  23.702  27.438  1.00  0.00     0.058 A 
ATOM     76  C   UNL A   1      42.745  23.369  26.078  1.00  0.00     0.135 A 
ATOM     77  C   UNL A   1      42.484  22.670  28.363  1.00  0.00     0.135 A 
ATOM     78  F   UNL A   1      42.951  24.324  25.159  1.00  0.00    -0.206 F 
ATOM     79  C   UNL A   1      42.563  22.059  25.647  1.00  0.00     0.059 A 
ATOM     80  C   UNL A   1      42.322  21.350  27.959  1.00  0.00     0.059 A 
ATOM     81  F   UNL A   1      42.458  22.939  29.678  1.00  0.00    -0.206 F 
ATOM     82  C   UNL A   1      42.357  21.056  26.595  1.00  0.00     0.060 A 
BRANCH  82  83
ATOM     83  S   UNL A   1      42.193  19.347  26.036  1.00  0.00     0.124 S 
ATOM     84  O   UNL A   1      43.073  19.334  24.873  1.00  0.00    -0.237 OA
ATOM     85  O   UNL A   1      42.658  18.592  27.196  1.00  0.00    -0.237 OA
ATOM     86  O   UNL A   1      40.766  19.224  25.751  1.00  0.00    -0.744 OA
ENDBRANCH  82  83
ENDBRANCH  50  75
BRANCH  62  87
ATOM     87  C   UNL A   1      48.461  27.482  28.496  1.00  0.00     0.058 A 
ATOM     88  C   UNL A   1      49.176  26.906  29.558  1.00  0.00     0.135 A 
ATOM     89  C   UNL A   1      49.147  27.729  27.297  1.00  0.00     0.135 A 
ATOM     90  F   UNL A   1      48.566  26.661  30.728  1.00  0.00    -0.206 F 
ATOM     91  C   UNL A   1      50.528  26.603  29.442  1.00  0.00     0.059 A 
ATOM     92  C   UNL A   1      50.495  27.416  27.152  1.00  0.00     0.059 A 
ATOM     93  F   UNL A   1      48.506  28.273  26.251  1.00  0.00    -0.206 F 
ATOM     94  C   UNL A   1      51.180  26.864  28.236  1.00  0.00     0.060 A 
BRANCH  94  95
ATOM     95  S   UNL A   1      52.930  26.446  28.085  1.00  0.00     0.124 S 
ATOM     96  O   UNL A   1      53.502  27.722  27.671  1.00  0.00    -0.237 OA
ATOM     97  O   UNL A   1      53.268  26.008  29.436  1.00  0.00    -0.237 OA
ATOM     98  O   UNL A   1      52.940  25.394  27.073  1.00  0.00    -0.744 OA
ENDBRANCH  94  95
ENDBRANCH  62  87
ENDBRANCH  36  37
ENDBRANCH  29  31
ENDBRANCH  28  29
ENDBRANCH  27  28
ENDBRANCH   1  27
TORSDOF 18
ENDMDL
MODEL 2
REMARK VINA RESULT:     -11.9      5.641     11.179
REMARK SMILES COc1ccc2c(CC(=O)OCCOC(=O)c3ccc(-c4c5nc(c(-c6c(F)cc(S(=O)(=O)[O-])cc6F)c6ccc([nH]6)c(-c6c(F)cc(S(=O)(=O)[O-])cc6F)c6nc(c(-c7c(F)cc(S(=O)(=O)[O-])cc7F)c7ccc4[nH]7)C=C6)C=C5)cc3)c(C(=O)c3cc(C)ccn3)[nH]c2c1
REMARK SMILES IDX 12 1 11 2 9 3 10 4 8 5 7 6 3 7 4 8 95 9 5 10 94 11 6 12
REMARK SMILES IDX 93 13 83 14 2 16 1 17 84 18 85 19 86 20 87 21 92 22 88 23
REMARK SMILES IDX 91 24 89 25 90 26 13 27 14 28 15 29 16 30 17 31 18 32 82 33
REMARK SMILES IDX 19 34 81 35 20 36 21 37 22 38 75 39 23 40 80 41 74 42 76 43
REMARK SMILES IDX 24 44 79 45 73 46 72 47 25 49 59 50 38 51 58 52 39 53 42 54
REMARK SMILES IDX 57 55 77 56 40 57 41 58 56 60 78 61 43 62 26 63 27 64 36 65
REMARK SMILES IDX 28 66 29 67 35 68 37 69 30 70 31 71 32 72 33 73 34 74 60 75
REMARK SMILES IDX 61 76 70 77 62 78 63 79 69 80 71 81 64 82 65 83 66 84 67 85
REMARK SMILES IDX 68 86 44 87 45 88 54 89 46 90 47 91 53 92 55 93 48 94 49 95
REMARK SMILES IDX 50 96 51 97 52 98
REMARK H PARENT 93 15 76 48 42 59
REMARK Flexibility Score: inf
ROOT
ATOM      1  C   UNL A   1      37.802  22.321  25.419  1.00  0.00     0.274 C 
ENDROOT
BRANCH   1   2
ATOM      2  O   UNL A   1      37.245  23.587  25.012  1.00  0.00    -0.462 OA
BRANCH   2   3
ATOM      3  C   UNL A   1      36.547  23.572  23.844  1.00  0.00     0.310 C 
ATOM      4  O   UNL A   1      37.011  23.192  22.771  1.00  0.00    -0.252 OA
BRANCH   3   5
ATOM      5  C   UNL A   1      35.105  24.011  23.960  1.00  0.00     0.161 C 
BRANCH   5   6
ATOM      6  C   UNL A   1      34.066  23.080  23.409  1.00  0.00     0.000 A 
ATOM      7  C   UNL A   1      32.575  19.394  24.709  1.00  0.00     0.120 A 
ATOM      8  C   UNL A   1      33.734  19.819  25.355  1.00  0.00     0.047 A 
ATOM      9  C   UNL A   1      32.072  20.069  23.593  1.00  0.00     0.073 A 
ATOM     10  C   UNL A   1      34.366  21.001  24.960  1.00  0.00     0.014 A 
ATOM     11  C   UNL A   1      32.698  21.270  23.240  1.00  0.00     0.050 A 
ATOM     12  C   UNL A   1      33.805  21.768  23.918  1.00  0.00     0.004 A 
ATOM     13  N   UNL A   1      32.385  22.185  22.262  1.00  0.00    -0.351 N 
ATOM     14  C   UNL A   1      33.061  23.366  22.481  1.00  0.00     0.093 A 
ATOM     15  H   UNL A   1      31.767  22.020  21.513  1.00  0.00     0.167 HD
BRANCH   7  16
ATOM     16  O   UNL A   1      31.882  18.287  25.131  1.00  0.00    -0.497 OA
ATOM     17  C   UNL A   1      32.588  17.087  24.805  1.00  0.00     0.278 C 
ENDBRANCH   7  16
BRANCH  14  18
ATOM     18  C   UNL A   1      32.679  24.649  21.909  1.00  0.00     0.227 C 
ATOM     19  O   UNL A   1      33.249  25.144  20.940  1.00  0.00    -0.285 OA
BRANCH  18  20
ATOM     20  C   UNL A   1      31.652  25.472  22.590  1.00  0.00     0.113 A 
ATOM     21  C   UNL A   1      31.443  26.783  22.179  1.00  0.00     0.036 A 
ATOM     22  N   UNL A   1      30.946  24.861  23.569  1.00  0.00    -0.253 NA
ATOM     23  C   UNL A   1      30.428  27.515  22.801  1.00  0.00    -0.047 A 
ATOM     24  C   UNL A   1      29.920  25.559  24.093  1.00  0.00     0.112 A 
ATOM     25  C   UNL A   1      30.162  28.945  22.441  1.00  0.00     0.044 C 
ATOM     26  C   UNL A   1      29.631  26.872  23.753  1.00  0.00     0.023 A 
ENDBRANCH  18  20
ENDBRANCH  14  18
ENDBRANCH   5   6
ENDBRANCH   3   5
ENDBRANCH   2   3
ENDBRANCH   1   2
BRANCH   1  27
ATOM     27  C   UNL A   1      39.080  22.534  26.224  1.00  0.00     0.275 C 
BRANCH  27  28
ATOM     28  O   UNL A   1      39.242  23.934  26.507  1.00  0.00    -0.458 OA
BRANCH  28  29
ATOM     29  C   UNL A   1      40.507  24.319  26.790  1.00  0.00     0.338 C 
ATOM     30  O   UNL A   1      41.535  23.826  26.343  1.00  0.00    -0.246 OA
BRANCH  29  31
ATOM     31  C   UNL A   1      40.501  25.395  27.799  1.00  0.00     0.060 A 
ATOM     32  C   UNL A   1      39.435  25.562  28.684  1.00  0.00     0.016 A 
ATOM     33  C   UNL A   1      41.564  26.298  27.809  1.00  0.00     0.016 A 
ATOM     34  C   UNL A   1      39.398  26.671  29.528  1.00  0.00     0.010 A 
ATOM     35  C   UNL A   1      41.576  27.349  28.729  1.00  0.00     0.010 A 
ATOM     36  C   UNL A   1      40.486  27.556  29.590  1.00  0.00    -0.014 A 
BRANCH  36  37
ATOM     37  C   UNL A   1      40.523  28.657  30.591  1.00  0.00     0.031 A 
ATOM     38  C   UNL A   1      41.492  28.624  31.743  1.00  0.00     0.074 A 
ATOM     39  C   UNL A   1      39.636  29.668  30.491  1.00  0.00     0.049 A 
ATOM     40  N   UNL A   1      41.530  29.382  32.810  1.00  0.00    -0.248 NA
ATOM     41  C   UNL A   1      42.547  27.600  31.697  1.00  0.00     0.031 C 
ATOM     42  C   UNL A   1      38.650  29.827  29.419  1.00  0.00     0.029 A 
ATOM     43  N   UNL A   1      39.410  30.748  31.307  1.00  0.00    -0.354 N 
ATOM     44  C   UNL A   1      42.580  28.902  33.584  1.00  0.00     0.074 A 
ATOM     45  C   UNL A   1      43.155  27.785  32.863  1.00  0.00     0.031 C 
ATOM     46  C   UNL A   1      37.945  30.946  29.628  1.00  0.00     0.029 A 
ATOM     47  C   UNL A   1      38.367  31.541  30.890  1.00  0.00     0.049 A 
ATOM     48  H   UNL A   1      39.942  30.936  32.114  1.00  0.00     0.167 HD
ATOM     49  C   UNL A   1      43.023  29.355  34.783  1.00  0.00     0.037 A 
ATOM     50  C   UNL A   1      37.779  32.601  31.475  1.00  0.00     0.037 A 
ATOM     51  C   UNL A   1      42.471  30.494  35.474  1.00  0.00     0.049 A 
ATOM     52  C   UNL A   1      38.266  33.065  32.814  1.00  0.00     0.074 A 
ATOM     53  C   UNL A   1      42.873  31.048  36.678  1.00  0.00     0.029 A 
ATOM     54  N   UNL A   1      41.406  31.260  35.021  1.00  0.00    -0.354 N 
ATOM     55  N   UNL A   1      39.240  32.581  33.547  1.00  0.00    -0.248 NA
ATOM     56  C   UNL A   1      37.563  34.204  33.417  1.00  0.00     0.031 C 
ATOM     57  C   UNL A   1      42.031  32.129  36.967  1.00  0.00     0.029 A 
ATOM     58  C   UNL A   1      41.127  32.270  35.929  1.00  0.00     0.049 A 
ATOM     59  H   UNL A   1      40.920  31.107  34.179  1.00  0.00     0.167 HD
ATOM     60  C   UNL A   1      39.269  33.358  34.698  1.00  0.00     0.074 A 
ATOM     61  C   UNL A   1      38.228  34.357  34.554  1.00  0.00     0.031 C 
ATOM     62  C   UNL A   1      40.081  33.249  35.777  1.00  0.00     0.037 A 
BRANCH  49  63
ATOM     63  C   UNL A   1      44.146  28.606  35.443  1.00  0.00     0.058 A 
ATOM     64  C   UNL A   1      43.909  27.550  36.336  1.00  0.00     0.135 A 
ATOM     65  C   UNL A   1      45.482  28.918  35.140  1.00  0.00     0.135 A 
ATOM     66  F   UNL A   1      42.653  27.217  36.670  1.00  0.00    -0.206 F 
ATOM     67  C   UNL A   1      44.956  26.846  36.924  1.00  0.00     0.059 A 
ATOM     68  C   UNL A   1      46.545  28.215  35.700  1.00  0.00     0.059 A 
ATOM     69  F   UNL A   1      45.766  29.917  34.288  1.00  0.00    -0.206 F 
ATOM     70  C   UNL A   1      46.271  27.189  36.604  1.00  0.00     0.060 A 
BRANCH  70  71
ATOM     71  S   UNL A   1      47.620  26.273  37.380  1.00  0.00     0.124 S 
ATOM     72  O   UNL A   1      48.754  26.669  36.550  1.00  0.00    -0.237 OA
ATOM     73  O   UNL A   1      47.620  26.801  38.741  1.00  0.00    -0.237 OA
ATOM     74  O   UNL A   1      47.204  24.881  37.251  1.00  0.00    -0.744 OA
ENDBRANCH  70  71
ENDBRANCH  49  63
BRANCH  50  75
ATOM     75  C   UNL A   1      36.631  33.262  30.802  1.00  0.00     0.058 A 
ATOM     76  C   UNL A   1      35.318  33.051  31.243  1.00  0.00     0.135 A 
ATOM     77  C   UNL A   1      36.832  34.155  29.737  1.00  0.00     0.135 A 
ATOM     78  F   UNL A   1      35.079  32.200  32.253  1.00  0.00    -0.206 F 
ATOM     79  C   UNL A   1      34.241  33.701  30.652  1.00  0.00     0.059 A 
ATOM     80  C   UNL A   1      35.774  34.835  29.146  1.00  0.00     0.059 A 
ATOM     81  F   UNL A   1      38.074  34.401  29.290  1.00  0.00    -0.206 F 
ATOM     82  C   UNL A   1      34.479  34.595  29.607  1.00  0.00     0.060 A 
BRANCH  82  83
ATOM     83  S   UNL A   1      33.085  35.492  28.891  1.00  0.00     0.124 S 
ATOM     84  O   UNL A   1      32.386  35.949  30.087  1.00  0.00    -0.237 OA
ATOM     85  O   UNL A   1      33.750  36.528  28.106  1.00  0.00    -0.237 OA
ATOM     86  O   UNL A   1      32.397  34.470  28.108  1.00  0.00    -0.744 OA
ENDBRANCH  82  83
ENDBRANCH  50  75
BRANCH  62  87
ATOM     87  C   UNL A   1      39.878  34.245  36.882  1.00  0.00     0.058 A 
ATOM     88  C   UNL A   1      40.495  35.505  36.852  1.00  0.00     0.135 A 
ATOM     89  C   UNL A   1      39.043  33.945  37.970  1.00  0.00     0.135 A 
ATOM     90  F   UNL A   1      41.311  35.833  35.837  1.00  0.00    -0.206 F 
ATOM     91  C   UNL A   1      40.306  36.430  37.873  1.00  0.00     0.059 A 
ATOM     92  C   UNL A   1      38.825  34.862  38.993  1.00  0.00     0.059 A 
ATOM     93  F   UNL A   1      38.428  32.755  38.042  1.00  0.00    -0.206 F 
ATOM     94  C   UNL A   1      39.471  36.098  38.941  1.00  0.00     0.060 A 
BRANCH  94  95
ATOM     95  S   UNL A   1      39.213  37.312  40.253  1.00  0.00     0.124 S 
ATOM     96  O   UNL A   1      38.392  38.308  39.573  1.00  0.00    -0.237 OA
ATOM     97  O   UNL A   1      38.537  36.527  41.281  1.00  0.00    -0.237 OA
ATOM     98  O   UNL A   1      40.568  37.739  40.590  1.00  0.00    -0.744 OA
ENDBRANCH  94  95
ENDBRANCH  62  87
ENDBRANCH  36  37
ENDBRANCH  29  31
ENDBRANCH  28  29
ENDBRANCH  27  28
ENDBRANCH   1  27
TORSDOF 18
ENDMDL
MODEL 3
REMARK VINA RESULT:     -11.8      5.655     11.107
REMARK SMILES COc1ccc2c(CC(=O)OCCOC(=O)c3ccc(-c4c5nc(c(-c6c(F)cc(S(=O)(=O)[O-])cc6F)c6ccc([nH]6)c(-c6c(F)cc(S(=O)(=O)[O-])cc6F)c6nc(c(-c7c(F)cc(S(=O)(=O)[O-])cc7F)c7ccc4[nH]7)C=C6)C=C5)cc3)c(C(=O)c3cc(C)ccn3)[nH]c2c1
REMARK SMILES IDX 12 1 11 2 9 3 10 4 8 5 7 6 3 7 4 8 95 9 5 10 94 11 6 12
REMARK SMILES IDX 93 13 83 14 2 16 1 17 84 18 85 19 86 20 87 21 92 22 88 23
REMARK SMILES IDX 91 24 89 25 90 26 13 27 14 28 15 29 16 30 17 31 18 32 82 33
REMARK SMILES IDX 19 34 81 35 20 36 21 37 22 38 75 39 23 40 80 41 74 42 76 43
REMARK SMILES IDX 24 44 79 45 73 46 72 47 25 49 59 50 38 51 58 52 39 53 42 54
REMARK SMILES IDX 57 55 77 56 40 57 41 58 56 60 78 61 43 62 26 63 27 64 36 65
REMARK SMILES IDX 28 66 29 67 35 68 37 69 30 70 31 71 32 72 33 73 34 74 60 75
REMARK SMILES IDX 61 76 70 77 62 78 63 79 69 80 71 81 64 82 65 83 66 84 67 85
REMARK SMILES IDX 68 86 44 87 45 88 54 89 46 90 47 91 53 92 55 93 48 94 49 95
REMARK SMILES IDX 50 96 51 97 52 98
REMARK H PARENT 93 15 76 48 42 59
REMARK Flexibility Score: inf
ROOT
ATOM      1  C   UNL A   1      37.320  23.160  25.077  1.00  0.00     0.274 C 
ENDROOT
BRANCH   1   2
ATOM      2  O   UNL A   1      36.356  23.761  25.964  1.00  0.00    -0.462 OA
BRANCH   2   3
ATOM      3  C   UNL A   1      35.205  24.189  25.377  1.00  0.00     0.310 C 
ATOM      4  O   UNL A   1      34.255  24.667  25.993  1.00  0.00    -0.252 OA
BRANCH   3   5
ATOM      5  C   UNL A   1      35.187  24.089  23.868  1.00  0.00     0.161 C 
BRANCH   5   6
ATOM      6  C   UNL A   1      34.143  23.201  23.259  1.00  0.00     0.000 A 
ATOM      7  C   UNL A   1      32.654  19.435  24.309  1.00  0.00     0.120 A 
ATOM      8  C   UNL A   1      33.817  19.813  24.976  1.00  0.00     0.047 A 
ATOM      9  C   UNL A   1      32.146  20.186  23.245  1.00  0.00     0.073 A 
ATOM     10  C   UNL A   1      34.448  21.019  24.661  1.00  0.00     0.014 A 
ATOM     11  C   UNL A   1      32.771  21.408  22.972  1.00  0.00     0.050 A 
ATOM     12  C   UNL A   1      33.883  21.857  23.677  1.00  0.00     0.004 A 
ATOM     13  N   UNL A   1      32.455  22.389  22.062  1.00  0.00    -0.351 N 
ATOM     14  C   UNL A   1      33.134  23.551  22.358  1.00  0.00     0.093 A 
ATOM     15  H   UNL A   1      31.833  22.277  21.307  1.00  0.00     0.167 HD
BRANCH   7  16
ATOM     16  O   UNL A   1      31.962  18.302  24.657  1.00  0.00    -0.497 OA
ATOM     17  C   UNL A   1      32.621  17.607  25.719  1.00  0.00     0.278 C 
ENDBRANCH   7  16
BRANCH  14  18
ATOM     18  C   UNL A   1      32.751  24.871  21.879  1.00  0.00     0.227 C 
ATOM     19  O   UNL A   1      33.319  25.433  20.946  1.00  0.00    -0.285 OA
BRANCH  18  20
ATOM     20  C   UNL A   1      31.725  25.644  22.618  1.00  0.00     0.113 A 
ATOM     21  C   UNL A   1      31.335  25.228  23.886  1.00  0.00     0.036 A 
ATOM     22  N   UNL A   1      31.251  26.752  22.004  1.00  0.00    -0.253 NA
ATOM     23  C   UNL A   1      30.409  26.009  24.580  1.00  0.00    -0.047 A 
ATOM     24  C   UNL A   1      30.425  27.532  22.728  1.00  0.00     0.112 A 
ATOM     25  C   UNL A   1      29.911  25.611  25.936  1.00  0.00     0.044 C 
ATOM     26  C   UNL A   1      29.975  27.204  23.998  1.00  0.00     0.023 A 
ENDBRANCH  18  20
ENDBRANCH  14  18
ENDBRANCH   5   6
ENDBRANCH   3   5
ENDBRANCH   2   3
ENDBRANCH   1   2
BRANCH   1  27
ATOM     27  C   UNL A   1      38.576  22.763  25.844  1.00  0.00     0.275 C 
BRANCH  27  28
ATOM     28  O   UNL A   1      38.847  23.741  26.862  1.00  0.00    -0.458 OA
BRANCH  28  29
ATOM     29  C   UNL A   1      40.069  24.319  26.793  1.00  0.00     0.338 C 
ATOM     30  O   UNL A   1      41.009  23.950  26.100  1.00  0.00    -0.246 OA
BRANCH  29  31
ATOM     31  C   UNL A   1      40.160  25.440  27.746  1.00  0.00     0.060 A 
ATOM     32  C   UNL A   1      41.199  26.370  27.685  1.00  0.00     0.016 A 
ATOM     33  C   UNL A   1      39.214  25.518  28.768  1.00  0.00     0.016 A 
ATOM     34  C   UNL A   1      41.332  27.332  28.686  1.00  0.00     0.010 A 
ATOM     35  C   UNL A   1      39.288  26.547  29.708  1.00  0.00     0.010 A 
ATOM     36  C   UNL A   1      40.356  27.459  29.686  1.00  0.00    -0.014 A 
BRANCH  36  37
ATOM     37  C   UNL A   1      40.408  28.573  30.671  1.00  0.00     0.031 A 
ATOM     38  C   UNL A   1      41.375  28.542  31.825  1.00  0.00     0.074 A 
ATOM     39  C   UNL A   1      39.537  29.596  30.556  1.00  0.00     0.049 A 
ATOM     40  N   UNL A   1      41.422  29.314  32.882  1.00  0.00    -0.248 NA
ATOM     41  C   UNL A   1      42.414  27.502  31.796  1.00  0.00     0.031 C 
ATOM     42  C   UNL A   1      38.555  29.754  29.479  1.00  0.00     0.029 A 
ATOM     43  N   UNL A   1      39.325  30.690  31.356  1.00  0.00    -0.354 N 
ATOM     44  C   UNL A   1      42.464  28.830  33.664  1.00  0.00     0.074 A 
ATOM     45  C   UNL A   1      43.023  27.693  32.960  1.00  0.00     0.031 C 
ATOM     46  C   UNL A   1      37.866  30.887  29.671  1.00  0.00     0.029 A 
ATOM     47  C   UNL A   1      38.295  31.493  30.926  1.00  0.00     0.049 A 
ATOM     48  H   UNL A   1      39.859  30.882  32.161  1.00  0.00     0.167 HD
ATOM     49  C   UNL A   1      42.910  29.292  34.858  1.00  0.00     0.037 A 
ATOM     50  C   UNL A   1      37.722  32.570  31.495  1.00  0.00     0.037 A 
ATOM     51  C   UNL A   1      42.375  30.450  35.532  1.00  0.00     0.049 A 
ATOM     52  C   UNL A   1      38.214  33.045  32.828  1.00  0.00     0.074 A 
ATOM     53  C   UNL A   1      42.783  31.014  36.729  1.00  0.00     0.029 A 
ATOM     54  N   UNL A   1      41.322  31.224  35.066  1.00  0.00    -0.354 N 
ATOM     55  N   UNL A   1      39.179  32.557  33.570  1.00  0.00    -0.248 NA
ATOM     56  C   UNL A   1      37.527  34.203  33.413  1.00  0.00     0.031 C 
ATOM     57  C   UNL A   1      41.957  32.111  37.002  1.00  0.00     0.029 A 
ATOM     58  C   UNL A   1      41.056  32.251  35.959  1.00  0.00     0.049 A 
ATOM     59  H   UNL A   1      40.835  31.067  34.225  1.00  0.00     0.167 HD
ATOM     60  C   UNL A   1      39.217  33.350  34.709  1.00  0.00     0.074 A 
ATOM     61  C   UNL A   1      38.192  34.362  34.550  1.00  0.00     0.031 C 
ATOM     62  C   UNL A   1      40.025  33.243  35.792  1.00  0.00     0.037 A 
BRANCH  49  63
ATOM     63  C   UNL A   1      44.021  28.536  35.531  1.00  0.00     0.058 A 
ATOM     64  C   UNL A   1      45.371  28.838  35.299  1.00  0.00     0.135 A 
ATOM     65  C   UNL A   1      43.728  27.523  36.460  1.00  0.00     0.135 A 
ATOM     66  F   UNL A   1      45.708  29.789  34.414  1.00  0.00    -0.206 F 
ATOM     67  C   UNL A   1      46.392  28.148  35.946  1.00  0.00     0.059 A 
ATOM     68  C   UNL A   1      44.733  26.833  37.133  1.00  0.00     0.059 A 
ATOM     69  F   UNL A   1      42.453  27.195  36.722  1.00  0.00    -0.206 F 
ATOM     70  C   UNL A   1      46.064  27.143  36.857  1.00  0.00     0.060 A 
BRANCH  70  71
ATOM     71  S   UNL A   1      47.399  26.250  37.684  1.00  0.00     0.124 S 
ATOM     72  O   UNL A   1      48.400  26.181  36.623  1.00  0.00    -0.237 OA
ATOM     73  O   UNL A   1      47.723  27.130  38.802  1.00  0.00    -0.237 OA
ATOM     74  O   UNL A   1      46.783  24.979  38.048  1.00  0.00    -0.744 OA
ENDBRANCH  70  71
ENDBRANCH  49  63
BRANCH  50  75
ATOM     75  C   UNL A   1      36.585  33.239  30.810  1.00  0.00     0.058 A 
ATOM     76  C   UNL A   1      35.271  33.069  31.264  1.00  0.00     0.135 A 
ATOM     77  C   UNL A   1      36.800  34.097  29.720  1.00  0.00     0.135 A 
ATOM     78  F   UNL A   1      35.019  32.252  32.298  1.00  0.00    -0.206 F 
ATOM     79  C   UNL A   1      34.205  33.728  30.661  1.00  0.00     0.059 A 
ATOM     80  C   UNL A   1      35.754  34.785  29.116  1.00  0.00     0.059 A 
ATOM     81  F   UNL A   1      38.044  34.302  29.260  1.00  0.00    -0.206 F 
ATOM     82  C   UNL A   1      34.457  34.588  29.591  1.00  0.00     0.060 A 
BRANCH  82  83
ATOM     83  S   UNL A   1      33.079  35.497  28.859  1.00  0.00     0.124 S 
ATOM     84  O   UNL A   1      32.411  34.449  28.095  1.00  0.00    -0.237 OA
ATOM     85  O   UNL A   1      32.364  35.982  30.035  1.00  0.00    -0.237 OA
ATOM     86  O   UNL A   1      33.743  36.530  28.069  1.00  0.00    -0.744 OA
ENDBRANCH  82  83
ENDBRANCH  50  75
BRANCH  62  87
ATOM     87  C   UNL A   1      39.836  34.258  36.882  1.00  0.00     0.058 A 
ATOM     88  C   UNL A   1      39.147  33.941  38.063  1.00  0.00     0.135 A 
ATOM     89  C   UNL A   1      40.367  35.551  36.755  1.00  0.00     0.135 A 
ATOM     90  F   UNL A   1      38.613  32.720  38.226  1.00  0.00    -0.206 F 
ATOM     91  C   UNL A   1      38.974  34.878  39.075  1.00  0.00     0.059 A 
ATOM     92  C   UNL A   1      40.221  36.499  37.763  1.00  0.00     0.059 A 
ATOM     93  F   UNL A   1      41.038  35.901  35.647  1.00  0.00    -0.206 F 
ATOM     94  C   UNL A   1      39.512  36.156  38.915  1.00  0.00     0.060 A 
BRANCH  94  95
ATOM     95  S   UNL A   1      39.303  37.361  40.244  1.00  0.00     0.124 S 
ATOM     96  O   UNL A   1      40.686  37.715  40.539  1.00  0.00    -0.237 OA
ATOM     97  O   UNL A   1      38.504  38.401  39.603  1.00  0.00    -0.237 OA
ATOM     98  O   UNL A   1      38.612  36.602  41.282  1.00  0.00    -0.744 OA
ENDBRANCH  94  95
ENDBRANCH  62  87
ENDBRANCH  36  37
ENDBRANCH  29  31
ENDBRANCH  28  29
ENDBRANCH  27  28
ENDBRANCH   1  27
TORSDOF 18
ENDMDL
