MODEL 1
REMARK VINA RESULT:     -11.1      0.000      0.000
REMARK SMILES COc1ccc([C@H]2CC(c3ccccc3)=NN2C(=O)CCCC(=O)OCCOC(=O)c2ccc(-c3c4nc(c(-c5c(F)cc(S(=O)(=O)[O-])cc5F)c5ccc([nH]5)c(-c5c(F)cc(S(=O)(=O)[O-])cc5F)c5nc(c(-c6c(F)cc(S(=O)(=O)[O-])cc6F)c6ccc3[nH]6)C=C5)C=C4)cc2)cc1
REMARK SMILES IDX 25 1 23 2 24 3 22 4 21 5 20 6 18 7 19 8 17 9 7 10 8 11 9 12
REMARK SMILES IDX 16 13 6 14 3 15 4 16 98 17 5 18 97 19 2 20 1 21 10 22 11 23
REMARK SMILES IDX 15 24 12 25 14 26 13 27 26 28 27 29 28 30 29 31 30 32 31 33
REMARK SMILES IDX 32 34 96 35 33 36 95 37 34 38 35 39 36 40 89 41 37 42 94 43
REMARK SMILES IDX 88 44 90 45 38 46 93 47 87 48 86 49 39 51 73 52 52 53 72 54
REMARK SMILES IDX 53 55 56 56 71 57 91 58 54 59 55 60 70 62 92 63 57 64 40 65
REMARK SMILES IDX 41 66 50 67 42 68 43 69 49 70 51 71 44 72 45 73 46 74 47 75
REMARK SMILES IDX 48 76 74 77 75 78 84 79 76 80 77 81 83 82 85 83 78 84 79 85
REMARK SMILES IDX 80 86 81 87 82 88 58 89 59 90 68 91 60 92 61 93 67 94 69 95
REMARK SMILES IDX 62 96 63 97 64 98 65 99 66 100
REMARK H PARENT 90 50 56 61
REMARK Flexibility Score: inf
ROOT
ATOM      1  O   UNL A   1      34.792  33.323  28.349  1.00  0.00    -0.462 OA
ENDROOT
BRANCH   1   2
ATOM      2  C   UNL A   1      34.922  32.052  27.894  1.00  0.00     0.305 C 
ATOM      3  O   UNL A   1      35.996  31.498  27.698  1.00  0.00    -0.252 OA
BRANCH   2   4
ATOM      4  C   UNL A   1      33.593  31.391  27.634  1.00  0.00     0.123 C 
BRANCH   4   5
ATOM      5  C   UNL A   1      33.639  30.187  26.698  1.00  0.00     0.022 C 
BRANCH   5   6
ATOM      6  C   UNL A   1      33.756  28.821  27.368  1.00  0.00     0.103 C 
BRANCH   6   7
ATOM      7  C   UNL A   1      32.525  27.928  27.323  1.00  0.00     0.243 C 
ATOM      8  O   UNL A   1      31.522  28.252  27.965  1.00  0.00    -0.273 OA
BRANCH   7   9
ATOM      9  N   UNL A   1      32.545  26.904  26.391  1.00  0.00    -0.225 N 
ATOM     10  C   UNL A   1      31.420  26.233  25.724  1.00  0.00     0.147 C 
ATOM     11  C   UNL A   1      32.039  24.978  25.126  1.00  0.00     0.091 C 
ATOM     12  C   UNL A   1      33.489  25.268  25.376  1.00  0.00     0.071 C 
ATOM     13  N   UNL A   1      33.755  26.326  26.078  1.00  0.00    -0.174 NA
BRANCH  10  14
ATOM     14  C   UNL A   1      30.761  27.091  24.655  1.00  0.00    -0.023 A 
ATOM     15  C   UNL A   1      29.615  28.706  22.634  1.00  0.00     0.118 A 
ATOM     16  C   UNL A   1      30.924  28.915  23.043  1.00  0.00     0.047 A 
ATOM     17  C   UNL A   1      28.881  27.679  23.223  1.00  0.00     0.047 A 
ATOM     18  C   UNL A   1      31.470  28.154  24.081  1.00  0.00     0.010 A 
ATOM     19  C   UNL A   1      29.445  26.875  24.222  1.00  0.00     0.010 A 
BRANCH  15  20
ATOM     20  O   UNL A   1      28.975  29.423  21.663  1.00  0.00    -0.497 OA
ATOM     21  C   UNL A   1      29.082  30.846  21.738  1.00  0.00     0.278 C 
ENDBRANCH  15  20
ENDBRANCH  10  14
BRANCH  12  22
ATOM     22  C   UNL A   1      34.521  24.323  24.941  1.00  0.00    -0.002 A 
ATOM     23  C   UNL A   1      34.625  24.030  23.579  1.00  0.00     0.010 A 
ATOM     24  C   UNL A   1      35.380  23.736  25.870  1.00  0.00     0.010 A 
ATOM     25  C   UNL A   1      35.603  23.140  23.140  1.00  0.00     0.001 A 
ATOM     26  C   UNL A   1      36.344  22.832  25.425  1.00  0.00     0.001 A 
ATOM     27  C   UNL A   1      36.458  22.537  24.064  1.00  0.00     0.000 A 
ENDBRANCH  12  22
ENDBRANCH   7   9
ENDBRANCH   6   7
ENDBRANCH   5   6
ENDBRANCH   4   5
ENDBRANCH   2   4
ENDBRANCH   1   2
BRANCH   1  28
ATOM     28  C   UNL A   1      33.451  33.840  28.265  1.00  0.00     0.274 C 
BRANCH  28  29
ATOM     29  C   UNL A   1      33.315  35.166  29.015  1.00  0.00     0.275 C 
BRANCH  29  30
ATOM     30  O   UNL A   1      32.400  35.073  30.129  1.00  0.00    -0.458 OA
BRANCH  30  31
ATOM     31  C   UNL A   1      32.753  35.771  31.232  1.00  0.00     0.338 C 
ATOM     32  O   UNL A   1      32.277  36.847  31.590  1.00  0.00    -0.246 OA
BRANCH  31  33
ATOM     33  C   UNL A   1      33.818  35.098  32.006  1.00  0.00     0.060 A 
ATOM     34  C   UNL A   1      35.069  35.680  32.185  1.00  0.00     0.016 A 
ATOM     35  C   UNL A   1      33.609  33.788  32.440  1.00  0.00     0.016 A 
ATOM     36  C   UNL A   1      36.130  34.911  32.692  1.00  0.00     0.010 A 
ATOM     37  C   UNL A   1      34.653  33.059  33.030  1.00  0.00     0.010 A 
ATOM     38  C   UNL A   1      35.958  33.578  33.107  1.00  0.00    -0.014 A 
BRANCH  38  39
ATOM     39  C   UNL A   1      37.107  32.700  33.542  1.00  0.00     0.031 A 
ATOM     40  C   UNL A   1      37.755  32.907  34.901  1.00  0.00     0.074 A 
ATOM     41  C   UNL A   1      37.608  31.706  32.777  1.00  0.00     0.049 A 
ATOM     42  N   UNL A   1      38.931  32.518  35.333  1.00  0.00    -0.248 NA
ATOM     43  C   UNL A   1      36.985  33.671  35.895  1.00  0.00     0.031 C 
ATOM     44  C   UNL A   1      37.103  31.284  31.472  1.00  0.00     0.029 A 
ATOM     45  N   UNL A   1      38.678  30.861  32.998  1.00  0.00    -0.354 N 
ATOM     46  C   UNL A   1      39.089  33.089  36.594  1.00  0.00     0.074 A 
ATOM     47  C   UNL A   1      37.871  33.824  36.869  1.00  0.00     0.031 C 
ATOM     48  C   UNL A   1      37.816  30.235  31.037  1.00  0.00     0.029 A 
ATOM     49  C   UNL A   1      38.919  29.990  31.961  1.00  0.00     0.049 A 
ATOM     50  H   UNL A   1      39.216  30.879  33.821  1.00  0.00     0.167 HD
ATOM     51  C   UNL A   1      40.149  33.021  37.439  1.00  0.00     0.037 A 
ATOM     52  C   UNL A   1      39.939  29.140  31.719  1.00  0.00     0.037 A 
ATOM     53  C   UNL A   1      41.311  32.192  37.236  1.00  0.00     0.049 A 
ATOM     54  C   UNL A   1      41.104  29.061  32.662  1.00  0.00     0.074 A 
ATOM     55  C   UNL A   1      42.413  32.036  38.063  1.00  0.00     0.029 A 
ATOM     56  N   UNL A   1      41.511  31.354  36.152  1.00  0.00    -0.354 N 
ATOM     57  N   UNL A   1      41.304  29.714  33.779  1.00  0.00    -0.248 NA
ATOM     58  C   UNL A   1      42.201  28.154  32.290  1.00  0.00     0.031 C 
ATOM     59  C   UNL A   1      43.289  31.123  37.465  1.00  0.00     0.029 A 
ATOM     60  C   UNL A   1      42.716  30.681  36.285  1.00  0.00     0.049 A 
ATOM     61  H   UNL A   1      40.888  31.251  35.397  1.00  0.00     0.167 HD
ATOM     62  C   UNL A   1      42.551  29.306  34.239  1.00  0.00     0.074 A 
ATOM     63  C   UNL A   1      43.050  28.330  33.294  1.00  0.00     0.031 C 
ATOM     64  C   UNL A   1      43.224  29.717  35.342  1.00  0.00     0.037 A 
BRANCH  51  65
ATOM     65  C   UNL A   1      40.132  33.913  38.654  1.00  0.00     0.058 A 
ATOM     66  C   UNL A   1      40.808  35.141  38.705  1.00  0.00     0.135 A 
ATOM     67  C   UNL A   1      39.386  33.532  39.785  1.00  0.00     0.135 A 
ATOM     68  F   UNL A   1      41.540  35.552  37.658  1.00  0.00    -0.206 F 
ATOM     69  C   UNL A   1      40.785  35.937  39.848  1.00  0.00     0.059 A 
ATOM     70  C   UNL A   1      39.325  34.324  40.926  1.00  0.00     0.059 A 
ATOM     71  F   UNL A   1      38.709  32.373  39.787  1.00  0.00    -0.206 F 
ATOM     72  C   UNL A   1      40.047  35.516  40.956  1.00  0.00     0.060 A 
BRANCH  72  73
ATOM     73  S   UNL A   1      40.042  36.541  42.443  1.00  0.00     0.124 S 
ATOM     74  O   UNL A   1      41.470  36.674  42.707  1.00  0.00    -0.237 OA
ATOM     75  O   UNL A   1      39.365  37.752  41.990  1.00  0.00    -0.237 OA
ATOM     76  O   UNL A   1      39.297  35.736  43.407  1.00  0.00    -0.744 OA
ENDBRANCH  72  73
ENDBRANCH  51  65
BRANCH  52  77
ATOM     77  C   UNL A   1      39.927  28.341  30.464  1.00  0.00     0.058 A 
ATOM     78  C   UNL A   1      40.703  28.719  29.359  1.00  0.00     0.135 A 
ATOM     79  C   UNL A   1      39.198  27.144  30.375  1.00  0.00     0.135 A 
ATOM     80  F   UNL A   1      41.396  29.868  29.388  1.00  0.00    -0.206 F 
ATOM     81  C   UNL A   1      40.784  27.923  28.222  1.00  0.00     0.059 A 
ATOM     82  C   UNL A   1      39.285  26.318  29.262  1.00  0.00     0.059 A 
ATOM     83  F   UNL A   1      38.444  26.739  31.409  1.00  0.00    -0.206 F 
ATOM     84  C   UNL A   1      40.085  26.713  28.191  1.00  0.00     0.060 A 
BRANCH  84  85
ATOM     85  S   UNL A   1      40.311  25.612  26.778  1.00  0.00     0.124 S 
ATOM     86  O   UNL A   1      40.751  26.542  25.746  1.00  0.00    -0.237 OA
ATOM     87  O   UNL A   1      41.320  24.678  27.271  1.00  0.00    -0.237 OA
ATOM     88  O   UNL A   1      38.981  25.037  26.590  1.00  0.00    -0.744 OA
ENDBRANCH  84  85
ENDBRANCH  52  77
BRANCH  64  89
ATOM     89  C   UNL A   1      44.572  29.103  35.604  1.00  0.00     0.058 A 
ATOM     90  C   UNL A   1      44.709  27.924  36.353  1.00  0.00     0.135 A 
ATOM     91  C   UNL A   1      45.737  29.684  35.077  1.00  0.00     0.135 A 
ATOM     92  F   UNL A   1      43.628  27.332  36.885  1.00  0.00    -0.206 F 
ATOM     93  C   UNL A   1      45.957  27.352  36.589  1.00  0.00     0.059 A 
ATOM     94  C   UNL A   1      46.993  29.119  35.285  1.00  0.00     0.059 A 
ATOM     95  F   UNL A   1      45.661  30.809  34.348  1.00  0.00    -0.206 F 
ATOM     96  C   UNL A   1      47.094  27.960  36.053  1.00  0.00     0.060 A 
BRANCH  96  97
ATOM     97  S   UNL A   1      48.707  27.204  36.354  1.00  0.00     0.124 S 
ATOM     98  O   UNL A   1      49.538  27.881  35.365  1.00  0.00    -0.237 OA
ATOM     99  O   UNL A   1      48.964  27.555  37.747  1.00  0.00    -0.237 OA
ATOM    100  O   UNL A   1      48.467  25.785  36.107  1.00  0.00    -0.744 OA
ENDBRANCH  96  97
ENDBRANCH  64  89
ENDBRANCH  38  39
ENDBRANCH  31  33
ENDBRANCH  30  31
ENDBRANCH  29  30
ENDBRANCH  28  29
ENDBRANCH   1  28
TORSDOF 21
ENDMDL
MODEL 2
REMARK VINA RESULT:     -11.0      3.031      9.407
REMARK SMILES COc1ccc([C@H]2CC(c3ccccc3)=NN2C(=O)CCCC(=O)OCCOC(=O)c2ccc(-c3c4nc(c(-c5c(F)cc(S(=O)(=O)[O-])cc5F)c5ccc([nH]5)c(-c5c(F)cc(S(=O)(=O)[O-])cc5F)c5nc(c(-c6c(F)cc(S(=O)(=O)[O-])cc6F)c6ccc3[nH]6)C=C5)C=C4)cc2)cc1
REMARK SMILES IDX 25 1 23 2 24 3 22 4 21 5 20 6 18 7 19 8 17 9 7 10 8 11 9 12
REMARK SMILES IDX 16 13 6 14 3 15 4 16 98 17 5 18 97 19 2 20 1 21 10 22 11 23
REMARK SMILES IDX 15 24 12 25 14 26 13 27 26 28 27 29 28 30 29 31 30 32 31 33
REMARK SMILES IDX 32 34 96 35 33 36 95 37 34 38 35 39 36 40 89 41 37 42 94 43
REMARK SMILES IDX 88 44 90 45 38 46 93 47 87 48 86 49 39 51 73 52 52 53 72 54
REMARK SMILES IDX 53 55 56 56 71 57 91 58 54 59 55 60 70 62 92 63 57 64 40 65
REMARK SMILES IDX 41 66 50 67 42 68 43 69 49 70 51 71 44 72 45 73 46 74 47 75
REMARK SMILES IDX 48 76 74 77 75 78 84 79 76 80 77 81 83 82 85 83 78 84 79 85
REMARK SMILES IDX 80 86 81 87 82 88 58 89 59 90 68 91 60 92 61 93 67 94 69 95
REMARK SMILES IDX 62 96 63 97 64 98 65 99 66 100
REMARK H PARENT 90 50 56 61
REMARK Flexibility Score: inf
ROOT
ATOM      1  O   UNL A   1      42.263  21.144  25.393  1.00  0.00    -0.462 OA
ENDROOT
BRANCH   1   2
ATOM      2  C   UNL A   1      41.627  20.104  25.989  1.00  0.00     0.305 C 
ATOM      3  O   UNL A   1      41.865  18.927  25.753  1.00  0.00    -0.252 OA
BRANCH   2   4
ATOM      4  C   UNL A   1      40.574  20.553  26.967  1.00  0.00     0.123 C 
BRANCH   4   5
ATOM      5  C   UNL A   1      39.792  21.797  26.553  1.00  0.00     0.022 C 
BRANCH   5   6
ATOM      6  C   UNL A   1      38.598  21.562  25.633  1.00  0.00     0.103 C 
BRANCH   6   7
ATOM      7  C   UNL A   1      37.475  22.587  25.692  1.00  0.00     0.243 C 
ATOM      8  O   UNL A   1      37.756  23.789  25.697  1.00  0.00    -0.273 OA
BRANCH   7   9
ATOM      9  N   UNL A   1      36.190  22.098  25.530  1.00  0.00    -0.225 N 
ATOM     10  C   UNL A   1      34.927  22.605  26.085  1.00  0.00     0.147 C 
ATOM     11  C   UNL A   1      33.945  21.461  25.878  1.00  0.00     0.091 C 
ATOM     12  C   UNL A   1      34.785  20.560  25.022  1.00  0.00     0.071 C 
ATOM     13  N   UNL A   1      36.019  20.917  24.844  1.00  0.00    -0.174 NA
BRANCH  10  14
ATOM     14  C   UNL A   1      34.445  23.880  25.409  1.00  0.00    -0.023 A 
ATOM     15  C   UNL A   1      33.543  26.205  24.074  1.00  0.00     0.118 A 
ATOM     16  C   UNL A   1      34.162  25.184  23.368  1.00  0.00     0.047 A 
ATOM     17  C   UNL A   1      33.360  26.059  25.446  1.00  0.00     0.047 A 
ATOM     18  C   UNL A   1      34.658  24.062  24.036  1.00  0.00     0.010 A 
ATOM     19  C   UNL A   1      33.802  24.908  26.112  1.00  0.00     0.010 A 
BRANCH  15  20
ATOM     20  O   UNL A   1      33.066  27.360  23.522  1.00  0.00    -0.497 OA
ATOM     21  C   UNL A   1      32.471  28.303  24.416  1.00  0.00     0.278 C 
ENDBRANCH  15  20
ENDBRANCH  10  14
BRANCH  12  22
ATOM     22  C   UNL A   1      34.246  19.290  24.530  1.00  0.00    -0.002 A 
ATOM     23  C   UNL A   1      35.046  18.147  24.615  1.00  0.00     0.010 A 
ATOM     24  C   UNL A   1      32.960  19.227  23.994  1.00  0.00     0.010 A 
ATOM     25  C   UNL A   1      34.552  16.926  24.160  1.00  0.00     0.001 A 
ATOM     26  C   UNL A   1      32.479  18.005  23.524  1.00  0.00     0.001 A 
ATOM     27  C   UNL A   1      33.272  16.857  23.610  1.00  0.00     0.000 A 
ENDBRANCH  12  22
ENDBRANCH   7   9
ENDBRANCH   6   7
ENDBRANCH   5   6
ENDBRANCH   4   5
ENDBRANCH   2   4
ENDBRANCH   1   2
BRANCH   1  28
ATOM     28  C   UNL A   1      43.649  21.269  25.760  1.00  0.00     0.274 C 
BRANCH  28  29
ATOM     29  C   UNL A   1      43.909  22.568  26.527  1.00  0.00     0.275 C 
BRANCH  29  30
ATOM     30  O   UNL A   1      42.693  23.308  26.776  1.00  0.00    -0.458 OA
BRANCH  30  31
ATOM     31  C   UNL A   1      42.568  24.466  26.089  1.00  0.00     0.338 C 
ATOM     32  O   UNL A   1      42.819  24.631  24.897  1.00  0.00    -0.246 OA
BRANCH  31  33
ATOM     33  C   UNL A   1      42.082  25.574  26.940  1.00  0.00     0.060 A 
ATOM     34  C   UNL A   1      42.362  26.903  26.637  1.00  0.00     0.016 A 
ATOM     35  C   UNL A   1      41.456  25.269  28.149  1.00  0.00     0.016 A 
ATOM     36  C   UNL A   1      42.118  27.903  27.593  1.00  0.00     0.010 A 
ATOM     37  C   UNL A   1      41.133  26.288  29.059  1.00  0.00     0.010 A 
ATOM     38  C   UNL A   1      41.518  27.622  28.834  1.00  0.00    -0.014 A 
BRANCH  38  39
ATOM     39  C   UNL A   1      41.355  28.659  29.920  1.00  0.00     0.031 A 
ATOM     40  C   UNL A   1      42.337  28.712  31.079  1.00  0.00     0.074 A 
ATOM     41  C   UNL A   1      40.362  29.574  29.925  1.00  0.00     0.049 A 
ATOM     42  N   UNL A   1      42.206  29.268  32.260  1.00  0.00    -0.248 NA
ATOM     43  C   UNL A   1      43.627  28.030  30.889  1.00  0.00     0.031 C 
ATOM     44  C   UNL A   1      39.350  29.754  28.887  1.00  0.00     0.029 A 
ATOM     45  N   UNL A   1      40.041  30.540  30.859  1.00  0.00    -0.354 N 
ATOM     46  C   UNL A   1      43.336  28.903  32.988  1.00  0.00     0.074 A 
ATOM     47  C   UNL A   1      44.156  28.103  32.102  1.00  0.00     0.031 C 
ATOM     48  C   UNL A   1      38.563  30.792  29.206  1.00  0.00     0.029 A 
ATOM     49  C   UNL A   1      38.922  31.271  30.537  1.00  0.00     0.049 A 
ATOM     50  H   UNL A   1      40.566  30.692  31.677  1.00  0.00     0.167 HD
ATOM     51  C   UNL A   1      43.657  29.191  34.275  1.00  0.00     0.037 A 
ATOM     52  C   UNL A   1      38.201  32.169  31.241  1.00  0.00     0.037 A 
ATOM     53  C   UNL A   1      42.915  30.089  35.126  1.00  0.00     0.049 A 
ATOM     54  C   UNL A   1      38.566  32.494  32.660  1.00  0.00     0.074 A 
ATOM     55  C   UNL A   1      43.194  30.466  36.431  1.00  0.00     0.029 A 
ATOM     56  N   UNL A   1      41.772  30.777  34.753  1.00  0.00    -0.354 N 
ATOM     57  N   UNL A   1      39.556  32.030  33.382  1.00  0.00    -0.248 NA
ATOM     58  C   UNL A   1      37.691  33.437  33.374  1.00  0.00     0.031 C 
ATOM     59  C   UNL A   1      42.205  31.362  36.854  1.00  0.00     0.029 A 
ATOM     60  C   UNL A   1      41.332  31.573  35.800  1.00  0.00     0.049 A 
ATOM     61  H   UNL A   1      41.336  30.711  33.873  1.00  0.00     0.167 HD
ATOM     62  C   UNL A   1      39.419  32.616  34.636  1.00  0.00     0.074 A 
ATOM     63  C   UNL A   1      38.266  33.489  34.569  1.00  0.00     0.031 C 
ATOM     64  C   UNL A   1      40.179  32.434  35.744  1.00  0.00     0.037 A 
BRANCH  51  65
ATOM     65  C   UNL A   1      44.847  28.486  34.873  1.00  0.00     0.058 A 
ATOM     66  C   UNL A   1      44.767  27.203  35.435  1.00  0.00     0.135 A 
ATOM     67  C   UNL A   1      46.107  29.112  34.850  1.00  0.00     0.135 A 
ATOM     68  F   UNL A   1      43.589  26.563  35.490  1.00  0.00    -0.206 F 
ATOM     69  C   UNL A   1      45.883  26.584  35.992  1.00  0.00     0.059 A 
ATOM     70  C   UNL A   1      47.241  28.500  35.375  1.00  0.00     0.059 A 
ATOM     71  F   UNL A   1      46.245  30.335  34.314  1.00  0.00    -0.206 F 
ATOM     72  C   UNL A   1      47.114  27.243  35.965  1.00  0.00     0.060 A 
BRANCH  72  73
ATOM     73  S   UNL A   1      48.550  26.444  36.713  1.00  0.00     0.124 S 
ATOM     74  O   UNL A   1      49.132  27.547  37.471  1.00  0.00    -0.237 OA
ATOM     75  O   UNL A   1      47.942  25.381  37.507  1.00  0.00    -0.237 OA
ATOM     76  O   UNL A   1      49.326  25.995  35.561  1.00  0.00    -0.744 OA
ENDBRANCH  72  73
ENDBRANCH  51  65
BRANCH  52  77
ATOM     77  C   UNL A   1      36.995  32.774  30.614  1.00  0.00     0.058 A 
ATOM     78  C   UNL A   1      35.707  32.336  30.954  1.00  0.00     0.135 A 
ATOM     79  C   UNL A   1      37.108  33.853  29.722  1.00  0.00     0.135 A 
ATOM     80  F   UNL A   1      35.552  31.292  31.783  1.00  0.00    -0.206 F 
ATOM     81  C   UNL A   1      34.572  32.966  30.457  1.00  0.00     0.059 A 
ATOM     82  C   UNL A   1      35.989  34.516  29.235  1.00  0.00     0.059 A 
ATOM     83  F   UNL A   1      38.320  34.310  29.371  1.00  0.00    -0.206 F 
ATOM     84  C   UNL A   1      34.723  34.068  29.612  1.00  0.00     0.060 A 
BRANCH  84  85
ATOM     85  S   UNL A   1      33.252  34.976  29.090  1.00  0.00     0.124 S 
ATOM     86  O   UNL A   1      32.689  34.075  28.092  1.00  0.00    -0.237 OA
ATOM     87  O   UNL A   1      32.504  35.098  30.338  1.00  0.00    -0.237 OA
ATOM     88  O   UNL A   1      33.800  36.229  28.577  1.00  0.00    -0.744 OA
ENDBRANCH  84  85
ENDBRANCH  52  77
BRANCH  64  89
ATOM     89  C   UNL A   1      39.800  33.204  36.980  1.00  0.00     0.058 A 
ATOM     90  C   UNL A   1      40.423  34.418  37.308  1.00  0.00     0.135 A 
ATOM     91  C   UNL A   1      38.787  32.737  37.832  1.00  0.00     0.135 A 
ATOM     92  F   UNL A   1      41.404  34.906  36.531  1.00  0.00    -0.206 F 
ATOM     93  C   UNL A   1      40.068  35.135  38.449  1.00  0.00     0.059 A 
ATOM     94  C   UNL A   1      38.403  33.446  38.968  1.00  0.00     0.059 A 
ATOM     95  F   UNL A   1      38.155  31.584  37.561  1.00  0.00    -0.206 F 
ATOM     96  C   UNL A   1      39.058  34.637  39.274  1.00  0.00     0.060 A 
BRANCH  96  97
ATOM     97  S   UNL A   1      38.597  35.579  40.745  1.00  0.00     0.124 S 
ATOM     98  O   UNL A   1      39.735  35.329  41.623  1.00  0.00    -0.237 OA
ATOM     99  O   UNL A   1      38.483  36.939  40.226  1.00  0.00    -0.237 OA
ATOM    100  O   UNL A   1      37.338  34.966  41.159  1.00  0.00    -0.744 OA
ENDBRANCH  96  97
ENDBRANCH  64  89
ENDBRANCH  38  39
ENDBRANCH  31  33
ENDBRANCH  30  31
ENDBRANCH  29  30
ENDBRANCH  28  29
ENDBRANCH   1  28
TORSDOF 21
ENDMDL
MODEL 3
REMARK VINA RESULT:     -10.8      2.733      9.543
REMARK SMILES COc1ccc([C@H]2CC(c3ccccc3)=NN2C(=O)CCCC(=O)OCCOC(=O)c2ccc(-c3c4nc(c(-c5c(F)cc(S(=O)(=O)[O-])cc5F)c5ccc([nH]5)c(-c5c(F)cc(S(=O)(=O)[O-])cc5F)c5nc(c(-c6c(F)cc(S(=O)(=O)[O-])cc6F)c6ccc3[nH]6)C=C5)C=C4)cc2)cc1
REMARK SMILES IDX 25 1 23 2 24 3 22 4 21 5 20 6 18 7 19 8 17 9 7 10 8 11 9 12
REMARK SMILES IDX 16 13 6 14 3 15 4 16 98 17 5 18 97 19 2 20 1 21 10 22 11 23
REMARK SMILES IDX 15 24 12 25 14 26 13 27 26 28 27 29 28 30 29 31 30 32 31 33
REMARK SMILES IDX 32 34 96 35 33 36 95 37 34 38 35 39 36 40 89 41 37 42 94 43
REMARK SMILES IDX 88 44 90 45 38 46 93 47 87 48 86 49 39 51 73 52 52 53 72 54
REMARK SMILES IDX 53 55 56 56 71 57 91 58 54 59 55 60 70 62 92 63 57 64 40 65
REMARK SMILES IDX 41 66 50 67 42 68 43 69 49 70 51 71 44 72 45 73 46 74 47 75
REMARK SMILES IDX 48 76 74 77 75 78 84 79 76 80 77 81 83 82 85 83 78 84 79 85
REMARK SMILES IDX 80 86 81 87 82 88 58 89 59 90 68 91 60 92 61 93 67 94 69 95
REMARK SMILES IDX 62 96 63 97 64 98 65 99 66 100
REMARK H PARENT 90 50 56 61
REMARK Flexibility Score: inf
ROOT
ATOM      1  O   UNL A   1      40.694  22.470  27.101  1.00  0.00    -0.462 OA
ENDROOT
BRANCH   1   2
ATOM      2  C   UNL A   1      39.434  22.610  26.619  1.00  0.00     0.305 C 
ATOM      3  O   UNL A   1      38.735  23.599  26.798  1.00  0.00    -0.252 OA
BRANCH   2   4
ATOM      4  C   UNL A   1      38.972  21.401  25.848  1.00  0.00     0.123 C 
BRANCH   4   5
ATOM      5  C   UNL A   1      37.692  21.597  25.041  1.00  0.00     0.022 C 
BRANCH   5   6
ATOM      6  C   UNL A   1      37.236  23.040  24.847  1.00  0.00     0.103 C 
BRANCH   6   7
ATOM      7  C   UNL A   1      36.258  23.303  23.711  1.00  0.00     0.243 C 
ATOM      8  O   UNL A   1      36.563  22.962  22.564  1.00  0.00    -0.273 OA
BRANCH   7   9
ATOM      9  N   UNL A   1      34.994  23.729  24.078  1.00  0.00    -0.225 N 
ATOM     10  C   UNL A   1      33.684  23.293  23.572  1.00  0.00     0.147 C 
ATOM     11  C   UNL A   1      32.721  24.364  24.064  1.00  0.00     0.091 C 
ATOM     12  C   UNL A   1      33.638  25.129  24.972  1.00  0.00     0.071 C 
ATOM     13  N   UNL A   1      34.886  24.775  24.966  1.00  0.00    -0.174 NA
BRANCH  10  14
ATOM     14  C   UNL A   1      33.280  21.913  24.068  1.00  0.00    -0.023 A 
ATOM     15  C   UNL A   1      32.527  19.318  24.906  1.00  0.00     0.118 A 
ATOM     16  C   UNL A   1      32.258  19.745  23.614  1.00  0.00     0.047 A 
ATOM     17  C   UNL A   1      33.187  20.181  25.777  1.00  0.00     0.047 A 
ATOM     18  C   UNL A   1      32.579  21.047  23.219  1.00  0.00     0.010 A 
ATOM     19  C   UNL A   1      33.564  21.466  25.366  1.00  0.00     0.010 A 
BRANCH  15  20
ATOM     20  O   UNL A   1      32.213  18.085  25.403  1.00  0.00    -0.497 OA
ATOM     21  C   UNL A   1      32.754  16.956  24.714  1.00  0.00     0.278 C 
ENDBRANCH  15  20
ENDBRANCH  10  14
BRANCH  12  22
ATOM     22  C   UNL A   1      33.143  26.286  25.722  1.00  0.00    -0.002 A 
ATOM     23  C   UNL A   1      34.027  27.336  25.988  1.00  0.00     0.010 A 
ATOM     24  C   UNL A   1      31.818  26.337  26.153  1.00  0.00     0.010 A 
ATOM     25  C   UNL A   1      33.578  28.451  26.692  1.00  0.00     0.001 A 
ATOM     26  C   UNL A   1      31.380  27.448  26.874  1.00  0.00     0.001 A 
ATOM     27  C   UNL A   1      32.257  28.503  27.140  1.00  0.00     0.000 A 
ENDBRANCH  12  22
ENDBRANCH   7   9
ENDBRANCH   6   7
ENDBRANCH   5   6
ENDBRANCH   4   5
ENDBRANCH   2   4
ENDBRANCH   1   2
BRANCH   1  28
ATOM     28  C   UNL A   1      41.647  22.011  26.125  1.00  0.00     0.274 C 
BRANCH  28  29
ATOM     29  C   UNL A   1      42.618  23.124  25.725  1.00  0.00     0.275 C 
BRANCH  29  30
ATOM     30  O   UNL A   1      42.625  24.211  26.676  1.00  0.00    -0.458 OA
BRANCH  30  31
ATOM     31  C   UNL A   1      42.294  25.423  26.176  1.00  0.00     0.338 C 
ATOM     32  O   UNL A   1      42.385  25.769  24.999  1.00  0.00    -0.246 OA
BRANCH  31  33
ATOM     33  C   UNL A   1      41.793  26.343  27.219  1.00  0.00     0.060 A 
ATOM     34  C   UNL A   1      42.306  27.628  27.365  1.00  0.00     0.016 A 
ATOM     35  C   UNL A   1      40.890  25.860  28.167  1.00  0.00     0.016 A 
ATOM     36  C   UNL A   1      42.002  28.375  28.516  1.00  0.00     0.010 A 
ATOM     37  C   UNL A   1      40.522  26.650  29.266  1.00  0.00     0.010 A 
ATOM     38  C   UNL A   1      41.121  27.900  29.505  1.00  0.00    -0.014 A 
BRANCH  38  39
ATOM     39  C   UNL A   1      40.873  28.632  30.802  1.00  0.00     0.031 A 
ATOM     40  C   UNL A   1      39.720  29.616  30.916  1.00  0.00     0.074 A 
ATOM     41  C   UNL A   1      41.633  28.460  31.905  1.00  0.00     0.049 A 
ATOM     42  N   UNL A   1      39.528  30.581  31.785  1.00  0.00    -0.248 NA
ATOM     43  C   UNL A   1      38.656  29.513  29.905  1.00  0.00     0.031 C 
ATOM     44  C   UNL A   1      42.745  27.523  32.048  1.00  0.00     0.029 A 
ATOM     45  N   UNL A   1      41.578  29.085  33.136  1.00  0.00    -0.354 N 
ATOM     46  C   UNL A   1      38.395  31.268  31.355  1.00  0.00     0.074 A 
ATOM     47  C   UNL A   1      37.925  30.587  30.166  1.00  0.00     0.031 C 
ATOM     48  C   UNL A   1      43.228  27.591  33.298  1.00  0.00     0.029 A 
ATOM     49  C   UNL A   1      42.555  28.672  34.011  1.00  0.00     0.049 A 
ATOM     50  H   UNL A   1      40.902  29.763  33.364  1.00  0.00     0.167 HD
ATOM     51  C   UNL A   1      37.806  32.368  31.889  1.00  0.00     0.037 A 
ATOM     52  C   UNL A   1      42.938  29.140  35.218  1.00  0.00     0.037 A 
ATOM     53  C   UNL A   1      38.184  32.979  33.140  1.00  0.00     0.049 A 
ATOM     54  C   UNL A   1      42.276  30.350  35.809  1.00  0.00     0.074 A 
ATOM     55  C   UNL A   1      37.615  34.073  33.772  1.00  0.00     0.029 A 
ATOM     56  N   UNL A   1      39.201  32.531  33.968  1.00  0.00    -0.354 N 
ATOM     57  N   UNL A   1      41.300  31.075  35.323  1.00  0.00    -0.248 NA
ATOM     58  C   UNL A   1      42.797  30.830  37.100  1.00  0.00     0.031 C 
ATOM     59  C   UNL A   1      38.304  34.302  34.969  1.00  0.00     0.029 A 
ATOM     60  C   UNL A   1      39.278  33.327  35.101  1.00  0.00     0.049 A 
ATOM     61  H   UNL A   1      39.784  31.761  33.779  1.00  0.00     0.167 HD
ATOM     62  C   UNL A   1      41.095  32.100  36.240  1.00  0.00     0.074 A 
ATOM     63  C   UNL A   1      42.030  31.889  37.324  1.00  0.00     0.031 C 
ATOM     64  C   UNL A   1      40.214  33.129  36.178  1.00  0.00     0.037 A 
BRANCH  51  65
ATOM     65  C   UNL A   1      36.709  33.029  31.095  1.00  0.00     0.058 A 
ATOM     66  C   UNL A   1      36.943  33.692  29.881  1.00  0.00     0.135 A 
ATOM     67  C   UNL A   1      35.382  32.964  31.557  1.00  0.00     0.135 A 
ATOM     68  F   UNL A   1      38.190  33.790  29.396  1.00  0.00    -0.206 F 
ATOM     69  C   UNL A   1      35.910  34.305  29.177  1.00  0.00     0.059 A 
ATOM     70  C   UNL A   1      34.330  33.544  30.856  1.00  0.00     0.059 A 
ATOM     71  F   UNL A   1      35.097  32.332  32.707  1.00  0.00    -0.206 F 
ATOM     72  C   UNL A   1      34.607  34.232  29.676  1.00  0.00     0.060 A 
BRANCH  72  73
ATOM     73  S   UNL A   1      33.277  35.051  28.771  1.00  0.00     0.124 S 
ATOM     74  O   UNL A   1      33.959  36.238  28.267  1.00  0.00    -0.237 OA
ATOM     75  O   UNL A   1      32.916  34.054  27.769  1.00  0.00    -0.237 OA
ATOM     76  O   UNL A   1      32.269  35.295  29.797  1.00  0.00    -0.744 OA
ENDBRANCH  72  73
ENDBRANCH  51  65
BRANCH  52  77
ATOM     77  C   UNL A   1      44.076  28.484  35.916  1.00  0.00     0.058 A 
ATOM     78  C   UNL A   1      43.868  27.389  36.766  1.00  0.00     0.135 A 
ATOM     79  C   UNL A   1      45.399  28.893  35.684  1.00  0.00     0.135 A 
ATOM     80  F   UNL A   1      42.619  26.979  37.037  1.00  0.00    -0.206 F 
ATOM     81  C   UNL A   1      44.932  26.701  37.337  1.00  0.00     0.059 A 
ATOM     82  C   UNL A   1      46.480  28.205  36.220  1.00  0.00     0.059 A 
ATOM     83  F   UNL A   1      45.648  29.934  34.874  1.00  0.00    -0.206 F 
ATOM     84  C   UNL A   1      46.237  27.105  37.043  1.00  0.00     0.060 A 
BRANCH  84  85
ATOM     85  S   UNL A   1      47.617  26.120  37.663  1.00  0.00     0.124 S 
ATOM     86  O   UNL A   1      47.689  26.556  39.052  1.00  0.00    -0.237 OA
ATOM     87  O   UNL A   1      47.147  24.755  37.443  1.00  0.00    -0.237 OA
ATOM     88  O   UNL A   1      48.729  26.532  36.810  1.00  0.00    -0.744 OA
ENDBRANCH  84  85
ENDBRANCH  52  77
BRANCH  64  89
ATOM     89  C   UNL A   1      40.205  34.106  37.322  1.00  0.00     0.058 A 
ATOM     90  C   UNL A   1      39.371  33.924  38.436  1.00  0.00     0.135 A 
ATOM     91  C   UNL A   1      41.058  35.222  37.318  1.00  0.00     0.135 A 
ATOM     92  F   UNL A   1      38.530  32.879  38.487  1.00  0.00    -0.206 F 
ATOM     93  C   UNL A   1      39.366  34.825  39.498  1.00  0.00     0.059 A 
ATOM     94  C   UNL A   1      41.084  36.125  38.378  1.00  0.00     0.059 A 
ATOM     95  F   UNL A   1      41.881  35.439  36.280  1.00  0.00    -0.206 F 
ATOM     96  C   UNL A   1      40.226  35.925  39.458  1.00  0.00     0.060 A 
BRANCH  96  97
ATOM     97  S   UNL A   1      40.222  37.081  40.846  1.00  0.00     0.124 S 
ATOM     98  O   UNL A   1      40.412  38.358  40.165  1.00  0.00    -0.237 OA
ATOM     99  O   UNL A   1      38.903  36.865  41.433  1.00  0.00    -0.237 OA
ATOM    100  O   UNL A   1      41.346  36.633  41.663  1.00  0.00    -0.744 OA
ENDBRANCH  96  97
ENDBRANCH  64  89
ENDBRANCH  38  39
ENDBRANCH  31  33
ENDBRANCH  30  31
ENDBRANCH  29  30
ENDBRANCH  28  29
ENDBRANCH   1  28
TORSDOF 21
ENDMDL
