MODEL 1
REMARK VINA RESULT:     -12.6      0.000      0.000
REMARK SMILES O=C(OCCOC(=O)c1ccccc1C(=O)Nc1ccc(N2C(=O)[C@H]3[C@@H]4CC[C@@H](C4)[C@@H]3C2=O)cc1)c1ccc(-c2c3nc(c(-c4c(F)cc(S(=O)(=O)[O-])cc4F)c4ccc([nH]4)c(-c4c(F)cc(S(=O)(=O)[O-])cc4F)c4nc(c(-c5c(F)cc(S(=O)(=O)[O-])cc5F)c5ccc2[nH]5)C=C4)C=C3)cc1
REMARK SMILES IDX 4 1 3 2 2 3 1 4 36 5 37 6 101 7 38 8 100 9 39 10 40 11 41 12
REMARK SMILES IDX 94 13 42 14 99 15 93 16 95 17 43 18 98 19 92 20 91 21 44 23
REMARK SMILES IDX 78 24 57 25 77 26 58 27 61 28 76 29 96 30 59 31 60 32 75 34
REMARK SMILES IDX 97 35 62 36 45 37 46 38 55 39 47 40 48 41 54 42 56 43 49 44
REMARK SMILES IDX 50 45 51 46 52 47 53 48 79 49 80 50 89 51 81 52 82 53 88 54
REMARK SMILES IDX 90 55 83 56 84 57 85 58 86 59 87 60 63 61 64 62 73 63 65 64
REMARK SMILES IDX 66 65 72 66 74 67 67 68 68 69 69 70 70 71 71 72 5 73 6 74
REMARK SMILES IDX 7 75 8 76 9 77 10 78 14 79 11 80 13 81 12 82 15 83 16 84
REMARK SMILES IDX 17 85 18 87 19 88 35 89 20 90 34 91 21 92 22 93 23 94 32 95
REMARK SMILES IDX 24 96 25 97 31 98 33 99 26 100 29 101 27 102 30 103 28 104
REMARK H PARENT 95 22 61 33 17 86
REMARK Flexibility Score: inf
ROOT
ATOM      1  C   UNL A   1      32.432  30.847  26.801  1.00  0.00     0.275 C 
ENDROOT
BRANCH   1   2
ATOM      2  O   UNL A   1      33.837  30.728  27.065  1.00  0.00    -0.458 OA
BRANCH   2   3
ATOM      3  C   UNL A   1      34.522  31.320  28.073  1.00  0.00     0.338 C 
ATOM      4  O   UNL A   1      34.209  32.430  28.489  1.00  0.00    -0.246 OA
BRANCH   3   5
ATOM      5  C   UNL A   1      35.788  30.702  28.529  1.00  0.00     0.060 A 
ATOM      6  C   UNL A   1      35.924  30.049  29.756  1.00  0.00     0.016 A 
ATOM      7  C   UNL A   1      36.876  30.758  27.649  1.00  0.00     0.016 A 
ATOM      8  C   UNL A   1      37.057  29.300  30.027  1.00  0.00     0.010 A 
ATOM      9  C   UNL A   1      38.055  30.078  27.952  1.00  0.00     0.010 A 
ATOM     10  C   UNL A   1      38.135  29.345  29.142  1.00  0.00    -0.014 A 
BRANCH  10  11
ATOM     11  C   UNL A   1      39.444  28.971  29.691  1.00  0.00     0.031 A 
ATOM     12  C   UNL A   1      39.950  29.859  30.788  1.00  0.00     0.074 A 
ATOM     13  C   UNL A   1      40.084  27.856  29.305  1.00  0.00     0.049 A 
ATOM     14  N   UNL A   1      40.980  29.697  31.565  1.00  0.00    -0.248 NA
ATOM     15  C   UNL A   1      39.140  31.057  31.100  1.00  0.00     0.031 C 
ATOM     16  C   UNL A   1      39.589  26.891  28.328  1.00  0.00     0.029 A 
ATOM     17  N   UNL A   1      41.297  27.354  29.684  1.00  0.00    -0.354 N 
ATOM     18  C   UNL A   1      40.897  30.721  32.496  1.00  0.00     0.074 A 
ATOM     19  C   UNL A   1      39.742  31.522  32.180  1.00  0.00     0.031 C 
ATOM     20  C   UNL A   1      40.533  25.957  28.114  1.00  0.00     0.029 A 
ATOM     21  C   UNL A   1      41.691  26.261  28.948  1.00  0.00     0.049 A 
ATOM     22  H   UNL A   1      41.838  27.739  30.412  1.00  0.00     0.167 HD
ATOM     23  C   UNL A   1      41.723  30.964  33.533  1.00  0.00     0.037 A 
ATOM     24  C   UNL A   1      42.876  25.620  28.946  1.00  0.00     0.037 A 
ATOM     25  C   UNL A   1      42.927  30.221  33.743  1.00  0.00     0.049 A 
ATOM     26  C   UNL A   1      43.903  26.066  29.959  1.00  0.00     0.074 A 
ATOM     27  C   UNL A   1      43.893  30.395  34.711  1.00  0.00     0.029 A 
ATOM     28  N   UNL A   1      43.351  29.188  32.916  1.00  0.00    -0.354 N 
ATOM     29  N   UNL A   1      43.787  26.984  30.892  1.00  0.00    -0.248 NA
ATOM     30  C   UNL A   1      45.208  25.397  29.935  1.00  0.00     0.031 C 
ATOM     31  C   UNL A   1      44.937  29.508  34.427  1.00  0.00     0.029 A 
ATOM     32  C   UNL A   1      44.598  28.752  33.312  1.00  0.00     0.049 A 
ATOM     33  H   UNL A   1      42.838  28.821  32.160  1.00  0.00     0.167 HD
ATOM     34  C   UNL A   1      44.988  26.980  31.589  1.00  0.00     0.074 A 
ATOM     35  C   UNL A   1      45.820  25.969  30.964  1.00  0.00     0.031 C 
ATOM     36  C   UNL A   1      45.374  27.730  32.651  1.00  0.00     0.037 A 
BRANCH  23  37
ATOM     37  C   UNL A   1      41.366  32.110  34.425  1.00  0.00     0.058 A 
ATOM     38  C   UNL A   1      41.896  33.393  34.215  1.00  0.00     0.135 A 
ATOM     39  C   UNL A   1      40.541  31.911  35.541  1.00  0.00     0.135 A 
ATOM     40  F   UNL A   1      42.735  33.619  33.191  1.00  0.00    -0.206 F 
ATOM     41  C   UNL A   1      41.623  34.441  35.086  1.00  0.00     0.059 A 
ATOM     42  C   UNL A   1      40.243  32.947  36.419  1.00  0.00     0.059 A 
ATOM     43  F   UNL A   1      40.048  30.691  35.806  1.00  0.00    -0.206 F 
ATOM     44  C   UNL A   1      40.795  34.207  36.186  1.00  0.00     0.060 A 
BRANCH  44  45
ATOM     45  S   UNL A   1      40.446  35.577  37.309  1.00  0.00     0.124 S 
ATOM     46  O   UNL A   1      39.652  36.459  36.459  1.00  0.00    -0.237 OA
ATOM     47  O   UNL A   1      39.722  34.916  38.390  1.00  0.00    -0.237 OA
ATOM     48  O   UNL A   1      41.774  36.074  37.659  1.00  0.00    -0.744 OA
ENDBRANCH  44  45
ENDBRANCH  23  37
BRANCH  24  49
ATOM     49  C   UNL A   1      43.179  24.575  27.929  1.00  0.00     0.058 A 
ATOM     50  C   UNL A   1      42.952  23.212  28.166  1.00  0.00     0.135 A 
ATOM     51  C   UNL A   1      43.761  24.928  26.698  1.00  0.00     0.135 A 
ATOM     52  F   UNL A   1      42.405  22.816  29.325  1.00  0.00    -0.206 F 
ATOM     53  C   UNL A   1      43.320  22.236  27.240  1.00  0.00     0.059 A 
ATOM     54  C   UNL A   1      44.118  23.975  25.749  1.00  0.00     0.059 A 
ATOM     55  F   UNL A   1      43.996  26.219  26.408  1.00  0.00    -0.206 F 
ATOM     56  C   UNL A   1      43.912  22.627  26.037  1.00  0.00     0.060 A 
BRANCH  56  57
ATOM     57  S   UNL A   1      44.409  21.355  24.852  1.00  0.00     0.124 S 
ATOM     58  O   UNL A   1      45.719  20.973  25.366  1.00  0.00    -0.237 OA
ATOM     59  O   UNL A   1      43.350  20.365  25.002  1.00  0.00    -0.237 OA
ATOM     60  O   UNL A   1      44.417  22.068  23.578  1.00  0.00    -0.744 OA
ENDBRANCH  56  57
ENDBRANCH  24  49
BRANCH  36  61
ATOM     61  C   UNL A   1      46.738  27.473  33.210  1.00  0.00     0.058 A 
ATOM     62  C   UNL A   1      46.951  26.484  34.178  1.00  0.00     0.135 A 
ATOM     63  C   UNL A   1      47.852  28.141  32.678  1.00  0.00     0.135 A 
ATOM     64  F   UNL A   1      45.910  25.827  34.715  1.00  0.00    -0.206 F 
ATOM     65  C   UNL A   1      48.232  26.159  34.602  1.00  0.00     0.059 A 
ATOM     66  C   UNL A   1      49.143  27.814  33.069  1.00  0.00     0.059 A 
ATOM     67  F   UNL A   1      47.690  29.086  31.738  1.00  0.00    -0.206 F 
ATOM     68  C   UNL A   1      49.322  26.821  34.032  1.00  0.00     0.060 A 
BRANCH  68  69
ATOM     69  S   UNL A   1      50.985  26.328  34.523  1.00  0.00     0.124 S 
ATOM     70  O   UNL A   1      51.128  27.014  35.802  1.00  0.00    -0.237 OA
ATOM     71  O   UNL A   1      50.874  24.874  34.590  1.00  0.00    -0.237 OA
ATOM     72  O   UNL A   1      51.822  26.835  33.439  1.00  0.00    -0.744 OA
ENDBRANCH  68  69
ENDBRANCH  36  61
ENDBRANCH  10  11
ENDBRANCH   3   5
ENDBRANCH   2   3
ENDBRANCH   1   2
BRANCH   1  73
ATOM     73  C   UNL A   1      31.803  29.995  25.688  1.00  0.00     0.275 C 
BRANCH  73  74
ATOM     74  O   UNL A   1      32.578  29.482  24.591  1.00  0.00    -0.458 OA
BRANCH  74  75
ATOM     75  C   UNL A   1      33.079  28.231  24.710  1.00  0.00     0.339 C 
ATOM     76  O   UNL A   1      34.092  27.908  25.313  1.00  0.00    -0.246 OA
BRANCH  75  77
ATOM     77  C   UNL A   1      32.165  27.229  24.116  1.00  0.00     0.072 A 
ATOM     78  C   UNL A   1      32.080  27.261  22.709  1.00  0.00     0.016 A 
ATOM     79  C   UNL A   1      31.437  26.264  24.826  1.00  0.00     0.054 A 
ATOM     80  C   UNL A   1      31.424  26.252  22.003  1.00  0.00     0.001 A 
ATOM     81  C   UNL A   1      30.775  25.252  24.093  1.00  0.00     0.015 A 
ATOM     82  C   UNL A   1      30.797  25.228  22.697  1.00  0.00     0.001 A 
BRANCH  79  83
ATOM     83  C   UNL A   1      31.362  26.114  26.301  1.00  0.00     0.256 C 
ATOM     84  O   UNL A   1      30.653  26.914  26.920  1.00  0.00    -0.269 OA
ATOM     85  N   UNL A   1      31.984  25.128  27.034  1.00  0.00    -0.322 N 
ATOM     86  H   UNL A   1      31.755  25.139  27.992  1.00  0.00     0.170 HD
BRANCH  85  87
ATOM     87  C   UNL A   1      32.878  24.115  26.677  1.00  0.00     0.041 A 
ATOM     88  C   UNL A   1      32.955  23.030  27.551  1.00  0.00     0.028 A 
ATOM     89  C   UNL A   1      33.557  24.067  25.465  1.00  0.00     0.028 A 
ATOM     90  C   UNL A   1      33.407  21.796  27.075  1.00  0.00     0.029 A 
ATOM     91  C   UNL A   1      34.107  22.854  25.029  1.00  0.00     0.029 A 
ATOM     92  C   UNL A   1      33.903  21.681  25.775  1.00  0.00     0.052 A 
BRANCH  92  93
ATOM     93  N   UNL A   1      33.963  20.427  25.122  1.00  0.00    -0.250 N 
ATOM     94  C   UNL A   1      32.840  19.682  24.748  1.00  0.00     0.237 C 
ATOM     95  C   UNL A   1      35.156  19.689  24.970  1.00  0.00     0.237 C 
ATOM     96  O   UNL A   1      31.698  20.043  24.522  1.00  0.00    -0.274 OA
ATOM     97  C   UNL A   1      33.321  18.274  24.820  1.00  0.00     0.095 C 
ATOM     98  C   UNL A   1      34.721  18.440  24.268  1.00  0.00     0.095 C 
ATOM     99  O   UNL A   1      36.315  20.022  25.149  1.00  0.00    -0.274 OA
ATOM    100  C   UNL A   1      32.892  16.947  24.182  1.00  0.00     0.002 C 
ATOM    101  C   UNL A   1      35.158  16.981  24.167  1.00  0.00     0.002 C 
ATOM    102  C   UNL A   1      33.234  15.895  25.258  1.00  0.00     0.005 C 
ATOM    103  C   UNL A   1      34.025  16.574  23.190  1.00  0.00     0.009 C 
ATOM    104  C   UNL A   1      34.779  16.075  25.379  1.00  0.00     0.005 C 
ENDBRANCH  92  93
ENDBRANCH  85  87
ENDBRANCH  79  83
ENDBRANCH  75  77
ENDBRANCH  74  75
ENDBRANCH  73  74
ENDBRANCH   1  73
TORSDOF 17
ENDMDL
MODEL 2
REMARK VINA RESULT:     -12.6      4.636      8.700
REMARK SMILES O=C(OCCOC(=O)c1ccccc1C(=O)Nc1ccc(N2C(=O)[C@H]3[C@@H]4CC[C@@H](C4)[C@@H]3C2=O)cc1)c1ccc(-c2c3nc(c(-c4c(F)cc(S(=O)(=O)[O-])cc4F)c4ccc([nH]4)c(-c4c(F)cc(S(=O)(=O)[O-])cc4F)c4nc(c(-c5c(F)cc(S(=O)(=O)[O-])cc5F)c5ccc2[nH]5)C=C4)C=C3)cc1
REMARK SMILES IDX 4 1 3 2 2 3 1 4 36 5 37 6 101 7 38 8 100 9 39 10 40 11 41 12
REMARK SMILES IDX 94 13 42 14 99 15 93 16 95 17 43 18 98 19 92 20 91 21 44 23
REMARK SMILES IDX 78 24 57 25 77 26 58 27 61 28 76 29 96 30 59 31 60 32 75 34
REMARK SMILES IDX 97 35 62 36 45 37 46 38 55 39 47 40 48 41 54 42 56 43 49 44
REMARK SMILES IDX 50 45 51 46 52 47 53 48 79 49 80 50 89 51 81 52 82 53 88 54
REMARK SMILES IDX 90 55 83 56 84 57 85 58 86 59 87 60 63 61 64 62 73 63 65 64
REMARK SMILES IDX 66 65 72 66 74 67 67 68 68 69 69 70 70 71 71 72 5 73 6 74
REMARK SMILES IDX 7 75 8 76 9 77 10 78 14 79 11 80 13 81 12 82 15 83 16 84
REMARK SMILES IDX 17 85 18 87 19 88 35 89 20 90 34 91 21 92 22 93 23 94 32 95
REMARK SMILES IDX 24 96 25 97 31 98 33 99 26 100 29 101 27 102 30 103 28 104
REMARK H PARENT 95 22 61 33 17 86
REMARK Flexibility Score: inf
ROOT
ATOM      1  C   UNL A   1      34.589  31.063  27.770  1.00  0.00     0.275 C 
ENDROOT
BRANCH   1   2
ATOM      2  O   UNL A   1      36.015  31.188  27.867  1.00  0.00    -0.458 OA
BRANCH   2   3
ATOM      3  C   UNL A   1      36.773  30.956  28.966  1.00  0.00     0.338 C 
ATOM      4  O   UNL A   1      36.403  31.311  30.080  1.00  0.00    -0.246 OA
BRANCH   3   5
ATOM      5  C   UNL A   1      38.155  30.458  28.782  1.00  0.00     0.060 A 
ATOM      6  C   UNL A   1      39.177  30.672  29.710  1.00  0.00     0.016 A 
ATOM      7  C   UNL A   1      38.412  29.704  27.630  1.00  0.00     0.016 A 
ATOM      8  C   UNL A   1      40.379  29.994  29.595  1.00  0.00     0.010 A 
ATOM      9  C   UNL A   1      39.650  29.087  27.461  1.00  0.00     0.010 A 
ATOM     10  C   UNL A   1      40.627  29.232  28.452  1.00  0.00    -0.014 A 
BRANCH  10  11
ATOM     11  C   UNL A   1      42.038  28.965  28.142  1.00  0.00     0.031 A 
ATOM     12  C   UNL A   1      42.378  27.522  27.921  1.00  0.00     0.074 A 
ATOM     13  C   UNL A   1      42.926  29.956  27.970  1.00  0.00     0.049 A 
ATOM     14  N   UNL A   1      43.485  26.999  27.483  1.00  0.00    -0.248 NA
ATOM     15  C   UNL A   1      41.297  26.541  28.154  1.00  0.00     0.031 C 
ATOM     16  C   UNL A   1      42.630  31.384  28.057  1.00  0.00     0.029 A 
ATOM     17  N   UNL A   1      44.264  29.910  27.696  1.00  0.00    -0.354 N 
ATOM     18  C   UNL A   1      43.208  25.650  27.318  1.00  0.00     0.074 A 
ATOM     19  C   UNL A   1      41.847  25.418  27.729  1.00  0.00     0.031 C 
ATOM     20  C   UNL A   1      43.775  32.079  27.932  1.00  0.00     0.029 A 
ATOM     21  C   UNL A   1      44.876  31.140  27.747  1.00  0.00     0.049 A 
ATOM     22  H   UNL A   1      44.744  29.076  27.484  1.00  0.00     0.167 HD
ATOM     23  C   UNL A   1      44.032  24.688  26.856  1.00  0.00     0.037 A 
ATOM     24  C   UNL A   1      46.188  31.440  27.684  1.00  0.00     0.037 A 
ATOM     25  C   UNL A   1      45.413  24.932  26.574  1.00  0.00     0.049 A 
ATOM     26  C   UNL A   1      47.143  30.304  27.407  1.00  0.00     0.074 A 
ATOM     27  C   UNL A   1      46.382  24.044  26.162  1.00  0.00     0.029 A 
ATOM     28  N   UNL A   1      46.027  26.169  26.738  1.00  0.00    -0.354 N 
ATOM     29  N   UNL A   1      46.865  29.040  27.173  1.00  0.00    -0.248 NA
ATOM     30  C   UNL A   1      48.575  30.619  27.376  1.00  0.00     0.031 C 
ATOM     31  C   UNL A   1      47.601  24.729  26.143  1.00  0.00     0.029 A 
ATOM     32  C   UNL A   1      47.381  26.055  26.497  1.00  0.00     0.049 A 
ATOM     33  H   UNL A   1      45.566  27.001  26.990  1.00  0.00     0.167 HD
ATOM     34  C   UNL A   1      48.082  28.417  26.931  1.00  0.00     0.074 A 
ATOM     35  C   UNL A   1      49.100  29.443  27.054  1.00  0.00     0.031 C 
ATOM     36  C   UNL A   1      48.343  27.121  26.627  1.00  0.00     0.037 A 
BRANCH  23  37
ATOM     37  C   UNL A   1      43.455  23.315  26.723  1.00  0.00     0.058 A 
ATOM     38  C   UNL A   1      43.196  22.518  27.849  1.00  0.00     0.135 A 
ATOM     39  C   UNL A   1      43.224  22.762  25.455  1.00  0.00     0.135 A 
ATOM     40  F   UNL A   1      43.454  22.984  29.082  1.00  0.00    -0.206 F 
ATOM     41  C   UNL A   1      42.729  21.214  27.722  1.00  0.00     0.059 A 
ATOM     42  C   UNL A   1      42.745  21.465  25.304  1.00  0.00     0.059 A 
ATOM     43  F   UNL A   1      43.500  23.472  24.350  1.00  0.00    -0.206 F 
ATOM     44  C   UNL A   1      42.507  20.697  26.444  1.00  0.00     0.060 A 
BRANCH  44  45
ATOM     45  S   UNL A   1      41.900  19.004  26.293  1.00  0.00     0.124 S 
ATOM     46  O   UNL A   1      41.963  18.546  27.678  1.00  0.00    -0.237 OA
ATOM     47  O   UNL A   1      40.560  19.202  25.751  1.00  0.00    -0.237 OA
ATOM     48  O   UNL A   1      42.856  18.382  25.383  1.00  0.00    -0.744 OA
ENDBRANCH  44  45
ENDBRANCH  23  37
BRANCH  24  49
ATOM     49  C   UNL A   1      46.671  32.822  27.959  1.00  0.00     0.058 A 
ATOM     50  C   UNL A   1      46.715  33.811  26.967  1.00  0.00     0.135 A 
ATOM     51  C   UNL A   1      47.156  33.165  29.235  1.00  0.00     0.135 A 
ATOM     52  F   UNL A   1      46.274  33.539  25.730  1.00  0.00    -0.206 F 
ATOM     53  C   UNL A   1      47.251  35.075  27.215  1.00  0.00     0.059 A 
ATOM     54  C   UNL A   1      47.675  34.426  29.513  1.00  0.00     0.059 A 
ATOM     55  F   UNL A   1      47.132  32.264  30.230  1.00  0.00    -0.206 F 
ATOM     56  C   UNL A   1      47.737  35.370  28.490  1.00  0.00     0.060 A 
BRANCH  56  57
ATOM     57  S   UNL A   1      48.452  37.002  28.798  1.00  0.00     0.124 S 
ATOM     58  O   UNL A   1      47.257  37.826  28.928  1.00  0.00    -0.237 OA
ATOM     59  O   UNL A   1      49.211  36.779  30.023  1.00  0.00    -0.237 OA
ATOM     60  O   UNL A   1      49.258  37.245  27.605  1.00  0.00    -0.744 OA
ENDBRANCH  56  57
ENDBRANCH  24  49
BRANCH  36  61
ATOM     61  C   UNL A   1      49.774  26.750  26.390  1.00  0.00     0.058 A 
ATOM     62  C   UNL A   1      50.544  26.150  27.394  1.00  0.00     0.135 A 
ATOM     63  C   UNL A   1      50.331  26.887  25.109  1.00  0.00     0.135 A 
ATOM     64  F   UNL A   1      50.048  26.008  28.634  1.00  0.00    -0.206 F 
ATOM     65  C   UNL A   1      51.827  25.690  27.136  1.00  0.00     0.059 A 
ATOM     66  C   UNL A   1      51.603  26.411  24.823  1.00  0.00     0.059 A 
ATOM     67  F   UNL A   1      49.620  27.444  24.117  1.00  0.00    -0.206 F 
ATOM     68  C   UNL A   1      52.343  25.814  25.843  1.00  0.00     0.060 A 
BRANCH  68  69
ATOM     69  S   UNL A   1      53.976  25.132  25.495  1.00  0.00     0.124 S 
ATOM     70  O   UNL A   1      54.721  25.539  26.681  1.00  0.00    -0.237 OA
ATOM     71  O   UNL A   1      53.699  23.703  25.378  1.00  0.00    -0.237 OA
ATOM     72  O   UNL A   1      54.360  25.792  24.252  1.00  0.00    -0.744 OA
ENDBRANCH  68  69
ENDBRANCH  36  61
ENDBRANCH  10  11
ENDBRANCH   3   5
ENDBRANCH   2   3
ENDBRANCH   1   2
BRANCH   1  73
ATOM     73  C   UNL A   1      33.987  29.795  27.146  1.00  0.00     0.275 C 
BRANCH  73  74
ATOM     74  O   UNL A   1      33.090  29.852  26.023  1.00  0.00    -0.458 OA
BRANCH  74  75
ATOM     75  C   UNL A   1      33.179  28.865  25.102  1.00  0.00     0.339 C 
ATOM     76  O   UNL A   1      34.202  28.314  24.723  1.00  0.00    -0.246 OA
BRANCH  75  77
ATOM     77  C   UNL A   1      31.837  28.410  24.673  1.00  0.00     0.072 A 
ATOM     78  C   UNL A   1      31.366  28.989  23.477  1.00  0.00     0.016 A 
ATOM     79  C   UNL A   1      31.049  27.453  25.329  1.00  0.00     0.054 A 
ATOM     80  C   UNL A   1      30.218  28.509  22.846  1.00  0.00     0.001 A 
ATOM     81  C   UNL A   1      29.887  26.981  24.676  1.00  0.00     0.015 A 
ATOM     82  C   UNL A   1      29.495  27.481  23.432  1.00  0.00     0.001 A 
BRANCH  79  83
ATOM     83  C   UNL A   1      31.355  26.782  26.617  1.00  0.00     0.256 C 
ATOM     84  O   UNL A   1      31.426  27.490  27.626  1.00  0.00    -0.269 OA
ATOM     85  N   UNL A   1      31.524  25.426  26.788  1.00  0.00    -0.322 N 
ATOM     86  H   UNL A   1      31.640  25.154  27.727  1.00  0.00     0.170 HD
BRANCH  85  87
ATOM     87  C   UNL A   1      31.559  24.363  25.882  1.00  0.00     0.041 A 
ATOM     88  C   UNL A   1      32.565  24.416  24.914  1.00  0.00     0.028 A 
ATOM     89  C   UNL A   1      30.768  23.224  25.983  1.00  0.00     0.028 A 
ATOM     90  C   UNL A   1      32.995  23.234  24.306  1.00  0.00     0.029 A 
ATOM     91  C   UNL A   1      31.135  22.063  25.289  1.00  0.00     0.029 A 
ATOM     92  C   UNL A   1      32.336  22.030  24.562  1.00  0.00     0.052 A 
BRANCH  92  93
ATOM     93  N   UNL A   1      32.967  20.785  24.327  1.00  0.00    -0.250 N 
ATOM     94  C   UNL A   1      32.528  19.847  23.387  1.00  0.00     0.237 C 
ATOM     95  C   UNL A   1      33.976  20.258  25.162  1.00  0.00     0.237 C 
ATOM     96  O   UNL A   1      31.863  19.999  22.378  1.00  0.00    -0.274 OA
ATOM     97  C   UNL A   1      32.950  18.546  23.977  1.00  0.00     0.095 C 
ATOM     98  C   UNL A   1      34.298  18.932  24.545  1.00  0.00     0.095 C 
ATOM     99  O   UNL A   1      34.618  20.791  26.050  1.00  0.00    -0.274 OA
ATOM    100  C   UNL A   1      33.238  17.145  23.421  1.00  0.00     0.002 C 
ATOM    101  C   UNL A   1      34.817  17.567  24.991  1.00  0.00     0.002 C 
ATOM    102  C   UNL A   1      32.811  16.202  24.564  1.00  0.00     0.005 C 
ATOM    103  C   UNL A   1      34.768  16.942  23.573  1.00  0.00     0.009 C 
ATOM    104  C   UNL A   1      33.778  16.648  25.704  1.00  0.00     0.005 C 
ENDBRANCH  92  93
ENDBRANCH  85  87
ENDBRANCH  79  83
ENDBRANCH  75  77
ENDBRANCH  74  75
ENDBRANCH  73  74
ENDBRANCH   1  73
TORSDOF 17
ENDMDL
MODEL 3
REMARK VINA RESULT:     -12.6      3.060      8.194
REMARK SMILES O=C(OCCOC(=O)c1ccccc1C(=O)Nc1ccc(N2C(=O)[C@H]3[C@@H]4CC[C@@H](C4)[C@@H]3C2=O)cc1)c1ccc(-c2c3nc(c(-c4c(F)cc(S(=O)(=O)[O-])cc4F)c4ccc([nH]4)c(-c4c(F)cc(S(=O)(=O)[O-])cc4F)c4nc(c(-c5c(F)cc(S(=O)(=O)[O-])cc5F)c5ccc2[nH]5)C=C4)C=C3)cc1
REMARK SMILES IDX 4 1 3 2 2 3 1 4 36 5 37 6 101 7 38 8 100 9 39 10 40 11 41 12
REMARK SMILES IDX 94 13 42 14 99 15 93 16 95 17 43 18 98 19 92 20 91 21 44 23
REMARK SMILES IDX 78 24 57 25 77 26 58 27 61 28 76 29 96 30 59 31 60 32 75 34
REMARK SMILES IDX 97 35 62 36 45 37 46 38 55 39 47 40 48 41 54 42 56 43 49 44
REMARK SMILES IDX 50 45 51 46 52 47 53 48 79 49 80 50 89 51 81 52 82 53 88 54
REMARK SMILES IDX 90 55 83 56 84 57 85 58 86 59 87 60 63 61 64 62 73 63 65 64
REMARK SMILES IDX 66 65 72 66 74 67 67 68 68 69 69 70 70 71 71 72 5 73 6 74
REMARK SMILES IDX 7 75 8 76 9 77 10 78 14 79 11 80 13 81 12 82 15 83 16 84
REMARK SMILES IDX 17 85 18 87 19 88 35 89 20 90 34 91 21 92 22 93 23 94 32 95
REMARK SMILES IDX 24 96 25 97 31 98 33 99 26 100 29 101 27 102 30 103 28 104
REMARK H PARENT 95 22 61 33 17 86
REMARK Flexibility Score: inf
ROOT
ATOM      1  C   UNL A   1      37.378  22.356  24.550  1.00  0.00     0.275 C 
ENDROOT
BRANCH   1   2
ATOM      2  O   UNL A   1      37.920  23.399  25.372  1.00  0.00    -0.458 OA
BRANCH   2   3
ATOM      3  C   UNL A   1      39.029  23.323  26.145  1.00  0.00     0.338 C 
ATOM      4  O   UNL A   1      39.559  22.245  26.393  1.00  0.00    -0.246 OA
BRANCH   3   5
ATOM      5  C   UNL A   1      39.475  24.536  26.867  1.00  0.00     0.060 A 
ATOM      6  C   UNL A   1      40.349  25.477  26.318  1.00  0.00     0.016 A 
ATOM      7  C   UNL A   1      38.947  24.746  28.148  1.00  0.00     0.016 A 
ATOM      8  C   UNL A   1      40.549  26.695  26.946  1.00  0.00     0.010 A 
ATOM      9  C   UNL A   1      39.213  25.932  28.827  1.00  0.00     0.010 A 
ATOM     10  C   UNL A   1      40.011  26.907  28.216  1.00  0.00    -0.014 A 
BRANCH  10  11
ATOM     11  C   UNL A   1      40.645  27.955  29.025  1.00  0.00     0.031 A 
ATOM     12  C   UNL A   1      39.839  29.209  29.186  1.00  0.00     0.074 A 
ATOM     13  C   UNL A   1      41.814  27.756  29.654  1.00  0.00     0.049 A 
ATOM     14  N   UNL A   1      40.058  30.231  29.961  1.00  0.00    -0.248 NA
ATOM     15  C   UNL A   1      38.573  29.287  28.426  1.00  0.00     0.031 C 
ATOM     16  C   UNL A   1      42.589  26.519  29.631  1.00  0.00     0.029 A 
ATOM     17  N   UNL A   1      42.559  28.601  30.429  1.00  0.00    -0.354 N 
ATOM     18  C   UNL A   1      38.930  31.028  29.837  1.00  0.00     0.074 A 
ATOM     19  C   UNL A   1      38.039  30.401  28.895  1.00  0.00     0.031 C 
ATOM     20  C   UNL A   1      43.749  26.713  30.284  1.00  0.00     0.029 A 
ATOM     21  C   UNL A   1      43.786  28.086  30.775  1.00  0.00     0.049 A 
ATOM     22  H   UNL A   1      42.247  29.491  30.711  1.00  0.00     0.167 HD
ATOM     23  C   UNL A   1      38.667  32.190  30.468  1.00  0.00     0.037 A 
ATOM     24  C   UNL A   1      44.820  28.694  31.389  1.00  0.00     0.037 A 
ATOM     25  C   UNL A   1      39.628  32.844  31.302  1.00  0.00     0.049 A 
ATOM     26  C   UNL A   1      44.597  30.104  31.881  1.00  0.00     0.074 A 
ATOM     27  C   UNL A   1      39.527  34.054  31.953  1.00  0.00     0.029 A 
ATOM     28  N   UNL A   1      40.903  32.347  31.546  1.00  0.00    -0.354 N 
ATOM     29  N   UNL A   1      43.499  30.824  31.831  1.00  0.00    -0.248 NA
ATOM     30  C   UNL A   1      45.732  30.783  32.516  1.00  0.00     0.031 C 
ATOM     31  C   UNL A   1      40.769  34.323  32.537  1.00  0.00     0.029 A 
ATOM     32  C   UNL A   1      41.626  33.257  32.289  1.00  0.00     0.049 A 
ATOM     33  H   UNL A   1      41.241  31.476  31.235  1.00  0.00     0.167 HD
ATOM     34  C   UNL A   1      43.798  32.026  32.458  1.00  0.00     0.074 A 
ATOM     35  C   UNL A   1      45.185  31.938  32.875  1.00  0.00     0.031 C 
ATOM     36  C   UNL A   1      43.006  33.104  32.681  1.00  0.00     0.037 A 
BRANCH  23  37
ATOM     37  C   UNL A   1      37.338  32.818  30.194  1.00  0.00     0.058 A 
ATOM     38  C   UNL A   1      37.169  33.747  29.155  1.00  0.00     0.135 A 
ATOM     39  C   UNL A   1      36.240  32.544  31.020  1.00  0.00     0.135 A 
ATOM     40  F   UNL A   1      38.207  34.082  28.371  1.00  0.00    -0.206 F 
ATOM     41  C   UNL A   1      35.952  34.387  28.946  1.00  0.00     0.059 A 
ATOM     42  C   UNL A   1      35.010  33.162  30.823  1.00  0.00     0.059 A 
ATOM     43  F   UNL A   1      36.368  31.697  32.054  1.00  0.00    -0.206 F 
ATOM     44  C   UNL A   1      34.878  34.087  29.787  1.00  0.00     0.060 A 
BRANCH  44  45
ATOM     45  S   UNL A   1      33.303  34.923  29.505  1.00  0.00     0.124 S 
ATOM     46  O   UNL A   1      33.739  36.156  28.855  1.00  0.00    -0.237 OA
ATOM     47  O   UNL A   1      32.596  33.974  28.653  1.00  0.00    -0.237 OA
ATOM     48  O   UNL A   1      32.759  35.082  30.850  1.00  0.00    -0.744 OA
ENDBRANCH  44  45
ENDBRANCH  23  37
BRANCH  24  49
ATOM     49  C   UNL A   1      46.146  28.025  31.497  1.00  0.00     0.058 A 
ATOM     50  C   UNL A   1      47.122  28.129  30.495  1.00  0.00     0.135 A 
ATOM     51  C   UNL A   1      46.443  27.210  32.605  1.00  0.00     0.135 A 
ATOM     52  F   UNL A   1      46.891  28.886  29.412  1.00  0.00    -0.206 F 
ATOM     53  C   UNL A   1      48.325  27.428  30.569  1.00  0.00     0.059 A 
ATOM     54  C   UNL A   1      47.646  26.517  32.711  1.00  0.00     0.059 A 
ATOM     55  F   UNL A   1      45.553  27.076  33.602  1.00  0.00    -0.206 F 
ATOM     56  C   UNL A   1      48.574  26.616  31.677  1.00  0.00     0.060 A 
BRANCH  56  57
ATOM     57  S   UNL A   1      50.125  25.691  31.753  1.00  0.00     0.124 S 
ATOM     58  O   UNL A   1      51.079  26.743  32.084  1.00  0.00    -0.237 OA
ATOM     59  O   UNL A   1      49.854  24.721  32.808  1.00  0.00    -0.237 OA
ATOM     60  O   UNL A   1      50.248  25.130  30.411  1.00  0.00    -0.744 OA
ENDBRANCH  56  57
ENDBRANCH  24  49
BRANCH  36  61
ATOM     61  C   UNL A   1      43.612  34.257  33.419  1.00  0.00     0.058 A 
ATOM     62  C   UNL A   1      44.176  35.341  32.736  1.00  0.00     0.135 A 
ATOM     63  C   UNL A   1      43.514  34.324  34.818  1.00  0.00     0.135 A 
ATOM     64  F   UNL A   1      44.293  35.311  31.399  1.00  0.00    -0.206 F 
ATOM     65  C   UNL A   1      44.621  36.466  33.416  1.00  0.00     0.059 A 
ATOM     66  C   UNL A   1      43.929  35.450  35.516  1.00  0.00     0.059 A 
ATOM     67  F   UNL A   1      42.967  33.311  35.509  1.00  0.00    -0.206 F 
ATOM     68  C   UNL A   1      44.482  36.515  34.806  1.00  0.00     0.060 A 
BRANCH  68  69
ATOM     69  S   UNL A   1      44.980  38.017  35.671  1.00  0.00     0.124 S 
ATOM     70  O   UNL A   1      44.186  39.028  34.981  1.00  0.00    -0.237 OA
ATOM     71  O   UNL A   1      44.587  37.730  37.047  1.00  0.00    -0.237 OA
ATOM     72  O   UNL A   1      46.419  38.080  35.438  1.00  0.00    -0.744 OA
ENDBRANCH  68  69
ENDBRANCH  36  61
ENDBRANCH  10  11
ENDBRANCH   3   5
ENDBRANCH   2   3
ENDBRANCH   1   2
BRANCH   1  73
ATOM     73  C   UNL A   1      36.433  22.724  23.394  1.00  0.00     0.275 C 
BRANCH  73  74
ATOM     74  O   UNL A   1      35.252  23.517  23.601  1.00  0.00    -0.458 OA
BRANCH  74  75
ATOM     75  C   UNL A   1      34.112  23.111  22.996  1.00  0.00     0.339 C 
ATOM     76  O   UNL A   1      33.702  23.471  21.902  1.00  0.00    -0.246 OA
BRANCH  75  77
ATOM     77  C   UNL A   1      33.445  22.040  23.771  1.00  0.00     0.072 A 
ATOM     78  C   UNL A   1      32.840  21.032  22.994  1.00  0.00     0.016 A 
ATOM     79  C   UNL A   1      33.409  21.945  25.169  1.00  0.00     0.054 A 
ATOM     80  C   UNL A   1      32.356  19.862  23.581  1.00  0.00     0.001 A 
ATOM     81  C   UNL A   1      32.911  20.754  25.746  1.00  0.00     0.015 A 
ATOM     82  C   UNL A   1      32.421  19.711  24.959  1.00  0.00     0.001 A 
BRANCH  79  83
ATOM     83  C   UNL A   1      33.941  22.933  26.142  1.00  0.00     0.256 C 
ATOM     84  O   UNL A   1      34.999  22.656  26.716  1.00  0.00    -0.269 OA
ATOM     85  N   UNL A   1      33.374  24.156  26.425  1.00  0.00    -0.322 N 
ATOM     86  H   UNL A   1      33.910  24.712  27.036  1.00  0.00     0.170 HD
BRANCH  85  87
ATOM     87  C   UNL A   1      32.183  24.758  26.010  1.00  0.00     0.041 A 
ATOM     88  C   UNL A   1      31.840  25.947  26.656  1.00  0.00     0.028 A 
ATOM     89  C   UNL A   1      31.429  24.326  24.925  1.00  0.00     0.028 A 
ATOM     90  C   UNL A   1      30.989  26.853  26.017  1.00  0.00     0.029 A 
ATOM     91  C   UNL A   1      30.495  25.194  24.344  1.00  0.00     0.029 A 
ATOM     92  C   UNL A   1      30.381  26.516  24.807  1.00  0.00     0.052 A 
BRANCH  92  93
ATOM     93  N   UNL A   1      29.880  27.512  23.936  1.00  0.00    -0.250 N 
ATOM     94  C   UNL A   1      30.646  28.567  23.427  1.00  0.00     0.237 C 
ATOM     95  C   UNL A   1      28.507  27.679  23.656  1.00  0.00     0.237 C 
ATOM     96  O   UNL A   1      31.850  28.656  23.265  1.00  0.00    -0.274 OA
ATOM     97  C   UNL A   1      29.649  29.658  23.242  1.00  0.00     0.095 C 
ATOM     98  C   UNL A   1      28.467  28.860  22.736  1.00  0.00     0.095 C 
ATOM     99  O   UNL A   1      27.561  26.949  23.899  1.00  0.00    -0.274 OA
ATOM    100  C   UNL A   1      29.568  30.917  22.370  1.00  0.00     0.002 C 
ATOM    101  C   UNL A   1      27.502  29.985  22.372  1.00  0.00     0.002 C 
ATOM    102  C   UNL A   1      28.770  31.913  23.237  1.00  0.00     0.005 C 
ATOM    103  C   UNL A   1      28.450  30.636  21.332  1.00  0.00     0.009 C 
ATOM    104  C   UNL A   1      27.413  31.159  23.397  1.00  0.00     0.005 C 
ENDBRANCH  92  93
ENDBRANCH  85  87
ENDBRANCH  79  83
ENDBRANCH  75  77
ENDBRANCH  74  75
ENDBRANCH  73  74
ENDBRANCH   1  73
TORSDOF 17
ENDMDL
