MODEL 1
REMARK VINA RESULT:     -12.4      0.000      0.000
REMARK SMILES C[C@@](COc1ccccc1)(NC(=O)CN1CSCC1=O)C(=O)OCCOC(=O)c1ccc(-c2c3nc(c(-c4c(F)cc(S(=O)(=O)[O-])cc4F)c4ccc([nH]4)c(-c4c(F)cc(S(=O)(=O)[O-])cc4F)c4nc(c(-c5c(F)cc(S(=O)(=O)[O-])cc5F)c5ccc2[nH]5)C=C4)C=C3)cc1
REMARK SMILES IDX 24 1 23 2 21 3 22 4 2 5 1 6 3 7 4 8 5 9 6 10 10 11 7 12 9 13
REMARK SMILES IDX 8 14 11 15 12 16 13 18 14 19 15 20 16 21 19 22 17 23 18 24
REMARK SMILES IDX 20 25 25 26 26 27 27 28 28 29 29 30 30 31 94 32 31 33 93 34
REMARK SMILES IDX 32 35 33 36 34 37 87 38 35 39 92 40 86 41 88 42 36 43 91 44
REMARK SMILES IDX 85 45 84 46 37 48 71 49 50 50 70 51 51 52 54 53 69 54 89 55
REMARK SMILES IDX 52 56 53 57 68 59 90 60 55 61 38 62 39 63 48 64 40 65 41 66
REMARK SMILES IDX 47 67 49 68 42 69 43 70 44 71 45 72 46 73 72 74 73 75 82 76
REMARK SMILES IDX 74 77 75 78 81 79 83 80 76 81 77 82 78 83 79 84 80 85 56 86
REMARK SMILES IDX 57 87 66 88 58 89 59 90 65 91 67 92 60 93 61 94 62 95 63 96
REMARK SMILES IDX 64 97
REMARK H PARENT 11 17 88 47 54 58
REMARK Flexibility Score: inf
ROOT
ATOM      1  C   UNL A   1      35.757  23.040  23.583  1.00  0.00     0.274 C 
ENDROOT
BRANCH   1   2
ATOM      2  O   UNL A   1      34.453  22.388  23.415  1.00  0.00    -0.460 OA
BRANCH   2   3
ATOM      3  C   UNL A   1      33.297  22.971  23.880  1.00  0.00     0.335 C 
ATOM      4  O   UNL A   1      32.828  23.993  23.391  1.00  0.00    -0.249 OA
BRANCH   3   5
ATOM      5  C   UNL A   1      32.548  22.079  24.967  1.00  0.00     0.169 C 
ATOM      6  C   UNL A   1      33.537  21.726  26.079  1.00  0.00     0.051 C 
BRANCH   5   7
ATOM      7  C   UNL A   1      32.128  20.695  24.362  1.00  0.00     0.269 C 
BRANCH   7   8
ATOM      8  O   UNL A   1      32.190  19.624  25.366  1.00  0.00    -0.491 OA
BRANCH   8   9
ATOM      9  C   UNL A   1      32.755  18.444  24.941  1.00  0.00     0.119 A 
ATOM     10  C   UNL A   1      33.444  18.356  23.732  1.00  0.00     0.046 A 
ATOM     11  C   UNL A   1      32.647  17.310  25.760  1.00  0.00     0.046 A 
ATOM     12  C   UNL A   1      34.094  17.165  23.386  1.00  0.00     0.004 A 
ATOM     13  C   UNL A   1      33.334  16.136  25.432  1.00  0.00     0.004 A 
ATOM     14  C   UNL A   1      34.062  16.066  24.246  1.00  0.00     0.000 A 
ENDBRANCH   8   9
ENDBRANCH   7   8
ENDBRANCH   5   7
BRANCH   5  15
ATOM     15  N   UNL A   1      31.320  22.667  25.577  1.00  0.00    -0.336 N 
ATOM     16  C   UNL A   1      31.124  23.575  26.567  1.00  0.00     0.240 C 
ATOM     17  H   UNL A   1      30.484  22.328  25.183  1.00  0.00     0.164 HD
ATOM     18  O   UNL A   1      30.128  23.403  27.279  1.00  0.00    -0.273 OA
BRANCH  16  19
ATOM     19  C   UNL A   1      31.928  24.864  26.666  1.00  0.00     0.220 C 
BRANCH  19  20
ATOM     20  N   UNL A   1      31.897  26.054  25.817  1.00  0.00    -0.323 N 
ATOM     21  C   UNL A   1      33.333  27.286  26.188  1.00  0.00     0.190 C 
ATOM     22  C   UNL A   1      30.502  26.716  24.845  1.00  0.00     0.233 C 
ATOM     23  S   UNL A   1      32.970  29.268  24.920  1.00  0.00    -0.130 SA
ATOM     24  C   UNL A   1      30.791  28.604  24.213  1.00  0.00     0.171 C 
ATOM     25  O   UNL A   1      29.404  26.191  24.657  1.00  0.00    -0.274 OA
ENDBRANCH  19  20
ENDBRANCH  16  19
ENDBRANCH   5  15
ENDBRANCH   3   5
ENDBRANCH   2   3
ENDBRANCH   1   2
BRANCH   1  26
ATOM     26  C   UNL A   1      36.953  22.041  23.956  1.00  0.00     0.275 C 
BRANCH  26  27
ATOM     27  O   UNL A   1      38.027  22.264  25.322  1.00  0.00    -0.458 OA
BRANCH  27  28
ATOM     28  C   UNL A   1      39.504  23.061  26.152  1.00  0.00     0.338 C 
ATOM     29  O   UNL A   1      40.660  22.576  26.181  1.00  0.00    -0.246 OA
BRANCH  28  30
ATOM     30  C   UNL A   1      39.613  24.394  26.911  1.00  0.00     0.060 A 
ATOM     31  C   UNL A   1      40.471  25.406  26.458  1.00  0.00     0.016 A 
ATOM     32  C   UNL A   1      39.123  24.490  28.217  1.00  0.00     0.016 A 
ATOM     33  C   UNL A   1      40.725  26.553  27.193  1.00  0.00     0.010 A 
ATOM     34  C   UNL A   1      39.380  25.637  28.976  1.00  0.00     0.010 A 
ATOM     35  C   UNL A   1      40.167  26.679  28.458  1.00  0.00    -0.014 A 
BRANCH  35  36
ATOM     36  C   UNL A   1      40.519  27.847  29.285  1.00  0.00     0.031 A 
ATOM     37  C   UNL A   1      41.768  27.781  30.104  1.00  0.00     0.074 A 
ATOM     38  C   UNL A   1      39.716  28.928  29.289  1.00  0.00     0.049 A 
ATOM     39  N   UNL A   1      42.126  28.506  31.124  1.00  0.00    -0.248 NA
ATOM     40  C   UNL A   1      42.733  26.730  29.738  1.00  0.00     0.031 C 
ATOM     41  C   UNL A   1      38.540  29.110  28.432  1.00  0.00     0.029 A 
ATOM     42  N   UNL A   1      39.754  30.066  30.046  1.00  0.00    -0.354 N 
ATOM     43  C   UNL A   1      43.317  27.949  31.577  1.00  0.00     0.074 A 
ATOM     44  C   UNL A   1      43.629  26.837  30.708  1.00  0.00     0.031 C 
ATOM     45  C   UNL A   1      37.957  30.281  28.729  1.00  0.00     0.029 A 
ATOM     46  C   UNL A   1      38.669  30.889  29.845  1.00  0.00     0.049 A 
ATOM     47  H   UNL A   1      40.485  30.276  30.672  1.00  0.00     0.167 HD
ATOM     48  C   UNL A   1      44.054  28.336  32.643  1.00  0.00     0.037 A 
ATOM     49  C   UNL A   1      38.269  31.972  30.537  1.00  0.00     0.037 A 
ATOM     50  C   UNL A   1      43.712  29.485  33.441  1.00  0.00     0.049 A 
ATOM     51  C   UNL A   1      39.100  32.382  31.723  1.00  0.00     0.074 A 
ATOM     52  C   UNL A   1      44.360  30.000  34.547  1.00  0.00     0.029 A 
ATOM     53  N   UNL A   1      42.621  30.312  33.192  1.00  0.00    -0.354 N 
ATOM     54  N   UNL A   1      40.181  31.810  32.204  1.00  0.00    -0.248 NA
ATOM     55  C   UNL A   1      38.656  33.563  32.471  1.00  0.00     0.031 C 
ATOM     56  C   UNL A   1      43.645  31.121  34.982  1.00  0.00     0.029 A 
ATOM     57  C   UNL A   1      42.574  31.332  34.121  1.00  0.00     0.049 A 
ATOM     58  H   UNL A   1      41.975  30.186  32.460  1.00  0.00     0.167 HD
ATOM     59  C   UNL A   1      40.558  32.569  33.304  1.00  0.00     0.074 A 
ATOM     60  C   UNL A   1      39.594  33.651  33.404  1.00  0.00     0.031 C 
ATOM     61  C   UNL A   1      41.595  32.392  34.160  1.00  0.00     0.037 A 
BRANCH  48  62
ATOM     62  C   UNL A   1      45.240  27.489  33.022  1.00  0.00     0.058 A 
ATOM     63  C   UNL A   1      46.507  27.670  32.444  1.00  0.00     0.135 A 
ATOM     64  C   UNL A   1      45.100  26.463  33.971  1.00  0.00     0.135 A 
ATOM     65  F   UNL A   1      46.697  28.618  31.514  1.00  0.00    -0.206 F 
ATOM     66  C   UNL A   1      47.581  26.843  32.767  1.00  0.00     0.059 A 
ATOM     67  C   UNL A   1      46.167  25.643  34.330  1.00  0.00     0.059 A 
ATOM     68  F   UNL A   1      43.911  26.236  34.553  1.00  0.00    -0.206 F 
ATOM     69  C   UNL A   1      47.401  25.830  33.709  1.00  0.00     0.060 A 
BRANCH  69  70
ATOM     70  S   UNL A   1      48.800  24.762  34.113  1.00  0.00     0.124 S 
ATOM     71  O   UNL A   1      49.663  24.959  32.953  1.00  0.00    -0.237 OA
ATOM     72  O   UNL A   1      49.282  25.339  35.365  1.00  0.00    -0.237 OA
ATOM     73  O   UNL A   1      48.198  23.438  34.229  1.00  0.00    -0.744 OA
ENDBRANCH  69  70
ENDBRANCH  48  62
BRANCH  49  74
ATOM     74  C   UNL A   1      37.022  32.691  30.156  1.00  0.00     0.058 A 
ATOM     75  C   UNL A   1      35.812  32.444  30.820  1.00  0.00     0.135 A 
ATOM     76  C   UNL A   1      37.020  33.671  29.148  1.00  0.00     0.135 A 
ATOM     77  F   UNL A   1      35.757  31.514  31.786  1.00  0.00    -0.206 F 
ATOM     78  C   UNL A   1      34.646  33.133  30.498  1.00  0.00     0.059 A 
ATOM     79  C   UNL A   1      35.872  34.394  28.827  1.00  0.00     0.059 A 
ATOM     80  F   UNL A   1      38.152  33.963  28.489  1.00  0.00    -0.206 F 
ATOM     81  C   UNL A   1      34.687  34.112  29.502  1.00  0.00     0.060 A 
BRANCH  81  82
ATOM     82  S   UNL A   1      33.181  35.040  29.135  1.00  0.00     0.124 S 
ATOM     83  O   UNL A   1      32.518  35.050  30.433  1.00  0.00    -0.237 OA
ATOM     84  O   UNL A   1      33.713  36.320  28.679  1.00  0.00    -0.237 OA
ATOM     85  O   UNL A   1      32.535  34.236  28.102  1.00  0.00    -0.744 OA
ENDBRANCH  81  82
ENDBRANCH  49  74
BRANCH  61  86
ATOM     86  C   UNL A   1      41.751  33.412  35.248  1.00  0.00     0.058 A 
ATOM     87  C   UNL A   1      42.564  34.543  35.080  1.00  0.00     0.135 A 
ATOM     88  C   UNL A   1      41.016  33.290  36.437  1.00  0.00     0.135 A 
ATOM     89  F   UNL A   1      43.291  34.692  33.961  1.00  0.00    -0.206 F 
ATOM     90  C   UNL A   1      42.648  35.519  36.063  1.00  0.00     0.059 A 
ATOM     91  C   UNL A   1      41.067  34.268  37.422  1.00  0.00     0.059 A 
ATOM     92  F   UNL A   1      40.221  32.226  36.635  1.00  0.00    -0.206 F 
ATOM     93  C   UNL A   1      41.891  35.375  37.227  1.00  0.00     0.060 A 
BRANCH  93  94
ATOM     94  S   UNL A   1      41.965  36.681  38.470  1.00  0.00     0.124 S 
ATOM     95  O   UNL A   1      42.935  37.594  37.877  1.00  0.00    -0.237 OA
ATOM     96  O   UNL A   1      40.584  37.156  38.504  1.00  0.00    -0.237 OA
ATOM     97  O   UNL A   1      42.411  35.981  39.671  1.00  0.00    -0.744 OA
ENDBRANCH  93  94
ENDBRANCH  61  86
ENDBRANCH  35  36
ENDBRANCH  28  30
ENDBRANCH  27  28
ENDBRANCH  26  27
ENDBRANCH   1  26
TORSDOF 20
ENDMDL
MODEL 2
REMARK VINA RESULT:     -12.2      5.526     11.440
REMARK SMILES C[C@@](COc1ccccc1)(NC(=O)CN1CSCC1=O)C(=O)OCCOC(=O)c1ccc(-c2c3nc(c(-c4c(F)cc(S(=O)(=O)[O-])cc4F)c4ccc([nH]4)c(-c4c(F)cc(S(=O)(=O)[O-])cc4F)c4nc(c(-c5c(F)cc(S(=O)(=O)[O-])cc5F)c5ccc2[nH]5)C=C4)C=C3)cc1
REMARK SMILES IDX 24 1 23 2 21 3 22 4 2 5 1 6 3 7 4 8 5 9 6 10 10 11 7 12 9 13
REMARK SMILES IDX 8 14 11 15 12 16 13 18 14 19 15 20 16 21 19 22 17 23 18 24
REMARK SMILES IDX 20 25 25 26 26 27 27 28 28 29 29 30 30 31 94 32 31 33 93 34
REMARK SMILES IDX 32 35 33 36 34 37 87 38 35 39 92 40 86 41 88 42 36 43 91 44
REMARK SMILES IDX 85 45 84 46 37 48 71 49 50 50 70 51 51 52 54 53 69 54 89 55
REMARK SMILES IDX 52 56 53 57 68 59 90 60 55 61 38 62 39 63 48 64 40 65 41 66
REMARK SMILES IDX 47 67 49 68 42 69 43 70 44 71 45 72 46 73 72 74 73 75 82 76
REMARK SMILES IDX 74 77 75 78 81 79 83 80 76 81 77 82 78 83 79 84 80 85 56 86
REMARK SMILES IDX 57 87 66 88 58 89 59 90 65 91 67 92 60 93 61 94 62 95 63 96
REMARK SMILES IDX 64 97
REMARK H PARENT 11 17 88 47 54 58
REMARK Flexibility Score: inf
ROOT
ATOM      1  C   UNL A   1      32.761  27.993  26.428  1.00  0.00     0.274 C 
ENDROOT
BRANCH   1   2
ATOM      2  O   UNL A   1      31.858  28.366  25.332  1.00  0.00    -0.460 OA
BRANCH   2   3
ATOM      3  C   UNL A   1      31.249  27.411  24.551  1.00  0.00     0.335 C 
ATOM      4  O   UNL A   1      30.588  26.493  25.024  1.00  0.00    -0.249 OA
BRANCH   3   5
ATOM      5  C   UNL A   1      31.330  27.740  22.995  1.00  0.00     0.169 C 
ATOM      6  C   UNL A   1      32.269  28.931  22.792  1.00  0.00     0.051 C 
BRANCH   5   7
ATOM      7  C   UNL A   1      29.945  28.238  22.455  1.00  0.00     0.269 C 
BRANCH   7   8
ATOM      8  O   UNL A   1      29.316  29.195  23.377  1.00  0.00    -0.491 OA
BRANCH   8   9
ATOM      9  C   UNL A   1      28.857  30.358  22.803  1.00  0.00     0.119 A 
ATOM     10  C   UNL A   1      28.809  31.556  23.513  1.00  0.00     0.046 A 
ATOM     11  C   UNL A   1      28.446  30.331  21.462  1.00  0.00     0.046 A 
ATOM     12  C   UNL A   1      28.434  32.737  22.862  1.00  0.00     0.004 A 
ATOM     13  C   UNL A   1      28.115  31.520  20.803  1.00  0.00     0.004 A 
ATOM     14  C   UNL A   1      28.114  32.725  21.503  1.00  0.00     0.000 A 
ENDBRANCH   8   9
ENDBRANCH   7   8
ENDBRANCH   5   7
BRANCH   5  15
ATOM     15  N   UNL A   1      31.758  26.626  22.101  1.00  0.00    -0.336 N 
ATOM     16  C   UNL A   1      32.926  25.948  21.963  1.00  0.00     0.240 C 
ATOM     17  H   UNL A   1      31.051  26.319  21.488  1.00  0.00     0.164 HD
ATOM     18  O   UNL A   1      33.215  25.581  20.818  1.00  0.00    -0.273 OA
BRANCH  16  19
ATOM     19  C   UNL A   1      33.731  25.452  23.157  1.00  0.00     0.220 C 
BRANCH  19  20
ATOM     20  N   UNL A   1      33.359  24.506  24.207  1.00  0.00    -0.323 N 
ATOM     21  C   UNL A   1      34.806  24.116  25.420  1.00  0.00     0.190 C 
ATOM     22  C   UNL A   1      31.945  23.353  24.244  1.00  0.00     0.233 C 
ATOM     23  S   UNL A   1      34.112  22.369  26.882  1.00  0.00    -0.130 SA
ATOM     24  C   UNL A   1      32.103  21.940  25.668  1.00  0.00     0.171 C 
ATOM     25  O   UNL A   1      31.015  23.281  23.441  1.00  0.00    -0.274 OA
ENDBRANCH  19  20
ENDBRANCH  16  19
ENDBRANCH   5  15
ENDBRANCH   3   5
ENDBRANCH   2   3
ENDBRANCH   1   2
BRANCH   1  26
ATOM     26  C   UNL A   1      34.108  28.858  26.499  1.00  0.00     0.275 C 
BRANCH  26  27
ATOM     27  O   UNL A   1      34.730  29.587  27.965  1.00  0.00    -0.458 OA
BRANCH  27  28
ATOM     28  C   UNL A   1      36.130  30.239  29.022  1.00  0.00     0.338 C 
ATOM     29  O   UNL A   1      35.987  30.958  30.040  1.00  0.00    -0.246 OA
BRANCH  28  30
ATOM     30  C   UNL A   1      37.649  30.038  28.888  1.00  0.00     0.060 A 
ATOM     31  C   UNL A   1      38.215  29.668  27.660  1.00  0.00     0.016 A 
ATOM     32  C   UNL A   1      38.433  29.895  30.037  1.00  0.00     0.016 A 
ATOM     33  C   UNL A   1      39.549  29.318  27.529  1.00  0.00     0.010 A 
ATOM     34  C   UNL A   1      39.780  29.530  29.922  1.00  0.00     0.010 A 
ATOM     35  C   UNL A   1      40.344  29.259  28.665  1.00  0.00    -0.014 A 
BRANCH  35  36
ATOM     36  C   UNL A   1      41.735  28.785  28.545  1.00  0.00     0.031 A 
ATOM     37  C   UNL A   1      42.835  29.791  28.656  1.00  0.00     0.074 A 
ATOM     38  C   UNL A   1      41.978  27.477  28.336  1.00  0.00     0.049 A 
ATOM     39  N   UNL A   1      44.079  29.700  28.281  1.00  0.00    -0.248 NA
ATOM     40  C   UNL A   1      42.472  31.092  29.244  1.00  0.00     0.031 C 
ATOM     41  C   UNL A   1      40.963  26.419  28.327  1.00  0.00     0.029 A 
ATOM     42  N   UNL A   1      43.148  26.817  28.074  1.00  0.00    -0.354 N 
ATOM     43  C   UNL A   1      44.628  30.957  28.509  1.00  0.00     0.074 A 
ATOM     44  C   UNL A   1      43.587  31.786  29.073  1.00  0.00     0.031 C 
ATOM     45  C   UNL A   1      41.553  25.246  28.051  1.00  0.00     0.029 A 
ATOM     46  C   UNL A   1      42.966  25.483  27.786  1.00  0.00     0.049 A 
ATOM     47  H   UNL A   1      44.031  27.252  28.091  1.00  0.00     0.167 HD
ATOM     48  C   UNL A   1      45.890  31.365  28.240  1.00  0.00     0.037 A 
ATOM     49  C   UNL A   1      43.836  24.581  27.297  1.00  0.00     0.037 A 
ATOM     50  C   UNL A   1      46.895  30.472  27.723  1.00  0.00     0.049 A 
ATOM     51  C   UNL A   1      45.233  25.056  26.999  1.00  0.00     0.074 A 
ATOM     52  C   UNL A   1      48.212  30.738  27.403  1.00  0.00     0.029 A 
ATOM     53  N   UNL A   1      46.683  29.121  27.468  1.00  0.00    -0.354 N 
ATOM     54  N   UNL A   1      45.735  26.263  27.137  1.00  0.00    -0.248 NA
ATOM     55  C   UNL A   1      46.174  24.067  26.466  1.00  0.00     0.031 C 
ATOM     56  C   UNL A   1      48.787  29.554  26.930  1.00  0.00     0.029 A 
ATOM     57  C   UNL A   1      47.842  28.538  26.995  1.00  0.00     0.049 A 
ATOM     58  H   UNL A   1      45.830  28.649  27.605  1.00  0.00     0.167 HD
ATOM     59  C   UNL A   1      47.057  26.177  26.721  1.00  0.00     0.074 A 
ATOM     60  C   UNL A   1      47.277  24.793  26.343  1.00  0.00     0.031 C 
ATOM     61  C   UNL A   1      48.004  27.146  26.648  1.00  0.00     0.037 A 
BRANCH  48  62
ATOM     62  C   UNL A   1      46.218  32.819  28.448  1.00  0.00     0.058 A 
ATOM     63  C   UNL A   1      46.714  33.311  29.666  1.00  0.00     0.135 A 
ATOM     64  C   UNL A   1      46.013  33.744  27.411  1.00  0.00     0.135 A 
ATOM     65  F   UNL A   1      46.908  32.480  30.702  1.00  0.00    -0.206 F 
ATOM     66  C   UNL A   1      46.962  34.668  29.859  1.00  0.00     0.059 A 
ATOM     67  C   UNL A   1      46.281  35.102  27.571  1.00  0.00     0.059 A 
ATOM     68  F   UNL A   1      45.533  33.336  26.225  1.00  0.00    -0.206 F 
ATOM     69  C   UNL A   1      46.739  35.557  28.806  1.00  0.00     0.060 A 
BRANCH  69  70
ATOM     70  S   UNL A   1      47.059  37.314  29.072  1.00  0.00     0.124 S 
ATOM     71  O   UNL A   1      46.375  37.548  30.340  1.00  0.00    -0.237 OA
ATOM     72  O   UNL A   1      48.517  37.362  29.122  1.00  0.00    -0.237 OA
ATOM     73  O   UNL A   1      46.454  37.952  27.907  1.00  0.00    -0.744 OA
ENDBRANCH  69  70
ENDBRANCH  48  62
BRANCH  49  74
ATOM     74  C   UNL A   1      43.398  23.185  27.022  1.00  0.00     0.058 A 
ATOM     75  C   UNL A   1      43.245  22.720  25.708  1.00  0.00     0.135 A 
ATOM     76  C   UNL A   1      43.164  22.271  28.064  1.00  0.00     0.135 A 
ATOM     77  F   UNL A   1      43.451  23.551  24.676  1.00  0.00    -0.206 F 
ATOM     78  C   UNL A   1      42.871  21.407  25.435  1.00  0.00     0.059 A 
ATOM     79  C   UNL A   1      42.815  20.945  27.816  1.00  0.00     0.059 A 
ATOM     80  F   UNL A   1      43.311  22.654  29.342  1.00  0.00    -0.206 F 
ATOM     81  C   UNL A   1      42.663  20.524  26.497  1.00  0.00     0.060 A 
BRANCH  81  82
ATOM     82  S   UNL A   1      42.234  18.808  26.128  1.00  0.00     0.124 S 
ATOM     83  O   UNL A   1      42.529  18.152  27.397  1.00  0.00    -0.237 OA
ATOM     84  O   UNL A   1      40.821  18.913  25.778  1.00  0.00    -0.237 OA
ATOM     85  O   UNL A   1      43.123  18.470  25.021  1.00  0.00    -0.744 OA
ENDBRANCH  81  82
ENDBRANCH  49  74
BRANCH  61  86
ATOM     86  C   UNL A   1      49.363  26.724  26.176  1.00  0.00     0.058 A 
ATOM     87  C   UNL A   1      49.780  26.943  24.855  1.00  0.00     0.135 A 
ATOM     88  C   UNL A   1      50.280  26.167  27.081  1.00  0.00     0.135 A 
ATOM     89  F   UNL A   1      48.930  27.464  23.956  1.00  0.00    -0.206 F 
ATOM     90  C   UNL A   1      51.064  26.615  24.443  1.00  0.00     0.059 A 
ATOM     91  C   UNL A   1      51.577  25.855  26.696  1.00  0.00     0.059 A 
ATOM     92  F   UNL A   1      49.923  25.948  28.357  1.00  0.00    -0.206 F 
ATOM     93  C   UNL A   1      51.956  26.077  25.373  1.00  0.00     0.060 A 
BRANCH  93  94
ATOM     94  S   UNL A   1      53.641  25.711  24.839  1.00  0.00     0.124 S 
ATOM     95  O   UNL A   1      53.524  25.843  23.391  1.00  0.00    -0.237 OA
ATOM     96  O   UNL A   1      54.414  26.752  25.511  1.00  0.00    -0.237 OA
ATOM     97  O   UNL A   1      53.865  24.355  25.331  1.00  0.00    -0.744 OA
ENDBRANCH  93  94
ENDBRANCH  61  86
ENDBRANCH  35  36
ENDBRANCH  28  30
ENDBRANCH  27  28
ENDBRANCH  26  27
ENDBRANCH   1  26
TORSDOF 20
ENDMDL
MODEL 3
REMARK VINA RESULT:     -11.9      4.369      9.982
REMARK SMILES C[C@@](COc1ccccc1)(NC(=O)CN1CSCC1=O)C(=O)OCCOC(=O)c1ccc(-c2c3nc(c(-c4c(F)cc(S(=O)(=O)[O-])cc4F)c4ccc([nH]4)c(-c4c(F)cc(S(=O)(=O)[O-])cc4F)c4nc(c(-c5c(F)cc(S(=O)(=O)[O-])cc5F)c5ccc2[nH]5)C=C4)C=C3)cc1
REMARK SMILES IDX 24 1 23 2 21 3 22 4 2 5 1 6 3 7 4 8 5 9 6 10 10 11 7 12 9 13
REMARK SMILES IDX 8 14 11 15 12 16 13 18 14 19 15 20 16 21 19 22 17 23 18 24
REMARK SMILES IDX 20 25 25 26 26 27 27 28 28 29 29 30 30 31 94 32 31 33 93 34
REMARK SMILES IDX 32 35 33 36 34 37 87 38 35 39 92 40 86 41 88 42 36 43 91 44
REMARK SMILES IDX 85 45 84 46 37 48 71 49 50 50 70 51 51 52 54 53 69 54 89 55
REMARK SMILES IDX 52 56 53 57 68 59 90 60 55 61 38 62 39 63 48 64 40 65 41 66
REMARK SMILES IDX 47 67 49 68 42 69 43 70 44 71 45 72 46 73 72 74 73 75 82 76
REMARK SMILES IDX 74 77 75 78 81 79 83 80 76 81 77 82 78 83 79 84 80 85 56 86
REMARK SMILES IDX 57 87 66 88 58 89 59 90 65 91 67 92 60 93 61 94 62 95 63 96
REMARK SMILES IDX 64 97
REMARK H PARENT 11 17 88 47 54 58
REMARK Flexibility Score: inf
ROOT
ATOM      1  C   UNL A   1      32.996  28.656  25.585  1.00  0.00     0.274 C 
ENDROOT
BRANCH   1   2
ATOM      2  O   UNL A   1      33.140  27.428  26.377  1.00  0.00    -0.460 OA
BRANCH   2   3
ATOM      3  C   UNL A   1      32.095  26.546  26.522  1.00  0.00     0.335 C 
ATOM      4  O   UNL A   1      31.003  26.881  26.969  1.00  0.00    -0.249 OA
BRANCH   3   5
ATOM      5  C   UNL A   1      32.392  25.122  25.874  1.00  0.00     0.169 C 
ATOM      6  C   UNL A   1      31.871  24.034  26.814  1.00  0.00     0.051 C 
BRANCH   5   7
ATOM      7  C   UNL A   1      33.935  24.858  25.786  1.00  0.00     0.269 C 
BRANCH   7   8
ATOM      8  O   UNL A   1      34.249  23.791  24.825  1.00  0.00    -0.491 OA
BRANCH   8   9
ATOM      9  C   UNL A   1      35.404  23.087  25.076  1.00  0.00     0.119 A 
ATOM     10  C   UNL A   1      35.501  21.721  24.816  1.00  0.00     0.046 A 
ATOM     11  C   UNL A   1      36.514  23.774  25.588  1.00  0.00     0.046 A 
ATOM     12  C   UNL A   1      36.725  21.065  24.987  1.00  0.00     0.004 A 
ATOM     13  C   UNL A   1      37.748  23.126  25.715  1.00  0.00     0.004 A 
ATOM     14  C   UNL A   1      37.854  21.770  25.409  1.00  0.00     0.000 A 
ENDBRANCH   8   9
ENDBRANCH   7   8
ENDBRANCH   5   7
BRANCH   5  15
ATOM     15  N   UNL A   1      31.843  24.886  24.507  1.00  0.00    -0.336 N 
ATOM     16  C   UNL A   1      30.583  24.903  24.002  1.00  0.00     0.240 C 
ATOM     17  H   UNL A   1      32.533  24.676  23.836  1.00  0.00     0.164 HD
ATOM     18  O   UNL A   1      30.344  24.093  23.098  1.00  0.00    -0.273 OA
BRANCH  16  19
ATOM     19  C   UNL A   1      29.580  25.997  24.341  1.00  0.00     0.220 C 
BRANCH  19  20
ATOM     20  N   UNL A   1      29.144  27.144  23.547  1.00  0.00    -0.323 N 
ATOM     21  C   UNL A   1      30.612  28.185  22.853  1.00  0.00     0.190 C 
ATOM     22  C   UNL A   1      27.506  27.947  23.520  1.00  0.00     0.233 C 
ATOM     23  S   UNL A   1      29.727  30.145  21.831  1.00  0.00    -0.130 SA
ATOM     24  C   UNL A   1      27.514  29.752  22.630  1.00  0.00     0.171 C 
ATOM     25  O   UNL A   1      26.477  27.568  24.079  1.00  0.00    -0.274 OA
ENDBRANCH  19  20
ENDBRANCH  16  19
ENDBRANCH   5  15
ENDBRANCH   3   5
ENDBRANCH   2   3
ENDBRANCH   1   2
BRANCH   1  26
ATOM     26  C   UNL A   1      32.465  29.920  26.415  1.00  0.00     0.275 C 
BRANCH  26  27
ATOM     27  O   UNL A   1      33.456  30.858  27.514  1.00  0.00    -0.458 OA
BRANCH  27  28
ATOM     28  C   UNL A   1      34.828  31.018  28.777  1.00  0.00     0.338 C 
ATOM     29  O   UNL A   1      34.784  31.746  29.797  1.00  0.00    -0.246 OA
BRANCH  28  30
ATOM     30  C   UNL A   1      36.202  30.330  28.838  1.00  0.00     0.060 A 
ATOM     31  C   UNL A   1      36.851  30.138  30.066  1.00  0.00     0.016 A 
ATOM     32  C   UNL A   1      36.959  30.189  27.671  1.00  0.00     0.016 A 
ATOM     33  C   UNL A   1      38.153  29.674  30.156  1.00  0.00     0.010 A 
ATOM     34  C   UNL A   1      38.280  29.732  27.746  1.00  0.00     0.010 A 
ATOM     35  C   UNL A   1      38.873  29.457  28.990  1.00  0.00    -0.014 A 
BRANCH  35  36
ATOM     36  C   UNL A   1      40.291  29.065  29.083  1.00  0.00     0.031 A 
ATOM     37  C   UNL A   1      41.290  30.114  29.451  1.00  0.00     0.074 A 
ATOM     38  C   UNL A   1      40.650  27.792  28.832  1.00  0.00     0.049 A 
ATOM     39  N   UNL A   1      42.583  30.116  29.294  1.00  0.00    -0.248 NA
ATOM     40  C   UNL A   1      40.750  31.346  30.054  1.00  0.00     0.031 C 
ATOM     41  C   UNL A   1      39.720  26.687  28.574  1.00  0.00     0.029 A 
ATOM     42  N   UNL A   1      41.886  27.214  28.733  1.00  0.00    -0.354 N 
ATOM     43  C   UNL A   1      43.005  31.378  29.698  1.00  0.00     0.074 A 
ATOM     44  C   UNL A   1      41.833  32.107  30.127  1.00  0.00     0.031 C 
ATOM     45  C   UNL A   1      40.421  25.570  28.327  1.00  0.00     0.029 A 
ATOM     46  C   UNL A   1      41.841  25.899  28.328  1.00  0.00     0.049 A 
ATOM     47  H   UNL A   1      42.724  27.691  28.933  1.00  0.00     0.167 HD
ATOM     48  C   UNL A   1      44.266  31.869  29.682  1.00  0.00     0.037 A 
ATOM     49  C   UNL A   1      42.837  25.083  27.939  1.00  0.00     0.037 A 
ATOM     50  C   UNL A   1      45.398  31.072  29.289  1.00  0.00     0.049 A 
ATOM     51  C   UNL A   1      44.231  25.650  27.922  1.00  0.00     0.074 A 
ATOM     52  C   UNL A   1      46.731  31.428  29.222  1.00  0.00     0.029 A 
ATOM     53  N   UNL A   1      45.319  29.735  28.910  1.00  0.00    -0.354 N 
ATOM     54  N   UNL A   1      44.625  26.867  28.226  1.00  0.00    -0.248 NA
ATOM     55  C   UNL A   1      45.310  24.754  27.495  1.00  0.00     0.031 C 
ATOM     56  C   UNL A   1      47.453  30.315  28.777  1.00  0.00     0.029 A 
ATOM     57  C   UNL A   1      46.576  29.250  28.607  1.00  0.00     0.049 A 
ATOM     58  H   UNL A   1      44.487  29.212  28.864  1.00  0.00     0.167 HD
ATOM     59  C   UNL A   1      46.001  26.881  28.042  1.00  0.00     0.074 A 
ATOM     60  C   UNL A   1      46.370  25.543  27.615  1.00  0.00     0.031 C 
ATOM     61  C   UNL A   1      46.883  27.900  28.201  1.00  0.00     0.037 A 
BRANCH  48  62
ATOM     62  C   UNL A   1      44.460  33.318  30.042  1.00  0.00     0.058 A 
ATOM     63  C   UNL A   1      44.779  33.732  31.344  1.00  0.00     0.135 A 
ATOM     64  C   UNL A   1      44.305  34.315  29.064  1.00  0.00     0.135 A 
ATOM     65  F   UNL A   1      44.917  32.828  32.327  1.00  0.00    -0.206 F 
ATOM     66  C   UNL A   1      44.904  35.081  31.672  1.00  0.00     0.059 A 
ATOM     67  C   UNL A   1      44.452  35.667  29.362  1.00  0.00     0.059 A 
ATOM     68  F   UNL A   1      43.991  33.981  27.801  1.00  0.00    -0.206 F 
ATOM     69  C   UNL A   1      44.735  36.042  30.674  1.00  0.00     0.060 A 
BRANCH  69  70
ATOM     70  S   UNL A   1      44.893  37.786  31.115  1.00  0.00     0.124 S 
ATOM     71  O   UNL A   1      44.021  37.873  32.282  1.00  0.00    -0.237 OA
ATOM     72  O   UNL A   1      46.322  37.912  31.383  1.00  0.00    -0.237 OA
ATOM     73  O   UNL A   1      44.419  38.484  29.924  1.00  0.00    -0.744 OA
ENDBRANCH  69  70
ENDBRANCH  48  62
BRANCH  49  74
ATOM     74  C   UNL A   1      42.542  23.692  27.497  1.00  0.00     0.058 A 
ATOM     75  C   UNL A   1      42.469  23.364  26.136  1.00  0.00     0.135 A 
ATOM     76  C   UNL A   1      42.370  22.650  28.425  1.00  0.00     0.135 A 
ATOM     77  F   UNL A   1      42.620  24.321  25.209  1.00  0.00    -0.206 F 
ATOM     78  C   UNL A   1      42.228  22.061  25.709  1.00  0.00     0.059 A 
ATOM     79  C   UNL A   1      42.156  21.333  28.022  1.00  0.00     0.059 A 
ATOM     80  F   UNL A   1      42.446  22.900  29.742  1.00  0.00    -0.206 F 
ATOM     81  C   UNL A   1      42.078  21.050  26.660  1.00  0.00     0.060 A 
BRANCH  81  82
ATOM     82  S   UNL A   1      41.825  19.354  26.092  1.00  0.00     0.124 S 
ATOM     83  O   UNL A   1      40.418  19.378  25.711  1.00  0.00    -0.237 OA
ATOM     84  O   UNL A   1      42.782  19.251  24.995  1.00  0.00    -0.237 OA
ATOM     85  O   UNL A   1      42.146  18.553  27.270  1.00  0.00    -0.744 OA
ENDBRANCH  81  82
ENDBRANCH  49  74
BRANCH  61  86
ATOM     86  C   UNL A   1      48.326  27.585  27.946  1.00  0.00     0.058 A 
ATOM     87  C   UNL A   1      49.153  27.070  28.955  1.00  0.00     0.135 A 
ATOM     88  C   UNL A   1      48.860  27.730  26.656  1.00  0.00     0.135 A 
ATOM     89  F   UNL A   1      48.684  26.926  30.205  1.00  0.00    -0.206 F 
ATOM     90  C   UNL A   1      50.469  26.715  28.694  1.00  0.00     0.059 A 
ATOM     91  C   UNL A   1      50.166  27.357  26.368  1.00  0.00     0.059 A 
ATOM     92  F   UNL A   1      48.101  28.213  25.659  1.00  0.00    -0.206 F 
ATOM     93  C   UNL A   1      50.964  26.857  27.396  1.00  0.00     0.060 A 
BRANCH  93  94
ATOM     94  S   UNL A   1      52.658  26.334  27.057  1.00  0.00     0.124 S 
ATOM     95  O   UNL A   1      52.449  24.990  26.530  1.00  0.00    -0.237 OA
ATOM     96  O   UNL A   1      53.105  27.333  26.091  1.00  0.00    -0.237 OA
ATOM     97  O   UNL A   1      53.302  26.404  28.366  1.00  0.00    -0.744 OA
ENDBRANCH  93  94
ENDBRANCH  61  86
ENDBRANCH  35  36
ENDBRANCH  28  30
ENDBRANCH  27  28
ENDBRANCH  26  27
ENDBRANCH   1  26
TORSDOF 20
ENDMDL
