MODEL 1
REMARK VINA RESULT:     -12.3      0.000      0.000
REMARK SMILES O=C(OCCOC(=O)c1cc2nn[nH]n2n1)c1ccc(-c2c3nc(c(-c4c(F)cc(S(=O)(=O)[O-])cc4F)c4ccc([nH]4)c(-c4c(F)cc(S(=O)(=O)[O-])cc4F)c4nc(c(-c5c(F)cc(S(=O)(=O)[O-])cc5F)c5ccc2[nH]5)C=C4)C=C3)cc1
REMARK SMILES IDX 3 1 2 2 1 3 17 4 18 5 82 6 19 7 81 8 20 9 21 10 22 11 75 12
REMARK SMILES IDX 23 13 80 14 74 15 76 16 24 17 79 18 73 19 72 20 25 22 59 23
REMARK SMILES IDX 38 24 58 25 39 26 42 27 57 28 77 29 40 30 41 31 56 33 78 34
REMARK SMILES IDX 43 35 26 36 27 37 36 38 28 39 29 40 35 41 37 42 30 43 31 44
REMARK SMILES IDX 32 45 33 46 34 47 60 48 61 49 70 50 62 51 63 52 69 53 71 54
REMARK SMILES IDX 64 55 65 56 66 57 67 58 68 59 44 60 45 61 54 62 46 63 47 64
REMARK SMILES IDX 53 65 55 66 48 67 49 68 50 69 51 70 52 71 4 72 5 73 6 74
REMARK SMILES IDX 7 75 8 76 9 77 10 78 16 79 11 80 15 81 12 82 14 83 13 84
REMARK H PARENT 76 21 42 32 14 85
REMARK Flexibility Score: inf
ROOT
ATOM      1  O   UNL A   1      40.498  21.234  27.104  1.00  0.00    -0.458 OA
ENDROOT
BRANCH   1   2
ATOM      2  C   UNL A   1      39.692  22.187  26.581  1.00  0.00     0.338 C 
ATOM      3  O   UNL A   1      38.741  21.947  25.857  1.00  0.00    -0.246 OA
BRANCH   2   4
ATOM      4  C   UNL A   1      40.005  23.531  27.128  1.00  0.00     0.060 A 
ATOM      5  C   UNL A   1      41.176  23.774  27.854  1.00  0.00     0.016 A 
ATOM      6  C   UNL A   1      39.096  24.573  26.903  1.00  0.00     0.016 A 
ATOM      7  C   UNL A   1      41.406  25.026  28.406  1.00  0.00     0.010 A 
ATOM      8  C   UNL A   1      39.327  25.830  27.455  1.00  0.00     0.010 A 
ATOM      9  C   UNL A   1      40.464  26.044  28.239  1.00  0.00    -0.014 A 
BRANCH   9  10
ATOM     10  C   UNL A   1      40.739  27.321  28.897  1.00  0.00     0.031 A 
ATOM     11  C   UNL A   1      41.870  28.127  28.345  1.00  0.00     0.074 A 
ATOM     12  C   UNL A   1      39.971  27.815  29.887  1.00  0.00     0.049 A 
ATOM     13  N   UNL A   1      42.965  28.503  28.925  1.00  0.00    -0.248 NA
ATOM     14  C   UNL A   1      41.792  28.506  26.927  1.00  0.00     0.031 C 
ATOM     15  C   UNL A   1      38.673  27.326  30.359  1.00  0.00     0.029 A 
ATOM     16  N   UNL A   1      40.160  28.948  30.621  1.00  0.00    -0.354 N 
ATOM     17  C   UNL A   1      43.635  29.319  28.008  1.00  0.00     0.074 A 
ATOM     18  C   UNL A   1      42.927  29.185  26.761  1.00  0.00     0.031 C 
ATOM     19  C   UNL A   1      38.095  28.275  31.127  1.00  0.00     0.029 A 
ATOM     20  C   UNL A   1      39.037  29.364  31.320  1.00  0.00     0.049 A 
ATOM     21  H   UNL A   1      41.019  29.429  30.652  1.00  0.00     0.167 HD
ATOM     22  C   UNL A   1      44.625  30.182  28.377  1.00  0.00     0.037 A 
ATOM     23  C   UNL A   1      38.870  30.552  31.950  1.00  0.00     0.037 A 
ATOM     24  C   UNL A   1      45.158  29.859  29.672  1.00  0.00     0.049 A 
ATOM     25  C   UNL A   1      40.221  31.109  32.220  1.00  0.00     0.074 A 
ATOM     26  C   UNL A   1      45.808  28.767  30.214  1.00  0.00     0.029 A 
ATOM     27  N   UNL A   1      44.780  30.630  30.743  1.00  0.00    -0.354 N 
ATOM     28  N   UNL A   1      41.083  30.576  33.044  1.00  0.00    -0.248 NA
ATOM     29  C   UNL A   1      40.778  32.045  31.256  1.00  0.00     0.031 C 
ATOM     30  C   UNL A   1      45.343  28.692  31.558  1.00  0.00     0.029 A 
ATOM     31  C   UNL A   1      44.472  29.764  31.760  1.00  0.00     0.049 A 
ATOM     32  H   UNL A   1      44.738  31.614  30.774  1.00  0.00     0.167 HD
ATOM     33  C   UNL A   1      42.321  30.790  32.455  1.00  0.00     0.074 A 
ATOM     34  C   UNL A   1      42.078  31.782  31.411  1.00  0.00     0.031 C 
ATOM     35  C   UNL A   1      43.375  29.954  32.685  1.00  0.00     0.037 A 
BRANCH  22  36
ATOM     36  C   UNL A   1      44.915  31.507  27.705  1.00  0.00     0.058 A 
ATOM     37  C   UNL A   1      46.118  31.677  26.985  1.00  0.00     0.135 A 
ATOM     38  C   UNL A   1      44.204  32.692  27.985  1.00  0.00     0.135 A 
ATOM     39  F   UNL A   1      46.880  30.620  26.659  1.00  0.00    -0.206 F 
ATOM     40  C   UNL A   1      46.618  32.938  26.648  1.00  0.00     0.059 A 
ATOM     41  C   UNL A   1      44.657  33.954  27.612  1.00  0.00     0.059 A 
ATOM     42  F   UNL A   1      43.087  32.693  28.724  1.00  0.00    -0.206 F 
ATOM     43  C   UNL A   1      45.889  34.072  26.989  1.00  0.00     0.060 A 
BRANCH  43  44
ATOM     44  S   UNL A   1      46.599  35.702  26.693  1.00  0.00     0.124 S 
ATOM     45  O   UNL A   1      47.376  35.462  25.483  1.00  0.00    -0.237 OA
ATOM     46  O   UNL A   1      45.408  36.530  26.534  1.00  0.00    -0.237 OA
ATOM     47  O   UNL A   1      47.375  35.954  27.903  1.00  0.00    -0.744 OA
ENDBRANCH  43  44
ENDBRANCH  22  36
BRANCH  23  48
ATOM     48  C   UNL A   1      37.632  31.371  31.995  1.00  0.00     0.058 A 
ATOM     49  C   UNL A   1      37.043  31.746  33.215  1.00  0.00     0.135 A 
ATOM     50  C   UNL A   1      37.149  32.028  30.843  1.00  0.00     0.135 A 
ATOM     51  F   UNL A   1      37.462  31.194  34.363  1.00  0.00    -0.206 F 
ATOM     52  C   UNL A   1      36.060  32.739  33.292  1.00  0.00     0.059 A 
ATOM     53  C   UNL A   1      36.162  33.010  30.894  1.00  0.00     0.059 A 
ATOM     54  F   UNL A   1      37.691  31.801  29.637  1.00  0.00    -0.206 F 
ATOM     55  C   UNL A   1      35.637  33.377  32.125  1.00  0.00     0.060 A 
BRANCH  55  56
ATOM     56  S   UNL A   1      34.491  34.771  32.237  1.00  0.00     0.124 S 
ATOM     57  O   UNL A   1      33.352  34.170  32.922  1.00  0.00    -0.237 OA
ATOM     58  O   UNL A   1      35.260  35.742  33.007  1.00  0.00    -0.237 OA
ATOM     59  O   UNL A   1      34.259  35.131  30.840  1.00  0.00    -0.744 OA
ENDBRANCH  55  56
ENDBRANCH  23  48
BRANCH  35  60
ATOM     60  C   UNL A   1      43.279  28.959  33.811  1.00  0.00     0.058 A 
ATOM     61  C   UNL A   1      43.594  29.259  35.148  1.00  0.00     0.135 A 
ATOM     62  C   UNL A   1      42.649  27.731  33.560  1.00  0.00     0.135 A 
ATOM     63  F   UNL A   1      44.106  30.450  35.485  1.00  0.00    -0.206 F 
ATOM     64  C   UNL A   1      43.311  28.369  36.186  1.00  0.00     0.059 A 
ATOM     65  C   UNL A   1      42.329  26.841  34.582  1.00  0.00     0.059 A 
ATOM     66  F   UNL A   1      42.267  27.414  32.311  1.00  0.00    -0.206 F 
ATOM     67  C   UNL A   1      42.667  27.166  35.895  1.00  0.00     0.060 A 
BRANCH  67  68
ATOM     68  S   UNL A   1      42.176  26.083  37.254  1.00  0.00     0.124 S 
ATOM     69  O   UNL A   1      40.810  26.522  37.519  1.00  0.00    -0.237 OA
ATOM     70  O   UNL A   1      42.312  24.752  36.667  1.00  0.00    -0.237 OA
ATOM     71  O   UNL A   1      43.146  26.391  38.303  1.00  0.00    -0.744 OA
ENDBRANCH  67  68
ENDBRANCH  35  60
ENDBRANCH   9  10
ENDBRANCH   2   4
ENDBRANCH   1   2
BRANCH   1  72
ATOM     72  C   UNL A   1      40.705  20.009  26.371  1.00  0.00     0.275 C 
BRANCH  72  73
ATOM     73  C   UNL A   1      42.071  19.334  26.493  1.00  0.00     0.275 C 
BRANCH  73  74
ATOM     74  O   UNL A   1      42.647  19.167  25.188  1.00  0.00    -0.457 OA
BRANCH  74  75
ATOM     75  C   UNL A   1      44.012  19.153  25.124  1.00  0.00     0.359 C 
ATOM     76  O   UNL A   1      44.716  18.161  25.280  1.00  0.00    -0.244 OA
BRANCH  75  77
ATOM     77  C   UNL A   1      44.533  20.497  24.879  1.00  0.00     0.174 A 
ATOM     78  C   UNL A   1      45.918  20.854  24.722  1.00  0.00     0.091 A 
ATOM     79  N   UNL A   1      43.726  21.589  24.826  1.00  0.00    -0.142 NA
ATOM     80  C   UNL A   1      45.890  22.213  24.593  1.00  0.00     0.199 A 
ATOM     81  N   UNL A   1      44.604  22.559  24.674  1.00  0.00    -0.135 N 
ATOM     82  N   UNL A   1      46.644  23.326  24.448  1.00  0.00    -0.109 NA
ATOM     83  N   UNL A   1      44.561  23.874  24.582  1.00  0.00    -0.177 N 
ATOM     84  N   UNL A   1      45.861  24.340  24.496  1.00  0.00    -0.050 NA
ATOM     85  H   UNL A   1      43.746  24.427  24.575  1.00  0.00     0.216 HD
ENDBRANCH  75  77
ENDBRANCH  74  75
ENDBRANCH  73  74
ENDBRANCH  72  73
ENDBRANCH   1  72
TORSDOF 14
ENDMDL
MODEL 2
REMARK VINA RESULT:     -12.0      3.436      4.676
REMARK SMILES O=C(OCCOC(=O)c1cc2nn[nH]n2n1)c1ccc(-c2c3nc(c(-c4c(F)cc(S(=O)(=O)[O-])cc4F)c4ccc([nH]4)c(-c4c(F)cc(S(=O)(=O)[O-])cc4F)c4nc(c(-c5c(F)cc(S(=O)(=O)[O-])cc5F)c5ccc2[nH]5)C=C4)C=C3)cc1
REMARK SMILES IDX 3 1 2 2 1 3 17 4 18 5 82 6 19 7 81 8 20 9 21 10 22 11 75 12
REMARK SMILES IDX 23 13 80 14 74 15 76 16 24 17 79 18 73 19 72 20 25 22 59 23
REMARK SMILES IDX 38 24 58 25 39 26 42 27 57 28 77 29 40 30 41 31 56 33 78 34
REMARK SMILES IDX 43 35 26 36 27 37 36 38 28 39 29 40 35 41 37 42 30 43 31 44
REMARK SMILES IDX 32 45 33 46 34 47 60 48 61 49 70 50 62 51 63 52 69 53 71 54
REMARK SMILES IDX 64 55 65 56 66 57 67 58 68 59 44 60 45 61 54 62 46 63 47 64
REMARK SMILES IDX 53 65 55 66 48 67 49 68 50 69 51 70 52 71 4 72 5 73 6 74
REMARK SMILES IDX 7 75 8 76 9 77 10 78 16 79 11 80 15 81 12 82 14 83 13 84
REMARK H PARENT 76 21 42 32 14 85
REMARK Flexibility Score: inf
ROOT
ATOM      1  O   UNL A   1      38.552  22.277  25.645  1.00  0.00    -0.458 OA
ENDROOT
BRANCH   1   2
ATOM      2  C   UNL A   1      39.557  22.223  26.548  1.00  0.00     0.338 C 
ATOM      3  O   UNL A   1      40.206  21.217  26.781  1.00  0.00    -0.246 OA
BRANCH   2   4
ATOM      4  C   UNL A   1      39.879  23.566  27.093  1.00  0.00     0.060 A 
ATOM      5  C   UNL A   1      41.054  23.803  27.814  1.00  0.00     0.016 A 
ATOM      6  C   UNL A   1      38.974  24.612  26.872  1.00  0.00     0.016 A 
ATOM      7  C   UNL A   1      41.293  25.054  28.365  1.00  0.00     0.010 A 
ATOM      8  C   UNL A   1      39.214  25.868  27.424  1.00  0.00     0.010 A 
ATOM      9  C   UNL A   1      40.355  26.077  28.202  1.00  0.00    -0.014 A 
BRANCH   9  10
ATOM     10  C   UNL A   1      40.640  27.353  28.859  1.00  0.00     0.031 A 
ATOM     11  C   UNL A   1      41.778  28.149  28.307  1.00  0.00     0.074 A 
ATOM     12  C   UNL A   1      39.875  27.854  29.847  1.00  0.00     0.049 A 
ATOM     13  N   UNL A   1      42.875  28.517  28.887  1.00  0.00    -0.248 NA
ATOM     14  C   UNL A   1      41.704  28.526  26.888  1.00  0.00     0.031 C 
ATOM     15  C   UNL A   1      38.573  27.376  30.319  1.00  0.00     0.029 A 
ATOM     16  N   UNL A   1      40.072  28.986  30.580  1.00  0.00    -0.354 N 
ATOM     17  C   UNL A   1      43.553  29.326  27.971  1.00  0.00     0.074 A 
ATOM     18  C   UNL A   1      42.845  29.196  26.722  1.00  0.00     0.031 C 
ATOM     19  C   UNL A   1      38.001  28.330  31.085  1.00  0.00     0.029 A 
ATOM     20  C   UNL A   1      38.951  29.412  31.278  1.00  0.00     0.049 A 
ATOM     21  H   UNL A   1      40.934  29.460  30.612  1.00  0.00     0.167 HD
ATOM     22  C   UNL A   1      44.548  30.182  28.339  1.00  0.00     0.037 A 
ATOM     23  C   UNL A   1      38.794  30.602  31.906  1.00  0.00     0.037 A 
ATOM     24  C   UNL A   1      45.078  29.856  29.635  1.00  0.00     0.049 A 
ATOM     25  C   UNL A   1      40.148  31.148  32.177  1.00  0.00     0.074 A 
ATOM     26  C   UNL A   1      45.718  28.760  30.179  1.00  0.00     0.029 A 
ATOM     27  N   UNL A   1      44.705  30.632  30.705  1.00  0.00    -0.354 N 
ATOM     28  N   UNL A   1      41.005  30.610  33.002  1.00  0.00    -0.248 NA
ATOM     29  C   UNL A   1      40.714  32.079  31.212  1.00  0.00     0.031 C 
ATOM     30  C   UNL A   1      45.252  28.691  31.523  1.00  0.00     0.029 A 
ATOM     31  C   UNL A   1      44.389  29.770  31.723  1.00  0.00     0.049 A 
ATOM     32  H   UNL A   1      44.670  31.616  30.735  1.00  0.00     0.167 HD
ATOM     33  C   UNL A   1      42.245  30.814  32.414  1.00  0.00     0.074 A 
ATOM     34  C   UNL A   1      42.011  31.806  31.368  1.00  0.00     0.031 C 
ATOM     35  C   UNL A   1      43.293  29.969  32.646  1.00  0.00     0.037 A 
BRANCH  22  36
ATOM     36  C   UNL A   1      44.850  31.504  27.665  1.00  0.00     0.058 A 
ATOM     37  C   UNL A   1      46.042  31.655  26.923  1.00  0.00     0.135 A 
ATOM     38  C   UNL A   1      44.165  32.700  27.963  1.00  0.00     0.135 A 
ATOM     39  F   UNL A   1      46.778  30.585  26.581  1.00  0.00    -0.206 F 
ATOM     40  C   UNL A   1      46.559  32.907  26.581  1.00  0.00     0.059 A 
ATOM     41  C   UNL A   1      44.634  33.956  27.585  1.00  0.00     0.059 A 
ATOM     42  F   UNL A   1      43.063  32.719  28.722  1.00  0.00    -0.206 F 
ATOM     43  C   UNL A   1      45.856  34.054  26.940  1.00  0.00     0.060 A 
BRANCH  43  44
ATOM     44  S   UNL A   1      46.589  35.671  26.635  1.00  0.00     0.124 S 
ATOM     45  O   UNL A   1      45.401  36.506  26.502  1.00  0.00    -0.237 OA
ATOM     46  O   UNL A   1      47.384  35.879  27.840  1.00  0.00    -0.237 OA
ATOM     47  O   UNL A   1      47.358  35.465  25.411  1.00  0.00    -0.744 OA
ENDBRANCH  43  44
ENDBRANCH  22  36
BRANCH  23  48
ATOM     48  C   UNL A   1      37.561  31.431  31.949  1.00  0.00     0.058 A 
ATOM     49  C   UNL A   1      36.977  31.815  33.167  1.00  0.00     0.135 A 
ATOM     50  C   UNL A   1      37.083  32.087  30.794  1.00  0.00     0.135 A 
ATOM     51  F   UNL A   1      37.393  31.265  34.318  1.00  0.00    -0.206 F 
ATOM     52  C   UNL A   1      36.002  32.817  33.241  1.00  0.00     0.059 A 
ATOM     53  C   UNL A   1      36.104  33.076  30.842  1.00  0.00     0.059 A 
ATOM     54  F   UNL A   1      37.622  31.849  29.589  1.00  0.00    -0.206 F 
ATOM     55  C   UNL A   1      35.583  33.453  32.072  1.00  0.00     0.060 A 
BRANCH  55  56
ATOM     56  S   UNL A   1      34.447  34.856  32.179  1.00  0.00     0.124 S 
ATOM     57  O   UNL A   1      33.301  34.265  32.859  1.00  0.00    -0.237 OA
ATOM     58  O   UNL A   1      35.222  35.821  32.951  1.00  0.00    -0.237 OA
ATOM     59  O   UNL A   1      34.224  35.218  30.781  1.00  0.00    -0.744 OA
ENDBRANCH  55  56
ENDBRANCH  23  48
BRANCH  35  60
ATOM     60  C   UNL A   1      43.188  28.977  33.774  1.00  0.00     0.058 A 
ATOM     61  C   UNL A   1      43.512  29.273  35.109  1.00  0.00     0.135 A 
ATOM     62  C   UNL A   1      42.540  27.756  33.526  1.00  0.00     0.135 A 
ATOM     63  F   UNL A   1      44.041  30.458  35.443  1.00  0.00    -0.206 F 
ATOM     64  C   UNL A   1      43.221  28.388  36.149  1.00  0.00     0.059 A 
ATOM     65  C   UNL A   1      42.213  26.872  34.550  1.00  0.00     0.059 A 
ATOM     66  F   UNL A   1      42.150  27.444  32.278  1.00  0.00    -0.206 F 
ATOM     67  C   UNL A   1      42.560  27.194  35.861  1.00  0.00     0.060 A 
BRANCH  67  68
ATOM     68  S   UNL A   1      42.060  26.118  37.223  1.00  0.00     0.124 S 
ATOM     69  O   UNL A   1      42.082  24.800  36.598  1.00  0.00    -0.237 OA
ATOM     70  O   UNL A   1      43.097  26.364  38.222  1.00  0.00    -0.237 OA
ATOM     71  O   UNL A   1      40.734  26.617  37.583  1.00  0.00    -0.744 OA
ENDBRANCH  67  68
ENDBRANCH  35  60
ENDBRANCH   9  10
ENDBRANCH   2   4
ENDBRANCH   1   2
BRANCH   1  72
ATOM     72  C   UNL A   1      37.533  21.256  25.666  1.00  0.00     0.275 C 
BRANCH  72  73
ATOM     73  C   UNL A   1      36.266  21.504  24.846  1.00  0.00     0.275 C 
BRANCH  73  74
ATOM     74  O   UNL A   1      35.134  20.933  25.520  1.00  0.00    -0.457 OA
BRANCH  74  75
ATOM     75  C   UNL A   1      34.089  20.546  24.728  1.00  0.00     0.359 C 
ATOM     76  O   UNL A   1      33.412  21.299  24.036  1.00  0.00    -0.244 OA
BRANCH  75  77
ATOM     77  C   UNL A   1      33.857  19.108  24.843  1.00  0.00     0.174 A 
ATOM     78  C   UNL A   1      34.791  18.068  24.498  1.00  0.00     0.091 A 
ATOM     79  N   UNL A   1      32.668  18.595  25.253  1.00  0.00    -0.142 NA
ATOM     80  C   UNL A   1      34.086  16.917  24.708  1.00  0.00     0.199 A 
ATOM     81  N   UNL A   1      32.879  17.301  25.127  1.00  0.00    -0.135 N 
ATOM     82  N   UNL A   1      34.123  15.568  24.630  1.00  0.00    -0.109 NA
ATOM     83  N   UNL A   1      32.174  16.202  25.305  1.00  0.00    -0.177 N 
ATOM     84  N   UNL A   1      32.959  15.124  24.932  1.00  0.00    -0.050 NA
ATOM     85  H   UNL A   1      31.251  16.155  25.645  1.00  0.00     0.216 HD
ENDBRANCH  75  77
ENDBRANCH  74  75
ENDBRANCH  73  74
ENDBRANCH  72  73
ENDBRANCH   1  72
TORSDOF 14
ENDMDL
MODEL 3
REMARK VINA RESULT:     -11.9      3.269     11.930
REMARK SMILES O=C(OCCOC(=O)c1cc2nn[nH]n2n1)c1ccc(-c2c3nc(c(-c4c(F)cc(S(=O)(=O)[O-])cc4F)c4ccc([nH]4)c(-c4c(F)cc(S(=O)(=O)[O-])cc4F)c4nc(c(-c5c(F)cc(S(=O)(=O)[O-])cc5F)c5ccc2[nH]5)C=C4)C=C3)cc1
REMARK SMILES IDX 3 1 2 2 1 3 17 4 18 5 82 6 19 7 81 8 20 9 21 10 22 11 75 12
REMARK SMILES IDX 23 13 80 14 74 15 76 16 24 17 79 18 73 19 72 20 25 22 59 23
REMARK SMILES IDX 38 24 58 25 39 26 42 27 57 28 77 29 40 30 41 31 56 33 78 34
REMARK SMILES IDX 43 35 26 36 27 37 36 38 28 39 29 40 35 41 37 42 30 43 31 44
REMARK SMILES IDX 32 45 33 46 34 47 60 48 61 49 70 50 62 51 63 52 69 53 71 54
REMARK SMILES IDX 64 55 65 56 66 57 67 58 68 59 44 60 45 61 54 62 46 63 47 64
REMARK SMILES IDX 53 65 55 66 48 67 49 68 50 69 51 70 52 71 4 72 5 73 6 74
REMARK SMILES IDX 7 75 8 76 9 77 10 78 16 79 11 80 15 81 12 82 14 83 13 84
REMARK H PARENT 76 21 42 32 14 85
REMARK Flexibility Score: inf
ROOT
ATOM      1  O   UNL A   1      34.715  33.174  28.146  1.00  0.00    -0.458 OA
ENDROOT
BRANCH   1   2
ATOM      2  C   UNL A   1      34.648  31.824  28.182  1.00  0.00     0.338 C 
ATOM      3  O   UNL A   1      33.672  31.184  27.828  1.00  0.00    -0.246 OA
BRANCH   2   4
ATOM      4  C   UNL A   1      35.955  31.219  28.542  1.00  0.00     0.060 A 
ATOM      5  C   UNL A   1      37.032  32.002  28.974  1.00  0.00     0.016 A 
ATOM      6  C   UNL A   1      36.099  29.829  28.443  1.00  0.00     0.016 A 
ATOM      7  C   UNL A   1      38.259  31.411  29.241  1.00  0.00     0.010 A 
ATOM      8  C   UNL A   1      37.330  29.236  28.712  1.00  0.00     0.010 A 
ATOM      9  C   UNL A   1      38.419  30.033  29.074  1.00  0.00    -0.014 A 
BRANCH   9  10
ATOM     10  C   UNL A   1      39.754  29.484  29.314  1.00  0.00     0.031 A 
ATOM     11  C   UNL A   1      40.143  29.275  30.742  1.00  0.00     0.074 A 
ATOM     12  C   UNL A   1      40.572  29.088  28.321  1.00  0.00     0.049 A 
ATOM     13  N   UNL A   1      41.114  29.810  31.411  1.00  0.00    -0.248 NA
ATOM     14  C   UNL A   1      39.284  28.397  31.548  1.00  0.00     0.031 C 
ATOM     15  C   UNL A   1      40.264  28.939  26.896  1.00  0.00     0.029 A 
ATOM     16  N   UNL A   1      41.852  28.629  28.410  1.00  0.00    -0.354 N 
ATOM     17  C   UNL A   1      41.105  29.204  32.670  1.00  0.00     0.074 A 
ATOM     18  C   UNL A   1      39.888  28.436  32.736  1.00  0.00     0.031 C 
ATOM     19  C   UNL A   1      41.241  28.218  26.304  1.00  0.00     0.029 A 
ATOM     20  C   UNL A   1      42.305  27.987  27.267  1.00  0.00     0.049 A 
ATOM     21  H   UNL A   1      42.407  28.745  29.214  1.00  0.00     0.167 HD
ATOM     22  C   UNL A   1      42.179  29.235  33.510  1.00  0.00     0.037 A 
ATOM     23  C   UNL A   1      43.439  27.256  27.145  1.00  0.00     0.037 A 
ATOM     24  C   UNL A   1      43.110  30.269  33.147  1.00  0.00     0.049 A 
ATOM     25  C   UNL A   1      44.359  27.672  28.235  1.00  0.00     0.074 A 
ATOM     26  C   UNL A   1      43.049  31.645  33.054  1.00  0.00     0.029 A 
ATOM     27  N   UNL A   1      44.266  29.906  32.500  1.00  0.00    -0.354 N 
ATOM     28  N   UNL A   1      44.904  28.854  28.323  1.00  0.00    -0.248 NA
ATOM     29  C   UNL A   1      44.353  26.896  29.465  1.00  0.00     0.031 C 
ATOM     30  C   UNL A   1      43.880  31.976  31.945  1.00  0.00     0.029 A 
ATOM     31  C   UNL A   1      44.423  30.784  31.459  1.00  0.00     0.049 A 
ATOM     32  H   UNL A   1      44.864  29.161  32.737  1.00  0.00     0.167 HD
ATOM     33  C   UNL A   1      44.943  29.131  29.682  1.00  0.00     0.074 A 
ATOM     34  C   UNL A   1      44.683  27.852  30.337  1.00  0.00     0.031 C 
ATOM     35  C   UNL A   1      44.917  30.413  30.151  1.00  0.00     0.037 A 
BRANCH  22  36
ATOM     36  C   UNL A   1      42.549  28.139  34.487  1.00  0.00     0.058 A 
ATOM     37  C   UNL A   1      42.613  28.425  35.868  1.00  0.00     0.135 A 
ATOM     38  C   UNL A   1      43.121  26.911  34.095  1.00  0.00     0.135 A 
ATOM     39  F   UNL A   1      42.100  29.566  36.358  1.00  0.00    -0.206 F 
ATOM     40  C   UNL A   1      43.275  27.595  36.777  1.00  0.00     0.059 A 
ATOM     41  C   UNL A   1      43.739  26.043  34.992  1.00  0.00     0.059 A 
ATOM     42  F   UNL A   1      43.201  26.541  32.811  1.00  0.00    -0.206 F 
ATOM     43  C   UNL A   1      43.857  26.416  36.321  1.00  0.00     0.060 A 
BRANCH  43  44
ATOM     44  S   UNL A   1      44.839  25.419  37.456  1.00  0.00     0.124 S 
ATOM     45  O   UNL A   1      46.179  25.942  37.213  1.00  0.00    -0.237 OA
ATOM     46  O   UNL A   1      44.247  25.751  38.747  1.00  0.00    -0.237 OA
ATOM     47  O   UNL A   1      44.600  24.054  36.995  1.00  0.00    -0.744 OA
ENDBRANCH  43  44
ENDBRANCH  22  36
BRANCH  23  48
ATOM     48  C   UNL A   1      43.608  25.994  26.378  1.00  0.00     0.058 A 
ATOM     49  C   UNL A   1      44.673  25.819  25.478  1.00  0.00     0.135 A 
ATOM     50  C   UNL A   1      42.878  24.833  26.713  1.00  0.00     0.135 A 
ATOM     51  F   UNL A   1      45.439  26.864  25.129  1.00  0.00    -0.206 F 
ATOM     52  C   UNL A   1      45.018  24.562  24.969  1.00  0.00     0.059 A 
ATOM     53  C   UNL A   1      43.194  23.575  26.207  1.00  0.00     0.059 A 
ATOM     54  F   UNL A   1      41.889  24.873  27.618  1.00  0.00    -0.206 F 
ATOM     55  C   UNL A   1      44.280  23.442  25.353  1.00  0.00     0.060 A 
BRANCH  55  56
ATOM     56  S   UNL A   1      44.819  21.797  24.829  1.00  0.00     0.124 S 
ATOM     57  O   UNL A   1      46.216  21.791  25.248  1.00  0.00    -0.237 OA
ATOM     58  O   UNL A   1      43.923  20.925  25.580  1.00  0.00    -0.237 OA
ATOM     59  O   UNL A   1      44.601  21.813  23.384  1.00  0.00    -0.744 OA
ENDBRANCH  55  56
ENDBRANCH  23  48
BRANCH  35  60
ATOM     60  C   UNL A   1      45.141  31.544  29.182  1.00  0.00     0.058 A 
ATOM     61  C   UNL A   1      46.412  32.008  28.801  1.00  0.00     0.135 A 
ATOM     62  C   UNL A   1      44.038  32.028  28.461  1.00  0.00     0.135 A 
ATOM     63  F   UNL A   1      47.523  31.521  29.371  1.00  0.00    -0.206 F 
ATOM     64  C   UNL A   1      46.578  32.925  27.762  1.00  0.00     0.059 A 
ATOM     65  C   UNL A   1      44.182  32.920  27.402  1.00  0.00     0.059 A 
ATOM     66  F   UNL A   1      42.803  31.575  28.737  1.00  0.00    -0.206 F 
ATOM     67  C   UNL A   1      45.456  33.367  27.059  1.00  0.00     0.060 A 
BRANCH  67  68
ATOM     68  S   UNL A   1      45.688  34.443  25.626  1.00  0.00     0.124 S 
ATOM     69  O   UNL A   1      45.230  35.733  26.133  1.00  0.00    -0.237 OA
ATOM     70  O   UNL A   1      47.122  34.333  25.373  1.00  0.00    -0.237 OA
ATOM     71  O   UNL A   1      44.838  33.837  24.604  1.00  0.00    -0.744 OA
ENDBRANCH  67  68
ENDBRANCH  35  60
ENDBRANCH   9  10
ENDBRANCH   2   4
ENDBRANCH   1   2
BRANCH   1  72
ATOM     72  C   UNL A   1      33.496  33.934  28.004  1.00  0.00     0.275 C 
BRANCH  72  73
ATOM     73  C   UNL A   1      33.397  35.260  28.760  1.00  0.00     0.275 C 
BRANCH  73  74
ATOM     74  O   UNL A   1      32.636  35.073  29.964  1.00  0.00    -0.457 OA
BRANCH  74  75
ATOM     75  C   UNL A   1      32.900  35.938  30.989  1.00  0.00     0.359 C 
ATOM     76  O   UNL A   1      32.557  37.115  31.025  1.00  0.00    -0.244 OA
BRANCH  75  77
ATOM     77  C   UNL A   1      33.687  35.282  32.031  1.00  0.00     0.174 A 
ATOM     78  C   UNL A   1      34.353  35.934  33.128  1.00  0.00     0.091 A 
ATOM     79  N   UNL A   1      33.915  33.943  32.034  1.00  0.00    -0.142 NA
ATOM     80  C   UNL A   1      35.001  34.916  33.765  1.00  0.00     0.199 A 
ATOM     81  N   UNL A   1      34.712  33.811  33.074  1.00  0.00    -0.135 N 
ATOM     82  N   UNL A   1      35.830  34.598  34.786  1.00  0.00    -0.109 NA
ATOM     83  N   UNL A   1      35.355  32.820  33.658  1.00  0.00    -0.177 N 
ATOM     84  N   UNL A   1      36.098  33.348  34.701  1.00  0.00    -0.050 NA
ATOM     85  H   UNL A   1      35.314  31.871  33.400  1.00  0.00     0.216 HD
ENDBRANCH  75  77
ENDBRANCH  74  75
ENDBRANCH  73  74
ENDBRANCH  72  73
ENDBRANCH   1  72
TORSDOF 14
ENDMDL
