MODEL 1
REMARK VINA RESULT:     -10.8      0.000      0.000
REMARK SMILES CC(C)Cc1ccc([C@H](CF)C(=O)OCCOC(=O)c2ccc(-c3c4nc(c(-c5c(F)cc(S(=O)(=O)[O-])cc5F)c5ccc([nH]5)c(-c5c(F)cc(S(=O)(=O)[O-])cc5F)c5nc(c(-c6c(F)cc(S(=O)(=O)[O-])cc6F)c6ccc3[nH]6)C=C5)C=C4)cc2)cc1
REMARK SMILES IDX 15 1 14 2 12 3 13 4 9 5 8 6 5 7 6 8 87 9 7 10 86 11 4 12
REMARK SMILES IDX 2 13 1 14 3 15 10 16 11 17 16 18 17 19 18 20 19 21 20 22
REMARK SMILES IDX 21 23 85 24 22 25 84 26 23 27 24 28 25 29 78 30 26 31 83 32
REMARK SMILES IDX 77 33 79 34 27 35 82 36 76 37 75 38 28 40 62 41 41 42 61 43
REMARK SMILES IDX 42 44 45 45 60 46 80 47 43 48 44 49 59 51 81 52 46 53 29 54
REMARK SMILES IDX 30 55 39 56 31 57 32 58 38 59 40 60 33 61 34 62 35 63 36 64
REMARK SMILES IDX 37 65 63 66 64 67 73 68 65 69 66 70 72 71 74 72 67 73 68 74
REMARK SMILES IDX 69 75 70 76 71 77 47 78 48 79 57 80 49 81 50 82 56 83 58 84
REMARK SMILES IDX 51 85 52 86 53 87 54 88 55 89
REMARK H PARENT 79 39 45 50
REMARK Flexibility Score: inf
ROOT
ATOM      1  C   UNL A   1      37.774  23.699  25.721  1.00  0.00     0.274 C 
ENDROOT
BRANCH   1   2
ATOM      2  O   UNL A   1      37.339  23.318  24.400  1.00  0.00    -0.462 OA
BRANCH   2   3
ATOM      3  C   UNL A   1      36.020  23.518  24.125  1.00  0.00     0.316 C 
ATOM      4  O   UNL A   1      35.612  24.089  23.119  1.00  0.00    -0.251 OA
BRANCH   3   5
ATOM      5  C   UNL A   1      35.090  23.041  25.232  1.00  0.00     0.160 C 
BRANCH   5   6
ATOM      6  C   UNL A   1      34.468  21.697  24.908  1.00  0.00    -0.031 A 
ATOM      7  C   UNL A   1      33.183  19.222  24.563  1.00  0.00    -0.048 A 
ATOM      8  C   UNL A   1      34.562  19.280  24.804  1.00  0.00     0.004 A 
ATOM      9  C   UNL A   1      32.466  20.413  24.413  1.00  0.00     0.004 A 
ATOM     10  C   UNL A   1      35.202  20.507  24.970  1.00  0.00     0.005 A 
ATOM     11  C   UNL A   1      33.104  21.640  24.584  1.00  0.00     0.005 A 
BRANCH   7  12
ATOM     12  C   UNL A   1      32.462  17.897  24.558  1.00  0.00     0.038 C 
BRANCH  12  13
ATOM     13  C   UNL A   1      33.421  16.699  24.724  1.00  0.00    -0.013 C 
ATOM     14  C   UNL A   1      32.714  15.459  25.281  1.00  0.00     0.008 C 
ATOM     15  C   UNL A   1      34.074  16.364  23.383  1.00  0.00     0.008 C 
ENDBRANCH  12  13
ENDBRANCH   7  12
ENDBRANCH   5   6
BRANCH   5  16
ATOM     16  C   UNL A   1      34.074  24.071  25.698  1.00  0.00     0.234 C 
ATOM     17  F   UNL A   1      33.728  23.779  26.986  1.00  0.00    -0.250 F 
ENDBRANCH   5  16
ENDBRANCH   3   5
ENDBRANCH   2   3
ENDBRANCH   1   2
BRANCH   1  18
ATOM     18  C   UNL A   1      38.921  22.820  26.229  1.00  0.00     0.275 C 
BRANCH  18  19
ATOM     19  O   UNL A   1      39.559  23.381  27.390  1.00  0.00    -0.458 OA
BRANCH  19  20
ATOM     20  C   UNL A   1      40.530  24.288  27.120  1.00  0.00     0.338 C 
ATOM     21  O   UNL A   1      41.340  24.239  26.211  1.00  0.00    -0.246 OA
BRANCH  20  22
ATOM     22  C   UNL A   1      40.389  25.444  28.020  1.00  0.00     0.060 A 
ATOM     23  C   UNL A   1      41.475  26.311  28.156  1.00  0.00     0.016 A 
ATOM     24  C   UNL A   1      39.233  25.634  28.776  1.00  0.00     0.016 A 
ATOM     25  C   UNL A   1      41.418  27.377  29.047  1.00  0.00     0.010 A 
ATOM     26  C   UNL A   1      39.176  26.703  29.678  1.00  0.00     0.010 A 
ATOM     27  C   UNL A   1      40.272  27.574  29.825  1.00  0.00    -0.014 A 
BRANCH  27  28
ATOM     28  C   UNL A   1      40.254  28.649  30.843  1.00  0.00     0.031 A 
ATOM     29  C   UNL A   1      41.199  28.579  32.007  1.00  0.00     0.074 A 
ATOM     30  C   UNL A   1      39.409  29.688  30.710  1.00  0.00     0.049 A 
ATOM     31  N   UNL A   1      41.278  29.355  33.057  1.00  0.00    -0.248 NA
ATOM     32  C   UNL A   1      42.188  27.489  31.988  1.00  0.00     0.031 C 
ATOM     33  C   UNL A   1      38.485  29.887  29.592  1.00  0.00     0.029 A 
ATOM     34  N   UNL A   1      39.188  30.770  31.524  1.00  0.00    -0.354 N 
ATOM     35  C   UNL A   1      42.300  28.831  33.839  1.00  0.00     0.074 A 
ATOM     36  C   UNL A   1      42.810  27.668  33.146  1.00  0.00     0.031 C 
ATOM     37  C   UNL A   1      37.788  31.016  29.798  1.00  0.00     0.029 A 
ATOM     38  C   UNL A   1      38.183  31.595  31.079  1.00  0.00     0.049 A 
ATOM     39  H   UNL A   1      39.698  30.937  32.349  1.00  0.00     0.167 HD
ATOM     40  C   UNL A   1      42.765  29.282  35.028  1.00  0.00     0.037 A 
ATOM     41  C   UNL A   1      37.624  32.676  31.656  1.00  0.00     0.037 A 
ATOM     42  C   UNL A   1      42.266  30.456  35.695  1.00  0.00     0.049 A 
ATOM     43  C   UNL A   1      38.132  33.134  32.998  1.00  0.00     0.074 A 
ATOM     44  C   UNL A   1      42.684  31.009  36.893  1.00  0.00     0.029 A 
ATOM     45  N   UNL A   1      41.239  31.258  35.221  1.00  0.00    -0.354 N 
ATOM     46  N   UNL A   1      39.093  32.625  33.733  1.00  0.00    -0.248 NA
ATOM     47  C   UNL A   1      37.476  34.306  33.593  1.00  0.00     0.031 C 
ATOM     48  C   UNL A   1      41.884  32.126  37.161  1.00  0.00     0.029 A 
ATOM     49  C   UNL A   1      40.995  32.293  36.111  1.00  0.00     0.049 A 
ATOM     50  H   UNL A   1      40.753  31.115  34.377  1.00  0.00     0.167 HD
ATOM     51  C   UNL A   1      39.170  33.426  34.866  1.00  0.00     0.074 A 
ATOM     52  C   UNL A   1      38.166  34.460  34.715  1.00  0.00     0.031 C 
ATOM     53  C   UNL A   1      39.995  33.316  35.937  1.00  0.00     0.037 A 
BRANCH  40  54
ATOM     54  C   UNL A   1      43.846  28.484  35.700  1.00  0.00     0.058 A 
ATOM     55  C   UNL A   1      43.555  27.457  36.610  1.00  0.00     0.135 A 
ATOM     56  C   UNL A   1      45.196  28.733  35.402  1.00  0.00     0.135 A 
ATOM     57  F   UNL A   1      42.282  27.189  36.943  1.00  0.00    -0.206 F 
ATOM     58  C   UNL A   1      44.565  26.718  37.220  1.00  0.00     0.059 A 
ATOM     59  C   UNL A   1      46.221  27.993  35.983  1.00  0.00     0.059 A 
ATOM     60  F   UNL A   1      45.529  29.706  34.542  1.00  0.00    -0.206 F 
ATOM     61  C   UNL A   1      45.896  26.996  36.901  1.00  0.00     0.060 A 
BRANCH  61  62
ATOM     62  S   UNL A   1      47.198  26.028  37.694  1.00  0.00     0.124 S 
ATOM     63  O   UNL A   1      46.492  24.789  38.005  1.00  0.00    -0.237 OA
ATOM     64  O   UNL A   1      48.206  25.936  36.643  1.00  0.00    -0.237 OA
ATOM     65  O   UNL A   1      47.573  26.842  38.846  1.00  0.00    -0.744 OA
ENDBRANCH  61  62
ENDBRANCH  40  54
BRANCH  41  66
ATOM     66  C   UNL A   1      36.501  33.381  30.986  1.00  0.00     0.058 A 
ATOM     67  C   UNL A   1      35.191  33.290  31.474  1.00  0.00     0.135 A 
ATOM     68  C   UNL A   1      36.718  34.163  29.839  1.00  0.00     0.135 A 
ATOM     69  F   UNL A   1      34.930  32.546  32.560  1.00  0.00    -0.206 F 
ATOM     70  C   UNL A   1      34.131  33.937  30.846  1.00  0.00     0.059 A 
ATOM     71  C   UNL A   1      35.680  34.839  29.206  1.00  0.00     0.059 A 
ATOM     72  F   UNL A   1      37.956  34.290  29.336  1.00  0.00    -0.206 F 
ATOM     73  C   UNL A   1      34.386  34.710  29.711  1.00  0.00     0.060 A 
BRANCH  73  74
ATOM     74  S   UNL A   1      33.015  35.581  28.923  1.00  0.00     0.124 S 
ATOM     75  O   UNL A   1      32.414  34.520  28.123  1.00  0.00    -0.237 OA
ATOM     76  O   UNL A   1      32.234  36.034  30.071  1.00  0.00    -0.237 OA
ATOM     77  O   UNL A   1      33.680  36.641  28.171  1.00  0.00    -0.744 OA
ENDBRANCH  73  74
ENDBRANCH  41  66
BRANCH  53  78
ATOM     78  C   UNL A   1      39.870  34.357  37.012  1.00  0.00     0.058 A 
ATOM     79  C   UNL A   1      40.512  35.600  36.911  1.00  0.00     0.135 A 
ATOM     80  C   UNL A   1      39.057  34.126  38.134  1.00  0.00     0.135 A 
ATOM     81  F   UNL A   1      41.305  35.867  35.861  1.00  0.00    -0.206 F 
ATOM     82  C   UNL A   1      40.370  36.572  37.895  1.00  0.00     0.059 A 
ATOM     83  C   UNL A   1      38.882  35.091  39.120  1.00  0.00     0.059 A 
ATOM     84  F   UNL A   1      38.413  32.956  38.273  1.00  0.00    -0.206 F 
ATOM     85  C   UNL A   1      39.553  36.309  38.997  1.00  0.00     0.060 A 
BRANCH  85  86
ATOM     86  S   UNL A   1      39.349  37.588  40.254  1.00  0.00     0.124 S 
ATOM     87  O   UNL A   1      38.327  38.435  39.648  1.00  0.00    -0.237 OA
ATOM     88  O   UNL A   1      38.925  36.820  41.420  1.00  0.00    -0.237 OA
ATOM     89  O   UNL A   1      40.680  38.180  40.352  1.00  0.00    -0.744 OA
ENDBRANCH  85  86
ENDBRANCH  53  78
ENDBRANCH  27  28
ENDBRANCH  20  22
ENDBRANCH  19  20
ENDBRANCH  18  19
ENDBRANCH   1  18
TORSDOF 18
ENDMDL
MODEL 2
REMARK VINA RESULT:     -10.6      2.395      9.096
REMARK SMILES CC(C)Cc1ccc([C@H](CF)C(=O)OCCOC(=O)c2ccc(-c3c4nc(c(-c5c(F)cc(S(=O)(=O)[O-])cc5F)c5ccc([nH]5)c(-c5c(F)cc(S(=O)(=O)[O-])cc5F)c5nc(c(-c6c(F)cc(S(=O)(=O)[O-])cc6F)c6ccc3[nH]6)C=C5)C=C4)cc2)cc1
REMARK SMILES IDX 15 1 14 2 12 3 13 4 9 5 8 6 5 7 6 8 87 9 7 10 86 11 4 12
REMARK SMILES IDX 2 13 1 14 3 15 10 16 11 17 16 18 17 19 18 20 19 21 20 22
REMARK SMILES IDX 21 23 85 24 22 25 84 26 23 27 24 28 25 29 78 30 26 31 83 32
REMARK SMILES IDX 77 33 79 34 27 35 82 36 76 37 75 38 28 40 62 41 41 42 61 43
REMARK SMILES IDX 42 44 45 45 60 46 80 47 43 48 44 49 59 51 81 52 46 53 29 54
REMARK SMILES IDX 30 55 39 56 31 57 32 58 38 59 40 60 33 61 34 62 35 63 36 64
REMARK SMILES IDX 37 65 63 66 64 67 73 68 65 69 66 70 72 71 74 72 67 73 68 74
REMARK SMILES IDX 69 75 70 76 71 77 47 78 48 79 57 80 49 81 50 82 56 83 58 84
REMARK SMILES IDX 51 85 52 86 53 87 54 88 55 89
REMARK H PARENT 79 39 45 50
REMARK Flexibility Score: inf
ROOT
ATOM      1  C   UNL A   1      43.606  22.368  25.457  1.00  0.00     0.274 C 
ENDROOT
BRANCH   1   2
ATOM      2  O   UNL A   1      42.292  21.779  25.373  1.00  0.00    -0.462 OA
BRANCH   2   3
ATOM      3  C   UNL A   1      41.955  20.927  26.380  1.00  0.00     0.316 C 
ATOM      4  O   UNL A   1      42.434  19.806  26.514  1.00  0.00    -0.251 OA
BRANCH   3   5
ATOM      5  C   UNL A   1      40.854  21.463  27.285  1.00  0.00     0.160 C 
BRANCH   5   6
ATOM      6  C   UNL A   1      39.651  21.938  26.493  1.00  0.00    -0.031 A 
ATOM      7  C   UNL A   1      37.278  22.817  25.274  1.00  0.00    -0.048 A 
ATOM      8  C   UNL A   1      37.743  21.512  25.066  1.00  0.00     0.004 A 
ATOM      9  C   UNL A   1      38.052  23.705  26.028  1.00  0.00     0.004 A 
ATOM     10  C   UNL A   1      38.922  21.075  25.666  1.00  0.00     0.005 A 
ATOM     11  C   UNL A   1      39.228  23.268  26.632  1.00  0.00     0.005 A 
BRANCH   7  12
ATOM     12  C   UNL A   1      35.918  23.235  24.772  1.00  0.00     0.038 C 
BRANCH  12  13
ATOM     13  C   UNL A   1      35.176  24.155  25.765  1.00  0.00    -0.013 C 
ATOM     14  C   UNL A   1      34.386  25.261  25.057  1.00  0.00     0.008 C 
ATOM     15  C   UNL A   1      34.235  23.327  26.641  1.00  0.00     0.008 C 
ENDBRANCH  12  13
ENDBRANCH   7  12
ENDBRANCH   5   6
BRANCH   5  16
ATOM     16  C   UNL A   1      41.318  22.470  28.325  1.00  0.00     0.234 C 
ATOM     17  F   UNL A   1      42.611  22.181  28.653  1.00  0.00    -0.250 F 
ENDBRANCH   5  16
ENDBRANCH   3   5
ENDBRANCH   2   3
ENDBRANCH   1   2
BRANCH   1  18
ATOM     18  C   UNL A   1      43.588  23.871  25.159  1.00  0.00     0.275 C 
BRANCH  18  19
ATOM     19  O   UNL A   1      42.915  24.617  26.189  1.00  0.00    -0.458 OA
BRANCH  19  20
ATOM     20  C   UNL A   1      42.444  25.826  25.797  1.00  0.00     0.338 C 
ATOM     21  O   UNL A   1      42.278  26.207  24.651  1.00  0.00    -0.246 OA
BRANCH  20  22
ATOM     22  C   UNL A   1      42.020  26.596  26.977  1.00  0.00     0.060 A 
ATOM     23  C   UNL A   1      42.615  27.839  27.203  1.00  0.00     0.016 A 
ATOM     24  C   UNL A   1      41.105  26.073  27.891  1.00  0.00     0.016 A 
ATOM     25  C   UNL A   1      42.302  28.573  28.342  1.00  0.00     0.010 A 
ATOM     26  C   UNL A   1      40.794  26.808  29.040  1.00  0.00     0.010 A 
ATOM     27  C   UNL A   1      41.398  28.058  29.276  1.00  0.00    -0.014 A 
BRANCH  27  28
ATOM     28  C   UNL A   1      41.143  28.796  30.534  1.00  0.00     0.031 A 
ATOM     29  C   UNL A   1      40.018  29.789  30.593  1.00  0.00     0.074 A 
ATOM     30  C   UNL A   1      41.904  28.561  31.619  1.00  0.00     0.049 A 
ATOM     31  N   UNL A   1      39.690  30.612  31.555  1.00  0.00    -0.248 NA
ATOM     32  C   UNL A   1      39.147  29.868  29.409  1.00  0.00     0.031 C 
ATOM     33  C   UNL A   1      42.989  27.581  31.692  1.00  0.00     0.029 A 
ATOM     34  N   UNL A   1      41.885  29.133  32.865  1.00  0.00    -0.354 N 
ATOM     35  C   UNL A   1      38.597  31.327  31.084  1.00  0.00     0.074 A 
ATOM     36  C   UNL A   1      38.319  30.847  29.748  1.00  0.00     0.031 C 
ATOM     37  C   UNL A   1      43.538  27.628  32.917  1.00  0.00     0.029 A 
ATOM     38  C   UNL A   1      42.876  28.670  33.698  1.00  0.00     0.049 A 
ATOM     39  H   UNL A   1      41.225  29.811  33.137  1.00  0.00     0.167 HD
ATOM     40  C   UNL A   1      37.893  32.299  31.712  1.00  0.00     0.037 A 
ATOM     41  C   UNL A   1      43.229  29.065  34.936  1.00  0.00     0.037 A 
ATOM     42  C   UNL A   1      38.163  32.751  33.052  1.00  0.00     0.049 A 
ATOM     43  C   UNL A   1      42.456  30.175  35.597  1.00  0.00     0.074 A 
ATOM     44  C   UNL A   1      37.496  33.714  33.788  1.00  0.00     0.029 A 
ATOM     45  N   UNL A   1      39.184  32.268  33.859  1.00  0.00    -0.354 N 
ATOM     46  N   UNL A   1      41.429  30.852  35.139  1.00  0.00    -0.248 NA
ATOM     47  C   UNL A   1      42.893  30.582  36.940  1.00  0.00     0.031 C 
ATOM     48  C   UNL A   1      38.136  33.841  35.026  1.00  0.00     0.029 A 
ATOM     49  C   UNL A   1      39.176  32.927  35.078  1.00  0.00     0.049 A 
ATOM     50  H   UNL A   1      39.820  31.562  33.603  1.00  0.00     0.167 HD
ATOM     51  C   UNL A   1      41.086  31.749  36.143  1.00  0.00     0.074 A 
ATOM     52  C   UNL A   1      42.006  31.522  37.238  1.00  0.00     0.031 C 
ATOM     53  C   UNL A   1      40.098  32.680  36.158  1.00  0.00     0.037 A 
BRANCH  40  54
ATOM     54  C   UNL A   1      36.785  32.963  30.945  1.00  0.00     0.058 A 
ATOM     55  C   UNL A   1      37.038  33.932  29.963  1.00  0.00     0.135 A 
ATOM     56  C   UNL A   1      35.448  32.598  31.178  1.00  0.00     0.135 A 
ATOM     57  F   UNL A   1      38.296  34.330  29.713  1.00  0.00    -0.206 F 
ATOM     58  C   UNL A   1      36.003  34.534  29.252  1.00  0.00     0.059 A 
ATOM     59  C   UNL A   1      34.400  33.170  30.464  1.00  0.00     0.059 A 
ATOM     60  F   UNL A   1      35.152  31.679  32.109  1.00  0.00    -0.206 F 
ATOM     61  C   UNL A   1      34.686  34.146  29.512  1.00  0.00     0.060 A 
BRANCH  61  62
ATOM     62  S   UNL A   1      33.353  34.930  28.580  1.00  0.00     0.124 S 
ATOM     63  O   UNL A   1      34.098  35.825  27.701  1.00  0.00    -0.237 OA
ATOM     64  O   UNL A   1      32.712  33.791  27.930  1.00  0.00    -0.237 OA
ATOM     65  O   UNL A   1      32.556  35.585  29.613  1.00  0.00    -0.744 OA
ENDBRANCH  61  62
ENDBRANCH  40  54
BRANCH  41  66
ATOM     66  C   UNL A   1      44.386  28.431  35.618  1.00  0.00     0.058 A 
ATOM     67  C   UNL A   1      45.697  28.869  35.385  1.00  0.00     0.135 A 
ATOM     68  C   UNL A   1      44.203  27.371  36.521  1.00  0.00     0.135 A 
ATOM     69  F   UNL A   1      45.925  29.871  34.522  1.00  0.00    -0.206 F 
ATOM     70  C   UNL A   1      46.788  28.272  36.010  1.00  0.00     0.059 A 
ATOM     71  C   UNL A   1      45.274  26.773  37.177  1.00  0.00     0.059 A 
ATOM     72  F   UNL A   1      42.966  26.920  36.787  1.00  0.00    -0.206 F 
ATOM     73  C   UNL A   1      46.565  27.224  36.906  1.00  0.00     0.060 A 
BRANCH  73  74
ATOM     74  S   UNL A   1      47.980  26.481  37.747  1.00  0.00     0.124 S 
ATOM     75  O   UNL A   1      48.933  26.342  36.651  1.00  0.00    -0.237 OA
ATOM     76  O   UNL A   1      48.307  27.488  38.752  1.00  0.00    -0.237 OA
ATOM     77  O   UNL A   1      47.438  25.233  38.275  1.00  0.00    -0.744 OA
ENDBRANCH  73  74
ENDBRANCH  41  66
BRANCH  53  78
ATOM     78  C   UNL A   1      39.943  33.497  37.408  1.00  0.00     0.058 A 
ATOM     79  C   UNL A   1      40.708  34.652  37.631  1.00  0.00     0.135 A 
ATOM     80  C   UNL A   1      38.982  33.148  38.371  1.00  0.00     0.135 A 
ATOM     81  F   UNL A   1      41.644  35.024  36.744  1.00  0.00    -0.206 F 
ATOM     82  C   UNL A   1      40.541  35.422  38.777  1.00  0.00     0.059 A 
ATOM     83  C   UNL A   1      38.782  33.915  39.513  1.00  0.00     0.059 A 
ATOM     84  F   UNL A   1      38.218  32.057  38.199  1.00  0.00    -0.206 F 
ATOM     85  C   UNL A   1      39.575  35.046  39.713  1.00  0.00     0.060 A 
BRANCH  85  86
ATOM     86  S   UNL A   1      39.343  36.069  41.182  1.00  0.00     0.124 S 
ATOM     87  O   UNL A   1      38.528  37.158  40.655  1.00  0.00    -0.237 OA
ATOM     88  O   UNL A   1      38.666  35.157  42.099  1.00  0.00    -0.237 OA
ATOM     89  O   UNL A   1      40.706  36.430  41.561  1.00  0.00    -0.744 OA
ENDBRANCH  85  86
ENDBRANCH  53  78
ENDBRANCH  27  28
ENDBRANCH  20  22
ENDBRANCH  19  20
ENDBRANCH  18  19
ENDBRANCH   1  18
TORSDOF 18
ENDMDL
MODEL 3
REMARK VINA RESULT:     -10.6      4.868     11.711
REMARK SMILES CC(C)Cc1ccc([C@H](CF)C(=O)OCCOC(=O)c2ccc(-c3c4nc(c(-c5c(F)cc(S(=O)(=O)[O-])cc5F)c5ccc([nH]5)c(-c5c(F)cc(S(=O)(=O)[O-])cc5F)c5nc(c(-c6c(F)cc(S(=O)(=O)[O-])cc6F)c6ccc3[nH]6)C=C5)C=C4)cc2)cc1
REMARK SMILES IDX 15 1 14 2 12 3 13 4 9 5 8 6 5 7 6 8 87 9 7 10 86 11 4 12
REMARK SMILES IDX 2 13 1 14 3 15 10 16 11 17 16 18 17 19 18 20 19 21 20 22
REMARK SMILES IDX 21 23 85 24 22 25 84 26 23 27 24 28 25 29 78 30 26 31 83 32
REMARK SMILES IDX 77 33 79 34 27 35 82 36 76 37 75 38 28 40 62 41 41 42 61 43
REMARK SMILES IDX 42 44 45 45 60 46 80 47 43 48 44 49 59 51 81 52 46 53 29 54
REMARK SMILES IDX 30 55 39 56 31 57 32 58 38 59 40 60 33 61 34 62 35 63 36 64
REMARK SMILES IDX 37 65 63 66 64 67 73 68 65 69 66 70 72 71 74 72 67 73 68 74
REMARK SMILES IDX 69 75 70 76 71 77 47 78 48 79 57 80 49 81 50 82 56 83 58 84
REMARK SMILES IDX 51 85 52 86 53 87 54 88 55 89
REMARK H PARENT 79 39 45 50
REMARK Flexibility Score: inf
ROOT
ATOM      1  C   UNL A   1      33.847  34.310  28.300  1.00  0.00     0.274 C 
ENDROOT
BRANCH   1   2
ATOM      2  O   UNL A   1      34.827  34.470  29.345  1.00  0.00    -0.462 OA
BRANCH   2   3
ATOM      3  C   UNL A   1      34.338  34.574  30.611  1.00  0.00     0.316 C 
ATOM      4  O   UNL A   1      33.388  35.286  30.919  1.00  0.00    -0.251 OA
BRANCH   3   5
ATOM      5  C   UNL A   1      35.139  33.786  31.639  1.00  0.00     0.160 C 
BRANCH   5   6
ATOM      6  C   UNL A   1      36.625  34.072  31.539  1.00  0.00    -0.031 A 
ATOM      7  C   UNL A   1      39.418  34.318  31.356  1.00  0.00    -0.048 A 
ATOM      8  C   UNL A   1      38.751  34.649  32.543  1.00  0.00     0.004 A 
ATOM      9  C   UNL A   1      38.670  33.944  30.236  1.00  0.00     0.004 A 
ATOM     10  C   UNL A   1      37.365  34.532  32.634  1.00  0.00     0.005 A 
ATOM     11  C   UNL A   1      37.285  33.822  30.327  1.00  0.00     0.005 A 
BRANCH   7  12
ATOM     12  C   UNL A   1      40.924  34.275  31.311  1.00  0.00     0.038 C 
BRANCH  12  13
ATOM     13  C   UNL A   1      41.462  33.703  29.983  1.00  0.00    -0.013 C 
ATOM     14  C   UNL A   1      42.218  34.751  29.159  1.00  0.00     0.008 C 
ATOM     15  C   UNL A   1      42.374  32.508  30.259  1.00  0.00     0.008 C 
ENDBRANCH  12  13
ENDBRANCH   7  12
ENDBRANCH   5   6
BRANCH   5  16
ATOM     16  C   UNL A   1      34.822  32.299  31.689  1.00  0.00     0.234 C 
ATOM     17  F   UNL A   1      35.804  31.676  32.402  1.00  0.00    -0.250 F 
ENDBRANCH   5  16
ENDBRANCH   3   5
ENDBRANCH   2   3
ENDBRANCH   1   2
BRANCH   1  18
ATOM     18  C   UNL A   1      33.531  32.836  28.023  1.00  0.00     0.275 C 
BRANCH  18  19
ATOM     19  O   UNL A   1      34.629  32.160  27.385  1.00  0.00    -0.458 OA
BRANCH  19  20
ATOM     20  C   UNL A   1      34.560  30.806  27.423  1.00  0.00     0.338 C 
ATOM     21  O   UNL A   1      33.675  30.109  26.960  1.00  0.00    -0.246 OA
BRANCH  20  22
ATOM     22  C   UNL A   1      35.801  30.266  28.002  1.00  0.00     0.060 A 
ATOM     23  C   UNL A   1      35.743  29.703  29.279  1.00  0.00     0.016 A 
ATOM     24  C   UNL A   1      37.019  30.377  27.332  1.00  0.00     0.016 A 
ATOM     25  C   UNL A   1      36.900  29.244  29.898  1.00  0.00     0.010 A 
ATOM     26  C   UNL A   1      38.184  29.920  27.957  1.00  0.00     0.010 A 
ATOM     27  C   UNL A   1      38.132  29.360  29.247  1.00  0.00    -0.014 A 
BRANCH  27  28
ATOM     28  C   UNL A   1      39.373  28.961  29.950  1.00  0.00     0.031 A 
ATOM     29  C   UNL A   1      39.777  29.685  31.203  1.00  0.00     0.074 A 
ATOM     30  C   UNL A   1      40.118  27.944  29.478  1.00  0.00     0.049 A 
ATOM     31  N   UNL A   1      40.869  29.566  31.912  1.00  0.00    -0.248 NA
ATOM     32  C   UNL A   1      38.824  30.677  31.726  1.00  0.00     0.031 C 
ATOM     33  C   UNL A   1      39.793  27.136  28.302  1.00  0.00     0.029 A 
ATOM     34  N   UNL A   1      41.304  27.422  29.928  1.00  0.00    -0.354 N 
ATOM     35  C   UNL A   1      40.752  30.486  32.945  1.00  0.00     0.074 A 
ATOM     36  C   UNL A   1      39.484  31.162  32.769  1.00  0.00     0.031 C 
ATOM     37  C   UNL A   1      40.764  26.226  28.116  1.00  0.00     0.029 A 
ATOM     38  C   UNL A   1      41.797  26.416  29.131  1.00  0.00     0.049 A 
ATOM     39  H   UNL A   1      41.758  27.737  30.742  1.00  0.00     0.167 HD
ATOM     40  C   UNL A   1      41.627  30.743  33.946  1.00  0.00     0.037 A 
ATOM     41  C   UNL A   1      42.965  25.748  29.195  1.00  0.00     0.037 A 
ATOM     42  C   UNL A   1      42.874  30.047  34.125  1.00  0.00     0.049 A 
ATOM     43  C   UNL A   1      43.938  26.081  30.294  1.00  0.00     0.074 A 
ATOM     44  C   UNL A   1      43.821  30.217  35.119  1.00  0.00     0.029 A 
ATOM     45  N   UNL A   1      43.346  29.044  33.290  1.00  0.00    -0.354 N 
ATOM     46  N   UNL A   1      43.821  26.961  31.261  1.00  0.00    -0.248 NA
ATOM     47  C   UNL A   1      45.206  25.338  30.308  1.00  0.00     0.031 C 
ATOM     48  C   UNL A   1      44.884  29.343  34.865  1.00  0.00     0.029 A 
ATOM     49  C   UNL A   1      44.580  28.599  33.736  1.00  0.00     0.049 A 
ATOM     50  H   UNL A   1      42.875  28.699  32.498  1.00  0.00     0.167 HD
ATOM     51  C   UNL A   1      44.989  26.863  32.008  1.00  0.00     0.074 A 
ATOM     52  C   UNL A   1      45.795  25.830  31.389  1.00  0.00     0.031 C 
ATOM     53  C   UNL A   1      45.363  27.564  33.108  1.00  0.00     0.037 A 
BRANCH  40  54
ATOM     54  C   UNL A   1      41.281  31.847  34.905  1.00  0.00     0.058 A 
ATOM     55  C   UNL A   1      41.803  33.142  34.767  1.00  0.00     0.135 A 
ATOM     56  C   UNL A   1      40.388  31.609  35.963  1.00  0.00     0.135 A 
ATOM     57  F   UNL A   1      42.675  33.419  33.785  1.00  0.00    -0.206 F 
ATOM     58  C   UNL A   1      41.469  34.159  35.658  1.00  0.00     0.059 A 
ATOM     59  C   UNL A   1      40.023  32.616  36.852  1.00  0.00     0.059 A 
ATOM     60  F   UNL A   1      39.863  30.388  36.142  1.00  0.00    -0.206 F 
ATOM     61  C   UNL A   1      40.579  33.884  36.698  1.00  0.00     0.060 A 
BRANCH  61  62
ATOM     62  S   UNL A   1      40.149  35.212  37.844  1.00  0.00     0.124 S 
ATOM     63  O   UNL A   1      40.030  36.351  36.939  1.00  0.00    -0.237 OA
ATOM     64  O   UNL A   1      38.899  34.733  38.426  1.00  0.00    -0.237 OA
ATOM     65  O   UNL A   1      41.285  35.253  38.759  1.00  0.00    -0.744 OA
ENDBRANCH  61  62
ENDBRANCH  40  54
BRANCH  41  66
ATOM     66  C   UNL A   1      43.293  24.722  28.171  1.00  0.00     0.058 A 
ATOM     67  C   UNL A   1      43.979  25.060  26.997  1.00  0.00     0.135 A 
ATOM     68  C   UNL A   1      42.926  23.378  28.349  1.00  0.00     0.135 A 
ATOM     69  F   UNL A   1      44.341  26.333  26.775  1.00  0.00    -0.206 F 
ATOM     70  C   UNL A   1      44.279  24.108  26.027  1.00  0.00     0.059 A 
ATOM     71  C   UNL A   1      43.234  22.404  27.407  1.00  0.00     0.059 A 
ATOM     72  F   UNL A   1      42.275  23.000  29.461  1.00  0.00    -0.206 F 
ATOM     73  C   UNL A   1      43.903  22.781  26.242  1.00  0.00     0.060 A 
BRANCH  73  74
ATOM     74  S   UNL A   1      44.331  21.542  25.000  1.00  0.00     0.124 S 
ATOM     75  O   UNL A   1      44.160  22.295  23.763  1.00  0.00    -0.237 OA
ATOM     76  O   UNL A   1      45.707  21.208  25.358  1.00  0.00    -0.237 OA
ATOM     77  O   UNL A   1      43.356  20.481  25.236  1.00  0.00    -0.744 OA
ENDBRANCH  73  74
ENDBRANCH  41  66
BRANCH  53  78
ATOM     78  C   UNL A   1      46.685  27.216  33.729  1.00  0.00     0.058 A 
ATOM     79  C   UNL A   1      46.798  26.217  34.707  1.00  0.00     0.135 A 
ATOM     80  C   UNL A   1      47.860  27.857  33.305  1.00  0.00     0.135 A 
ATOM     81  F   UNL A   1      45.703  25.580  35.151  1.00  0.00    -0.206 F 
ATOM     82  C   UNL A   1      48.029  25.878  35.260  1.00  0.00     0.059 A 
ATOM     83  C   UNL A   1      49.105  27.519  33.827  1.00  0.00     0.059 A 
ATOM     84  F   UNL A   1      47.807  28.814  32.364  1.00  0.00    -0.206 F 
ATOM     85  C   UNL A   1      49.177  26.535  34.813  1.00  0.00     0.060 A 
BRANCH  85  86
ATOM     86  S   UNL A   1      50.774  26.067  35.512  1.00  0.00     0.124 S 
ATOM     87  O   UNL A   1      51.142  27.277  36.239  1.00  0.00    -0.237 OA
ATOM     88  O   UNL A   1      50.431  24.912  36.336  1.00  0.00    -0.237 OA
ATOM     89  O   UNL A   1      51.584  25.769  34.335  1.00  0.00    -0.744 OA
ENDBRANCH  85  86
ENDBRANCH  53  78
ENDBRANCH  27  28
ENDBRANCH  20  22
ENDBRANCH  19  20
ENDBRANCH  18  19
ENDBRANCH   1  18
TORSDOF 18
ENDMDL
