MODEL 1
REMARK VINA RESULT:      -9.6      0.000      0.000
REMARK SMILES CS(=O)(=O)NCCCCCC(=O)OCCOC(=O)c1ccc(-c2c3nc(c(-c4c(F)cc(S(=O)(=O)[O-])cc4F)c4ccc([nH]4)c(-c4c(F)cc(S(=O)(=O)[O-])cc4F)c4nc(c(-c5c(F)cc(S(=O)(=O)[O-])cc5F)c5ccc2[nH]5)C=C4)C=C3)cc1
REMARK SMILES IDX 13 1 11 2 12 3 10 4 9 5 8 6 7 7 6 8 5 9 2 11 1 12 3 13 4 14
REMARK SMILES IDX 14 15 15 16 16 17 17 18 18 19 19 20 20 21 84 22 21 23 83 24
REMARK SMILES IDX 22 25 23 26 24 27 77 28 25 29 82 30 76 31 78 32 26 33 81 34
REMARK SMILES IDX 75 35 74 36 27 38 61 39 40 40 60 41 41 42 44 43 59 44 79 45
REMARK SMILES IDX 42 46 43 47 58 49 80 50 45 51 28 52 29 53 38 54 30 55 31 56
REMARK SMILES IDX 37 57 39 58 32 59 33 60 34 61 35 62 36 63 62 64 63 65 72 66
REMARK SMILES IDX 64 67 65 68 71 69 73 70 66 71 67 72 68 73 69 74 70 75 46 76
REMARK SMILES IDX 47 77 56 78 48 79 49 80 55 81 57 82 50 83 51 84 52 85 53 86
REMARK SMILES IDX 54 87
REMARK H PARENT 5 10 78 37 44 48
REMARK Flexibility Score: inf
ROOT
ATOM      1  O   UNL A   1      37.629  21.666  24.871  1.00  0.00    -0.462 OA
ENDROOT
BRANCH   1   2
ATOM      2  C   UNL A   1      36.777  20.634  25.077  1.00  0.00     0.305 C 
ATOM      3  O   UNL A   1      37.042  19.456  24.877  1.00  0.00    -0.252 OA
BRANCH   2   4
ATOM      4  C   UNL A   1      35.408  21.090  25.541  1.00  0.00     0.123 C 
BRANCH   4   5
ATOM      5  C   UNL A   1      34.387  21.412  24.443  1.00  0.00     0.012 C 
BRANCH   5   6
ATOM      6  C   UNL A   1      32.976  20.840  24.640  1.00  0.00     0.002 C 
BRANCH   6   7
ATOM      7  C   UNL A   1      32.906  19.614  25.549  1.00  0.00     0.016 C 
BRANCH   7   8
ATOM      8  C   UNL A   1      32.690  18.308  24.797  1.00  0.00     0.098 C 
BRANCH   8   9
ATOM      9  N   UNL A   1      33.114  17.116  25.543  1.00  0.00    -0.215 NA
ATOM     10  H   UNL A   1      33.754  17.444  26.267  1.00  0.00     0.140 HD
BRANCH   9  11
ATOM     11  S   UNL A   1      33.876  15.824  24.794  1.00  0.00     0.208 S 
ATOM     12  C   UNL A   1      35.532  15.915  25.442  1.00  0.00     0.176 C 
ATOM     13  O   UNL A   1      33.922  16.067  23.372  1.00  0.00    -0.213 OA
ATOM     14  O   UNL A   1      33.247  14.630  25.316  1.00  0.00    -0.213 OA
ENDBRANCH   9  11
ENDBRANCH   8   9
ENDBRANCH   7   8
ENDBRANCH   6   7
ENDBRANCH   5   6
ENDBRANCH   4   5
ENDBRANCH   2   4
ENDBRANCH   1   2
BRANCH   1  15
ATOM     15  C   UNL A   1      38.751  21.783  25.764  1.00  0.00     0.274 C 
BRANCH  15  16
ATOM     16  C   UNL A   1      39.002  23.250  26.110  1.00  0.00     0.275 C 
BRANCH  16  17
ATOM     17  O   UNL A   1      39.964  23.359  27.176  1.00  0.00    -0.458 OA
BRANCH  17  18
ATOM     18  C   UNL A   1      40.963  24.248  26.972  1.00  0.00     0.338 C 
ATOM     19  O   UNL A   1      41.827  24.214  26.113  1.00  0.00    -0.246 OA
BRANCH  18  20
ATOM     20  C   UNL A   1      40.791  25.379  27.894  1.00  0.00     0.060 A 
ATOM     21  C   UNL A   1      41.881  26.218  28.123  1.00  0.00     0.016 A 
ATOM     22  C   UNL A   1      39.595  25.564  28.587  1.00  0.00     0.016 A 
ATOM     23  C   UNL A   1      41.792  27.247  29.054  1.00  0.00     0.010 A 
ATOM     24  C   UNL A   1      39.499  26.612  29.508  1.00  0.00     0.010 A 
ATOM     25  C   UNL A   1      40.600  27.453  29.756  1.00  0.00    -0.014 A 
BRANCH  25  26
ATOM     26  C   UNL A   1      40.525  28.521  30.782  1.00  0.00     0.031 A 
ATOM     27  C   UNL A   1      41.439  28.476  31.972  1.00  0.00     0.074 A 
ATOM     28  C   UNL A   1      39.651  29.535  30.633  1.00  0.00     0.049 A 
ATOM     29  N   UNL A   1      41.455  29.239  33.033  1.00  0.00    -0.248 NA
ATOM     30  C   UNL A   1      42.473  27.428  31.969  1.00  0.00     0.031 C 
ATOM     31  C   UNL A   1      38.751  29.713  29.492  1.00  0.00     0.029 A 
ATOM     32  N   UNL A   1      39.374  30.605  31.445  1.00  0.00    -0.354 N 
ATOM     33  C   UNL A   1      42.477  28.750  33.838  1.00  0.00     0.074 A 
ATOM     34  C   UNL A   1      43.050  27.614  33.148  1.00  0.00     0.031 C 
ATOM     35  C   UNL A   1      38.023  30.827  29.677  1.00  0.00     0.029 A 
ATOM     36  C   UNL A   1      38.362  31.407  30.972  1.00  0.00     0.049 A 
ATOM     37  H   UNL A   1      39.853  30.782  32.287  1.00  0.00     0.167 HD
ATOM     38  C   UNL A   1      42.896  29.209  35.041  1.00  0.00     0.037 A 
ATOM     39  C   UNL A   1      37.754  32.468  31.536  1.00  0.00     0.037 A 
ATOM     40  C   UNL A   1      42.328  30.354  35.707  1.00  0.00     0.049 A 
ATOM     41  C   UNL A   1      38.198  32.924  32.899  1.00  0.00     0.074 A 
ATOM     42  C   UNL A   1      42.686  30.906  36.925  1.00  0.00     0.029 A 
ATOM     43  N   UNL A   1      41.287  31.124  35.209  1.00  0.00    -0.354 N 
ATOM     44  N   UNL A   1      39.150  32.439  33.661  1.00  0.00    -0.248 NA
ATOM     45  C   UNL A   1      37.481  34.065  33.486  1.00  0.00     0.031 C 
ATOM     46  C   UNL A   1      41.833  31.987  37.181  1.00  0.00     0.029 A 
ATOM     47  C   UNL A   1      40.975  32.135  36.102  1.00  0.00     0.049 A 
ATOM     48  H   UNL A   1      40.836  30.973  34.347  1.00  0.00     0.167 HD
ATOM     49  C   UNL A   1      39.158  33.224  34.808  1.00  0.00     0.074 A 
ATOM     50  C   UNL A   1      38.125  34.227  34.633  1.00  0.00     0.031 C 
ATOM     51  C   UNL A   1      39.946  33.126  35.907  1.00  0.00     0.037 A 
BRANCH  38  52
ATOM     52  C   UNL A   1      43.999  28.454  35.729  1.00  0.00     0.058 A 
ATOM     53  C   UNL A   1      43.744  27.319  36.514  1.00  0.00     0.135 A 
ATOM     54  C   UNL A   1      45.335  28.859  35.578  1.00  0.00     0.135 A 
ATOM     55  F   UNL A   1      42.484  26.899  36.706  1.00  0.00    -0.206 F 
ATOM     56  C   UNL A   1      44.772  26.626  37.146  1.00  0.00     0.059 A 
ATOM     57  C   UNL A   1      46.382  28.167  36.180  1.00  0.00     0.059 A 
ATOM     58  F   UNL A   1      45.635  29.940  34.842  1.00  0.00    -0.206 F 
ATOM     59  C   UNL A   1      46.089  27.060  36.975  1.00  0.00     0.060 A 
BRANCH  59  60
ATOM     60  S   UNL A   1      47.414  26.152  37.800  1.00  0.00     0.124 S 
ATOM     61  O   UNL A   1      46.686  25.501  38.886  1.00  0.00    -0.237 OA
ATOM     62  O   UNL A   1      47.893  25.268  36.742  1.00  0.00    -0.237 OA
ATOM     63  O   UNL A   1      48.344  27.200  38.207  1.00  0.00    -0.744 OA
ENDBRANCH  59  60
ENDBRANCH  38  52
BRANCH  39  64
ATOM     64  C   UNL A   1      36.639  33.150  30.826  1.00  0.00     0.058 A 
ATOM     65  C   UNL A   1      35.302  32.822  31.094  1.00  0.00     0.135 A 
ATOM     66  C   UNL A   1      36.888  34.151  29.874  1.00  0.00     0.135 A 
ATOM     67  F   UNL A   1      35.013  31.865  31.988  1.00  0.00    -0.206 F 
ATOM     68  C   UNL A   1      34.252  33.453  30.434  1.00  0.00     0.059 A 
ATOM     69  C   UNL A   1      35.854  34.815  29.221  1.00  0.00     0.059 A 
ATOM     70  F   UNL A   1      38.150  34.509  29.588  1.00  0.00    -0.206 F 
ATOM     71  C   UNL A   1      34.539  34.451  29.502  1.00  0.00     0.060 A 
BRANCH  71  72
ATOM     72  S   UNL A   1      33.167  35.299  28.688  1.00  0.00     0.124 S 
ATOM     73  O   UNL A   1      33.873  36.167  27.753  1.00  0.00    -0.237 OA
ATOM     74  O   UNL A   1      32.426  34.190  28.096  1.00  0.00    -0.237 OA
ATOM     75  O   UNL A   1      32.490  35.976  29.791  1.00  0.00    -0.744 OA
ENDBRANCH  71  72
ENDBRANCH  39  64
BRANCH  51  76
ATOM     76  C   UNL A   1      39.742  34.145  36.993  1.00  0.00     0.058 A 
ATOM     77  C   UNL A   1      38.877  33.908  38.072  1.00  0.00     0.135 A 
ATOM     78  C   UNL A   1      40.457  35.352  36.976  1.00  0.00     0.135 A 
ATOM     79  F   UNL A   1      38.165  32.771  38.130  1.00  0.00    -0.206 F 
ATOM     80  C   UNL A   1      38.712  34.843  39.088  1.00  0.00     0.059 A 
ATOM     81  C   UNL A   1      40.326  36.292  37.993  1.00  0.00     0.059 A 
ATOM     82  F   UNL A   1      41.304  35.624  35.970  1.00  0.00    -0.206 F 
ATOM     83  C   UNL A   1      39.442  36.033  39.040  1.00  0.00     0.060 A 
BRANCH  83  84
ATOM     84  S   UNL A   1      39.244  37.225  40.380  1.00  0.00     0.124 S 
ATOM     85  O   UNL A   1      38.764  36.372  41.464  1.00  0.00    -0.237 OA
ATOM     86  O   UNL A   1      40.597  37.749  40.537  1.00  0.00    -0.237 OA
ATOM     87  O   UNL A   1      38.269  38.174  39.850  1.00  0.00    -0.744 OA
ENDBRANCH  83  84
ENDBRANCH  51  76
ENDBRANCH  25  26
ENDBRANCH  18  20
ENDBRANCH  17  18
ENDBRANCH  16  17
ENDBRANCH  15  16
ENDBRANCH   1  15
TORSDOF 20
ENDMDL
MODEL 2
REMARK VINA RESULT:      -9.6      1.177      1.883
REMARK SMILES CS(=O)(=O)NCCCCCC(=O)OCCOC(=O)c1ccc(-c2c3nc(c(-c4c(F)cc(S(=O)(=O)[O-])cc4F)c4ccc([nH]4)c(-c4c(F)cc(S(=O)(=O)[O-])cc4F)c4nc(c(-c5c(F)cc(S(=O)(=O)[O-])cc5F)c5ccc2[nH]5)C=C4)C=C3)cc1
REMARK SMILES IDX 13 1 11 2 12 3 10 4 9 5 8 6 7 7 6 8 5 9 2 11 1 12 3 13 4 14
REMARK SMILES IDX 14 15 15 16 16 17 17 18 18 19 19 20 20 21 84 22 21 23 83 24
REMARK SMILES IDX 22 25 23 26 24 27 77 28 25 29 82 30 76 31 78 32 26 33 81 34
REMARK SMILES IDX 75 35 74 36 27 38 61 39 40 40 60 41 41 42 44 43 59 44 79 45
REMARK SMILES IDX 42 46 43 47 58 49 80 50 45 51 28 52 29 53 38 54 30 55 31 56
REMARK SMILES IDX 37 57 39 58 32 59 33 60 34 61 35 62 36 63 62 64 63 65 72 66
REMARK SMILES IDX 64 67 65 68 71 69 73 70 66 71 67 72 68 73 69 74 70 75 46 76
REMARK SMILES IDX 47 77 56 78 48 79 49 80 55 81 57 82 50 83 51 84 52 85 53 86
REMARK SMILES IDX 54 87
REMARK H PARENT 5 10 78 37 44 48
REMARK Flexibility Score: inf
ROOT
ATOM      1  O   UNL A   1      39.641  22.105  26.898  1.00  0.00    -0.462 OA
ENDROOT
BRANCH   1   2
ATOM      2  C   UNL A   1      38.715  22.717  26.124  1.00  0.00     0.305 C 
ATOM      3  O   UNL A   1      38.458  23.913  26.152  1.00  0.00    -0.252 OA
BRANCH   2   4
ATOM      4  C   UNL A   1      37.966  21.748  25.230  1.00  0.00     0.123 C 
BRANCH   4   5
ATOM      5  C   UNL A   1      37.034  22.367  24.182  1.00  0.00     0.012 C 
BRANCH   5   6
ATOM      6  C   UNL A   1      35.543  22.030  24.318  1.00  0.00     0.002 C 
BRANCH   6   7
ATOM      7  C   UNL A   1      35.159  21.349  25.631  1.00  0.00     0.016 C 
BRANCH   7   8
ATOM      8  C   UNL A   1      33.941  20.444  25.515  1.00  0.00     0.098 C 
BRANCH   8   9
ATOM      9  N   UNL A   1      34.181  19.224  24.732  1.00  0.00    -0.215 NA
ATOM     10  H   UNL A   1      34.601  19.526  23.853  1.00  0.00     0.140 HD
BRANCH   9  11
ATOM     11  S   UNL A   1      32.940  18.174  24.321  1.00  0.00     0.208 S 
ATOM     12  C   UNL A   1      33.807  16.657  23.975  1.00  0.00     0.176 C 
ATOM     13  O   UNL A   1      32.317  18.638  23.104  1.00  0.00    -0.213 OA
ATOM     14  O   UNL A   1      32.156  17.988  25.523  1.00  0.00    -0.213 OA
ENDBRANCH   9  11
ENDBRANCH   8   9
ENDBRANCH   7   8
ENDBRANCH   6   7
ENDBRANCH   5   6
ENDBRANCH   4   5
ENDBRANCH   2   4
ENDBRANCH   1   2
BRANCH   1  15
ATOM     15  C   UNL A   1      40.782  21.533  26.234  1.00  0.00     0.274 C 
BRANCH  15  16
ATOM     16  C   UNL A   1      41.732  22.635  25.768  1.00  0.00     0.275 C 
BRANCH  16  17
ATOM     17  O   UNL A   1      41.853  23.656  26.776  1.00  0.00    -0.458 OA
BRANCH  17  18
ATOM     18  C   UNL A   1      41.860  24.930  26.319  1.00  0.00     0.338 C 
ATOM     19  O   UNL A   1      41.827  25.305  25.160  1.00  0.00    -0.246 OA
BRANCH  18  20
ATOM     20  C   UNL A   1      41.791  25.848  27.464  1.00  0.00     0.060 A 
ATOM     21  C   UNL A   1      40.758  25.678  28.386  1.00  0.00     0.016 A 
ATOM     22  C   UNL A   1      42.683  26.913  27.585  1.00  0.00     0.016 A 
ATOM     23  C   UNL A   1      40.600  26.576  29.436  1.00  0.00     0.010 A 
ATOM     24  C   UNL A   1      42.536  27.804  28.652  1.00  0.00     0.010 A 
ATOM     25  C   UNL A   1      41.487  27.648  29.578  1.00  0.00    -0.014 A 
BRANCH  25  26
ATOM     26  C   UNL A   1      41.286  28.631  30.671  1.00  0.00     0.031 A 
ATOM     27  C   UNL A   1      42.166  28.581  31.887  1.00  0.00     0.074 A 
ATOM     28  C   UNL A   1      40.329  29.572  30.560  1.00  0.00     0.049 A 
ATOM     29  N   UNL A   1      42.082  29.266  32.997  1.00  0.00    -0.248 NA
ATOM     30  C   UNL A   1      43.290  27.631  31.850  1.00  0.00     0.031 C 
ATOM     31  C   UNL A   1      39.450  29.750  29.403  1.00  0.00     0.029 A 
ATOM     32  N   UNL A   1      39.933  30.552  31.433  1.00  0.00    -0.354 N 
ATOM     33  C   UNL A   1      43.119  28.813  33.803  1.00  0.00     0.074 A 
ATOM     34  C   UNL A   1      43.813  27.783  33.057  1.00  0.00     0.031 C 
ATOM     35  C   UNL A   1      38.619  30.780  29.638  1.00  0.00     0.029 A 
ATOM     36  C   UNL A   1      38.867  31.294  30.980  1.00  0.00     0.049 A 
ATOM     37  H   UNL A   1      40.369  30.710  32.302  1.00  0.00     0.167 HD
ATOM     38  C   UNL A   1      43.459  29.220  35.049  1.00  0.00     0.037 A 
ATOM     39  C   UNL A   1      38.149  32.255  31.593  1.00  0.00     0.037 A 
ATOM     40  C   UNL A   1      42.772  30.260  35.770  1.00  0.00     0.049 A 
ATOM     41  C   UNL A   1      38.510  32.650  32.999  1.00  0.00     0.074 A 
ATOM     42  C   UNL A   1      43.042  30.754  37.035  1.00  0.00     0.029 A 
ATOM     43  N   UNL A   1      41.679  30.969  35.289  1.00  0.00    -0.354 N 
ATOM     44  N   UNL A   1      39.479  32.197  33.759  1.00  0.00    -0.248 NA
ATOM     45  C   UNL A   1      37.676  33.678  33.637  1.00  0.00     0.031 C 
ATOM     46  C   UNL A   1      42.088  31.734  37.334  1.00  0.00     0.029 A 
ATOM     47  C   UNL A   1      41.252  31.882  36.238  1.00  0.00     0.049 A 
ATOM     48  H   UNL A   1      41.270  30.840  34.404  1.00  0.00     0.167 HD
ATOM     49  C   UNL A   1      39.382  32.897  34.957  1.00  0.00     0.074 A 
ATOM     50  C   UNL A   1      38.269  33.814  34.814  1.00  0.00     0.031 C 
ATOM     51  C   UNL A   1      40.144  32.790  36.075  1.00  0.00     0.037 A 
BRANCH  38  52
ATOM     52  C   UNL A   1      44.605  28.518  35.723  1.00  0.00     0.058 A 
ATOM     53  C   UNL A   1      45.928  28.970  35.600  1.00  0.00     0.135 A 
ATOM     54  C   UNL A   1      44.371  27.391  36.526  1.00  0.00     0.135 A 
ATOM     55  F   UNL A   1      46.211  30.032  34.829  1.00  0.00    -0.206 F 
ATOM     56  C   UNL A   1      46.982  28.314  36.228  1.00  0.00     0.059 A 
ATOM     57  C   UNL A   1      45.406  26.733  37.185  1.00  0.00     0.059 A 
ATOM     58  F   UNL A   1      43.125  26.914  36.676  1.00  0.00    -0.206 F 
ATOM     59  C   UNL A   1      46.711  27.194  37.017  1.00  0.00     0.060 A 
BRANCH  59  60
ATOM     60  S   UNL A   1      48.088  26.352  37.827  1.00  0.00     0.124 S 
ATOM     61  O   UNL A   1      49.221  26.820  37.034  1.00  0.00    -0.237 OA
ATOM     62  O   UNL A   1      48.013  26.870  39.190  1.00  0.00    -0.237 OA
ATOM     63  O   UNL A   1      47.758  24.938  37.678  1.00  0.00    -0.744 OA
ENDBRANCH  59  60
ENDBRANCH  38  52
BRANCH  39  64
ATOM     64  C   UNL A   1      36.998  32.884  30.892  1.00  0.00     0.058 A 
ATOM     65  C   UNL A   1      35.678  32.530  31.205  1.00  0.00     0.135 A 
ATOM     66  C   UNL A   1      37.196  33.861  29.904  1.00  0.00     0.135 A 
ATOM     67  F   UNL A   1      35.437  31.593  32.135  1.00  0.00    -0.206 F 
ATOM     68  C   UNL A   1      34.595  33.112  30.555  1.00  0.00     0.059 A 
ATOM     69  C   UNL A   1      36.128  34.477  29.259  1.00  0.00     0.059 A 
ATOM     70  F   UNL A   1      38.439  34.243  29.574  1.00  0.00    -0.206 F 
ATOM     71  C   UNL A   1      34.830  34.087  29.585  1.00  0.00     0.060 A 
BRANCH  71  72
ATOM     72  S   UNL A   1      33.416  34.873  28.782  1.00  0.00     0.124 S 
ATOM     73  O   UNL A   1      34.021  36.086  28.245  1.00  0.00    -0.237 OA
ATOM     74  O   UNL A   1      33.021  33.868  27.800  1.00  0.00    -0.237 OA
ATOM     75  O   UNL A   1      32.474  35.069  29.880  1.00  0.00    -0.744 OA
ENDBRANCH  71  72
ENDBRANCH  39  64
BRANCH  51  76
ATOM     76  C   UNL A   1      39.817  33.708  37.219  1.00  0.00     0.058 A 
ATOM     77  C   UNL A   1      38.916  33.334  38.228  1.00  0.00     0.135 A 
ATOM     78  C   UNL A   1      40.450  34.956  37.331  1.00  0.00     0.135 A 
ATOM     79  F   UNL A   1      38.280  32.154  38.162  1.00  0.00    -0.206 F 
ATOM     80  C   UNL A   1      38.637  34.176  39.299  1.00  0.00     0.059 A 
ATOM     81  C   UNL A   1      40.204  35.804  38.406  1.00  0.00     0.059 A 
ATOM     82  F   UNL A   1      41.326  35.357  36.397  1.00  0.00    -0.206 F 
ATOM     83  C   UNL A   1      39.287  35.409  39.379  1.00  0.00     0.060 A 
BRANCH  83  84
ATOM     84  S   UNL A   1      38.941  36.480  40.791  1.00  0.00     0.124 S 
ATOM     85  O   UNL A   1      40.251  36.553  41.433  1.00  0.00    -0.237 OA
ATOM     86  O   UNL A   1      38.481  37.708  40.149  1.00  0.00    -0.237 OA
ATOM     87  O   UNL A   1      37.919  35.746  41.532  1.00  0.00    -0.744 OA
ENDBRANCH  83  84
ENDBRANCH  51  76
ENDBRANCH  25  26
ENDBRANCH  18  20
ENDBRANCH  17  18
ENDBRANCH  16  17
ENDBRANCH  15  16
ENDBRANCH   1  15
TORSDOF 20
ENDMDL
MODEL 3
REMARK VINA RESULT:      -9.5      5.952     11.660
REMARK SMILES CS(=O)(=O)NCCCCCC(=O)OCCOC(=O)c1ccc(-c2c3nc(c(-c4c(F)cc(S(=O)(=O)[O-])cc4F)c4ccc([nH]4)c(-c4c(F)cc(S(=O)(=O)[O-])cc4F)c4nc(c(-c5c(F)cc(S(=O)(=O)[O-])cc5F)c5ccc2[nH]5)C=C4)C=C3)cc1
REMARK SMILES IDX 13 1 11 2 12 3 10 4 9 5 8 6 7 7 6 8 5 9 2 11 1 12 3 13 4 14
REMARK SMILES IDX 14 15 15 16 16 17 17 18 18 19 19 20 20 21 84 22 21 23 83 24
REMARK SMILES IDX 22 25 23 26 24 27 77 28 25 29 82 30 76 31 78 32 26 33 81 34
REMARK SMILES IDX 75 35 74 36 27 38 61 39 40 40 60 41 41 42 44 43 59 44 79 45
REMARK SMILES IDX 42 46 43 47 58 49 80 50 45 51 28 52 29 53 38 54 30 55 31 56
REMARK SMILES IDX 37 57 39 58 32 59 33 60 34 61 35 62 36 63 62 64 63 65 72 66
REMARK SMILES IDX 64 67 65 68 71 69 73 70 66 71 67 72 68 73 69 74 70 75 46 76
REMARK SMILES IDX 47 77 56 78 48 79 49 80 55 81 57 82 50 83 51 84 52 85 53 86
REMARK SMILES IDX 54 87
REMARK H PARENT 5 10 78 37 44 48
REMARK Flexibility Score: inf
ROOT
ATOM      1  O   UNL A   1      31.901  27.339  25.694  1.00  0.00    -0.462 OA
ENDROOT
BRANCH   1   2
ATOM      2  C   UNL A   1      32.879  26.539  25.206  1.00  0.00     0.305 C 
ATOM      3  O   UNL A   1      33.692  25.931  25.889  1.00  0.00    -0.252 OA
BRANCH   2   4
ATOM      4  C   UNL A   1      32.908  26.506  23.691  1.00  0.00     0.123 C 
BRANCH   4   5
ATOM      5  C   UNL A   1      31.583  26.183  22.990  1.00  0.00     0.012 C 
BRANCH   5   6
ATOM      6  C   UNL A   1      31.021  27.274  22.067  1.00  0.00     0.002 C 
BRANCH   6   7
ATOM      7  C   UNL A   1      30.230  28.369  22.781  1.00  0.00     0.016 C 
BRANCH   7   8
ATOM      8  C   UNL A   1      30.152  29.673  21.999  1.00  0.00     0.098 C 
BRANCH   8   9
ATOM      9  N   UNL A   1      29.694  30.817  22.799  1.00  0.00    -0.215 NA
ATOM     10  H   UNL A   1      29.757  30.528  23.775  1.00  0.00     0.140 HD
BRANCH   9  11
ATOM     11  S   UNL A   1      28.166  31.480  22.606  1.00  0.00     0.208 S 
ATOM     12  C   UNL A   1      27.979  31.530  20.836  1.00  0.00     0.176 C 
ATOM     13  O   UNL A   1      28.175  32.834  23.107  1.00  0.00    -0.213 OA
ATOM     14  O   UNL A   1      27.236  30.507  23.136  1.00  0.00    -0.213 OA
ENDBRANCH   9  11
ENDBRANCH   8   9
ENDBRANCH   7   8
ENDBRANCH   6   7
ENDBRANCH   5   6
ENDBRANCH   4   5
ENDBRANCH   2   4
ENDBRANCH   1   2
BRANCH   1  15
ATOM     15  C   UNL A   1      31.830  27.496  27.122  1.00  0.00     0.274 C 
BRANCH  15  16
ATOM     16  C   UNL A   1      32.309  28.890  27.526  1.00  0.00     0.275 C 
BRANCH  16  17
ATOM     17  O   UNL A   1      33.746  28.927  27.601  1.00  0.00    -0.458 OA
BRANCH  17  18
ATOM     18  C   UNL A   1      34.283  30.125  27.929  1.00  0.00     0.338 C 
ATOM     19  O   UNL A   1      33.706  31.192  28.050  1.00  0.00    -0.246 OA
BRANCH  18  20
ATOM     20  C   UNL A   1      35.704  29.939  28.252  1.00  0.00     0.060 A 
ATOM     21  C   UNL A   1      36.637  30.051  27.221  1.00  0.00     0.016 A 
ATOM     22  C   UNL A   1      36.106  29.577  29.537  1.00  0.00     0.016 A 
ATOM     23  C   UNL A   1      37.982  29.795  27.461  1.00  0.00     0.010 A 
ATOM     24  C   UNL A   1      37.463  29.340  29.783  1.00  0.00     0.010 A 
ATOM     25  C   UNL A   1      38.408  29.436  28.744  1.00  0.00    -0.014 A 
BRANCH  25  26
ATOM     26  C   UNL A   1      39.836  29.118  28.984  1.00  0.00     0.031 A 
ATOM     27  C   UNL A   1      40.748  30.170  29.547  1.00  0.00     0.074 A 
ATOM     28  C   UNL A   1      40.304  27.885  28.714  1.00  0.00     0.049 A 
ATOM     29  N   UNL A   1      42.044  30.135  29.721  1.00  0.00    -0.248 NA
ATOM     30  C   UNL A   1      40.119  31.433  29.968  1.00  0.00     0.031 C 
ATOM     31  C   UNL A   1      39.500  26.767  28.216  1.00  0.00     0.029 A 
ATOM     32  N   UNL A   1      41.569  27.365  28.818  1.00  0.00    -0.354 N 
ATOM     33  C   UNL A   1      42.390  31.376  30.242  1.00  0.00     0.074 A 
ATOM     34  C   UNL A   1      41.169  32.147  30.345  1.00  0.00     0.031 C 
ATOM     35  C   UNL A   1      40.291  25.693  28.059  1.00  0.00     0.029 A 
ATOM     36  C   UNL A   1      41.664  26.061  28.388  1.00  0.00     0.049 A 
ATOM     37  H   UNL A   1      42.336  27.875  29.165  1.00  0.00     0.167 HD
ATOM     38  C   UNL A   1      43.616  31.826  30.602  1.00  0.00     0.037 A 
ATOM     39  C   UNL A   1      42.742  25.267  28.244  1.00  0.00     0.037 A 
ATOM     40  C   UNL A   1      44.820  31.040  30.513  1.00  0.00     0.049 A 
ATOM     41  C   UNL A   1      44.101  25.810  28.595  1.00  0.00     0.074 A 
ATOM     42  C   UNL A   1      46.111  31.400  30.859  1.00  0.00     0.029 A 
ATOM     43  N   UNL A   1      44.880  29.734  30.047  1.00  0.00    -0.354 N 
ATOM     44  N   UNL A   1      44.419  26.993  29.065  1.00  0.00    -0.248 NA
ATOM     45  C   UNL A   1      45.249  24.916  28.387  1.00  0.00     0.031 C 
ATOM     46  C   UNL A   1      46.958  30.325  30.565  1.00  0.00     0.029 A 
ATOM     47  C   UNL A   1      46.188  29.280  30.079  1.00  0.00     0.049 A 
ATOM     48  H   UNL A   1      44.107  29.209  29.739  1.00  0.00     0.167 HD
ATOM     49  C   UNL A   1      45.800  26.980  29.226  1.00  0.00     0.074 A 
ATOM     50  C   UNL A   1      46.254  25.665  28.817  1.00  0.00     0.031 C 
ATOM     51  C   UNL A   1      46.619  27.966  29.671  1.00  0.00     0.037 A 
BRANCH  38  52
ATOM     52  C   UNL A   1      43.720  33.243  31.093  1.00  0.00     0.058 A 
ATOM     53  C   UNL A   1      43.856  34.327  30.212  1.00  0.00     0.135 A 
ATOM     54  C   UNL A   1      43.656  33.522  32.468  1.00  0.00     0.135 A 
ATOM     55  F   UNL A   1      43.941  34.116  28.890  1.00  0.00    -0.206 F 
ATOM     56  C   UNL A   1      43.951  35.635  30.677  1.00  0.00     0.059 A 
ATOM     57  C   UNL A   1      43.723  34.824  32.955  1.00  0.00     0.059 A 
ATOM     58  F   UNL A   1      43.530  32.523  33.356  1.00  0.00    -0.206 F 
ATOM     59  C   UNL A   1      43.886  35.873  32.052  1.00  0.00     0.060 A 
BRANCH  59  60
ATOM     60  S   UNL A   1      44.010  37.576  32.642  1.00  0.00     0.124 S 
ATOM     61  O   UNL A   1      45.388  37.617  33.120  1.00  0.00    -0.237 OA
ATOM     62  O   UNL A   1      43.736  38.346  31.433  1.00  0.00    -0.237 OA
ATOM     63  O   UNL A   1      42.984  37.653  33.677  1.00  0.00    -0.744 OA
ENDBRANCH  59  60
ENDBRANCH  38  52
BRANCH  39  64
ATOM     64  C   UNL A   1      42.583  23.887  27.712  1.00  0.00     0.058 A 
ATOM     65  C   UNL A   1      42.520  23.646  26.332  1.00  0.00     0.135 A 
ATOM     66  C   UNL A   1      42.502  22.782  28.573  1.00  0.00     0.135 A 
ATOM     67  F   UNL A   1      42.583  24.671  25.468  1.00  0.00    -0.206 F 
ATOM     68  C   UNL A   1      42.370  22.359  25.824  1.00  0.00     0.059 A 
ATOM     69  C   UNL A   1      42.379  21.483  28.088  1.00  0.00     0.059 A 
ATOM     70  F   UNL A   1      42.566  22.958  29.902  1.00  0.00    -0.206 F 
ATOM     71  C   UNL A   1      42.304  21.284  26.711  1.00  0.00     0.060 A 
BRANCH  71  72
ATOM     72  S   UNL A   1      42.160  19.613  26.041  1.00  0.00     0.124 S 
ATOM     73  O   UNL A   1      40.734  19.537  25.746  1.00  0.00    -0.237 OA
ATOM     74  O   UNL A   1      43.050  19.667  24.886  1.00  0.00    -0.237 OA
ATOM     75  O   UNL A   1      42.623  18.770  27.140  1.00  0.00    -0.744 OA
ENDBRANCH  71  72
ENDBRANCH  39  64
BRANCH  51  76
ATOM     76  C   UNL A   1      48.085  27.650  29.766  1.00  0.00     0.058 A 
ATOM     77  C   UNL A   1      48.619  26.954  30.862  1.00  0.00     0.135 A 
ATOM     78  C   UNL A   1      48.957  28.006  28.725  1.00  0.00     0.135 A 
ATOM     79  F   UNL A   1      47.827  26.597  31.886  1.00  0.00    -0.206 F 
ATOM     80  C   UNL A   1      49.972  26.640  30.933  1.00  0.00     0.059 A 
ATOM     81  C   UNL A   1      50.310  27.682  28.764  1.00  0.00     0.059 A 
ATOM     82  F   UNL A   1      48.495  28.665  27.651  1.00  0.00    -0.206 F 
ATOM     83  C   UNL A   1      50.809  27.008  29.878  1.00  0.00     0.060 A 
BRANCH  83  84
ATOM     84  S   UNL A   1      52.558  26.568  29.966  1.00  0.00     0.124 S 
ATOM     85  O   UNL A   1      52.779  25.980  28.648  1.00  0.00    -0.237 OA
ATOM     86  O   UNL A   1      53.195  27.859  30.200  1.00  0.00    -0.237 OA
ATOM     87  O   UNL A   1      52.616  25.634  31.087  1.00  0.00    -0.744 OA
ENDBRANCH  83  84
ENDBRANCH  51  76
ENDBRANCH  25  26
ENDBRANCH  18  20
ENDBRANCH  17  18
ENDBRANCH  16  17
ENDBRANCH  15  16
ENDBRANCH   1  15
TORSDOF 20
ENDMDL
