MODEL 1
REMARK VINA RESULT:     -14.3      0.000      0.000
REMARK SMILES O=C(NC1(C(=O)OCCOC(=O)c2ccc(-c3c4nc(c(-c5c(F)cc(S(=O)(=O)[O-])cc5F)c5ccc([nH]5)c(-c5c(F)cc(S(=O)(=O)[O-])cc5F)c5nc(c(-c6c(F)cc(S(=O)(=O)[O-])cc6F)c6ccc3[nH]6)C=C5)C=C4)cc2)CC[NH2+]CC1)OCC1c2ccccc2-c2ccccc21
REMARK SMILES IDX 8 1 7 2 5 3 6 4 4 5 79 6 83 7 80 8 82 9 81 10 3 13 1 14 2 15
REMARK SMILES IDX 84 17 85 18 86 19 87 20 98 21 88 22 92 23 93 24 97 25 89 26
REMARK SMILES IDX 91 27 94 28 96 29 90 30 95 31 9 32 10 33 11 34 12 35 13 36
REMARK SMILES IDX 14 37 78 38 15 39 77 40 16 41 17 42 18 43 71 44 19 45 76 46
REMARK SMILES IDX 70 47 72 48 20 49 75 50 69 51 68 52 21 54 55 55 34 56 54 57
REMARK SMILES IDX 35 58 38 59 53 60 73 61 36 62 37 63 52 65 74 66 39 67 22 68
REMARK SMILES IDX 23 69 32 70 24 71 25 72 31 73 33 74 26 75 27 76 28 77 29 78
REMARK SMILES IDX 30 79 56 80 57 81 66 82 58 83 59 84 65 85 67 86 60 87 61 88
REMARK SMILES IDX 62 89 63 90 64 91 40 92 41 93 50 94 42 95 43 96 49 97 51 98
REMARK SMILES IDX 44 99 45 100 46 101 47 102 48 103
REMARK H PARENT 81 11 81 12 3 16 72 53 38 64
REMARK Flexibility Score: inf
ROOT
ATOM      1  C   UNL A   1      36.760  23.981  25.798  1.00  0.00     0.274 C 
ENDROOT
BRANCH   1   2
ATOM      2  O   UNL A   1      35.630  23.553  24.124  1.00  0.00    -0.460 OA
BRANCH   2   3
ATOM      3  C   UNL A   1      34.451  23.136  23.389  1.00  0.00     0.332 C 
ATOM      4  O   UNL A   1      34.252  23.354  22.189  1.00  0.00    -0.249 OA
BRANCH   3   5
ATOM      5  C   UNL A   1      33.293  22.523  24.251  1.00  0.00     0.151 C 
ATOM      6  C   UNL A   1      33.657  21.026  24.388  1.00  0.00     0.102 C 
ATOM      7  C   UNL A   1      33.310  23.170  25.661  1.00  0.00     0.102 C 
ATOM      8  C   UNL A   1      32.886  20.306  25.488  1.00  0.00     0.263 C 
ATOM      9  C   UNL A   1      32.516  22.361  26.682  1.00  0.00     0.263 C 
ATOM     10  N   UNL A   1      33.021  20.993  26.769  1.00  0.00    -0.346 N 
ATOM     11  H   UNL A   1      34.005  21.015  27.033  1.00  0.00     0.346 HD
ATOM     12  H   UNL A   1      32.475  20.488  27.468  1.00  0.00     0.346 HD
BRANCH   5  13
ATOM     13  N   UNL A   1      31.962  22.660  23.656  1.00  0.00    -0.305 N 
ATOM     14  O   UNL A   1      30.148  23.910  23.135  1.00  0.00    -0.225 OA
ATOM     15  C   UNL A   1      31.258  23.816  23.634  1.00  0.00     0.408 C 
ATOM     16  H   UNL A   1      31.555  21.861  23.247  1.00  0.00     0.168 HD
BRANCH  15  17
ATOM     17  O   UNL A   1      31.994  24.839  24.118  1.00  0.00    -0.449 OA
BRANCH  17  18
ATOM     18  C   UNL A   1      31.760  26.040  23.416  1.00  0.00     0.248 C 
BRANCH  18  19
ATOM     19  C   UNL A   1      30.939  27.085  24.209  1.00  0.00     0.088 C 
ATOM     20  C   UNL A   1      31.913  28.088  25.633  1.00  0.00    -0.029 A 
ATOM     21  C   UNL A   1      29.963  28.489  23.168  1.00  0.00    -0.029 A 
ATOM     22  C   UNL A   1      32.608  27.557  26.666  1.00  0.00     0.005 A 
ATOM     23  C   UNL A   1      31.674  29.896  25.423  1.00  0.00    -0.014 A 
ATOM     24  C   UNL A   1      30.474  30.231  23.951  1.00  0.00    -0.014 A 
ATOM     25  C   UNL A   1      28.263  28.180  22.757  1.00  0.00     0.005 A 
ATOM     26  C   UNL A   1      33.085  28.580  27.517  1.00  0.00     0.000 A 
ATOM     27  C   UNL A   1      32.183  30.740  26.355  1.00  0.00     0.009 A 
ATOM     28  C   UNL A   1      29.231  31.479  24.153  1.00  0.00     0.009 A 
ATOM     29  C   UNL A   1      27.066  29.499  23.036  1.00  0.00     0.000 A 
ATOM     30  C   UNL A   1      32.887  30.048  27.375  1.00  0.00     0.001 A 
ATOM     31  C   UNL A   1      27.538  31.101  23.697  1.00  0.00     0.001 A 
ENDBRANCH  18  19
ENDBRANCH  17  18
ENDBRANCH  15  17
ENDBRANCH   5  13
ENDBRANCH   3   5
ENDBRANCH   2   3
ENDBRANCH   1   2
BRANCH   1  32
ATOM     32  C   UNL A   1      38.128  23.143  25.913  1.00  0.00     0.275 C 
BRANCH  32  33
ATOM     33  O   UNL A   1      39.718  24.342  26.138  1.00  0.00    -0.458 OA
BRANCH  33  34
ATOM     34  C   UNL A   1      40.786  25.185  26.388  1.00  0.00     0.338 C 
ATOM     35  O   UNL A   1      41.746  25.261  25.620  1.00  0.00    -0.246 OA
BRANCH  34  36
ATOM     36  C   UNL A   1      40.804  26.108  27.560  1.00  0.00     0.060 A 
ATOM     37  C   UNL A   1      39.790  25.969  28.510  1.00  0.00     0.016 A 
ATOM     38  C   UNL A   1      41.686  27.186  27.693  1.00  0.00     0.016 A 
ATOM     39  C   UNL A   1      39.759  26.769  29.658  1.00  0.00     0.010 A 
ATOM     40  C   UNL A   1      41.669  27.988  28.840  1.00  0.00     0.010 A 
ATOM     41  C   UNL A   1      40.715  27.774  29.840  1.00  0.00    -0.014 A 
BRANCH  41  42
ATOM     42  C   UNL A   1      40.632  28.698  30.993  1.00  0.00     0.031 A 
ATOM     43  C   UNL A   1      39.609  29.796  30.970  1.00  0.00     0.074 A 
ATOM     44  C   UNL A   1      41.463  28.570  32.042  1.00  0.00     0.049 A 
ATOM     45  N   UNL A   1      39.376  30.730  31.855  1.00  0.00    -0.248 NA
ATOM     46  C   UNL A   1      38.734  29.849  29.788  1.00  0.00     0.031 C 
ATOM     47  C   UNL A   1      42.496  27.544  32.191  1.00  0.00     0.029 A 
ATOM     48  N   UNL A   1      41.568  29.321  33.186  1.00  0.00    -0.354 N 
ATOM     49  C   UNL A   1      38.328  31.481  31.341  1.00  0.00     0.074 A 
ATOM     50  C   UNL A   1      37.980  30.904  30.058  1.00  0.00     0.031 C 
ATOM     51  C   UNL A   1      43.134  27.735  33.359  1.00  0.00     0.029 A 
ATOM     52  C   UNL A   1      42.557  28.894  34.038  1.00  0.00     0.049 A 
ATOM     53  H   UNL A   1      40.989  30.093  33.378  1.00  0.00     0.167 HD
ATOM     54  C   UNL A   1      37.702  32.549  31.886  1.00  0.00     0.037 A 
ATOM     55  C   UNL A   1      42.946  29.383  35.231  1.00  0.00     0.037 A 
ATOM     56  C   UNL A   1      38.037  33.134  33.154  1.00  0.00     0.049 A 
ATOM     57  C   UNL A   1      42.240  30.574  35.819  1.00  0.00     0.074 A 
ATOM     58  C   UNL A   1      37.472  34.229  33.780  1.00  0.00     0.029 A 
ATOM     59  N   UNL A   1      39.033  32.661  33.994  1.00  0.00    -0.354 N 
ATOM     60  N   UNL A   1      41.247  31.270  35.322  1.00  0.00    -0.248 NA
ATOM     61  C   UNL A   1      42.704  31.041  37.134  1.00  0.00     0.031 C 
ATOM     62  C   UNL A   1      38.131  34.422  35.003  1.00  0.00     0.029 A 
ATOM     63  C   UNL A   1      39.100  33.440  35.135  1.00  0.00     0.049 A 
ATOM     64  H   UNL A   1      39.610  31.885  33.806  1.00  0.00     0.167 HD
ATOM     65  C   UNL A   1      40.962  32.251  36.265  1.00  0.00     0.074 A 
ATOM     66  C   UNL A   1      41.884  32.058  37.366  1.00  0.00     0.031 C 
ATOM     67  C   UNL A   1      40.019  33.224  36.222  1.00  0.00     0.037 A 
BRANCH  54  68
ATOM     68  C   UNL A   1      36.588  33.140  31.080  1.00  0.00     0.058 A 
ATOM     69  C   UNL A   1      36.855  33.966  29.979  1.00  0.00     0.135 A 
ATOM     70  C   UNL A   1      35.251  32.950  31.456  1.00  0.00     0.135 A 
ATOM     71  F   UNL A   1      38.122  34.195  29.599  1.00  0.00    -0.206 F 
ATOM     72  C   UNL A   1      35.833  34.617  29.296  1.00  0.00     0.059 A 
ATOM     73  C   UNL A   1      34.212  33.585  30.783  1.00  0.00     0.059 A 
ATOM     74  F   UNL A   1      34.950  32.180  32.513  1.00  0.00    -0.206 F 
ATOM     75  C   UNL A   1      34.515  34.438  29.720  1.00  0.00     0.060 A 
BRANCH  75  76
ATOM     76  S   UNL A   1      33.188  35.336  28.892  1.00  0.00     0.124 S 
ATOM     77  O   UNL A   1      32.421  35.828  30.033  1.00  0.00    -0.237 OA
ATOM     78  O   UNL A   1      33.908  36.351  28.129  1.00  0.00    -0.237 OA
ATOM     79  O   UNL A   1      32.538  34.301  28.094  1.00  0.00    -0.744 OA
ENDBRANCH  75  76
ENDBRANCH  54  68
BRANCH  55  80
ATOM     80  C   UNL A   1      44.060  28.738  35.968  1.00  0.00     0.058 A 
ATOM     81  C   UNL A   1      45.377  29.188  35.815  1.00  0.00     0.135 A 
ATOM     82  C   UNL A   1      43.829  27.655  36.826  1.00  0.00     0.135 A 
ATOM     83  F   UNL A   1      45.644  30.217  34.996  1.00  0.00    -0.206 F 
ATOM     84  C   UNL A   1      46.435  28.581  36.485  1.00  0.00     0.059 A 
ATOM     85  C   UNL A   1      44.869  27.035  37.511  1.00  0.00     0.059 A 
ATOM     86  F   UNL A   1      42.582  27.193  37.002  1.00  0.00    -0.206 F 
ATOM     87  C   UNL A   1      46.173  27.499  37.327  1.00  0.00     0.060 A 
BRANCH  87  88
ATOM     88  S   UNL A   1      47.527  26.723  38.234  1.00  0.00     0.124 S 
ATOM     89  O   UNL A   1      47.882  25.625  37.343  1.00  0.00    -0.237 OA
ATOM     90  O   UNL A   1      48.505  27.801  38.338  1.00  0.00    -0.237 OA
ATOM     91  O   UNL A   1      46.894  26.341  39.493  1.00  0.00    -0.744 OA
ENDBRANCH  87  88
ENDBRANCH  55  80
BRANCH  67  92
ATOM     92  C   UNL A   1      39.931  34.145  37.400  1.00  0.00     0.058 A 
ATOM     93  C   UNL A   1      40.582  35.386  37.400  1.00  0.00     0.135 A 
ATOM     94  C   UNL A   1      39.145  33.811  38.512  1.00  0.00     0.135 A 
ATOM     95  F   UNL A   1      41.348  35.746  36.359  1.00  0.00    -0.206 F 
ATOM     96  C   UNL A   1      40.457  36.272  38.466  1.00  0.00     0.059 A 
ATOM     97  C   UNL A   1      39.001  34.682  39.586  1.00  0.00     0.059 A 
ATOM     98  F   UNL A   1      38.503  32.633  38.557  1.00  0.00    -0.206 F 
ATOM     99  C   UNL A   1      39.665  35.910  39.557  1.00  0.00     0.060 A 
BRANCH  99 100
ATOM    100  S   UNL A   1      39.451  37.074  40.921  1.00  0.00     0.124 S 
ATOM    101  O   UNL A   1      40.835  37.356  41.285  1.00  0.00    -0.237 OA
ATOM    102  O   UNL A   1      38.724  38.175  40.297  1.00  0.00    -0.237 OA
ATOM    103  O   UNL A   1      38.686  36.302  41.895  1.00  0.00    -0.744 OA
ENDBRANCH  99 100
ENDBRANCH  67  92
ENDBRANCH  41  42
ENDBRANCH  34  36
ENDBRANCH  33  34
ENDBRANCH  32  33
ENDBRANCH   1  32
TORSDOF 18
ENDMDL
MODEL 2
REMARK VINA RESULT:     -13.7      1.037      2.530
REMARK SMILES O=C(NC1(C(=O)OCCOC(=O)c2ccc(-c3c4nc(c(-c5c(F)cc(S(=O)(=O)[O-])cc5F)c5ccc([nH]5)c(-c5c(F)cc(S(=O)(=O)[O-])cc5F)c5nc(c(-c6c(F)cc(S(=O)(=O)[O-])cc6F)c6ccc3[nH]6)C=C5)C=C4)cc2)CC[NH2+]CC1)OCC1c2ccccc2-c2ccccc21
REMARK SMILES IDX 8 1 7 2 5 3 6 4 4 5 79 6 83 7 80 8 82 9 81 10 3 13 1 14 2 15
REMARK SMILES IDX 84 17 85 18 86 19 87 20 98 21 88 22 92 23 93 24 97 25 89 26
REMARK SMILES IDX 91 27 94 28 96 29 90 30 95 31 9 32 10 33 11 34 12 35 13 36
REMARK SMILES IDX 14 37 78 38 15 39 77 40 16 41 17 42 18 43 71 44 19 45 76 46
REMARK SMILES IDX 70 47 72 48 20 49 75 50 69 51 68 52 21 54 55 55 34 56 54 57
REMARK SMILES IDX 35 58 38 59 53 60 73 61 36 62 37 63 52 65 74 66 39 67 22 68
REMARK SMILES IDX 23 69 32 70 24 71 25 72 31 73 33 74 26 75 27 76 28 77 29 78
REMARK SMILES IDX 30 79 56 80 57 81 66 82 58 83 59 84 65 85 67 86 60 87 61 88
REMARK SMILES IDX 62 89 63 90 64 91 40 92 41 93 50 94 42 95 43 96 49 97 51 98
REMARK SMILES IDX 44 99 45 100 46 101 47 102 48 103
REMARK H PARENT 81 11 81 12 3 16 72 53 38 64
REMARK Flexibility Score: inf
ROOT
ATOM      1  C   UNL A   1      37.514  22.807  24.698  1.00  0.00     0.274 C 
ENDROOT
BRANCH   1   2
ATOM      2  O   UNL A   1      35.640  21.942  24.725  1.00  0.00    -0.460 OA
BRANCH   2   3
ATOM      3  C   UNL A   1      34.317  21.654  25.247  1.00  0.00     0.332 C 
ATOM      4  O   UNL A   1      34.089  21.031  26.289  1.00  0.00    -0.249 OA
BRANCH   3   5
ATOM      5  C   UNL A   1      33.119  22.024  24.306  1.00  0.00     0.151 C 
ATOM      6  C   UNL A   1      33.735  22.953  23.233  1.00  0.00     0.102 C 
ATOM      7  C   UNL A   1      32.600  20.737  23.612  1.00  0.00     0.102 C 
ATOM      8  C   UNL A   1      32.853  23.139  22.004  1.00  0.00     0.263 C 
ATOM      9  C   UNL A   1      31.738  21.042  22.391  1.00  0.00     0.263 C 
ATOM     10  N   UNL A   1      32.473  21.854  21.424  1.00  0.00    -0.346 N 
ATOM     11  H   UNL A   1      33.314  21.355  21.138  1.00  0.00     0.346 HD
ATOM     12  H   UNL A   1      31.870  22.026  20.618  1.00  0.00     0.346 HD
BRANCH   5  13
ATOM     13  N   UNL A   1      32.013  22.707  24.980  1.00  0.00    -0.305 N 
ATOM     14  O   UNL A   1      31.164  24.509  26.058  1.00  0.00    -0.225 OA
ATOM     15  C   UNL A   1      32.097  23.956  25.497  1.00  0.00     0.408 C 
ATOM     16  H   UNL A   1      31.156  22.228  25.063  1.00  0.00     0.168 HD
BRANCH  15  17
ATOM     17  O   UNL A   1      33.285  24.523  25.198  1.00  0.00    -0.449 OA
BRANCH  17  18
ATOM     18  C   UNL A   1      33.689  25.457  26.176  1.00  0.00     0.248 C 
BRANCH  18  19
ATOM     19  C   UNL A   1      33.651  26.928  25.698  1.00  0.00     0.088 C 
ATOM     20  C   UNL A   1      32.294  27.376  24.306  1.00  0.00    -0.029 A 
ATOM     21  C   UNL A   1      33.453  28.355  27.087  1.00  0.00    -0.029 A 
ATOM     22  C   UNL A   1      32.137  26.774  23.103  1.00  0.00     0.005 A 
ATOM     23  C   UNL A   1      31.294  28.825  24.827  1.00  0.00    -0.014 A 
ATOM     24  C   UNL A   1      31.951  29.503  26.508  1.00  0.00    -0.014 A 
ATOM     25  C   UNL A   1      34.934  29.106  27.717  1.00  0.00     0.005 A 
ATOM     26  C   UNL A   1      31.130  27.423  22.354  1.00  0.00     0.000 A 
ATOM     27  C   UNL A   1      30.381  29.339  23.965  1.00  0.00     0.009 A 
ATOM     28  C   UNL A   1      32.087  31.260  26.706  1.00  0.00     0.009 A 
ATOM     29  C   UNL A   1      34.992  30.904  27.843  1.00  0.00     0.000 A 
ATOM     30  C   UNL A   1      30.322  28.608  22.750  1.00  0.00     0.001 A 
ATOM     31  C   UNL A   1      33.607  31.944  27.368  1.00  0.00     0.001 A 
ENDBRANCH  18  19
ENDBRANCH  17  18
ENDBRANCH  15  17
ENDBRANCH   5  13
ENDBRANCH   3   5
ENDBRANCH   2   3
ENDBRANCH   1   2
BRANCH   1  32
ATOM     32  C   UNL A   1      38.379  22.569  26.033  1.00  0.00     0.275 C 
BRANCH  32  33
ATOM     33  O   UNL A   1      39.780  23.982  26.273  1.00  0.00    -0.458 OA
BRANCH  33  34
ATOM     34  C   UNL A   1      40.687  24.999  26.508  1.00  0.00     0.338 C 
ATOM     35  O   UNL A   1      41.624  25.223  25.739  1.00  0.00    -0.246 OA
BRANCH  34  36
ATOM     36  C   UNL A   1      40.542  25.936  27.661  1.00  0.00     0.060 A 
ATOM     37  C   UNL A   1      41.499  26.944  27.800  1.00  0.00     0.016 A 
ATOM     38  C   UNL A   1      39.596  25.782  28.679  1.00  0.00     0.016 A 
ATOM     39  C   UNL A   1      41.410  27.886  28.831  1.00  0.00     0.010 A 
ATOM     40  C   UNL A   1      39.494  26.722  29.710  1.00  0.00     0.010 A 
ATOM     41  C   UNL A   1      40.391  27.792  29.784  1.00  0.00    -0.014 A 
BRANCH  41  42
ATOM     42  C   UNL A   1      40.349  28.715  30.940  1.00  0.00     0.031 A 
ATOM     43  C   UNL A   1      39.359  29.843  30.932  1.00  0.00     0.074 A 
ATOM     44  C   UNL A   1      41.188  28.559  31.979  1.00  0.00     0.049 A 
ATOM     45  N   UNL A   1      39.164  30.781  31.822  1.00  0.00    -0.248 NA
ATOM     46  C   UNL A   1      38.472  29.925  29.760  1.00  0.00     0.031 C 
ATOM     47  C   UNL A   1      42.192  27.504  32.113  1.00  0.00     0.029 A 
ATOM     48  N   UNL A   1      41.329  29.304  33.124  1.00  0.00    -0.354 N 
ATOM     49  C   UNL A   1      38.133  31.564  31.322  1.00  0.00     0.074 A 
ATOM     50  C   UNL A   1      37.753  31.002  30.042  1.00  0.00     0.031 C 
ATOM     51  C   UNL A   1      42.849  27.672  33.275  1.00  0.00     0.029 A 
ATOM     52  C   UNL A   1      42.314  28.845  33.963  1.00  0.00     0.049 A 
ATOM     53  H   UNL A   1      40.775  30.093  33.324  1.00  0.00     0.167 HD
ATOM     54  C   UNL A   1      37.545  32.649  31.878  1.00  0.00     0.037 A 
ATOM     55  C   UNL A   1      42.732  29.320  35.153  1.00  0.00     0.037 A 
ATOM     56  C   UNL A   1      37.912  33.219  33.143  1.00  0.00     0.049 A 
ATOM     57  C   UNL A   1      42.068  30.529  35.752  1.00  0.00     0.074 A 
ATOM     58  C   UNL A   1      37.387  34.330  33.778  1.00  0.00     0.029 A 
ATOM     59  N   UNL A   1      38.904  32.715  33.970  1.00  0.00    -0.354 N 
ATOM     60  N   UNL A   1      41.091  31.256  35.268  1.00  0.00    -0.248 NA
ATOM     61  C   UNL A   1      42.562  30.978  37.063  1.00  0.00     0.031 C 
ATOM     62  C   UNL A   1      38.066  34.499  34.994  1.00  0.00     0.029 A 
ATOM     63  C   UNL A   1      39.006  33.489  35.113  1.00  0.00     0.049 A 
ATOM     64  H   UNL A   1      39.455  31.923  33.773  1.00  0.00     0.167 HD
ATOM     65  C   UNL A   1      40.845  32.241  36.218  1.00  0.00     0.074 A 
ATOM     66  C   UNL A   1      41.774  32.018  37.307  1.00  0.00     0.031 C 
ATOM     67  C   UNL A   1      39.931  33.243  36.188  1.00  0.00     0.037 A 
BRANCH  54  68
ATOM     68  C   UNL A   1      36.440  33.275  31.086  1.00  0.00     0.058 A 
ATOM     69  C   UNL A   1      36.718  34.091  29.980  1.00  0.00     0.135 A 
ATOM     70  C   UNL A   1      35.103  33.128  31.481  1.00  0.00     0.135 A 
ATOM     71  F   UNL A   1      37.986  34.279  29.583  1.00  0.00    -0.206 F 
ATOM     72  C   UNL A   1      35.708  34.774  29.311  1.00  0.00     0.059 A 
ATOM     73  C   UNL A   1      34.076  33.796  30.822  1.00  0.00     0.059 A 
ATOM     74  F   UNL A   1      34.791  32.369  32.543  1.00  0.00    -0.206 F 
ATOM     75  C   UNL A   1      34.391  34.638  29.753  1.00  0.00     0.060 A 
BRANCH  75  76
ATOM     76  S   UNL A   1      33.083  35.578  28.943  1.00  0.00     0.124 S 
ATOM     77  O   UNL A   1      32.372  36.129  30.093  1.00  0.00    -0.237 OA
ATOM     78  O   UNL A   1      33.825  36.542  28.137  1.00  0.00    -0.237 OA
ATOM     79  O   UNL A   1      32.364  34.557  28.187  1.00  0.00    -0.744 OA
ENDBRANCH  75  76
ENDBRANCH  54  68
BRANCH  55  80
ATOM     80  C   UNL A   1      43.834  28.640  35.874  1.00  0.00     0.058 A 
ATOM     81  C   UNL A   1      43.573  27.578  36.749  1.00  0.00     0.135 A 
ATOM     82  C   UNL A   1      45.165  29.047  35.711  1.00  0.00     0.135 A 
ATOM     83  F   UNL A   1      42.312  27.162  36.941  1.00  0.00    -0.206 F 
ATOM     84  C   UNL A   1      44.596  26.942  37.447  1.00  0.00     0.059 A 
ATOM     85  C   UNL A   1      46.206  28.423  36.394  1.00  0.00     0.059 A 
ATOM     86  F   UNL A   1      45.460  30.059  34.882  1.00  0.00    -0.206 F 
ATOM     87  C   UNL A   1      45.910  27.377  37.268  1.00  0.00     0.060 A 
BRANCH  87  88
ATOM     88  S   UNL A   1      47.255  26.540  38.136  1.00  0.00     0.124 S 
ATOM     89  O   UNL A   1      48.100  26.119  37.025  1.00  0.00    -0.237 OA
ATOM     90  O   UNL A   1      47.796  27.596  38.985  1.00  0.00    -0.237 OA
ATOM     91  O   UNL A   1      46.562  25.471  38.848  1.00  0.00    -0.744 OA
ENDBRANCH  87  88
ENDBRANCH  55  80
BRANCH  67  92
ATOM     92  C   UNL A   1      39.885  34.162  37.369  1.00  0.00     0.058 A 
ATOM     93  C   UNL A   1      40.623  35.353  37.390  1.00  0.00     0.135 A 
ATOM     94  C   UNL A   1      39.052  33.881  38.462  1.00  0.00     0.135 A 
ATOM     95  F   UNL A   1      41.435  35.661  36.367  1.00  0.00    -0.206 F 
ATOM     96  C   UNL A   1      40.539  36.241  38.459  1.00  0.00     0.059 A 
ATOM     97  C   UNL A   1      38.949  34.755  39.539  1.00  0.00     0.059 A 
ATOM     98  F   UNL A   1      38.327  32.751  38.486  1.00  0.00    -0.206 F 
ATOM     99  C   UNL A   1      39.699  35.932  39.531  1.00  0.00     0.060 A 
BRANCH  99 100
ATOM    100  S   UNL A   1      39.541  37.102  40.897  1.00  0.00     0.124 S 
ATOM    101  O   UNL A   1      38.858  36.291  41.899  1.00  0.00    -0.237 OA
ATOM    102  O   UNL A   1      40.928  37.442  41.196  1.00  0.00    -0.237 OA
ATOM    103  O   UNL A   1      38.752  38.184  40.313  1.00  0.00    -0.744 OA
ENDBRANCH  99 100
ENDBRANCH  67  92
ENDBRANCH  41  42
ENDBRANCH  34  36
ENDBRANCH  33  34
ENDBRANCH  32  33
ENDBRANCH   1  32
TORSDOF 18
ENDMDL
MODEL 3
REMARK VINA RESULT:     -13.6      1.015      8.077
REMARK SMILES O=C(NC1(C(=O)OCCOC(=O)c2ccc(-c3c4nc(c(-c5c(F)cc(S(=O)(=O)[O-])cc5F)c5ccc([nH]5)c(-c5c(F)cc(S(=O)(=O)[O-])cc5F)c5nc(c(-c6c(F)cc(S(=O)(=O)[O-])cc6F)c6ccc3[nH]6)C=C5)C=C4)cc2)CC[NH2+]CC1)OCC1c2ccccc2-c2ccccc21
REMARK SMILES IDX 8 1 7 2 5 3 6 4 4 5 79 6 83 7 80 8 82 9 81 10 3 13 1 14 2 15
REMARK SMILES IDX 84 17 85 18 86 19 87 20 98 21 88 22 92 23 93 24 97 25 89 26
REMARK SMILES IDX 91 27 94 28 96 29 90 30 95 31 9 32 10 33 11 34 12 35 13 36
REMARK SMILES IDX 14 37 78 38 15 39 77 40 16 41 17 42 18 43 71 44 19 45 76 46
REMARK SMILES IDX 70 47 72 48 20 49 75 50 69 51 68 52 21 54 55 55 34 56 54 57
REMARK SMILES IDX 35 58 38 59 53 60 73 61 36 62 37 63 52 65 74 66 39 67 22 68
REMARK SMILES IDX 23 69 32 70 24 71 25 72 31 73 33 74 26 75 27 76 28 77 29 78
REMARK SMILES IDX 30 79 56 80 57 81 66 82 58 83 59 84 65 85 67 86 60 87 61 88
REMARK SMILES IDX 62 89 63 90 64 91 40 92 41 93 50 94 42 95 43 96 49 97 51 98
REMARK SMILES IDX 44 99 45 100 46 101 47 102 48 103
REMARK H PARENT 81 11 81 12 3 16 72 53 38 64
REMARK Flexibility Score: inf
ROOT
ATOM      1  C   UNL A   1      37.192  23.703  26.297  1.00  0.00     0.274 C 
ENDROOT
BRANCH   1   2
ATOM      2  O   UNL A   1      35.690  23.840  24.887  1.00  0.00    -0.460 OA
BRANCH   2   3
ATOM      3  C   UNL A   1      34.424  23.511  24.260  1.00  0.00     0.332 C 
ATOM      4  O   UNL A   1      33.841  24.217  23.431  1.00  0.00    -0.249 OA
BRANCH   3   5
ATOM      5  C   UNL A   1      33.689  22.248  24.831  1.00  0.00     0.151 C 
ATOM      6  C   UNL A   1      32.538  21.979  23.832  1.00  0.00     0.102 C 
ATOM      7  C   UNL A   1      34.661  21.039  24.805  1.00  0.00     0.102 C 
ATOM      8  C   UNL A   1      31.920  20.593  23.968  1.00  0.00     0.263 C 
ATOM      9  C   UNL A   1      33.934  19.704  24.938  1.00  0.00     0.263 C 
ATOM     10  N   UNL A   1      32.936  19.548  23.883  1.00  0.00    -0.346 N 
ATOM     11  H   UNL A   1      33.396  19.603  22.976  1.00  0.00     0.346 HD
ATOM     12  H   UNL A   1      32.480  18.641  23.998  1.00  0.00     0.346 HD
BRANCH   5  13
ATOM     13  N   UNL A   1      33.148  22.424  26.179  1.00  0.00    -0.305 N 
ATOM     14  O   UNL A   1      31.731  23.441  27.624  1.00  0.00    -0.225 OA
ATOM     15  C   UNL A   1      32.169  23.305  26.492  1.00  0.00     0.408 C 
ATOM     16  H   UNL A   1      33.518  21.867  26.902  1.00  0.00     0.168 HD
BRANCH  15  17
ATOM     17  O   UNL A   1      31.682  23.901  25.383  1.00  0.00    -0.449 OA
BRANCH  17  18
ATOM     18  C   UNL A   1      30.374  24.395  25.575  1.00  0.00     0.248 C 
BRANCH  18  19
ATOM     19  C   UNL A   1      30.247  25.928  25.407  1.00  0.00     0.088 C 
ATOM     20  C   UNL A   1      31.942  26.977  25.509  1.00  0.00    -0.029 A 
ATOM     21  C   UNL A   1      29.316  26.613  23.774  1.00  0.00    -0.029 A 
ATOM     22  C   UNL A   1      32.844  26.962  26.518  1.00  0.00     0.005 A 
ATOM     23  C   UNL A   1      32.101  28.083  24.053  1.00  0.00    -0.014 A 
ATOM     24  C   UNL A   1      30.526  27.942  22.949  1.00  0.00    -0.014 A 
ATOM     25  C   UNL A   1      27.581  26.971  23.901  1.00  0.00     0.005 A 
ATOM     26  C   UNL A   1      33.871  27.902  26.276  1.00  0.00     0.000 A 
ATOM     27  C   UNL A   1      33.145  28.947  23.993  1.00  0.00     0.009 A 
ATOM     28  C   UNL A   1      29.836  29.432  22.280  1.00  0.00     0.009 A 
ATOM     29  C   UNL A   1      26.981  28.533  23.227  1.00  0.00     0.000 A 
ATOM     30  C   UNL A   1      34.008  28.820  25.112  1.00  0.00     0.001 A 
ATOM     31  C   UNL A   1      28.071  29.716  22.429  1.00  0.00     0.001 A 
ENDBRANCH  18  19
ENDBRANCH  17  18
ENDBRANCH  15  17
ENDBRANCH   5  13
ENDBRANCH   3   5
ENDBRANCH   2   3
ENDBRANCH   1   2
BRANCH   1  32
ATOM     32  C   UNL A   1      38.525  22.963  25.783  1.00  0.00     0.275 C 
BRANCH  32  33
ATOM     33  O   UNL A   1      40.174  24.017  26.216  1.00  0.00    -0.458 OA
BRANCH  33  34
ATOM     34  C   UNL A   1      41.280  24.748  26.610  1.00  0.00     0.338 C 
ATOM     35  O   UNL A   1      42.366  24.640  26.038  1.00  0.00    -0.246 OA
BRANCH  34  36
ATOM     36  C   UNL A   1      41.206  25.767  27.698  1.00  0.00     0.060 A 
ATOM     37  C   UNL A   1      40.044  25.803  28.473  1.00  0.00     0.016 A 
ATOM     38  C   UNL A   1      42.161  26.768  27.898  1.00  0.00     0.016 A 
ATOM     39  C   UNL A   1      39.913  26.701  29.538  1.00  0.00     0.010 A 
ATOM     40  C   UNL A   1      42.044  27.667  28.965  1.00  0.00     0.010 A 
ATOM     41  C   UNL A   1      40.925  27.629  29.804  1.00  0.00    -0.014 A 
BRANCH  41  42
ATOM     42  C   UNL A   1      40.754  28.655  30.856  1.00  0.00     0.031 A 
ATOM     43  C   UNL A   1      41.640  28.607  32.067  1.00  0.00     0.074 A 
ATOM     44  C   UNL A   1      39.815  29.610  30.742  1.00  0.00     0.049 A 
ATOM     45  N   UNL A   1      41.649  29.385  33.118  1.00  0.00    -0.248 NA
ATOM     46  C   UNL A   1      42.647  27.535  32.097  1.00  0.00     0.031 C 
ATOM     47  C   UNL A   1      38.896  29.772  29.616  1.00  0.00     0.029 A 
ATOM     48  N   UNL A   1      39.479  30.629  31.599  1.00  0.00    -0.354 N 
ATOM     49  C   UNL A   1      42.662  28.901  33.934  1.00  0.00     0.074 A 
ATOM     50  C   UNL A   1      43.235  27.751  33.265  1.00  0.00     0.031 C 
ATOM     51  C   UNL A   1      38.095  30.826  29.855  1.00  0.00     0.029 A 
ATOM     52  C   UNL A   1      38.445  31.411  31.147  1.00  0.00     0.049 A 
ATOM     53  H   UNL A   1      39.937  30.784  32.456  1.00  0.00     0.167 HD
ATOM     54  C   UNL A   1      43.087  29.372  35.129  1.00  0.00     0.037 A 
ATOM     55  C   UNL A   1      37.853  32.480  31.716  1.00  0.00     0.037 A 
ATOM     56  C   UNL A   1      42.527  30.507  35.806  1.00  0.00     0.049 A 
ATOM     57  C   UNL A   1      38.337  32.986  33.046  1.00  0.00     0.074 A 
ATOM     58  C   UNL A   1      42.879  31.047  37.029  1.00  0.00     0.029 A 
ATOM     59  N   UNL A   1      41.492  31.283  35.307  1.00  0.00    -0.354 N 
ATOM     60  N   UNL A   1      39.299  32.519  33.804  1.00  0.00    -0.248 NA
ATOM     61  C   UNL A   1      37.657  34.169  33.596  1.00  0.00     0.031 C 
ATOM     62  C   UNL A   1      42.051  32.152  37.273  1.00  0.00     0.029 A 
ATOM     63  C   UNL A   1      41.191  32.300  36.197  1.00  0.00     0.049 A 
ATOM     64  H   UNL A   1      41.037  31.132  34.447  1.00  0.00     0.167 HD
ATOM     65  C   UNL A   1      39.348  33.355  34.913  1.00  0.00     0.074 A 
ATOM     66  C   UNL A   1      38.320  34.359  34.730  1.00  0.00     0.031 C 
ATOM     67  C   UNL A   1      40.171  33.294  35.989  1.00  0.00     0.037 A 
BRANCH  54  68
ATOM     68  C   UNL A   1      44.220  28.628  35.763  1.00  0.00     0.058 A 
ATOM     69  C   UNL A   1      43.980  27.578  36.661  1.00  0.00     0.135 A 
ATOM     70  C   UNL A   1      45.548  29.016  35.539  1.00  0.00     0.135 A 
ATOM     71  F   UNL A   1      42.723  27.190  36.924  1.00  0.00    -0.206 F 
ATOM     72  C   UNL A   1      45.020  26.960  37.348  1.00  0.00     0.059 A 
ATOM     73  C   UNL A   1      46.604  28.407  36.208  1.00  0.00     0.059 A 
ATOM     74  F   UNL A   1      45.824  30.027  34.699  1.00  0.00    -0.206 F 
ATOM     75  C   UNL A   1      46.328  27.396  37.131  1.00  0.00     0.060 A 
BRANCH  75  76
ATOM     76  S   UNL A   1      47.677  26.655  38.071  1.00  0.00     0.124 S 
ATOM     77  O   UNL A   1      48.398  27.842  38.522  1.00  0.00    -0.237 OA
ATOM     78  O   UNL A   1      46.977  25.908  39.112  1.00  0.00    -0.237 OA
ATOM     79  O   UNL A   1      48.364  25.840  37.075  1.00  0.00    -0.744 OA
ENDBRANCH  75  76
ENDBRANCH  54  68
BRANCH  55  80
ATOM     80  C   UNL A   1      36.734  33.162  31.020  1.00  0.00     0.058 A 
ATOM     81  C   UNL A   1      35.416  33.026  31.475  1.00  0.00     0.135 A 
ATOM     82  C   UNL A   1      36.962  33.951  29.885  1.00  0.00     0.135 A 
ATOM     83  F   UNL A   1      35.154  32.272  32.553  1.00  0.00    -0.206 F 
ATOM     84  C   UNL A   1      34.355  33.645  30.821  1.00  0.00     0.059 A 
ATOM     85  C   UNL A   1      35.917  34.584  29.218  1.00  0.00     0.059 A 
ATOM     86  F   UNL A   1      38.208  34.109  29.417  1.00  0.00    -0.206 F 
ATOM     87  C   UNL A   1      34.614  34.418  29.689  1.00  0.00     0.060 A 
BRANCH  87  88
ATOM     88  S   UNL A   1      33.254  35.259  28.850  1.00  0.00     0.124 S 
ATOM     89  O   UNL A   1      32.657  34.165  28.094  1.00  0.00    -0.237 OA
ATOM     90  O   UNL A   1      32.460  35.774  29.961  1.00  0.00    -0.237 OA
ATOM     91  O   UNL A   1      33.942  36.277  28.062  1.00  0.00    -0.744 OA
ENDBRANCH  87  88
ENDBRANCH  55  80
BRANCH  67  92
ATOM     92  C   UNL A   1      40.002  34.346  37.041  1.00  0.00     0.058 A 
ATOM     93  C   UNL A   1      40.715  35.551  36.982  1.00  0.00     0.135 A 
ATOM     94  C   UNL A   1      39.079  34.175  38.083  1.00  0.00     0.135 A 
ATOM     95  F   UNL A   1      41.611  35.758  36.005  1.00  0.00    -0.206 F 
ATOM     96  C   UNL A   1      40.519  36.558  37.923  1.00  0.00     0.059 A 
ATOM     97  C   UNL A   1      38.863  35.168  39.031  1.00  0.00     0.059 A 
ATOM     98  F   UNL A   1      38.374  33.036  38.180  1.00  0.00    -0.206 F 
ATOM     99  C   UNL A   1      39.591  36.357  38.946  1.00  0.00     0.060 A 
BRANCH  99 100
ATOM    100  S   UNL A   1      39.289  37.677  40.141  1.00  0.00     0.124 S 
ATOM    101  O   UNL A   1      40.560  38.392  40.114  1.00  0.00    -0.237 OA
ATOM    102  O   UNL A   1      38.152  38.385  39.560  1.00  0.00    -0.237 OA
ATOM    103  O   UNL A   1      38.999  36.947  41.371  1.00  0.00    -0.744 OA
ENDBRANCH  99 100
ENDBRANCH  67  92
ENDBRANCH  41  42
ENDBRANCH  34  36
ENDBRANCH  33  34
ENDBRANCH  32  33
ENDBRANCH   1  32
TORSDOF 18
ENDMDL
