MODEL 1
REMARK VINA RESULT:     -12.4      0.000      0.000
REMARK SMILES O=C(OCCOC(=O)c1ccccc1Nc1nc(Cl)nc(Nc2ccc(N3CCOCC3=O)cc2)n1)c1ccc(-c2c3nc(c(-c4c(F)cc(S(=O)(=O)[O-])cc4F)c4ccc([nH]4)c(-c4c(F)cc(S(=O)(=O)[O-])cc4F)c4nc(c(-c5c(F)cc(S(=O)(=O)[O-])cc5F)c5ccc2[nH]5)C=C4)C=C3)cc1
REMARK SMILES IDX 5 1 4 2 3 3 2 4 1 5 37 6 38 7 102 8 39 9 101 10 40 11 41 12
REMARK SMILES IDX 42 13 95 14 43 15 100 16 94 17 96 18 44 19 99 20 93 21 92 22
REMARK SMILES IDX 45 24 79 25 58 26 78 27 59 28 62 29 77 30 97 31 60 32 61 33
REMARK SMILES IDX 76 35 98 36 63 37 46 38 47 39 56 40 48 41 49 42 55 43 57 44
REMARK SMILES IDX 50 45 51 46 52 47 53 48 54 49 80 50 81 51 90 52 82 53 83 54
REMARK SMILES IDX 89 55 91 56 84 57 85 58 86 59 87 60 88 61 64 62 65 63 74 64
REMARK SMILES IDX 66 65 67 66 73 67 75 68 68 69 69 70 70 71 71 72 72 73 6 74
REMARK SMILES IDX 7 75 8 76 9 77 10 78 14 79 11 80 13 81 12 82 15 83 16 85
REMARK SMILES IDX 17 86 36 87 18 88 21 89 19 90 20 91 22 92 23 94 24 95 35 96
REMARK SMILES IDX 25 97 34 98 26 99 27 100 28 101 32 102 29 103 31 104 33 105
REMARK SMILES IDX 30 106
REMARK H PARENT 96 23 62 34 15 84 22 93
REMARK Flexibility Score: inf
ROOT
ATOM      1  C   UNL A   1      32.623  27.872  26.374  1.00  0.00     0.275 C 
ENDROOT
BRANCH   1   2
ATOM      2  C   UNL A   1      32.980  28.761  27.567  1.00  0.00     0.275 C 
BRANCH   2   3
ATOM      3  O   UNL A   1      34.033  29.701  27.290  1.00  0.00    -0.458 OA
BRANCH   3   4
ATOM      4  C   UNL A   1      34.892  30.353  28.107  1.00  0.00     0.338 C 
ATOM      5  O   UNL A   1      34.524  31.430  28.576  1.00  0.00    -0.246 OA
BRANCH   4   6
ATOM      6  C   UNL A   1      36.293  29.908  28.431  1.00  0.00     0.060 A 
ATOM      7  C   UNL A   1      36.748  29.396  29.647  1.00  0.00     0.016 A 
ATOM      8  C   UNL A   1      37.240  30.031  27.389  1.00  0.00     0.016 A 
ATOM      9  C   UNL A   1      38.082  29.011  29.820  1.00  0.00     0.010 A 
ATOM     10  C   UNL A   1      38.577  29.647  27.553  1.00  0.00     0.010 A 
ATOM     11  C   UNL A   1      39.007  29.148  28.782  1.00  0.00    -0.014 A 
BRANCH  11  12
ATOM     12  C   UNL A   1      40.431  28.856  29.063  1.00  0.00     0.031 A 
ATOM     13  C   UNL A   1      40.985  27.537  28.637  1.00  0.00     0.074 A 
ATOM     14  C   UNL A   1      41.224  29.805  29.593  1.00  0.00     0.049 A 
ATOM     15  N   UNL A   1      42.223  27.130  28.641  1.00  0.00    -0.248 NA
ATOM     16  C   UNL A   1      40.016  26.540  28.151  1.00  0.00     0.031 C 
ATOM     17  C   UNL A   1      40.737  31.094  30.052  1.00  0.00     0.029 A 
ATOM     18  N   UNL A   1      42.575  29.874  29.805  1.00  0.00    -0.354 N 
ATOM     19  C   UNL A   1      42.188  25.827  28.167  1.00  0.00     0.074 A 
ATOM     20  C   UNL A   1      40.803  25.506  27.896  1.00  0.00     0.031 C 
ATOM     21  C   UNL A   1      41.767  31.861  30.438  1.00  0.00     0.029 A 
ATOM     22  C   UNL A   1      43.000  31.108  30.255  1.00  0.00     0.049 A 
ATOM     23  H   UNL A   1      43.185  29.116  29.652  1.00  0.00     0.167 HD
ATOM     24  C   UNL A   1      43.226  24.979  27.990  1.00  0.00     0.037 A 
ATOM     25  C   UNL A   1      44.245  31.579  30.466  1.00  0.00     0.037 A 
ATOM     26  C   UNL A   1      44.584  25.322  28.312  1.00  0.00     0.049 A 
ATOM     27  C   UNL A   1      45.386  30.628  30.202  1.00  0.00     0.074 A 
ATOM     28  C   UNL A   1      45.712  24.524  28.273  1.00  0.00     0.029 A 
ATOM     29  N   UNL A   1      44.996  26.580  28.741  1.00  0.00    -0.354 N 
ATOM     30  N   UNL A   1      45.338  29.393  29.752  1.00  0.00    -0.248 NA
ATOM     31  C   UNL A   1      46.743  31.110  30.487  1.00  0.00     0.031 C 
ATOM     32  C   UNL A   1      46.800  25.291  28.709  1.00  0.00     0.029 A 
ATOM     33  C   UNL A   1      46.359  26.580  28.975  1.00  0.00     0.049 A 
ATOM     34  H   UNL A   1      44.403  27.356  28.860  1.00  0.00     0.167 HD
ATOM     35  C   UNL A   1      46.652  28.948  29.712  1.00  0.00     0.074 A 
ATOM     36  C   UNL A   1      47.477  30.065  30.130  1.00  0.00     0.031 C 
ATOM     37  C   UNL A   1      47.137  27.722  29.393  1.00  0.00     0.037 A 
BRANCH  24  38
ATOM     38  C   UNL A   1      42.894  23.602  27.492  1.00  0.00     0.058 A 
ATOM     39  C   UNL A   1      42.529  22.569  28.369  1.00  0.00     0.135 A 
ATOM     40  C   UNL A   1      43.001  23.295  26.127  1.00  0.00     0.135 A 
ATOM     41  F   UNL A   1      42.448  22.800  29.690  1.00  0.00    -0.206 F 
ATOM     42  C   UNL A   1      42.315  21.272  27.915  1.00  0.00     0.059 A 
ATOM     43  C   UNL A   1      42.769  22.010  25.647  1.00  0.00     0.059 A 
ATOM     44  F   UNL A   1      43.364  24.243  25.247  1.00  0.00    -0.206 F 
ATOM     45  C   UNL A   1      42.445  21.001  26.552  1.00  0.00     0.060 A 
BRANCH  45  46
ATOM     46  S   UNL A   1      42.198  19.306  25.981  1.00  0.00     0.124 S 
ATOM     47  O   UNL A   1      42.658  18.541  27.136  1.00  0.00    -0.237 OA
ATOM     48  O   UNL A   1      40.762  19.267  25.727  1.00  0.00    -0.237 OA
ATOM     49  O   UNL A   1      43.044  19.221  24.795  1.00  0.00    -0.744 OA
ENDBRANCH  45  46
ENDBRANCH  24  38
BRANCH  25  50
ATOM     50  C   UNL A   1      44.484  32.977  30.943  1.00  0.00     0.058 A 
ATOM     51  C   UNL A   1      44.679  33.273  32.304  1.00  0.00     0.135 A 
ATOM     52  C   UNL A   1      44.475  34.065  30.054  1.00  0.00     0.135 A 
ATOM     53  F   UNL A   1      44.703  32.279  33.205  1.00  0.00    -0.206 F 
ATOM     54  C   UNL A   1      44.788  34.587  32.770  1.00  0.00     0.059 A 
ATOM     55  C   UNL A   1      44.617  35.381  30.489  1.00  0.00     0.059 A 
ATOM     56  F   UNL A   1      44.320  33.857  28.737  1.00  0.00    -0.206 F 
ATOM     57  C   UNL A   1      44.740  35.639  31.853  1.00  0.00     0.060 A 
BRANCH  57  58
ATOM     58  S   UNL A   1      44.722  37.348  32.454  1.00  0.00     0.124 S 
ATOM     59  O   UNL A   1      45.597  37.271  33.620  1.00  0.00    -0.237 OA
ATOM     60  O   UNL A   1      45.252  38.102  31.327  1.00  0.00    -0.237 OA
ATOM     61  O   UNL A   1      43.312  37.592  32.740  1.00  0.00    -0.744 OA
ENDBRANCH  57  58
ENDBRANCH  25  50
BRANCH  37  62
ATOM     62  C   UNL A   1      48.623  27.533  29.505  1.00  0.00     0.058 A 
ATOM     63  C   UNL A   1      49.198  26.964  30.652  1.00  0.00     0.135 A 
ATOM     64  C   UNL A   1      49.469  27.866  28.436  1.00  0.00     0.135 A 
ATOM     65  F   UNL A   1      48.429  26.632  31.701  1.00  0.00    -0.206 F 
ATOM     66  C   UNL A   1      50.569  26.754  30.746  1.00  0.00     0.059 A 
ATOM     67  C   UNL A   1      50.839  27.639  28.499  1.00  0.00     0.059 A 
ATOM     68  F   UNL A   1      48.963  28.400  27.314  1.00  0.00    -0.206 F 
ATOM     69  C   UNL A   1      51.380  27.093  29.662  1.00  0.00     0.060 A 
BRANCH  69  70
ATOM     70  S   UNL A   1      53.153  26.776  29.781  1.00  0.00     0.124 S 
ATOM     71  O   UNL A   1      53.412  26.082  28.524  1.00  0.00    -0.237 OA
ATOM     72  O   UNL A   1      53.706  28.122  29.889  1.00  0.00    -0.237 OA
ATOM     73  O   UNL A   1      53.270  25.958  30.986  1.00  0.00    -0.744 OA
ENDBRANCH  69  70
ENDBRANCH  37  62
ENDBRANCH  11  12
ENDBRANCH   4   6
ENDBRANCH   3   4
ENDBRANCH   2   3
ENDBRANCH   1   2
BRANCH   1  74
ATOM     74  O   UNL A   1      31.413  28.281  25.719  1.00  0.00    -0.458 OA
BRANCH  74  75
ATOM     75  C   UNL A   1      31.588  28.955  24.550  1.00  0.00     0.340 C 
ATOM     76  O   UNL A   1      32.651  29.349  24.097  1.00  0.00    -0.246 OA
BRANCH  75  77
ATOM     77  C   UNL A   1      30.304  29.067  23.820  1.00  0.00     0.083 A 
ATOM     78  C   UNL A   1      29.966  30.348  23.357  1.00  0.00     0.018 A 
ATOM     79  C   UNL A   1      29.459  27.961  23.582  1.00  0.00     0.055 A 
ATOM     80  C   UNL A   1      28.771  30.552  22.675  1.00  0.00     0.001 A 
ATOM     81  C   UNL A   1      28.199  28.224  23.025  1.00  0.00     0.027 A 
ATOM     82  C   UNL A   1      27.876  29.497  22.535  1.00  0.00     0.002 A 
BRANCH  79  83
ATOM     83  N   UNL A   1      29.873  26.648  23.913  1.00  0.00    -0.323 N 
ATOM     84  H   UNL A   1      29.412  26.229  24.675  1.00  0.00     0.170 HD
BRANCH  83  85
ATOM     85  C   UNL A   1      30.855  25.871  23.291  1.00  0.00     0.233 A 
ATOM     86  N   UNL A   1      31.161  26.218  22.052  1.00  0.00    -0.182 NA
ATOM     87  N   UNL A   1      31.503  24.946  23.990  1.00  0.00    -0.176 NA
ATOM     88  C   UNL A   1      32.111  25.469  21.516  1.00  0.00     0.228 A 
ATOM     89  C   UNL A   1      32.541  24.362  23.389  1.00  0.00     0.233 A 
ATOM     90  Cl  UNL A   1      32.476  25.775  19.877  1.00  0.00    -0.041 Cl
ATOM     91  N   UNL A   1      32.854  24.566  22.123  1.00  0.00    -0.182 NA
BRANCH  89  92
ATOM     92  N   UNL A   1      33.317  23.538  24.197  1.00  0.00    -0.324 N 
ATOM     93  H   UNL A   1      34.093  23.995  24.592  1.00  0.00     0.170 HD
BRANCH  92  94
ATOM     94  C   UNL A   1      33.218  22.190  24.562  1.00  0.00     0.041 A 
ATOM     95  C   UNL A   1      32.680  21.289  23.635  1.00  0.00     0.028 A 
ATOM     96  C   UNL A   1      33.684  21.665  25.772  1.00  0.00     0.028 A 
ATOM     97  C   UNL A   1      32.694  19.910  23.868  1.00  0.00     0.028 A 
ATOM     98  C   UNL A   1      33.674  20.286  26.024  1.00  0.00     0.028 A 
ATOM     99  C   UNL A   1      33.227  19.394  25.048  1.00  0.00     0.044 A 
BRANCH  99 100
ATOM    100  N   UNL A   1      33.446  17.995  25.183  1.00  0.00    -0.308 N 
ATOM    101  C   UNL A   1      32.228  17.182  25.369  1.00  0.00     0.154 C 
ATOM    102  C   UNL A   1      34.639  17.405  24.766  1.00  0.00     0.253 C 
ATOM    103  C   UNL A   1      32.520  15.729  25.723  1.00  0.00     0.183 C 
ATOM    104  C   UNL A   1      34.667  15.869  24.829  1.00  0.00     0.260 C 
ATOM    105  O   UNL A   1      35.668  18.022  24.474  1.00  0.00    -0.272 OA
ATOM    106  O   UNL A   1      33.439  15.166  24.785  1.00  0.00    -0.370 OA
ENDBRANCH  99 100
ENDBRANCH  92  94
ENDBRANCH  89  92
ENDBRANCH  83  85
ENDBRANCH  79  83
ENDBRANCH  75  77
ENDBRANCH  74  75
ENDBRANCH   1  74
TORSDOF 19
ENDMDL
MODEL 2
REMARK VINA RESULT:     -12.2      1.781      5.092
REMARK SMILES O=C(OCCOC(=O)c1ccccc1Nc1nc(Cl)nc(Nc2ccc(N3CCOCC3=O)cc2)n1)c1ccc(-c2c3nc(c(-c4c(F)cc(S(=O)(=O)[O-])cc4F)c4ccc([nH]4)c(-c4c(F)cc(S(=O)(=O)[O-])cc4F)c4nc(c(-c5c(F)cc(S(=O)(=O)[O-])cc5F)c5ccc2[nH]5)C=C4)C=C3)cc1
REMARK SMILES IDX 5 1 4 2 3 3 2 4 1 5 37 6 38 7 102 8 39 9 101 10 40 11 41 12
REMARK SMILES IDX 42 13 95 14 43 15 100 16 94 17 96 18 44 19 99 20 93 21 92 22
REMARK SMILES IDX 45 24 79 25 58 26 78 27 59 28 62 29 77 30 97 31 60 32 61 33
REMARK SMILES IDX 76 35 98 36 63 37 46 38 47 39 56 40 48 41 49 42 55 43 57 44
REMARK SMILES IDX 50 45 51 46 52 47 53 48 54 49 80 50 81 51 90 52 82 53 83 54
REMARK SMILES IDX 89 55 91 56 84 57 85 58 86 59 87 60 88 61 64 62 65 63 74 64
REMARK SMILES IDX 66 65 67 66 73 67 75 68 68 69 69 70 70 71 71 72 72 73 6 74
REMARK SMILES IDX 7 75 8 76 9 77 10 78 14 79 11 80 13 81 12 82 15 83 16 85
REMARK SMILES IDX 17 86 36 87 18 88 21 89 19 90 20 91 22 92 23 94 24 95 35 96
REMARK SMILES IDX 25 97 34 98 26 99 27 100 28 101 32 102 29 103 31 104 33 105
REMARK SMILES IDX 30 106
REMARK H PARENT 96 23 62 34 15 84 22 93
REMARK Flexibility Score: inf
ROOT
ATOM      1  C   UNL A   1      33.560  26.404  26.136  1.00  0.00     0.275 C 
ENDROOT
BRANCH   1   2
ATOM      2  C   UNL A   1      33.994  27.850  25.893  1.00  0.00     0.275 C 
BRANCH   2   3
ATOM      3  O   UNL A   1      33.777  28.715  27.021  1.00  0.00    -0.458 OA
BRANCH   3   4
ATOM      4  C   UNL A   1      34.552  29.672  27.582  1.00  0.00     0.338 C 
ATOM      5  O   UNL A   1      34.033  30.767  27.801  1.00  0.00    -0.246 OA
BRANCH   4   6
ATOM      6  C   UNL A   1      36.018  29.536  27.889  1.00  0.00     0.060 A 
ATOM      7  C   UNL A   1      37.080  29.746  27.008  1.00  0.00     0.016 A 
ATOM      8  C   UNL A   1      36.343  29.152  29.209  1.00  0.00     0.016 A 
ATOM      9  C   UNL A   1      38.408  29.592  27.420  1.00  0.00     0.010 A 
ATOM     10  C   UNL A   1      37.671  28.996  29.631  1.00  0.00     0.010 A 
ATOM     11  C   UNL A   1      38.712  29.202  28.726  1.00  0.00    -0.014 A 
BRANCH  11  12
ATOM     12  C   UNL A   1      40.125  28.920  29.069  1.00  0.00     0.031 A 
ATOM     13  C   UNL A   1      40.707  27.608  28.663  1.00  0.00     0.074 A 
ATOM     14  C   UNL A   1      40.885  29.874  29.637  1.00  0.00     0.049 A 
ATOM     15  N   UNL A   1      41.948  27.211  28.721  1.00  0.00    -0.248 NA
ATOM     16  C   UNL A   1      39.770  26.606  28.130  1.00  0.00     0.031 C 
ATOM     17  C   UNL A   1      40.367  31.157  30.079  1.00  0.00     0.029 A 
ATOM     18  N   UNL A   1      42.224  29.954  29.910  1.00  0.00    -0.354 N 
ATOM     19  C   UNL A   1      41.945  25.911  28.241  1.00  0.00     0.074 A 
ATOM     20  C   UNL A   1      40.576  25.579  27.907  1.00  0.00     0.031 C 
ATOM     21  C   UNL A   1      41.372  31.931  30.514  1.00  0.00     0.029 A 
ATOM     22  C   UNL A   1      42.618  31.189  30.383  1.00  0.00     0.049 A 
ATOM     23  H   UNL A   1      42.847  29.201  29.782  1.00  0.00     0.167 HD
ATOM     24  C   UNL A   1      42.996  25.071  28.107  1.00  0.00     0.037 A 
ATOM     25  C   UNL A   1      43.848  31.669  30.651  1.00  0.00     0.037 A 
ATOM     26  C   UNL A   1      44.336  25.424  28.491  1.00  0.00     0.049 A 
ATOM     27  C   UNL A   1      45.009  30.729  30.435  1.00  0.00     0.074 A 
ATOM     28  C   UNL A   1      45.472  24.636  28.499  1.00  0.00     0.029 A 
ATOM     29  N   UNL A   1      44.718  26.684  28.942  1.00  0.00    -0.354 N 
ATOM     30  N   UNL A   1      44.991  29.495  29.978  1.00  0.00    -0.248 NA
ATOM     31  C   UNL A   1      46.347  31.221  30.782  1.00  0.00     0.031 C 
ATOM     32  C   UNL A   1      46.533  25.410  28.986  1.00  0.00     0.029 A 
ATOM     33  C   UNL A   1      46.070  26.695  29.237  1.00  0.00     0.049 A 
ATOM     34  H   UNL A   1      44.114  27.455  29.038  1.00  0.00     0.167 HD
ATOM     35  C   UNL A   1      46.309  29.061  29.996  1.00  0.00     0.074 A 
ATOM     36  C   UNL A   1      47.105  30.183  30.455  1.00  0.00     0.031 C 
ATOM     37  C   UNL A   1      46.818  27.841  29.694  1.00  0.00     0.037 A 
BRANCH  24  38
ATOM     38  C   UNL A   1      42.700  23.694  27.590  1.00  0.00     0.058 A 
ATOM     39  C   UNL A   1      42.405  22.629  28.455  1.00  0.00     0.135 A 
ATOM     40  C   UNL A   1      42.768  23.421  26.214  1.00  0.00     0.135 A 
ATOM     41  F   UNL A   1      42.363  22.828  29.783  1.00  0.00    -0.206 F 
ATOM     42  C   UNL A   1      42.223  21.335  27.979  1.00  0.00     0.059 A 
ATOM     43  C   UNL A   1      42.567  22.139  25.714  1.00  0.00     0.059 A 
ATOM     44  F   UNL A   1      43.063  24.401  25.345  1.00  0.00    -0.206 F 
ATOM     45  C   UNL A   1      42.314  21.098  26.606  1.00  0.00     0.060 A 
BRANCH  45  46
ATOM     46  S   UNL A   1      42.111  19.408  26.005  1.00  0.00     0.124 S 
ATOM     47  O   UNL A   1      42.628  18.636  27.131  1.00  0.00    -0.237 OA
ATOM     48  O   UNL A   1      40.671  19.325  25.788  1.00  0.00    -0.237 OA
ATOM     49  O   UNL A   1      42.928  19.377  24.796  1.00  0.00    -0.744 OA
ENDBRANCH  45  46
ENDBRANCH  24  38
BRANCH  25  50
ATOM     50  C   UNL A   1      44.054  33.067  31.144  1.00  0.00     0.058 A 
ATOM     51  C   UNL A   1      44.143  33.365  32.516  1.00  0.00     0.135 A 
ATOM     52  C   UNL A   1      44.119  34.154  30.256  1.00  0.00     0.135 A 
ATOM     53  F   UNL A   1      44.093  32.372  33.417  1.00  0.00    -0.206 F 
ATOM     54  C   UNL A   1      44.220  34.679  32.987  1.00  0.00     0.059 A 
ATOM     55  C   UNL A   1      44.231  35.470  30.699  1.00  0.00     0.059 A 
ATOM     56  F   UNL A   1      44.067  33.945  28.931  1.00  0.00    -0.206 F 
ATOM     57  C   UNL A   1      44.247  35.730  32.068  1.00  0.00     0.060 A 
BRANCH  57  58
ATOM     58  S   UNL A   1      44.188  37.439  32.664  1.00  0.00     0.124 S 
ATOM     59  O   UNL A   1      43.045  37.408  33.571  1.00  0.00    -0.237 OA
ATOM     60  O   UNL A   1      45.484  37.613  33.304  1.00  0.00    -0.237 OA
ATOM     61  O   UNL A   1      44.003  38.218  31.444  1.00  0.00    -0.744 OA
ENDBRANCH  57  58
ENDBRANCH  25  50
BRANCH  37  62
ATOM     62  C   UNL A   1      48.299  27.664  29.872  1.00  0.00     0.058 A 
ATOM     63  C   UNL A   1      48.837  27.226  31.092  1.00  0.00     0.135 A 
ATOM     64  C   UNL A   1      49.178  27.874  28.798  1.00  0.00     0.135 A 
ATOM     65  F   UNL A   1      48.035  27.014  32.147  1.00  0.00    -0.206 F 
ATOM     66  C   UNL A   1      50.203  27.025  31.250  1.00  0.00     0.059 A 
ATOM     67  C   UNL A   1      50.545  27.654  28.927  1.00  0.00     0.059 A 
ATOM     68  F   UNL A   1      48.709  28.280  27.608  1.00  0.00    -0.206 F 
ATOM     69  C   UNL A   1      51.048  27.240  30.161  1.00  0.00     0.060 A 
BRANCH  69  70
ATOM     70  S   UNL A   1      52.815  26.936  30.368  1.00  0.00     0.124 S 
ATOM     71  O   UNL A   1      53.179  26.416  29.055  1.00  0.00    -0.237 OA
ATOM     72  O   UNL A   1      53.327  28.265  30.689  1.00  0.00    -0.237 OA
ATOM     73  O   UNL A   1      52.866  25.970  31.463  1.00  0.00    -0.744 OA
ENDBRANCH  69  70
ENDBRANCH  37  62
ENDBRANCH  11  12
ENDBRANCH   4   6
ENDBRANCH   3   4
ENDBRANCH   2   3
ENDBRANCH   1   2
BRANCH   1  74
ATOM     74  O   UNL A   1      34.529  25.448  25.682  1.00  0.00    -0.458 OA
BRANCH  74  75
ATOM     75  C   UNL A   1      34.460  24.227  26.279  1.00  0.00     0.340 C 
ATOM     76  O   UNL A   1      33.485  23.754  26.842  1.00  0.00    -0.246 OA
BRANCH  75  77
ATOM     77  C   UNL A   1      35.719  23.475  26.069  1.00  0.00     0.083 A 
ATOM     78  C   UNL A   1      36.909  24.195  26.262  1.00  0.00     0.018 A 
ATOM     79  C   UNL A   1      35.745  22.112  25.704  1.00  0.00     0.055 A 
ATOM     80  C   UNL A   1      38.139  23.575  26.070  1.00  0.00     0.001 A 
ATOM     81  C   UNL A   1      36.991  21.559  25.375  1.00  0.00     0.027 A 
ATOM     82  C   UNL A   1      38.179  22.268  25.599  1.00  0.00     0.002 A 
BRANCH  79  83
ATOM     83  N   UNL A   1      34.551  21.351  25.660  1.00  0.00    -0.323 N 
ATOM     84  H   UNL A   1      34.278  20.928  26.505  1.00  0.00     0.170 HD
BRANCH  83  85
ATOM     85  C   UNL A   1      33.712  21.126  24.564  1.00  0.00     0.233 A 
ATOM     86  N   UNL A   1      33.407  19.861  24.326  1.00  0.00    -0.182 NA
ATOM     87  N   UNL A   1      33.174  22.158  23.925  1.00  0.00    -0.176 NA
ATOM     88  C   UNL A   1      32.592  19.703  23.296  1.00  0.00     0.228 A 
ATOM     89  C   UNL A   1      32.251  21.874  23.005  1.00  0.00     0.233 A 
ATOM     90  Cl  UNL A   1      32.250  18.092  22.847  1.00  0.00    -0.041 Cl
ATOM     91  N   UNL A   1      31.960  20.644  22.625  1.00  0.00    -0.182 NA
BRANCH  89  92
ATOM     92  N   UNL A   1      31.569  22.967  22.482  1.00  0.00    -0.324 N 
ATOM     93  H   UNL A   1      31.182  22.799  21.593  1.00  0.00     0.170 HD
BRANCH  92  94
ATOM     94  C   UNL A   1      31.320  24.258  22.963  1.00  0.00     0.041 A 
ATOM     95  C   UNL A   1      31.898  25.340  22.289  1.00  0.00     0.028 A 
ATOM     96  C   UNL A   1      30.472  24.549  24.037  1.00  0.00     0.028 A 
ATOM     97  C   UNL A   1      31.569  26.661  22.615  1.00  0.00     0.028 A 
ATOM     98  C   UNL A   1      30.162  25.871  24.388  1.00  0.00     0.028 A 
ATOM     99  C   UNL A   1      30.668  26.936  23.642  1.00  0.00     0.044 A 
BRANCH  99 100
ATOM    100  N   UNL A   1      30.166  28.255  23.819  1.00  0.00    -0.308 N 
ATOM    101  C   UNL A   1      31.168  29.261  24.226  1.00  0.00     0.154 C 
ATOM    102  C   UNL A   1      28.948  28.648  23.265  1.00  0.00     0.253 C 
ATOM    103  C   UNL A   1      30.555  30.602  24.611  1.00  0.00     0.183 C 
ATOM    104  C   UNL A   1      28.614  30.141  23.407  1.00  0.00     0.260 C 
ATOM    105  O   UNL A   1      28.106  27.877  22.793  1.00  0.00    -0.272 OA
ATOM    106  O   UNL A   1      29.678  31.060  23.582  1.00  0.00    -0.370 OA
ENDBRANCH  99 100
ENDBRANCH  92  94
ENDBRANCH  89  92
ENDBRANCH  83  85
ENDBRANCH  79  83
ENDBRANCH  75  77
ENDBRANCH  74  75
ENDBRANCH   1  74
TORSDOF 19
ENDMDL
MODEL 3
REMARK VINA RESULT:     -12.1      3.485      9.760
REMARK SMILES O=C(OCCOC(=O)c1ccccc1Nc1nc(Cl)nc(Nc2ccc(N3CCOCC3=O)cc2)n1)c1ccc(-c2c3nc(c(-c4c(F)cc(S(=O)(=O)[O-])cc4F)c4ccc([nH]4)c(-c4c(F)cc(S(=O)(=O)[O-])cc4F)c4nc(c(-c5c(F)cc(S(=O)(=O)[O-])cc5F)c5ccc2[nH]5)C=C4)C=C3)cc1
REMARK SMILES IDX 5 1 4 2 3 3 2 4 1 5 37 6 38 7 102 8 39 9 101 10 40 11 41 12
REMARK SMILES IDX 42 13 95 14 43 15 100 16 94 17 96 18 44 19 99 20 93 21 92 22
REMARK SMILES IDX 45 24 79 25 58 26 78 27 59 28 62 29 77 30 97 31 60 32 61 33
REMARK SMILES IDX 76 35 98 36 63 37 46 38 47 39 56 40 48 41 49 42 55 43 57 44
REMARK SMILES IDX 50 45 51 46 52 47 53 48 54 49 80 50 81 51 90 52 82 53 83 54
REMARK SMILES IDX 89 55 91 56 84 57 85 58 86 59 87 60 88 61 64 62 65 63 74 64
REMARK SMILES IDX 66 65 67 66 73 67 75 68 68 69 69 70 70 71 71 72 72 73 6 74
REMARK SMILES IDX 7 75 8 76 9 77 10 78 14 79 11 80 13 81 12 82 15 83 16 85
REMARK SMILES IDX 17 86 36 87 18 88 21 89 19 90 20 91 22 92 23 94 24 95 35 96
REMARK SMILES IDX 25 97 34 98 26 99 27 100 28 101 32 102 29 103 31 104 33 105
REMARK SMILES IDX 30 106
REMARK H PARENT 96 23 62 34 15 84 22 93
REMARK Flexibility Score: inf
ROOT
ATOM      1  C   UNL A   1      37.013  33.801  32.579  1.00  0.00     0.275 C 
ENDROOT
BRANCH   1   2
ATOM      2  C   UNL A   1      37.701  32.963  33.658  1.00  0.00     0.275 C 
BRANCH   2   3
ATOM      3  O   UNL A   1      37.350  31.569  33.617  1.00  0.00    -0.458 OA
BRANCH   3   4
ATOM      4  C   UNL A   1      37.497  30.634  32.650  1.00  0.00     0.338 C 
ATOM      5  O   UNL A   1      36.544  29.884  32.435  1.00  0.00    -0.246 OA
BRANCH   4   6
ATOM      6  C   UNL A   1      38.757  30.381  31.868  1.00  0.00     0.060 A 
ATOM      7  C   UNL A   1      39.096  30.927  30.628  1.00  0.00     0.016 A 
ATOM      8  C   UNL A   1      39.687  29.495  32.457  1.00  0.00     0.016 A 
ATOM      9  C   UNL A   1      40.308  30.615  30.004  1.00  0.00     0.010 A 
ATOM     10  C   UNL A   1      40.903  29.178  31.838  1.00  0.00     0.010 A 
ATOM     11  C   UNL A   1      41.211  29.729  30.595  1.00  0.00    -0.014 A 
BRANCH  11  12
ATOM     12  C   UNL A   1      42.413  29.329  29.827  1.00  0.00     0.031 A 
ATOM     13  C   UNL A   1      43.607  30.223  29.858  1.00  0.00     0.074 A 
ATOM     14  C   UNL A   1      42.452  28.134  29.209  1.00  0.00     0.049 A 
ATOM     15  N   UNL A   1      44.805  30.002  29.393  1.00  0.00    -0.248 NA
ATOM     16  C   UNL A   1      43.429  31.542  30.485  1.00  0.00     0.031 C 
ATOM     17  C   UNL A   1      41.314  27.237  29.122  1.00  0.00     0.029 A 
ATOM     18  N   UNL A   1      43.456  27.447  28.581  1.00  0.00    -0.354 N 
ATOM     19  C   UNL A   1      45.525  31.156  29.662  1.00  0.00     0.074 A 
ATOM     20  C   UNL A   1      44.627  32.080  30.320  1.00  0.00     0.031 C 
ATOM     21  C   UNL A   1      41.681  26.088  28.535  1.00  0.00     0.029 A 
ATOM     22  C   UNL A   1      43.095  26.172  28.197  1.00  0.00     0.049 A 
ATOM     23  H   UNL A   1      44.350  27.827  28.417  1.00  0.00     0.167 HD
ATOM     24  C   UNL A   1      46.820  31.415  29.369  1.00  0.00     0.037 A 
ATOM     25  C   UNL A   1      43.833  25.179  27.663  1.00  0.00     0.037 A 
ATOM     26  C   UNL A   1      47.669  30.486  28.674  1.00  0.00     0.049 A 
ATOM     27  C   UNL A   1      45.289  25.477  27.402  1.00  0.00     0.074 A 
ATOM     28  C   UNL A   1      48.966  30.662  28.230  1.00  0.00     0.029 A 
ATOM     29  N   UNL A   1      47.294  29.194  28.319  1.00  0.00    -0.354 N 
ATOM     30  N   UNL A   1      45.960  26.578  27.663  1.00  0.00    -0.248 NA
ATOM     31  C   UNL A   1      46.087  24.425  26.763  1.00  0.00     0.031 C 
ATOM     32  C   UNL A   1      49.363  29.487  27.578  1.00  0.00     0.029 A 
ATOM     33  C   UNL A   1      48.331  28.562  27.656  1.00  0.00     0.049 A 
ATOM     34  H   UNL A   1      46.418  28.789  28.511  1.00  0.00     0.167 HD
ATOM     35  C   UNL A   1      47.253  26.355  27.209  1.00  0.00     0.074 A 
ATOM     36  C   UNL A   1      47.284  24.994  26.708  1.00  0.00     0.031 C 
ATOM     37  C   UNL A   1      48.312  27.202  27.175  1.00  0.00     0.037 A 
BRANCH  24  38
ATOM     38  C   UNL A   1      47.339  32.772  29.746  1.00  0.00     0.058 A 
ATOM     39  C   UNL A   1      47.190  33.880  28.899  1.00  0.00     0.135 A 
ATOM     40  C   UNL A   1      48.047  32.954  30.944  1.00  0.00     0.135 A 
ATOM     41  F   UNL A   1      46.552  33.752  27.723  1.00  0.00    -0.206 F 
ATOM     42  C   UNL A   1      47.753  35.114  29.208  1.00  0.00     0.059 A 
ATOM     43  C   UNL A   1      48.600  34.184  31.285  1.00  0.00     0.059 A 
ATOM     44  F   UNL A   1      48.234  31.922  31.783  1.00  0.00    -0.206 F 
ATOM     45  C   UNL A   1      48.465  35.253  30.401  1.00  0.00     0.060 A 
BRANCH  45  46
ATOM     46  S   UNL A   1      49.221  36.850  30.774  1.00  0.00     0.124 S 
ATOM     47  O   UNL A   1      48.998  37.575  29.528  1.00  0.00    -0.237 OA
ATOM     48  O   UNL A   1      48.441  37.305  31.920  1.00  0.00    -0.237 OA
ATOM     49  O   UNL A   1      50.611  36.508  31.061  1.00  0.00    -0.744 OA
ENDBRANCH  45  46
ENDBRANCH  24  38
BRANCH  25  50
ATOM     50  C   UNL A   1      43.235  23.845  27.337  1.00  0.00     0.058 A 
ATOM     51  C   UNL A   1      43.001  22.875  28.328  1.00  0.00     0.135 A 
ATOM     52  C   UNL A   1      42.927  23.486  26.014  1.00  0.00     0.135 A 
ATOM     53  F   UNL A   1      43.270  23.157  29.612  1.00  0.00    -0.206 F 
ATOM     54  C   UNL A   1      42.552  21.589  28.016  1.00  0.00     0.059 A 
ATOM     55  C   UNL A   1      42.444  22.221  25.682  1.00  0.00     0.059 A 
ATOM     56  F   UNL A   1      43.100  24.369  25.019  1.00  0.00    -0.206 F 
ATOM     57  C   UNL A   1      42.290  21.265  26.684  1.00  0.00     0.060 A 
BRANCH  57  58
ATOM     58  S   UNL A   1      41.859  19.561  26.246  1.00  0.00     0.124 S 
ATOM     59  O   UNL A   1      40.415  19.649  26.059  1.00  0.00    -0.237 OA
ATOM     60  O   UNL A   1      42.630  19.324  25.034  1.00  0.00    -0.237 OA
ATOM     61  O   UNL A   1      42.298  18.792  27.406  1.00  0.00    -0.744 OA
ENDBRANCH  57  58
ENDBRANCH  25  50
BRANCH  37  62
ATOM     62  C   UNL A   1      49.577  26.676  26.560  1.00  0.00     0.058 A 
ATOM     63  C   UNL A   1      49.926  26.988  25.236  1.00  0.00     0.135 A 
ATOM     64  C   UNL A   1      50.476  25.909  27.316  1.00  0.00     0.135 A 
ATOM     65  F   UNL A   1      49.097  27.718  24.473  1.00  0.00    -0.206 F 
ATOM     66  C   UNL A   1      51.113  26.535  24.674  1.00  0.00     0.059 A 
ATOM     67  C   UNL A   1      51.681  25.467  26.782  1.00  0.00     0.059 A 
ATOM     68  F   UNL A   1      50.192  25.596  28.591  1.00  0.00    -0.206 F 
ATOM     69  C   UNL A   1      51.985  25.777  25.457  1.00  0.00     0.060 A 
BRANCH  69  70
ATOM     70  S   UNL A   1      53.542  25.230  24.727  1.00  0.00     0.124 S 
ATOM     71  O   UNL A   1      54.505  26.082  25.418  1.00  0.00    -0.237 OA
ATOM     72  O   UNL A   1      53.577  23.815  25.084  1.00  0.00    -0.237 OA
ATOM     73  O   UNL A   1      53.365  25.507  23.305  1.00  0.00    -0.744 OA
ENDBRANCH  69  70
ENDBRANCH  37  62
ENDBRANCH  11  12
ENDBRANCH   4   6
ENDBRANCH   3   4
ENDBRANCH   2   3
ENDBRANCH   1   2
BRANCH   1  74
ATOM     74  O   UNL A   1      35.627  34.044  32.863  1.00  0.00    -0.458 OA
BRANCH  74  75
ATOM     75  C   UNL A   1      34.752  33.500  31.974  1.00  0.00     0.340 C 
ATOM     76  O   UNL A   1      34.406  32.330  31.925  1.00  0.00    -0.246 OA
BRANCH  75  77
ATOM     77  C   UNL A   1      34.172  34.553  31.108  1.00  0.00     0.083 A 
ATOM     78  C   UNL A   1      33.273  35.437  31.727  1.00  0.00     0.018 A 
ATOM     79  C   UNL A   1      34.497  34.685  29.741  1.00  0.00     0.055 A 
ATOM     80  C   UNL A   1      32.667  36.447  30.988  1.00  0.00     0.001 A 
ATOM     81  C   UNL A   1      33.760  35.616  28.993  1.00  0.00     0.027 A 
ATOM     82  C   UNL A   1      32.888  36.518  29.617  1.00  0.00     0.002 A 
BRANCH  79  83
ATOM     83  N   UNL A   1      35.516  33.893  29.158  1.00  0.00    -0.323 N 
ATOM     84  H   UNL A   1      36.427  34.262  29.202  1.00  0.00     0.170 HD
BRANCH  83  85
ATOM     85  C   UNL A   1      35.388  32.651  28.528  1.00  0.00     0.233 A 
ATOM     86  N   UNL A   1      36.458  31.874  28.571  1.00  0.00    -0.182 NA
ATOM     87  N   UNL A   1      34.207  32.272  28.055  1.00  0.00    -0.176 NA
ATOM     88  C   UNL A   1      36.279  30.703  27.984  1.00  0.00     0.228 A 
ATOM     89  C   UNL A   1      34.113  31.013  27.625  1.00  0.00     0.233 A 
ATOM     90  Cl  UNL A   1      37.651  29.692  27.889  1.00  0.00    -0.041 Cl
ATOM     91  N   UNL A   1      35.149  30.200  27.530  1.00  0.00    -0.182 NA
BRANCH  89  92
ATOM     92  N   UNL A   1      32.830  30.580  27.310  1.00  0.00    -0.324 N 
ATOM     93  H   UNL A   1      32.123  31.189  27.622  1.00  0.00     0.170 HD
BRANCH  92  94
ATOM     94  C   UNL A   1      32.339  29.454  26.638  1.00  0.00     0.041 A 
ATOM     95  C   UNL A   1      31.950  29.597  25.301  1.00  0.00     0.028 A 
ATOM     96  C   UNL A   1      32.273  28.171  27.192  1.00  0.00     0.028 A 
ATOM     97  C   UNL A   1      31.599  28.488  24.522  1.00  0.00     0.028 A 
ATOM     98  C   UNL A   1      31.894  27.061  26.425  1.00  0.00     0.028 A 
ATOM     99  C   UNL A   1      31.606  27.206  25.068  1.00  0.00     0.044 A 
BRANCH  99 100
ATOM    100  N   UNL A   1      31.472  26.068  24.224  1.00  0.00    -0.308 N 
ATOM    101  C   UNL A   1      32.716  25.307  23.993  1.00  0.00     0.154 C 
ATOM    102  C   UNL A   1      30.228  25.491  23.978  1.00  0.00     0.253 C 
ATOM    103  C   UNL A   1      32.576  24.233  22.921  1.00  0.00     0.183 C 
ATOM    104  C   UNL A   1      30.260  24.178  23.178  1.00  0.00     0.260 C 
ATOM    105  O   UNL A   1      29.142  26.010  24.251  1.00  0.00    -0.272 OA
ATOM    106  O   UNL A   1      31.446  23.404  23.196  1.00  0.00    -0.370 OA
ENDBRANCH  99 100
ENDBRANCH  92  94
ENDBRANCH  89  92
ENDBRANCH  83  85
ENDBRANCH  79  83
ENDBRANCH  75  77
ENDBRANCH  74  75
ENDBRANCH   1  74
TORSDOF 19
ENDMDL
