MODEL 1
REMARK VINA RESULT:     -10.7      0.000      0.000
REMARK SMILES CC[C@H](NC(=O)c1nn(C)cc1C(=O)OCCOC(=O)c1ccc(-c2c3nc(c(-c4c(F)cc(S(=O)(=O)[O-])cc4F)c4ccc([nH]4)c(-c4c(F)cc(S(=O)(=O)[O-])cc4F)c4nc(c(-c5c(F)cc(S(=O)(=O)[O-])cc5F)c5ccc2[nH]5)C=C4)C=C3)cc1)c1ccccc1
REMARK SMILES IDX 16 1 15 2 13 3 14 4 12 5 7 6 8 7 9 8 11 9 10 10 5 11 4 12
REMARK SMILES IDX 6 14 3 15 2 16 1 17 87 18 88 19 92 20 89 21 91 22 90 23
REMARK SMILES IDX 17 24 18 25 19 26 20 27 21 28 22 29 86 30 23 31 85 32 24 33
REMARK SMILES IDX 25 34 26 35 79 36 27 37 84 38 78 39 80 40 28 41 83 42 77 43
REMARK SMILES IDX 76 44 29 46 63 47 42 48 62 49 43 50 46 51 61 52 81 53 44 54
REMARK SMILES IDX 45 55 60 57 82 58 47 59 30 60 31 61 40 62 32 63 33 64 39 65
REMARK SMILES IDX 41 66 34 67 35 68 36 69 37 70 38 71 64 72 65 73 74 74 66 75
REMARK SMILES IDX 67 76 73 77 75 78 68 79 69 80 70 81 71 82 72 83 48 84 49 85
REMARK SMILES IDX 58 86 50 87 51 88 57 89 59 90 52 91 53 92 54 93 55 94 56 95
REMARK H PARENT 4 13 80 45 46 56
REMARK Flexibility Score: inf
ROOT
ATOM      1  C   UNL A   1      40.985  21.290  27.255  1.00  0.00     0.275 C 
ENDROOT
BRANCH   1   2
ATOM      2  O   UNL A   1      42.238  20.565  27.197  1.00  0.00    -0.458 OA
BRANCH   2   3
ATOM      3  C   UNL A   1      42.360  19.703  26.139  1.00  0.00     0.342 C 
ATOM      4  O   UNL A   1      41.547  18.814  25.889  1.00  0.00    -0.246 OA
BRANCH   3   5
ATOM      5  C   UNL A   1      43.595  19.848  25.387  1.00  0.00     0.111 A 
ATOM      6  C   UNL A   1      44.442  20.967  24.967  1.00  0.00     0.164 A 
ATOM      7  N   UNL A   1      45.335  20.496  24.050  1.00  0.00    -0.167 NA
ATOM      8  N   UNL A   1      44.924  19.256  23.752  1.00  0.00    -0.274 N 
ATOM      9  C   UNL A   1      44.002  18.774  24.612  1.00  0.00     0.125 A 
ATOM     10  C   UNL A   1      45.333  18.594  22.534  1.00  0.00     0.173 C 
BRANCH   6  11
ATOM     11  C   UNL A   1      44.268  22.466  24.998  1.00  0.00     0.273 C 
ATOM     12  N   UNL A   1      44.331  23.323  26.095  1.00  0.00    -0.344 N 
ATOM     13  H   UNL A   1      43.468  23.740  26.320  1.00  0.00     0.164 HD
ATOM     14  O   UNL A   1      43.952  23.034  23.942  1.00  0.00    -0.267 OA
BRANCH  12  15
ATOM     15  C   UNL A   1      45.436  23.731  26.989  1.00  0.00     0.112 C 
BRANCH  15  16
ATOM     16  C   UNL A   1      45.978  25.103  26.499  1.00  0.00     0.026 C 
ATOM     17  C   UNL A   1      47.405  25.131  25.990  1.00  0.00     0.006 C 
ENDBRANCH  15  16
BRANCH  15  18
ATOM     18  C   UNL A   1      44.988  23.936  28.480  1.00  0.00    -0.026 A 
ATOM     19  C   UNL A   1      45.535  24.926  29.296  1.00  0.00     0.006 A 
ATOM     20  C   UNL A   1      44.017  23.137  29.114  1.00  0.00     0.006 A 
ATOM     21  C   UNL A   1      45.233  25.084  30.659  1.00  0.00     0.000 A 
ATOM     22  C   UNL A   1      43.706  23.268  30.483  1.00  0.00     0.000 A 
ATOM     23  C   UNL A   1      44.326  24.234  31.263  1.00  0.00     0.000 A 
ENDBRANCH  15  18
ENDBRANCH  12  15
ENDBRANCH   6  11
ENDBRANCH   3   5
ENDBRANCH   2   3
ENDBRANCH   1   2
BRANCH   1  24
ATOM     24  C   UNL A   1      40.892  22.409  26.189  1.00  0.00     0.275 C 
BRANCH  24  25
ATOM     25  O   UNL A   1      40.204  23.657  26.543  1.00  0.00    -0.458 OA
BRANCH  25  26
ATOM     26  C   UNL A   1      41.043  24.688  26.739  1.00  0.00     0.338 C 
ATOM     27  O   UNL A   1      41.926  24.964  25.935  1.00  0.00    -0.246 OA
BRANCH  26  28
ATOM     28  C   UNL A   1      41.215  25.415  27.998  1.00  0.00     0.060 A 
ATOM     29  C   UNL A   1      40.027  25.599  28.726  1.00  0.00     0.016 A 
ATOM     30  C   UNL A   1      42.232  26.372  28.093  1.00  0.00     0.016 A 
ATOM     31  C   UNL A   1      39.839  26.749  29.497  1.00  0.00     0.010 A 
ATOM     32  C   UNL A   1      42.047  27.523  28.875  1.00  0.00     0.010 A 
ATOM     33  C   UNL A   1      40.855  27.716  29.594  1.00  0.00    -0.014 A 
BRANCH  33  34
ATOM     34  C   UNL A   1      40.843  28.646  30.752  1.00  0.00     0.031 A 
ATOM     35  C   UNL A   1      41.714  28.538  31.973  1.00  0.00     0.074 A 
ATOM     36  C   UNL A   1      39.895  29.599  30.652  1.00  0.00     0.049 A 
ATOM     37  N   UNL A   1      41.702  29.285  33.051  1.00  0.00    -0.248 NA
ATOM     38  C   UNL A   1      42.700  27.450  32.020  1.00  0.00     0.031 C 
ATOM     39  C   UNL A   1      38.961  29.720  29.521  1.00  0.00     0.029 A 
ATOM     40  N   UNL A   1      39.541  30.625  31.478  1.00  0.00    -0.354 N 
ATOM     41  C   UNL A   1      42.665  28.763  33.911  1.00  0.00     0.074 A 
ATOM     42  C   UNL A   1      43.231  27.612  33.232  1.00  0.00     0.031 C 
ATOM     43  C   UNL A   1      38.164  30.771  29.711  1.00  0.00     0.029 A 
ATOM     44  C   UNL A   1      38.489  31.364  30.995  1.00  0.00     0.049 A 
ATOM     45  H   UNL A   1      39.993  30.815  32.332  1.00  0.00     0.167 HD
ATOM     46  C   UNL A   1      43.024  29.212  35.145  1.00  0.00     0.037 A 
ATOM     47  C   UNL A   1      37.833  32.404  31.529  1.00  0.00     0.037 A 
ATOM     48  C   UNL A   1      42.420  30.371  35.778  1.00  0.00     0.049 A 
ATOM     49  C   UNL A   1      38.300  32.916  32.848  1.00  0.00     0.074 A 
ATOM     50  C   UNL A   1      42.718  30.943  37.005  1.00  0.00     0.029 A 
ATOM     51  N   UNL A   1      41.396  31.137  35.229  1.00  0.00    -0.354 N 
ATOM     52  N   UNL A   1      39.235  32.427  33.628  1.00  0.00    -0.248 NA
ATOM     53  C   UNL A   1      37.644  34.121  33.354  1.00  0.00     0.031 C 
ATOM     54  C   UNL A   1      41.852  32.024  37.214  1.00  0.00     0.029 A 
ATOM     55  C   UNL A   1      41.046  32.164  36.095  1.00  0.00     0.049 A 
ATOM     56  H   UNL A   1      40.979  30.974  34.353  1.00  0.00     0.167 HD
ATOM     57  C   UNL A   1      39.281  33.267  34.728  1.00  0.00     0.074 A 
ATOM     58  C   UNL A   1      38.306  34.317  34.486  1.00  0.00     0.031 C 
ATOM     59  C   UNL A   1      40.050  33.176  35.840  1.00  0.00     0.037 A 
BRANCH  46  60
ATOM     60  C   UNL A   1      44.113  28.487  35.912  1.00  0.00     0.058 A 
ATOM     61  C   UNL A   1      43.827  27.402  36.758  1.00  0.00     0.135 A 
ATOM     62  C   UNL A   1      45.473  28.788  35.703  1.00  0.00     0.135 A 
ATOM     63  F   UNL A   1      42.554  27.052  36.998  1.00  0.00    -0.206 F 
ATOM     64  C   UNL A   1      44.836  26.660  37.376  1.00  0.00     0.059 A 
ATOM     65  C   UNL A   1      46.500  28.045  36.289  1.00  0.00     0.059 A 
ATOM     66  F   UNL A   1      45.822  29.801  34.894  1.00  0.00    -0.206 F 
ATOM     67  C   UNL A   1      46.171  26.986  37.133  1.00  0.00     0.060 A 
BRANCH  67  68
ATOM     68  S   UNL A   1      47.464  25.994  37.918  1.00  0.00     0.124 S 
ATOM     69  O   UNL A   1      47.883  25.133  36.817  1.00  0.00    -0.237 OA
ATOM     70  O   UNL A   1      48.431  27.007  38.331  1.00  0.00    -0.237 OA
ATOM     71  O   UNL A   1      46.765  25.319  39.008  1.00  0.00    -0.744 OA
ENDBRANCH  67  68
ENDBRANCH  46  60
BRANCH  47  72
ATOM     72  C   UNL A   1      36.714  33.011  30.770  1.00  0.00     0.058 A 
ATOM     73  C   UNL A   1      35.385  32.796  31.157  1.00  0.00     0.135 A 
ATOM     74  C   UNL A   1      36.957  33.920  29.727  1.00  0.00     0.135 A 
ATOM     75  F   UNL A   1      35.107  31.953  32.163  1.00  0.00    -0.206 F 
ATOM     76  C   UNL A   1      34.332  33.448  30.526  1.00  0.00     0.059 A 
ATOM     77  C   UNL A   1      35.923  34.610  29.104  1.00  0.00     0.059 A 
ATOM     78  F   UNL A   1      38.216  34.199  29.355  1.00  0.00    -0.206 F 
ATOM     79  C   UNL A   1      34.612  34.357  29.504  1.00  0.00     0.060 A 
BRANCH  79  80
ATOM     80  S   UNL A   1      33.245  35.246  28.732  1.00  0.00     0.124 S 
ATOM     81  O   UNL A   1      33.958  36.227  27.922  1.00  0.00    -0.237 OA
ATOM     82  O   UNL A   1      32.561  34.186  27.996  1.00  0.00    -0.237 OA
ATOM     83  O   UNL A   1      32.507  35.782  29.872  1.00  0.00    -0.744 OA
ENDBRANCH  79  80
ENDBRANCH  47  72
BRANCH  59  84
ATOM     84  C   UNL A   1      39.839  34.252  36.865  1.00  0.00     0.058 A 
ATOM     85  C   UNL A   1      40.475  35.499  36.755  1.00  0.00     0.135 A 
ATOM     86  C   UNL A   1      39.032  34.017  37.988  1.00  0.00     0.135 A 
ATOM     87  F   UNL A   1      41.270  35.764  35.706  1.00  0.00    -0.206 F 
ATOM     88  C   UNL A   1      40.359  36.460  37.752  1.00  0.00     0.059 A 
ATOM     89  C   UNL A   1      38.879  34.976  38.983  1.00  0.00     0.059 A 
ATOM     90  F   UNL A   1      38.401  32.841  38.135  1.00  0.00    -0.206 F 
ATOM     91  C   UNL A   1      39.565  36.185  38.866  1.00  0.00     0.060 A 
BRANCH  91  92
ATOM     92  S   UNL A   1      39.439  37.431  40.165  1.00  0.00     0.124 S 
ATOM     93  O   UNL A   1      38.896  36.647  41.270  1.00  0.00    -0.237 OA
ATOM     94  O   UNL A   1      40.825  37.865  40.318  1.00  0.00    -0.237 OA
ATOM     95  O   UNL A   1      38.536  38.425  39.596  1.00  0.00    -0.744 OA
ENDBRANCH  91  92
ENDBRANCH  59  84
ENDBRANCH  33  34
ENDBRANCH  26  28
ENDBRANCH  25  26
ENDBRANCH  24  25
ENDBRANCH   1  24
TORSDOF 18
ENDMDL
MODEL 2
REMARK VINA RESULT:     -10.2      6.326     12.230
REMARK SMILES CC[C@H](NC(=O)c1nn(C)cc1C(=O)OCCOC(=O)c1ccc(-c2c3nc(c(-c4c(F)cc(S(=O)(=O)[O-])cc4F)c4ccc([nH]4)c(-c4c(F)cc(S(=O)(=O)[O-])cc4F)c4nc(c(-c5c(F)cc(S(=O)(=O)[O-])cc5F)c5ccc2[nH]5)C=C4)C=C3)cc1)c1ccccc1
REMARK SMILES IDX 16 1 15 2 13 3 14 4 12 5 7 6 8 7 9 8 11 9 10 10 5 11 4 12
REMARK SMILES IDX 6 14 3 15 2 16 1 17 87 18 88 19 92 20 89 21 91 22 90 23
REMARK SMILES IDX 17 24 18 25 19 26 20 27 21 28 22 29 86 30 23 31 85 32 24 33
REMARK SMILES IDX 25 34 26 35 79 36 27 37 84 38 78 39 80 40 28 41 83 42 77 43
REMARK SMILES IDX 76 44 29 46 63 47 42 48 62 49 43 50 46 51 61 52 81 53 44 54
REMARK SMILES IDX 45 55 60 57 82 58 47 59 30 60 31 61 40 62 32 63 33 64 39 65
REMARK SMILES IDX 41 66 34 67 35 68 36 69 37 70 38 71 64 72 65 73 74 74 66 75
REMARK SMILES IDX 67 76 73 77 75 78 68 79 69 80 70 81 71 82 72 83 48 84 49 85
REMARK SMILES IDX 58 86 50 87 51 88 57 89 59 90 52 91 53 92 54 93 55 94 56 95
REMARK H PARENT 4 13 80 45 46 56
REMARK Flexibility Score: inf
ROOT
ATOM      1  C   UNL A   1      31.766  27.669  26.823  1.00  0.00     0.275 C 
ENDROOT
BRANCH   1   2
ATOM      2  O   UNL A   1      32.595  26.608  26.291  1.00  0.00    -0.458 OA
BRANCH   2   3
ATOM      3  C   UNL A   1      31.947  25.419  26.075  1.00  0.00     0.342 C 
ATOM      4  O   UNL A   1      30.918  25.090  26.663  1.00  0.00    -0.246 OA
BRANCH   3   5
ATOM      5  C   UNL A   1      32.636  24.517  25.169  1.00  0.00     0.111 A 
ATOM      6  C   UNL A   1      32.974  24.517  23.743  1.00  0.00     0.164 A 
ATOM      7  N   UNL A   1      33.399  23.264  23.412  1.00  0.00    -0.167 NA
ATOM      8  N   UNL A   1      33.123  22.498  24.476  1.00  0.00    -0.274 N 
ATOM      9  C   UNL A   1      32.814  23.206  25.582  1.00  0.00     0.125 A 
ATOM     10  C   UNL A   1      33.020  21.060  24.368  1.00  0.00     0.173 C 
BRANCH   6  11
ATOM     11  C   UNL A   1      32.575  25.398  22.585  1.00  0.00     0.273 C 
ATOM     12  N   UNL A   1      31.625  26.417  22.558  1.00  0.00    -0.344 N 
ATOM     13  H   UNL A   1      30.842  26.213  21.997  1.00  0.00     0.164 HD
ATOM     14  O   UNL A   1      33.082  25.164  21.478  1.00  0.00    -0.267 OA
BRANCH  12  15
ATOM     15  C   UNL A   1      31.558  27.745  23.204  1.00  0.00     0.112 C 
BRANCH  15  16
ATOM     16  C   UNL A   1      32.772  28.587  22.718  1.00  0.00     0.026 C 
ATOM     17  C   UNL A   1      34.001  28.585  23.603  1.00  0.00     0.006 C 
ENDBRANCH  15  16
BRANCH  15  18
ATOM     18  C   UNL A   1      30.271  28.560  22.824  1.00  0.00    -0.026 A 
ATOM     19  C   UNL A   1      28.995  28.178  23.237  1.00  0.00     0.006 A 
ATOM     20  C   UNL A   1      30.296  29.723  22.031  1.00  0.00     0.006 A 
ATOM     21  C   UNL A   1      27.809  28.821  22.843  1.00  0.00     0.000 A 
ATOM     22  C   UNL A   1      29.120  30.379  21.612  1.00  0.00     0.000 A 
ATOM     23  C   UNL A   1      27.871  29.919  22.005  1.00  0.00     0.000 A 
ENDBRANCH  15  18
ENDBRANCH  12  15
ENDBRANCH   6  11
ENDBRANCH   3   5
ENDBRANCH   2   3
ENDBRANCH   1   2
BRANCH   1  24
ATOM     24  C   UNL A   1      32.581  28.925  27.216  1.00  0.00     0.275 C 
BRANCH  24  25
ATOM     25  O   UNL A   1      34.014  28.770  27.496  1.00  0.00    -0.458 OA
BRANCH  25  26
ATOM     26  C   UNL A   1      34.598  29.905  27.917  1.00  0.00     0.338 C 
ATOM     27  O   UNL A   1      34.088  31.003  27.725  1.00  0.00    -0.246 OA
BRANCH  26  28
ATOM     28  C   UNL A   1      35.980  30.027  28.382  1.00  0.00     0.060 A 
ATOM     29  C   UNL A   1      36.939  30.012  27.355  1.00  0.00     0.016 A 
ATOM     30  C   UNL A   1      36.317  29.518  29.642  1.00  0.00     0.016 A 
ATOM     31  C   UNL A   1      38.200  29.449  27.570  1.00  0.00     0.010 A 
ATOM     32  C   UNL A   1      37.587  28.962  29.862  1.00  0.00     0.010 A 
ATOM     33  C   UNL A   1      38.544  28.933  28.833  1.00  0.00    -0.014 A 
BRANCH  33  34
ATOM     34  C   UNL A   1      39.982  28.796  29.177  1.00  0.00     0.031 A 
ATOM     35  C   UNL A   1      40.842  29.864  29.793  1.00  0.00     0.074 A 
ATOM     36  C   UNL A   1      40.499  27.607  28.810  1.00  0.00     0.049 A 
ATOM     37  N   UNL A   1      42.127  29.824  30.056  1.00  0.00    -0.248 NA
ATOM     38  C   UNL A   1      40.210  31.146  30.133  1.00  0.00     0.031 C 
ATOM     39  C   UNL A   1      39.735  26.545  28.137  1.00  0.00     0.029 A 
ATOM     40  N   UNL A   1      41.753  27.082  28.925  1.00  0.00    -0.354 N 
ATOM     41  C   UNL A   1      42.466  31.069  30.583  1.00  0.00     0.074 A 
ATOM     42  C   UNL A   1      41.246  31.854  30.582  1.00  0.00     0.031 C 
ATOM     43  C   UNL A   1      40.524  25.492  27.927  1.00  0.00     0.029 A 
ATOM     44  C   UNL A   1      41.857  25.820  28.395  1.00  0.00     0.049 A 
ATOM     45  H   UNL A   1      42.505  27.560  29.346  1.00  0.00     0.167 HD
ATOM     46  C   UNL A   1      43.684  31.495  31.017  1.00  0.00     0.037 A 
ATOM     47  C   UNL A   1      42.916  25.006  28.276  1.00  0.00     0.037 A 
ATOM     48  C   UNL A   1      44.874  30.664  30.992  1.00  0.00     0.049 A 
ATOM     49  C   UNL A   1      44.219  25.476  28.827  1.00  0.00     0.074 A 
ATOM     50  C   UNL A   1      46.154  30.968  31.432  1.00  0.00     0.029 A 
ATOM     51  N   UNL A   1      44.929  29.362  30.504  1.00  0.00    -0.354 N 
ATOM     52  N   UNL A   1      44.509  26.643  29.352  1.00  0.00    -0.248 NA
ATOM     53  C   UNL A   1      45.329  24.525  28.790  1.00  0.00     0.031 C 
ATOM     54  C   UNL A   1      46.985  29.870  31.174  1.00  0.00     0.029 A 
ATOM     55  C   UNL A   1      46.216  28.858  30.622  1.00  0.00     0.049 A 
ATOM     56  H   UNL A   1      44.164  28.870  30.129  1.00  0.00     0.167 HD
ATOM     57  C   UNL A   1      45.844  26.571  29.709  1.00  0.00     0.074 A 
ATOM     58  C   UNL A   1      46.288  25.228  29.375  1.00  0.00     0.031 C 
ATOM     59  C   UNL A   1      46.635  27.527  30.252  1.00  0.00     0.037 A 
BRANCH  46  60
ATOM     60  C   UNL A   1      43.827  32.902  31.565  1.00  0.00     0.058 A 
ATOM     61  C   UNL A   1      43.964  34.016  30.719  1.00  0.00     0.135 A 
ATOM     62  C   UNL A   1      43.694  33.163  32.943  1.00  0.00     0.135 A 
ATOM     63  F   UNL A   1      44.087  33.846  29.394  1.00  0.00    -0.206 F 
ATOM     64  C   UNL A   1      43.980  35.322  31.214  1.00  0.00     0.059 A 
ATOM     65  C   UNL A   1      43.682  34.461  33.458  1.00  0.00     0.059 A 
ATOM     66  F   UNL A   1      43.543  32.148  33.809  1.00  0.00    -0.206 F 
ATOM     67  C   UNL A   1      43.835  35.536  32.586  1.00  0.00     0.060 A 
BRANCH  67  68
ATOM     68  S   UNL A   1      43.828  37.236  33.204  1.00  0.00     0.124 S 
ATOM     69  O   UNL A   1      45.098  37.292  33.922  1.00  0.00    -0.237 OA
ATOM     70  O   UNL A   1      43.762  38.019  31.974  1.00  0.00    -0.237 OA
ATOM     71  O   UNL A   1      42.634  37.291  34.043  1.00  0.00    -0.744 OA
ENDBRANCH  67  68
ENDBRANCH  46  60
BRANCH  47  72
ATOM     72  C   UNL A   1      42.731  23.678  27.645  1.00  0.00     0.058 A 
ATOM     73  C   UNL A   1      42.965  23.495  26.276  1.00  0.00     0.135 A 
ATOM     74  C   UNL A   1      42.446  22.542  28.421  1.00  0.00     0.135 A 
ATOM     75  F   UNL A   1      43.263  24.549  25.500  1.00  0.00    -0.206 F 
ATOM     76  C   UNL A   1      42.907  22.235  25.692  1.00  0.00     0.059 A 
ATOM     77  C   UNL A   1      42.415  21.268  27.866  1.00  0.00     0.059 A 
ATOM     78  F   UNL A   1      42.265  22.659  29.746  1.00  0.00    -0.206 F 
ATOM     79  C   UNL A   1      42.636  21.127  26.497  1.00  0.00     0.060 A 
BRANCH  79  80
ATOM     80  S   UNL A   1      42.622  19.487  25.744  1.00  0.00     0.124 S 
ATOM     81  O   UNL A   1      43.553  19.670  24.636  1.00  0.00    -0.237 OA
ATOM     82  O   UNL A   1      43.089  18.639  26.837  1.00  0.00    -0.237 OA
ATOM     83  O   UNL A   1      41.223  19.301  25.372  1.00  0.00    -0.744 OA
ENDBRANCH  79  80
ENDBRANCH  47  72
BRANCH  59  84
ATOM     84  C   UNL A   1      48.060  27.127  30.502  1.00  0.00     0.058 A 
ATOM     85  C   UNL A   1      48.484  26.689  31.768  1.00  0.00     0.135 A 
ATOM     86  C   UNL A   1      49.017  27.225  29.482  1.00  0.00     0.135 A 
ATOM     87  F   UNL A   1      47.607  26.595  32.780  1.00  0.00    -0.206 F 
ATOM     88  C   UNL A   1      49.820  26.412  32.026  1.00  0.00     0.059 A 
ATOM     89  C   UNL A   1      50.355  26.924  29.712  1.00  0.00     0.059 A 
ATOM     90  F   UNL A   1      48.659  27.634  28.254  1.00  0.00    -0.206 F 
ATOM     91  C   UNL A   1      50.750  26.541  30.993  1.00  0.00     0.060 A 
BRANCH  91  92
ATOM     92  S   UNL A   1      52.486  26.199  31.346  1.00  0.00     0.124 S 
ATOM     93  O   UNL A   1      52.791  27.227  32.335  1.00  0.00    -0.237 OA
ATOM     94  O   UNL A   1      52.439  24.830  31.850  1.00  0.00    -0.237 OA
ATOM     95  O   UNL A   1      53.134  26.362  30.049  1.00  0.00    -0.744 OA
ENDBRANCH  91  92
ENDBRANCH  59  84
ENDBRANCH  33  34
ENDBRANCH  26  28
ENDBRANCH  25  26
ENDBRANCH  24  25
ENDBRANCH   1  24
TORSDOF 18
ENDMDL
MODEL 3
REMARK VINA RESULT:     -10.0      5.958     13.913
REMARK SMILES CC[C@H](NC(=O)c1nn(C)cc1C(=O)OCCOC(=O)c1ccc(-c2c3nc(c(-c4c(F)cc(S(=O)(=O)[O-])cc4F)c4ccc([nH]4)c(-c4c(F)cc(S(=O)(=O)[O-])cc4F)c4nc(c(-c5c(F)cc(S(=O)(=O)[O-])cc5F)c5ccc2[nH]5)C=C4)C=C3)cc1)c1ccccc1
REMARK SMILES IDX 16 1 15 2 13 3 14 4 12 5 7 6 8 7 9 8 11 9 10 10 5 11 4 12
REMARK SMILES IDX 6 14 3 15 2 16 1 17 87 18 88 19 92 20 89 21 91 22 90 23
REMARK SMILES IDX 17 24 18 25 19 26 20 27 21 28 22 29 86 30 23 31 85 32 24 33
REMARK SMILES IDX 25 34 26 35 79 36 27 37 84 38 78 39 80 40 28 41 83 42 77 43
REMARK SMILES IDX 76 44 29 46 63 47 42 48 62 49 43 50 46 51 61 52 81 53 44 54
REMARK SMILES IDX 45 55 60 57 82 58 47 59 30 60 31 61 40 62 32 63 33 64 39 65
REMARK SMILES IDX 41 66 34 67 35 68 36 69 37 70 38 71 64 72 65 73 74 74 66 75
REMARK SMILES IDX 67 76 73 77 75 78 68 79 69 80 70 81 71 82 72 83 48 84 49 85
REMARK SMILES IDX 58 86 50 87 51 88 57 89 59 90 52 91 53 92 54 93 55 94 56 95
REMARK H PARENT 4 13 80 45 46 56
REMARK Flexibility Score: inf
ROOT
ATOM      1  C   UNL A   1      36.879  32.067  33.317  1.00  0.00     0.275 C 
ENDROOT
BRANCH   1   2
ATOM      2  O   UNL A   1      36.371  33.369  33.697  1.00  0.00    -0.458 OA
BRANCH   2   3
ATOM      3  C   UNL A   1      36.590  34.365  32.781  1.00  0.00     0.342 C 
ATOM      4  O   UNL A   1      37.445  35.238  32.917  1.00  0.00    -0.246 OA
BRANCH   3   5
ATOM      5  C   UNL A   1      35.650  34.378  31.673  1.00  0.00     0.111 A 
ATOM      6  C   UNL A   1      35.726  34.141  30.229  1.00  0.00     0.164 A 
ATOM      7  N   UNL A   1      34.553  34.561  29.673  1.00  0.00    -0.167 NA
ATOM      8  N   UNL A   1      33.908  35.217  30.647  1.00  0.00    -0.274 N 
ATOM      9  C   UNL A   1      34.434  35.012  31.873  1.00  0.00     0.125 A 
ATOM     10  C   UNL A   1      32.856  36.164  30.355  1.00  0.00     0.173 C 
BRANCH   6  11
ATOM     11  C   UNL A   1      36.876  33.960  29.269  1.00  0.00     0.273 C 
ATOM     12  N   UNL A   1      38.099  34.626  29.246  1.00  0.00    -0.344 N 
ATOM     13  H   UNL A   1      38.216  35.209  28.461  1.00  0.00     0.164 HD
ATOM     14  O   UNL A   1      36.719  33.179  28.318  1.00  0.00    -0.267 OA
BRANCH  12  15
ATOM     15  C   UNL A   1      39.257  34.633  30.165  1.00  0.00     0.112 C 
BRANCH  15  16
ATOM     16  C   UNL A   1      39.448  33.193  30.720  1.00  0.00     0.026 C 
ATOM     17  C   UNL A   1      40.081  33.069  32.090  1.00  0.00     0.006 C 
ENDBRANCH  15  16
BRANCH  15  18
ATOM     18  C   UNL A   1      40.607  35.022  29.464  1.00  0.00    -0.026 A 
ATOM     19  C   UNL A   1      41.833  34.980  30.127  1.00  0.00     0.006 A 
ATOM     20  C   UNL A   1      40.690  35.454  28.126  1.00  0.00     0.006 A 
ATOM     21  C   UNL A   1      43.050  35.409  29.569  1.00  0.00     0.000 A 
ATOM     22  C   UNL A   1      41.896  35.900  27.548  1.00  0.00     0.000 A 
ATOM     23  C   UNL A   1      43.078  35.893  28.275  1.00  0.00     0.000 A 
ENDBRANCH  15  18
ENDBRANCH  12  15
ENDBRANCH   6  11
ENDBRANCH   3   5
ENDBRANCH   2   3
ENDBRANCH   1   2
BRANCH   1  24
ATOM     24  C   UNL A   1      35.826  31.208  32.574  1.00  0.00     0.275 C 
BRANCH  24  25
ATOM     25  O   UNL A   1      35.893  31.131  31.109  1.00  0.00    -0.458 OA
BRANCH  25  26
ATOM     26  C   UNL A   1      36.637  30.104  30.666  1.00  0.00     0.338 C 
ATOM     27  O   UNL A   1      36.229  28.949  30.702  1.00  0.00    -0.246 OA
BRANCH  26  28
ATOM     28  C   UNL A   1      38.067  30.161  30.361  1.00  0.00     0.060 A 
ATOM     29  C   UNL A   1      38.368  30.139  28.988  1.00  0.00     0.016 A 
ATOM     30  C   UNL A   1      38.975  29.604  31.270  1.00  0.00     0.016 A 
ATOM     31  C   UNL A   1      39.534  29.524  28.527  1.00  0.00     0.010 A 
ATOM     32  C   UNL A   1      40.152  28.994  30.808  1.00  0.00     0.010 A 
ATOM     33  C   UNL A   1      40.449  28.959  29.434  1.00  0.00    -0.014 A 
BRANCH  33  34
ATOM     34  C   UNL A   1      41.853  28.759  28.995  1.00  0.00     0.031 A 
ATOM     35  C   UNL A   1      42.910  29.826  28.923  1.00  0.00     0.074 A 
ATOM     36  C   UNL A   1      42.100  27.502  28.578  1.00  0.00     0.049 A 
ATOM     37  N   UNL A   1      44.142  29.724  28.482  1.00  0.00    -0.248 NA
ATOM     38  C   UNL A   1      42.552  31.181  29.363  1.00  0.00     0.031 C 
ATOM     39  C   UNL A   1      41.095  26.427  28.554  1.00  0.00     0.029 A 
ATOM     40  N   UNL A   1      43.227  26.904  28.096  1.00  0.00    -0.354 N 
ATOM     41  C   UNL A   1      44.709  30.993  28.581  1.00  0.00     0.074 A 
ATOM     42  C   UNL A   1      43.670  31.859  29.107  1.00  0.00     0.031 C 
ATOM     43  C   UNL A   1      41.655  25.302  28.109  1.00  0.00     0.029 A 
ATOM     44  C   UNL A   1      43.036  25.584  27.767  1.00  0.00     0.049 A 
ATOM     45  H   UNL A   1      44.089  27.371  27.995  1.00  0.00     0.167 HD
ATOM     46  C   UNL A   1      45.973  31.377  28.255  1.00  0.00     0.037 A 
ATOM     47  C   UNL A   1      43.874  24.688  27.226  1.00  0.00     0.037 A 
ATOM     48  C   UNL A   1      46.972  30.465  27.729  1.00  0.00     0.049 A 
ATOM     49  C   UNL A   1      45.272  25.123  26.950  1.00  0.00     0.074 A 
ATOM     50  C   UNL A   1      48.293  30.724  27.393  1.00  0.00     0.029 A 
ATOM     51  N   UNL A   1      46.761  29.115  27.466  1.00  0.00    -0.354 N 
ATOM     52  N   UNL A   1      45.796  26.318  27.083  1.00  0.00    -0.248 NA
ATOM     53  C   UNL A   1      46.197  24.096  26.471  1.00  0.00     0.031 C 
ATOM     54  C   UNL A   1      48.864  29.546  26.893  1.00  0.00     0.029 A 
ATOM     55  C   UNL A   1      47.919  28.535  26.965  1.00  0.00     0.049 A 
ATOM     56  H   UNL A   1      45.913  28.639  27.615  1.00  0.00     0.167 HD
ATOM     57  C   UNL A   1      47.120  26.191  26.700  1.00  0.00     0.074 A 
ATOM     58  C   UNL A   1      47.321  24.790  26.370  1.00  0.00     0.031 C 
ATOM     59  C   UNL A   1      48.080  27.144  26.617  1.00  0.00     0.037 A 
BRANCH  46  60
ATOM     60  C   UNL A   1      46.384  32.824  28.451  1.00  0.00     0.058 A 
ATOM     61  C   UNL A   1      46.250  33.777  27.428  1.00  0.00     0.135 A 
ATOM     62  C   UNL A   1      46.793  33.299  29.713  1.00  0.00     0.135 A 
ATOM     63  F   UNL A   1      45.856  33.400  26.202  1.00  0.00    -0.206 F 
ATOM     64  C   UNL A   1      46.518  35.132  27.640  1.00  0.00     0.059 A 
ATOM     65  C   UNL A   1      47.043  34.651  29.955  1.00  0.00     0.059 A 
ATOM     66  F   UNL A   1      46.927  32.447  30.742  1.00  0.00    -0.206 F 
ATOM     67  C   UNL A   1      46.911  35.561  28.908  1.00  0.00     0.060 A 
BRANCH  67  68
ATOM     68  S   UNL A   1      47.225  37.323  29.171  1.00  0.00     0.124 S 
ATOM     69  O   UNL A   1      47.815  37.710  27.893  1.00  0.00    -0.237 OA
ATOM     70  O   UNL A   1      45.888  37.846  29.434  1.00  0.00    -0.237 OA
ATOM     71  O   UNL A   1      48.137  37.343  30.311  1.00  0.00    -0.744 OA
ENDBRANCH  67  68
ENDBRANCH  46  60
BRANCH  47  72
ATOM     72  C   UNL A   1      43.384  23.313  26.971  1.00  0.00     0.058 A 
ATOM     73  C   UNL A   1      43.185  22.853  25.663  1.00  0.00     0.135 A 
ATOM     74  C   UNL A   1      43.231  22.393  28.022  1.00  0.00     0.135 A 
ATOM     75  F   UNL A   1      43.341  23.691  24.627  1.00  0.00    -0.206 F 
ATOM     76  C   UNL A   1      42.835  21.534  25.404  1.00  0.00     0.059 A 
ATOM     77  C   UNL A   1      42.915  21.060  27.786  1.00  0.00     0.059 A 
ATOM     78  F   UNL A   1      43.461  22.773  29.289  1.00  0.00    -0.206 F 
ATOM     79  C   UNL A   1      42.708  20.643  26.471  1.00  0.00     0.060 A 
BRANCH  79  80
ATOM     80  S   UNL A   1      42.315  18.917  26.123  1.00  0.00     0.124 S 
ATOM     81  O   UNL A   1      42.550  18.298  27.422  1.00  0.00    -0.237 OA
ATOM     82  O   UNL A   1      40.920  18.996  25.696  1.00  0.00    -0.237 OA
ATOM     83  O   UNL A   1      43.263  18.563  25.071  1.00  0.00    -0.744 OA
ENDBRANCH  79  80
ENDBRANCH  47  72
BRANCH  59  84
ATOM     84  C   UNL A   1      49.423  26.673  26.141  1.00  0.00     0.058 A 
ATOM     85  C   UNL A   1      50.335  26.064  27.019  1.00  0.00     0.135 A 
ATOM     86  C   UNL A   1      49.819  26.873  24.811  1.00  0.00     0.135 A 
ATOM     87  F   UNL A   1      50.008  25.867  28.306  1.00  0.00    -0.206 F 
ATOM     88  C   UNL A   1      51.615  25.717  26.604  1.00  0.00     0.059 A 
ATOM     89  C   UNL A   1      51.084  26.506  24.368  1.00  0.00     0.059 A 
ATOM     90  F   UNL A   1      48.980  27.447  23.934  1.00  0.00    -0.206 F 
ATOM     91  C   UNL A   1      51.982  25.950  25.278  1.00  0.00     0.060 A 
BRANCH  91  92
ATOM     92  S   UNL A   1      53.654  25.515  24.756  1.00  0.00     0.124 S 
ATOM     93  O   UNL A   1      53.666  26.000  23.380  1.00  0.00    -0.237 OA
ATOM     94  O   UNL A   1      54.480  26.263  25.699  1.00  0.00    -0.237 OA
ATOM     95  O   UNL A   1      53.692  24.065  24.912  1.00  0.00    -0.744 OA
ENDBRANCH  91  92
ENDBRANCH  59  84
ENDBRANCH  33  34
ENDBRANCH  26  28
ENDBRANCH  25  26
ENDBRANCH  24  25
ENDBRANCH   1  24
TORSDOF 18
ENDMDL
