MODEL 1
REMARK VINA RESULT:     -10.8      0.000      0.000
REMARK SMILES C#CCNC(=O)N[C@@]1(C(=O)OCCOC(=O)c2ccc(-c3c4nc(c(-c5c(F)cc(S(=O)(=O)[O-])cc5F)c5ccc([nH]5)c(-c5c(F)cc(S(=O)(=O)[O-])cc5F)c5nc(c(-c6c(F)cc(S(=O)(=O)[O-])cc6F)c6ccc3[nH]6)C=C5)C=C4)cc2)CCc2ccccc21
REMARK SMILES IDX 12 1 11 2 9 3 10 4 8 5 83 6 90 7 84 8 85 9 89 10 86 11 88 12
REMARK SMILES IDX 87 13 7 14 4 15 5 16 6 18 3 20 2 21 1 22 13 23 14 24 15 25
REMARK SMILES IDX 16 26 17 27 18 28 82 29 19 30 81 31 20 32 21 33 22 34 75 35
REMARK SMILES IDX 23 36 80 37 74 38 76 39 24 40 79 41 73 42 72 43 25 45 59 46
REMARK SMILES IDX 38 47 58 48 39 49 42 50 57 51 77 52 40 53 41 54 56 56 78 57
REMARK SMILES IDX 43 58 26 59 27 60 36 61 28 62 29 63 35 64 37 65 30 66 31 67
REMARK SMILES IDX 32 68 33 69 34 70 60 71 61 72 70 73 62 74 63 75 69 76 71 77
REMARK SMILES IDX 64 78 65 79 66 80 67 81 68 82 44 83 45 84 54 85 46 86 47 87
REMARK SMILES IDX 53 88 55 89 48 90 49 91 50 92 51 93 52 94
REMARK H PARENT 4 17 7 19 76 44 42 55
REMARK Flexibility Score: inf
ROOT
ATOM      1  C   UNL A   1      32.697  27.280  25.745  1.00  0.00     0.274 C 
ENDROOT
BRANCH   1   2
ATOM      2  O   UNL A   1      33.691  26.238  25.599  1.00  0.00    -0.460 OA
BRANCH   2   3
ATOM      3  C   UNL A   1      33.229  24.957  25.674  1.00  0.00     0.336 C 
ATOM      4  O   UNL A   1      32.409  24.624  26.525  1.00  0.00    -0.249 OA
BRANCH   3   5
ATOM      5  C   UNL A   1      33.839  23.960  24.620  1.00  0.00     0.165 C 
ATOM      6  C   UNL A   1      33.103  22.592  24.546  1.00  0.00     0.050 C 
ATOM      7  C   UNL A   1      35.229  23.408  24.998  1.00  0.00    -0.008 A 
ATOM      8  C   UNL A   1      34.095  21.578  23.981  1.00  0.00     0.039 C 
ATOM      9  C   UNL A   1      35.336  22.053  24.641  1.00  0.00    -0.042 A 
ATOM     10  C   UNL A   1      36.314  24.031  25.601  1.00  0.00     0.007 A 
ATOM     11  C   UNL A   1      36.477  21.304  24.879  1.00  0.00     0.004 A 
ATOM     12  C   UNL A   1      37.459  23.274  25.885  1.00  0.00     0.000 A 
ATOM     13  C   UNL A   1      37.539  21.921  25.528  1.00  0.00     0.000 A 
BRANCH   5  14
ATOM     14  N   UNL A   1      33.917  24.573  23.278  1.00  0.00    -0.318 N 
ATOM     15  N   UNL A   1      31.738  25.103  22.456  1.00  0.00    -0.327 N 
ATOM     16  C   UNL A   1      33.068  25.011  22.343  1.00  0.00     0.316 C 
ATOM     17  H   UNL A   1      31.340  25.713  21.794  1.00  0.00     0.166 HD
ATOM     18  O   UNL A   1      33.573  25.418  21.293  1.00  0.00    -0.249 OA
ATOM     19  H   UNL A   1      34.852  24.691  22.994  1.00  0.00     0.166 HD
BRANCH  15  20
ATOM     20  C   UNL A   1      30.759  24.510  23.328  1.00  0.00     0.207 C 
BRANCH  20  21
ATOM     21  C   UNL A   1      29.844  25.440  23.988  1.00  0.00    -0.085 C 
ATOM     22  C   UNL A   1      29.229  26.368  24.431  1.00  0.00     0.006 C 
ENDBRANCH  20  21
ENDBRANCH  15  20
ENDBRANCH   5  14
ENDBRANCH   3   5
ENDBRANCH   2   3
ENDBRANCH   1   2
BRANCH   1  23
ATOM     23  C   UNL A   1      33.305  28.652  26.056  1.00  0.00     0.275 C 
BRANCH  23  24
ATOM     24  O   UNL A   1      33.998  28.658  27.318  1.00  0.00    -0.458 OA
BRANCH  24  25
ATOM     25  C   UNL A   1      34.348  29.886  27.763  1.00  0.00     0.338 C 
ATOM     26  O   UNL A   1      33.621  30.861  27.868  1.00  0.00    -0.246 OA
BRANCH  25  27
ATOM     27  C   UNL A   1      35.742  29.911  28.223  1.00  0.00     0.060 A 
ATOM     28  C   UNL A   1      36.707  30.291  27.304  1.00  0.00     0.016 A 
ATOM     29  C   UNL A   1      36.122  29.338  29.435  1.00  0.00     0.016 A 
ATOM     30  C   UNL A   1      38.045  29.998  27.529  1.00  0.00     0.010 A 
ATOM     31  C   UNL A   1      37.485  29.144  29.708  1.00  0.00     0.010 A 
ATOM     32  C   UNL A   1      38.462  29.434  28.739  1.00  0.00    -0.014 A 
BRANCH  32  33
ATOM     33  C   UNL A   1      39.907  29.128  28.944  1.00  0.00     0.031 A 
ATOM     34  C   UNL A   1      40.841  30.182  29.482  1.00  0.00     0.074 A 
ATOM     35  C   UNL A   1      40.378  27.889  28.689  1.00  0.00     0.049 A 
ATOM     36  N   UNL A   1      42.146  30.159  29.581  1.00  0.00    -0.248 NA
ATOM     37  C   UNL A   1      40.229  31.431  29.962  1.00  0.00     0.031 C 
ATOM     38  C   UNL A   1      39.571  26.751  28.238  1.00  0.00     0.029 A 
ATOM     39  N   UNL A   1      41.647  27.369  28.779  1.00  0.00    -0.354 N 
ATOM     40  C   UNL A   1      42.514  31.403  30.087  1.00  0.00     0.074 A 
ATOM     41  C   UNL A   1      41.295  32.162  30.261  1.00  0.00     0.031 C 
ATOM     42  C   UNL A   1      40.352  25.669  28.123  1.00  0.00     0.029 A 
ATOM     43  C   UNL A   1      41.732  26.054  28.385  1.00  0.00     0.049 A 
ATOM     44  H   UNL A   1      42.421  27.890  29.095  1.00  0.00     0.167 HD
ATOM     45  C   UNL A   1      43.756  31.862  30.377  1.00  0.00     0.037 A 
ATOM     46  C   UNL A   1      42.801  25.256  28.196  1.00  0.00     0.037 A 
ATOM     47  C   UNL A   1      44.957  31.077  30.236  1.00  0.00     0.049 A 
ATOM     48  C   UNL A   1      44.173  25.813  28.452  1.00  0.00     0.074 A 
ATOM     49  C   UNL A   1      46.264  31.445  30.508  1.00  0.00     0.029 A 
ATOM     50  N   UNL A   1      45.001  29.763  29.789  1.00  0.00    -0.354 N 
ATOM     51  N   UNL A   1      44.512  27.006  28.881  1.00  0.00    -0.248 NA
ATOM     52  C   UNL A   1      45.309  24.922  28.190  1.00  0.00     0.031 C 
ATOM     53  C   UNL A   1      47.102  30.381  30.161  1.00  0.00     0.029 A 
ATOM     54  C   UNL A   1      46.315  29.318  29.747  1.00  0.00     0.049 A 
ATOM     55  H   UNL A   1      44.215  29.225  29.537  1.00  0.00     0.167 HD
ATOM     56  C   UNL A   1      45.898  26.999  28.967  1.00  0.00     0.074 A 
ATOM     57  C   UNL A   1      46.334  25.679  28.560  1.00  0.00     0.031 C 
ATOM     58  C   UNL A   1      46.735  27.997  29.347  1.00  0.00     0.037 A 
BRANCH  45  59
ATOM     59  C   UNL A   1      43.893  33.295  30.826  1.00  0.00     0.058 A 
ATOM     60  C   UNL A   1      44.070  34.356  29.925  1.00  0.00     0.135 A 
ATOM     61  C   UNL A   1      43.800  33.615  32.192  1.00  0.00     0.135 A 
ATOM     62  F   UNL A   1      44.181  34.115  28.609  1.00  0.00    -0.206 F 
ATOM     63  C   UNL A   1      44.176  35.675  30.360  1.00  0.00     0.059 A 
ATOM     64  C   UNL A   1      43.869  34.928  32.649  1.00  0.00     0.059 A 
ATOM     65  F   UNL A   1      43.630  32.644  33.104  1.00  0.00    -0.206 F 
ATOM     66  C   UNL A   1      44.072  35.951  31.725  1.00  0.00     0.060 A 
BRANCH  66  67
ATOM     67  S   UNL A   1      44.201  37.667  32.273  1.00  0.00     0.124 S 
ATOM     68  O   UNL A   1      43.795  38.390  31.071  1.00  0.00    -0.237 OA
ATOM     69  O   UNL A   1      43.258  37.710  33.386  1.00  0.00    -0.237 OA
ATOM     70  O   UNL A   1      45.607  37.805  32.640  1.00  0.00    -0.744 OA
ENDBRANCH  66  67
ENDBRANCH  45  59
BRANCH  46  71
ATOM     71  C   UNL A   1      42.614  23.870  27.683  1.00  0.00     0.058 A 
ATOM     72  C   UNL A   1      42.536  22.774  28.555  1.00  0.00     0.135 A 
ATOM     73  C   UNL A   1      42.497  23.614  26.306  1.00  0.00     0.135 A 
ATOM     74  F   UNL A   1      42.654  22.959  29.879  1.00  0.00    -0.206 F 
ATOM     75  C   UNL A   1      42.364  21.477  28.082  1.00  0.00     0.059 A 
ATOM     76  C   UNL A   1      42.287  22.332  25.812  1.00  0.00     0.059 A 
ATOM     77  F   UNL A   1      42.555  24.626  25.426  1.00  0.00    -0.206 F 
ATOM     78  C   UNL A   1      42.232  21.267  26.708  1.00  0.00     0.060 A 
BRANCH  78  79
ATOM     79  S   UNL A   1      41.963  19.585  26.108  1.00  0.00     0.124 S 
ATOM     80  O   UNL A   1      40.534  19.601  25.815  1.00  0.00    -0.237 OA
ATOM     81  O   UNL A   1      42.852  19.527  24.953  1.00  0.00    -0.237 OA
ATOM     82  O   UNL A   1      42.364  18.755  27.241  1.00  0.00    -0.744 OA
ENDBRANCH  78  79
ENDBRANCH  46  71
BRANCH  58  83
ATOM     83  C   UNL A   1      48.206  27.684  29.392  1.00  0.00     0.058 A 
ATOM     84  C   UNL A   1      48.817  27.130  30.527  1.00  0.00     0.135 A 
ATOM     85  C   UNL A   1      49.010  27.907  28.261  1.00  0.00     0.135 A 
ATOM     86  F   UNL A   1      48.100  26.903  31.640  1.00  0.00    -0.206 F 
ATOM     87  C   UNL A   1      50.177  26.839  30.552  1.00  0.00     0.059 A 
ATOM     88  C   UNL A   1      50.364  27.589  28.250  1.00  0.00     0.059 A 
ATOM     89  F   UNL A   1      48.476  28.427  27.143  1.00  0.00    -0.206 F 
ATOM     90  C   UNL A   1      50.942  27.068  29.407  1.00  0.00     0.060 A 
BRANCH  90  91
ATOM     91  S   UNL A   1      52.699  26.658  29.443  1.00  0.00     0.124 S 
ATOM     92  O   UNL A   1      52.790  25.864  30.665  1.00  0.00    -0.237 OA
ATOM     93  O   UNL A   1      52.872  25.922  28.194  1.00  0.00    -0.237 OA
ATOM     94  O   UNL A   1      53.354  27.962  29.492  1.00  0.00    -0.744 OA
ENDBRANCH  90  91
ENDBRANCH  58  83
ENDBRANCH  32  33
ENDBRANCH  25  27
ENDBRANCH  24  25
ENDBRANCH  23  24
ENDBRANCH   1  23
TORSDOF 17
ENDMDL
MODEL 2
REMARK VINA RESULT:     -10.4      2.420      3.502
REMARK SMILES C#CCNC(=O)N[C@@]1(C(=O)OCCOC(=O)c2ccc(-c3c4nc(c(-c5c(F)cc(S(=O)(=O)[O-])cc5F)c5ccc([nH]5)c(-c5c(F)cc(S(=O)(=O)[O-])cc5F)c5nc(c(-c6c(F)cc(S(=O)(=O)[O-])cc6F)c6ccc3[nH]6)C=C5)C=C4)cc2)CCc2ccccc21
REMARK SMILES IDX 12 1 11 2 9 3 10 4 8 5 83 6 90 7 84 8 85 9 89 10 86 11 88 12
REMARK SMILES IDX 87 13 7 14 4 15 5 16 6 18 3 20 2 21 1 22 13 23 14 24 15 25
REMARK SMILES IDX 16 26 17 27 18 28 82 29 19 30 81 31 20 32 21 33 22 34 75 35
REMARK SMILES IDX 23 36 80 37 74 38 76 39 24 40 79 41 73 42 72 43 25 45 59 46
REMARK SMILES IDX 38 47 58 48 39 49 42 50 57 51 77 52 40 53 41 54 56 56 78 57
REMARK SMILES IDX 43 58 26 59 27 60 36 61 28 62 29 63 35 64 37 65 30 66 31 67
REMARK SMILES IDX 32 68 33 69 34 70 60 71 61 72 70 73 62 74 63 75 69 76 71 77
REMARK SMILES IDX 64 78 65 79 66 80 67 81 68 82 44 83 45 84 54 85 46 86 47 87
REMARK SMILES IDX 53 88 55 89 48 90 49 91 50 92 51 93 52 94
REMARK H PARENT 4 17 7 19 76 44 42 55
REMARK Flexibility Score: inf
ROOT
ATOM      1  C   UNL A   1      33.964  29.712  26.514  1.00  0.00     0.274 C 
ENDROOT
BRANCH   1   2
ATOM      2  O   UNL A   1      33.623  28.316  26.341  1.00  0.00    -0.460 OA
BRANCH   2   3
ATOM      3  C   UNL A   1      33.397  27.911  25.058  1.00  0.00     0.336 C 
ATOM      4  O   UNL A   1      33.963  28.450  24.111  1.00  0.00    -0.249 OA
BRANCH   3   5
ATOM      5  C   UNL A   1      32.357  26.741  24.897  1.00  0.00     0.165 C 
ATOM      6  C   UNL A   1      31.032  26.963  25.680  1.00  0.00     0.050 C 
ATOM      7  C   UNL A   1      32.768  25.426  25.591  1.00  0.00    -0.008 A 
ATOM      8  C   UNL A   1      30.416  25.587  25.921  1.00  0.00     0.039 C 
ATOM      9  C   UNL A   1      31.651  24.806  26.177  1.00  0.00    -0.042 A 
ATOM     10  C   UNL A   1      34.010  24.814  25.701  1.00  0.00     0.007 A 
ATOM     11  C   UNL A   1      31.738  23.614  26.876  1.00  0.00     0.004 A 
ATOM     12  C   UNL A   1      34.119  23.629  26.443  1.00  0.00     0.000 A 
ATOM     13  C   UNL A   1      32.992  23.034  27.026  1.00  0.00     0.000 A 
BRANCH   5  14
ATOM     14  N   UNL A   1      32.072  26.463  23.475  1.00  0.00    -0.318 N 
ATOM     15  N   UNL A   1      31.022  28.339  22.434  1.00  0.00    -0.327 N 
ATOM     16  C   UNL A   1      31.481  27.083  22.447  1.00  0.00     0.316 C 
ATOM     17  H   UNL A   1      30.903  28.692  21.524  1.00  0.00     0.166 HD
ATOM     18  O   UNL A   1      31.403  26.444  21.394  1.00  0.00    -0.249 OA
ATOM     19  H   UNL A   1      32.409  25.576  23.210  1.00  0.00     0.166 HD
BRANCH  15  20
ATOM     20  C   UNL A   1      30.661  29.289  23.453  1.00  0.00     0.207 C 
BRANCH  20  21
ATOM     21  C   UNL A   1      29.449  30.066  23.201  1.00  0.00    -0.085 C 
ATOM     22  C   UNL A   1      28.467  30.609  22.779  1.00  0.00     0.006 C 
ENDBRANCH  20  21
ENDBRANCH  15  20
ENDBRANCH   5  14
ENDBRANCH   3   5
ENDBRANCH   2   3
ENDBRANCH   1   2
BRANCH   1  23
ATOM     23  C   UNL A   1      34.370  30.059  27.950  1.00  0.00     0.275 C 
BRANCH  23  24
ATOM     24  O   UNL A   1      35.484  30.970  27.989  1.00  0.00    -0.458 OA
BRANCH  24  25
ATOM     25  C   UNL A   1      36.253  30.873  29.096  1.00  0.00     0.338 C 
ATOM     26  O   UNL A   1      35.985  31.287  30.212  1.00  0.00    -0.246 OA
BRANCH  25  27
ATOM     27  C   UNL A   1      37.470  30.093  28.835  1.00  0.00     0.060 A 
ATOM     28  C   UNL A   1      38.306  29.842  29.911  1.00  0.00     0.016 A 
ATOM     29  C   UNL A   1      37.908  29.835  27.537  1.00  0.00     0.016 A 
ATOM     30  C   UNL A   1      39.620  29.446  29.702  1.00  0.00     0.010 A 
ATOM     31  C   UNL A   1      39.201  29.328  27.335  1.00  0.00     0.010 A 
ATOM     32  C   UNL A   1      40.089  29.167  28.414  1.00  0.00    -0.014 A 
BRANCH  32  33
ATOM     33  C   UNL A   1      41.508  28.749  28.227  1.00  0.00     0.031 A 
ATOM     34  C   UNL A   1      42.621  29.761  28.329  1.00  0.00     0.074 A 
ATOM     35  C   UNL A   1      41.807  27.451  28.008  1.00  0.00     0.049 A 
ATOM     36  N   UNL A   1      43.891  29.626  28.045  1.00  0.00    -0.248 NA
ATOM     37  C   UNL A   1      42.255  31.106  28.801  1.00  0.00     0.031 C 
ATOM     38  C   UNL A   1      40.836  26.353  27.962  1.00  0.00     0.029 A 
ATOM     39  N   UNL A   1      43.012  26.827  27.791  1.00  0.00    -0.354 N 
ATOM     40  C   UNL A   1      44.466  30.876  28.258  1.00  0.00     0.074 A 
ATOM     41  C   UNL A   1      43.403  31.761  28.679  1.00  0.00     0.031 C 
ATOM     42  C   UNL A   1      41.482  25.196  27.765  1.00  0.00     0.029 A 
ATOM     43  C   UNL A   1      42.897  25.475  27.563  1.00  0.00     0.049 A 
ATOM     44  H   UNL A   1      43.875  27.302  27.798  1.00  0.00     0.167 HD
ATOM     45  C   UNL A   1      45.763  31.245  28.111  1.00  0.00     0.037 A 
ATOM     46  C   UNL A   1      43.812  24.565  27.174  1.00  0.00     0.037 A 
ATOM     47  C   UNL A   1      46.818  30.339  27.729  1.00  0.00     0.049 A 
ATOM     48  C   UNL A   1      45.227  25.013  26.946  1.00  0.00     0.074 A 
ATOM     49  C   UNL A   1      48.165  30.610  27.559  1.00  0.00     0.029 A 
ATOM     50  N   UNL A   1      46.648  28.987  27.462  1.00  0.00    -0.354 N 
ATOM     51  N   UNL A   1      45.748  26.208  27.100  1.00  0.00    -0.248 NA
ATOM     52  C   UNL A   1      46.179  23.997  26.482  1.00  0.00     0.031 C 
ATOM     53  C   UNL A   1      48.796  29.441  27.123  1.00  0.00     0.029 A 
ATOM     54  C   UNL A   1      47.860  28.419  27.098  1.00  0.00     0.049 A 
ATOM     55  H   UNL A   1      45.794  28.502  27.522  1.00  0.00     0.167 HD
ATOM     56  C   UNL A   1      47.094  26.079  26.778  1.00  0.00     0.074 A 
ATOM     57  C   UNL A   1      47.309  24.688  26.436  1.00  0.00     0.031 C 
ATOM     58  C   UNL A   1      48.063  27.029  26.766  1.00  0.00     0.037 A 
BRANCH  45  59
ATOM     59  C   UNL A   1      46.112  32.698  28.312  1.00  0.00     0.058 A 
ATOM     60  C   UNL A   1      46.513  33.214  29.554  1.00  0.00     0.135 A 
ATOM     61  C   UNL A   1      46.088  33.583  27.220  1.00  0.00     0.135 A 
ATOM     62  F   UNL A   1      46.543  32.423  30.638  1.00  0.00    -0.206 F 
ATOM     63  C   UNL A   1      46.848  34.557  29.713  1.00  0.00     0.059 A 
ATOM     64  C   UNL A   1      46.452  34.921  27.347  1.00  0.00     0.059 A 
ATOM     65  F   UNL A   1      45.714  33.149  26.005  1.00  0.00    -0.206 F 
ATOM     66  C   UNL A   1      46.817  35.402  28.602  1.00  0.00     0.060 A 
BRANCH  66  67
ATOM     67  S   UNL A   1      47.266  37.137  28.822  1.00  0.00     0.124 S 
ATOM     68  O   UNL A   1      46.974  37.686  27.501  1.00  0.00    -0.237 OA
ATOM     69  O   UNL A   1      46.370  37.557  29.894  1.00  0.00    -0.237 OA
ATOM     70  O   UNL A   1      48.682  37.083  29.176  1.00  0.00    -0.744 OA
ENDBRANCH  66  67
ENDBRANCH  45  59
BRANCH  46  71
ATOM     71  C   UNL A   1      43.398  23.155  26.922  1.00  0.00     0.058 A 
ATOM     72  C   UNL A   1      43.257  22.658  25.618  1.00  0.00     0.135 A 
ATOM     73  C   UNL A   1      43.148  22.271  27.985  1.00  0.00     0.135 A 
ATOM     74  F   UNL A   1      43.471  23.463  24.566  1.00  0.00    -0.206 F 
ATOM     75  C   UNL A   1      42.868  21.344  25.377  1.00  0.00     0.059 A 
ATOM     76  C   UNL A   1      42.796  20.944  27.770  1.00  0.00     0.059 A 
ATOM     77  F   UNL A   1      43.277  22.689  29.254  1.00  0.00    -0.206 F 
ATOM     78  C   UNL A   1      42.647  20.491  26.461  1.00  0.00     0.060 A 
BRANCH  78  79
ATOM     79  S   UNL A   1      42.189  18.776  26.135  1.00  0.00     0.124 S 
ATOM     80  O   UNL A   1      42.443  18.152  27.429  1.00  0.00    -0.237 OA
ATOM     81  O   UNL A   1      40.787  18.902  25.751  1.00  0.00    -0.237 OA
ATOM     82  O   UNL A   1      43.093  18.383  25.058  1.00  0.00    -0.744 OA
ENDBRANCH  78  79
ENDBRANCH  46  71
BRANCH  58  83
ATOM     83  C   UNL A   1      49.459  26.585  26.420  1.00  0.00     0.058 A 
ATOM     84  C   UNL A   1      50.329  26.045  27.380  1.00  0.00     0.135 A 
ATOM     85  C   UNL A   1      49.917  26.666  25.094  1.00  0.00     0.135 A 
ATOM     86  F   UNL A   1      49.948  25.952  28.664  1.00  0.00    -0.206 F 
ATOM     87  C   UNL A   1      51.615  25.633  27.044  1.00  0.00     0.059 A 
ATOM     88  C   UNL A   1      51.184  26.225  24.729  1.00  0.00     0.059 A 
ATOM     89  F   UNL A   1      49.123  27.166  24.133  1.00  0.00    -0.206 F 
ATOM     90  C   UNL A   1      52.032  25.723  25.715  1.00  0.00     0.060 A 
BRANCH  90  91
ATOM     91  S   UNL A   1      53.691  25.155  25.289  1.00  0.00     0.124 S 
ATOM     92  O   UNL A   1      54.494  25.780  26.336  1.00  0.00    -0.237 OA
ATOM     93  O   UNL A   1      53.555  23.704  25.375  1.00  0.00    -0.237 OA
ATOM     94  O   UNL A   1      53.898  25.681  23.943  1.00  0.00    -0.744 OA
ENDBRANCH  90  91
ENDBRANCH  58  83
ENDBRANCH  32  33
ENDBRANCH  25  27
ENDBRANCH  24  25
ENDBRANCH  23  24
ENDBRANCH   1  23
TORSDOF 17
ENDMDL
MODEL 3
REMARK VINA RESULT:     -10.4      5.363     10.574
REMARK SMILES C#CCNC(=O)N[C@@]1(C(=O)OCCOC(=O)c2ccc(-c3c4nc(c(-c5c(F)cc(S(=O)(=O)[O-])cc5F)c5ccc([nH]5)c(-c5c(F)cc(S(=O)(=O)[O-])cc5F)c5nc(c(-c6c(F)cc(S(=O)(=O)[O-])cc6F)c6ccc3[nH]6)C=C5)C=C4)cc2)CCc2ccccc21
REMARK SMILES IDX 12 1 11 2 9 3 10 4 8 5 83 6 90 7 84 8 85 9 89 10 86 11 88 12
REMARK SMILES IDX 87 13 7 14 4 15 5 16 6 18 3 20 2 21 1 22 13 23 14 24 15 25
REMARK SMILES IDX 16 26 17 27 18 28 82 29 19 30 81 31 20 32 21 33 22 34 75 35
REMARK SMILES IDX 23 36 80 37 74 38 76 39 24 40 79 41 73 42 72 43 25 45 59 46
REMARK SMILES IDX 38 47 58 48 39 49 42 50 57 51 77 52 40 53 41 54 56 56 78 57
REMARK SMILES IDX 43 58 26 59 27 60 36 61 28 62 29 63 35 64 37 65 30 66 31 67
REMARK SMILES IDX 32 68 33 69 34 70 60 71 61 72 70 73 62 74 63 75 69 76 71 77
REMARK SMILES IDX 64 78 65 79 66 80 67 81 68 82 44 83 45 84 54 85 46 86 47 87
REMARK SMILES IDX 53 88 55 89 48 90 49 91 50 92 51 93 52 94
REMARK H PARENT 4 17 7 19 76 44 42 55
REMARK Flexibility Score: inf
ROOT
ATOM      1  C   UNL A   1      36.911  22.709  25.809  1.00  0.00     0.274 C 
ENDROOT
BRANCH   1   2
ATOM      2  O   UNL A   1      35.989  23.796  25.557  1.00  0.00    -0.460 OA
BRANCH   2   3
ATOM      3  C   UNL A   1      34.697  23.585  25.939  1.00  0.00     0.336 C 
ATOM      4  O   UNL A   1      34.418  23.263  27.090  1.00  0.00    -0.249 OA
BRANCH   3   5
ATOM      5  C   UNL A   1      33.623  23.760  24.802  1.00  0.00     0.165 C 
ATOM      6  C   UNL A   1      33.966  23.000  23.489  1.00  0.00     0.050 C 
ATOM      7  C   UNL A   1      33.569  25.176  24.191  1.00  0.00    -0.008 A 
ATOM      8  C   UNL A   1      33.220  23.701  22.355  1.00  0.00     0.039 C 
ATOM      9  C   UNL A   1      33.358  25.108  22.804  1.00  0.00    -0.042 A 
ATOM     10  C   UNL A   1      33.688  26.422  24.792  1.00  0.00     0.007 A 
ATOM     11  C   UNL A   1      33.280  26.235  22.003  1.00  0.00     0.004 A 
ATOM     12  C   UNL A   1      33.653  27.569  23.987  1.00  0.00     0.000 A 
ATOM     13  C   UNL A   1      33.451  27.476  22.604  1.00  0.00     0.000 A 
BRANCH   5  14
ATOM     14  N   UNL A   1      32.273  23.389  25.271  1.00  0.00    -0.318 N 
ATOM     15  N   UNL A   1      32.167  21.064  25.811  1.00  0.00    -0.327 N 
ATOM     16  C   UNL A   1      31.630  22.279  25.649  1.00  0.00     0.316 C 
ATOM     17  H   UNL A   1      31.612  20.472  26.366  1.00  0.00     0.166 HD
ATOM     18  O   UNL A   1      30.434  22.406  25.925  1.00  0.00    -0.249 OA
ATOM     19  H   UNL A   1      31.683  24.176  25.318  1.00  0.00     0.166 HD
BRANCH  15  20
ATOM     20  C   UNL A   1      33.375  20.430  25.352  1.00  0.00     0.207 C 
BRANCH  20  21
ATOM     21  C   UNL A   1      33.199  19.321  24.417  1.00  0.00    -0.085 C 
ATOM     22  C   UNL A   1      33.031  18.281  23.845  1.00  0.00     0.006 C 
ENDBRANCH  20  21
ENDBRANCH  15  20
ENDBRANCH   5  14
ENDBRANCH   3   5
ENDBRANCH   2   3
ENDBRANCH   1   2
BRANCH   1  23
ATOM     23  C   UNL A   1      38.380  23.141  25.756  1.00  0.00     0.275 C 
BRANCH  23  24
ATOM     24  O   UNL A   1      38.633  24.288  26.589  1.00  0.00    -0.458 OA
BRANCH  24  25
ATOM     25  C   UNL A   1      39.912  24.723  26.575  1.00  0.00     0.338 C 
ATOM     26  O   UNL A   1      40.735  24.548  25.692  1.00  0.00    -0.246 OA
BRANCH  25  27
ATOM     27  C   UNL A   1      40.206  25.556  27.749  1.00  0.00     0.060 A 
ATOM     28  C   UNL A   1      39.267  25.570  28.768  1.00  0.00     0.016 A 
ATOM     29  C   UNL A   1      41.241  26.489  27.742  1.00  0.00     0.016 A 
ATOM     30  C   UNL A   1      39.279  26.580  29.720  1.00  0.00     0.010 A 
ATOM     31  C   UNL A   1      41.315  27.442  28.770  1.00  0.00     0.010 A 
ATOM     32  C   UNL A   1      40.310  27.525  29.750  1.00  0.00    -0.014 A 
BRANCH  32  33
ATOM     33  C   UNL A   1      40.287  28.599  30.785  1.00  0.00     0.031 A 
ATOM     34  C   UNL A   1      41.237  28.552  31.954  1.00  0.00     0.074 A 
ATOM     35  C   UNL A   1      39.444  29.646  30.654  1.00  0.00     0.049 A 
ATOM     36  N   UNL A   1      41.265  29.298  33.029  1.00  0.00    -0.248 NA
ATOM     37  C   UNL A   1      42.286  27.520  31.918  1.00  0.00     0.031 C 
ATOM     38  C   UNL A   1      38.525  29.859  29.532  1.00  0.00     0.029 A 
ATOM     39  N   UNL A   1      39.225  30.734  31.464  1.00  0.00    -0.354 N 
ATOM     40  C   UNL A   1      42.300  28.799  33.816  1.00  0.00     0.074 A 
ATOM     41  C   UNL A   1      42.865  27.675  33.102  1.00  0.00     0.031 C 
ATOM     42  C   UNL A   1      37.870  31.014  29.707  1.00  0.00     0.029 A 
ATOM     43  C   UNL A   1      38.237  31.573  31.001  1.00  0.00     0.049 A 
ATOM     44  H   UNL A   1      39.726  30.897  32.296  1.00  0.00     0.167 HD
ATOM     45  C   UNL A   1      42.732  29.242  35.022  1.00  0.00     0.037 A 
ATOM     46  C   UNL A   1      37.645  32.639  31.574  1.00  0.00     0.037 A 
ATOM     47  C   UNL A   1      42.183  30.389  35.701  1.00  0.00     0.049 A 
ATOM     48  C   UNL A   1      38.090  33.064  32.944  1.00  0.00     0.074 A 
ATOM     49  C   UNL A   1      42.553  30.925  36.923  1.00  0.00     0.029 A 
ATOM     50  N   UNL A   1      41.151  31.183  35.217  1.00  0.00    -0.354 N 
ATOM     51  N   UNL A   1      39.034  32.553  33.700  1.00  0.00    -0.248 NA
ATOM     52  C   UNL A   1      37.387  34.203  33.546  1.00  0.00     0.031 C 
ATOM     53  C   UNL A   1      41.702  31.997  37.208  1.00  0.00     0.029 A 
ATOM     54  C   UNL A   1      40.852  32.183  36.130  1.00  0.00     0.049 A 
ATOM     55  H   UNL A   1      40.698  31.054  34.352  1.00  0.00     0.167 HD
ATOM     56  C   UNL A   1      39.055  33.326  34.854  1.00  0.00     0.074 A 
ATOM     57  C   UNL A   1      38.042  34.348  34.690  1.00  0.00     0.031 C 
ATOM     58  C   UNL A   1      39.844  33.199  35.951  1.00  0.00     0.037 A 
BRANCH  45  59
ATOM     59  C   UNL A   1      43.817  28.458  35.716  1.00  0.00     0.058 A 
ATOM     60  C   UNL A   1      45.181  28.737  35.540  1.00  0.00     0.135 A 
ATOM     61  C   UNL A   1      43.476  27.431  36.614  1.00  0.00     0.135 A 
ATOM     62  F   UNL A   1      45.572  29.695  34.686  1.00  0.00    -0.206 F 
ATOM     63  C   UNL A   1      46.167  28.011  36.206  1.00  0.00     0.059 A 
ATOM     64  C   UNL A   1      44.442  26.715  37.316  1.00  0.00     0.059 A 
ATOM     65  F   UNL A   1      42.188  27.117  36.825  1.00  0.00    -0.206 F 
ATOM     66  C   UNL A   1      45.786  27.003  37.095  1.00  0.00     0.060 A 
BRANCH  66  67
ATOM     67  S   UNL A   1      47.075  26.079  37.958  1.00  0.00     0.124 S 
ATOM     68  O   UNL A   1      46.389  25.699  39.190  1.00  0.00    -0.237 OA
ATOM     69  O   UNL A   1      47.354  24.990  37.028  1.00  0.00    -0.237 OA
ATOM     70  O   UNL A   1      48.149  27.056  38.117  1.00  0.00    -0.744 OA
ENDBRANCH  66  67
ENDBRANCH  45  59
BRANCH  46  71
ATOM     71  C   UNL A   1      36.529  33.335  30.874  1.00  0.00     0.058 A 
ATOM     72  C   UNL A   1      35.198  33.188  31.294  1.00  0.00     0.135 A 
ATOM     73  C   UNL A   1      36.773  34.175  29.773  1.00  0.00     0.135 A 
ATOM     74  F   UNL A   1      34.906  32.389  32.331  1.00  0.00    -0.206 F 
ATOM     75  C   UNL A   1      34.152  33.834  30.642  1.00  0.00     0.059 A 
ATOM     76  C   UNL A   1      35.750  34.861  29.130  1.00  0.00     0.059 A 
ATOM     77  F   UNL A   1      38.028  34.360  29.334  1.00  0.00    -0.206 F 
ATOM     78  C   UNL A   1      34.440  34.675  29.565  1.00  0.00     0.060 A 
BRANCH  78  79
ATOM     79  S   UNL A   1      33.079  35.544  28.756  1.00  0.00     0.124 S 
ATOM     80  O   UNL A   1      33.791  36.569  28.001  1.00  0.00    -0.237 OA
ATOM     81  O   UNL A   1      32.464  34.481  27.968  1.00  0.00    -0.237 OA
ATOM     82  O   UNL A   1      32.277  36.029  29.875  1.00  0.00    -0.744 OA
ENDBRANCH  78  79
ENDBRANCH  46  71
BRANCH  58  83
ATOM     83  C   UNL A   1      39.678  34.224  37.041  1.00  0.00     0.058 A 
ATOM     84  C   UNL A   1      38.978  33.947  38.226  1.00  0.00     0.135 A 
ATOM     85  C   UNL A   1      40.265  35.494  36.911  1.00  0.00     0.135 A 
ATOM     86  F   UNL A   1      38.389  32.753  38.401  1.00  0.00    -0.206 F 
ATOM     87  C   UNL A   1      38.838  34.902  39.228  1.00  0.00     0.059 A 
ATOM     88  C   UNL A   1      40.170  36.451  37.916  1.00  0.00     0.059 A 
ATOM     89  F   UNL A   1      40.954  35.811  35.803  1.00  0.00    -0.206 F 
ATOM     90  C   UNL A   1      39.442  36.150  39.066  1.00  0.00     0.060 A 
BRANCH  90  91
ATOM     91  S   UNL A   1      39.278  37.368  40.387  1.00  0.00     0.124 S 
ATOM     92  O   UNL A   1      40.675  37.668  40.686  1.00  0.00    -0.237 OA
ATOM     93  O   UNL A   1      38.526  38.436  39.734  1.00  0.00    -0.237 OA
ATOM     94  O   UNL A   1      38.554  36.647  41.430  1.00  0.00    -0.744 OA
ENDBRANCH  90  91
ENDBRANCH  58  83
ENDBRANCH  32  33
ENDBRANCH  25  27
ENDBRANCH  24  25
ENDBRANCH  23  24
ENDBRANCH   1  23
TORSDOF 17
ENDMDL
