MODEL 1
REMARK VINA RESULT:     -10.4      0.000      0.000
REMARK SMILES CC[N@@H+](C)CCNC(=O)N1CCO[C@H](CC(=O)OCCOC(=O)c2ccc(-c3c4nc(c(-c5c(F)cc(S(=O)(=O)[O-])cc5F)c5ccc([nH]5)c(-c5c(F)cc(S(=O)(=O)[O-])cc5F)c5nc(c(-c6c(F)cc(S(=O)(=O)[O-])cc6F)c6ccc3[nH]6)C=C5)C=C4)cc2)C1
REMARK SMILES IDX 18 1 16 2 17 3 15 4 14 5 10 6 11 7 90 8 12 9 13 10 8 11 7 12
REMARK SMILES IDX 9 14 6 15 5 16 3 17 4 18 2 20 1 21 19 22 20 23 21 24 22 25
REMARK SMILES IDX 23 26 24 27 25 28 89 29 26 30 88 31 27 32 28 33 29 34 82 35
REMARK SMILES IDX 30 36 87 37 81 38 83 39 31 40 86 41 80 42 79 43 32 45 66 46
REMARK SMILES IDX 45 47 65 48 46 49 49 50 64 51 84 52 47 53 48 54 63 56 85 57
REMARK SMILES IDX 50 58 33 59 34 60 43 61 35 62 36 63 42 64 44 65 37 66 38 67
REMARK SMILES IDX 39 68 40 69 41 70 67 71 68 72 77 73 69 74 70 75 76 76 78 77
REMARK SMILES IDX 71 78 72 79 73 80 74 81 75 82 51 83 52 84 61 85 53 86 54 87
REMARK SMILES IDX 60 88 62 89 55 90 56 91 57 92 58 93 59 94
REMARK H PARENT 7 13 3 19 83 44 49 55
REMARK Flexibility Score: inf
ROOT
ATOM      1  O   UNL A   1      37.281  22.190  24.582  1.00  0.00    -0.462 OA
ENDROOT
BRANCH   1   2
ATOM      2  C   UNL A   1      36.453  22.907  23.794  1.00  0.00     0.308 C 
ATOM      3  O   UNL A   1      36.567  22.961  22.573  1.00  0.00    -0.252 OA
BRANCH   2   4
ATOM      4  C   UNL A   1      35.440  23.762  24.517  1.00  0.00     0.156 C 
BRANCH   4   5
ATOM      5  C   UNL A   1      34.311  24.552  23.828  1.00  0.00     0.149 C 
ATOM      6  N   UNL A   1      32.491  23.380  24.854  1.00  0.00    -0.320 N 
ATOM      7  C   UNL A   1      31.956  22.920  23.580  1.00  0.00     0.150 C 
ATOM      8  C   UNL A   1      33.099  24.690  24.749  1.00  0.00     0.154 C 
ATOM      9  C   UNL A   1      32.899  23.163  22.384  1.00  0.00     0.182 C 
ATOM     10  O   UNL A   1      33.920  24.161  22.515  1.00  0.00    -0.374 OA
BRANCH   6  11
ATOM     11  C   UNL A   1      32.156  22.906  26.087  1.00  0.00     0.317 C 
ATOM     12  N   UNL A   1      32.699  21.754  26.539  1.00  0.00    -0.332 N 
ATOM     13  H   UNL A   1      32.144  21.250  27.178  1.00  0.00     0.165 HD
ATOM     14  O   UNL A   1      31.415  23.523  26.853  1.00  0.00    -0.249 OA
BRANCH  12  15
ATOM     15  C   UNL A   1      33.982  21.149  26.221  1.00  0.00     0.179 C 
BRANCH  15  16
ATOM     16  C   UNL A   1      33.961  20.226  24.975  1.00  0.00     0.283 C 
BRANCH  16  17
ATOM     17  N   UNL A   1      32.811  19.348  24.723  1.00  0.00    -0.336 N 
ATOM     18  C   UNL A   1      32.823  18.145  25.547  1.00  0.00     0.332 C 
ATOM     19  H   UNL A   1      32.022  19.919  25.025  1.00  0.00     0.347 HD
BRANCH  17  20
ATOM     20  C   UNL A   1      32.511  19.061  23.323  1.00  0.00     0.258 C 
ATOM     21  C   UNL A   1      32.793  17.616  22.923  1.00  0.00     0.071 C 
ENDBRANCH  17  20
ENDBRANCH  16  17
ENDBRANCH  15  16
ENDBRANCH  12  15
ENDBRANCH   6  11
ENDBRANCH   4   5
ENDBRANCH   2   4
ENDBRANCH   1   2
BRANCH   1  22
ATOM     22  C   UNL A   1      37.509  22.676  25.924  1.00  0.00     0.274 C 
BRANCH  22  23
ATOM     23  C   UNL A   1      38.994  22.862  26.231  1.00  0.00     0.275 C 
BRANCH  23  24
ATOM     24  O   UNL A   1      39.279  24.239  26.496  1.00  0.00    -0.458 OA
BRANCH  24  25
ATOM     25  C   UNL A   1      40.584  24.514  26.729  1.00  0.00     0.338 C 
ATOM     26  O   UNL A   1      41.550  24.101  26.119  1.00  0.00    -0.246 OA
BRANCH  25  27
ATOM     27  C   UNL A   1      40.647  25.538  27.776  1.00  0.00     0.060 A 
ATOM     28  C   UNL A   1      39.547  25.688  28.625  1.00  0.00     0.016 A 
ATOM     29  C   UNL A   1      41.772  26.349  27.904  1.00  0.00     0.016 A 
ATOM     30  C   UNL A   1      39.570  26.638  29.634  1.00  0.00     0.010 A 
ATOM     31  C   UNL A   1      41.788  27.319  28.902  1.00  0.00     0.010 A 
ATOM     32  C   UNL A   1      40.686  27.468  29.764  1.00  0.00    -0.014 A 
BRANCH  32  33
ATOM     33  C   UNL A   1      40.669  28.573  30.739  1.00  0.00     0.031 A 
ATOM     34  C   UNL A   1      41.616  28.513  31.897  1.00  0.00     0.074 A 
ATOM     35  C   UNL A   1      39.805  29.590  30.580  1.00  0.00     0.049 A 
ATOM     36  N   UNL A   1      41.658  29.255  32.969  1.00  0.00    -0.248 NA
ATOM     37  C   UNL A   1      42.651  27.466  31.842  1.00  0.00     0.031 C 
ATOM     38  C   UNL A   1      38.899  29.759  29.443  1.00  0.00     0.029 A 
ATOM     39  N   UNL A   1      39.537  30.662  31.387  1.00  0.00    -0.354 N 
ATOM     40  C   UNL A   1      42.703  28.748  33.732  1.00  0.00     0.074 A 
ATOM     41  C   UNL A   1      43.263  27.629  33.006  1.00  0.00     0.031 C 
ATOM     42  C   UNL A   1      38.157  30.862  29.637  1.00  0.00     0.029 A 
ATOM     43  C   UNL A   1      38.501  31.441  30.932  1.00  0.00     0.049 A 
ATOM     44  H   UNL A   1      40.037  30.855  32.213  1.00  0.00     0.167 HD
ATOM     45  C   UNL A   1      43.146  29.187  34.932  1.00  0.00     0.037 A 
ATOM     46  C   UNL A   1      37.876  32.477  31.524  1.00  0.00     0.037 A 
ATOM     47  C   UNL A   1      42.567  30.308  35.624  1.00  0.00     0.049 A 
ATOM     48  C   UNL A   1      38.342  32.904  32.890  1.00  0.00     0.074 A 
ATOM     49  C   UNL A   1      42.915  30.841  36.851  1.00  0.00     0.029 A 
ATOM     50  N   UNL A   1      41.512  31.071  35.138  1.00  0.00    -0.354 N 
ATOM     51  N   UNL A   1      39.309  32.403  33.625  1.00  0.00    -0.248 NA
ATOM     52  C   UNL A   1      37.632  34.027  33.513  1.00  0.00     0.031 C 
ATOM     53  C   UNL A   1      42.046  31.905  37.124  1.00  0.00     0.029 A 
ATOM     54  C   UNL A   1      41.188  32.065  36.045  1.00  0.00     0.049 A 
ATOM     55  H   UNL A   1      41.061  30.927  34.275  1.00  0.00     0.167 HD
ATOM     56  C   UNL A   1      39.340  33.165  34.786  1.00  0.00     0.074 A 
ATOM     57  C   UNL A   1      38.301  34.167  34.650  1.00  0.00     0.031 C 
ATOM     58  C   UNL A   1      40.152  33.053  35.867  1.00  0.00     0.037 A 
BRANCH  45  59
ATOM     59  C   UNL A   1      44.276  28.435  35.576  1.00  0.00     0.058 A 
ATOM     60  C   UNL A   1      45.618  28.797  35.375  1.00  0.00     0.135 A 
ATOM     61  C   UNL A   1      44.015  27.337  36.412  1.00  0.00     0.135 A 
ATOM     62  F   UNL A   1      45.927  29.823  34.566  1.00  0.00    -0.206 F 
ATOM     63  C   UNL A   1      46.661  28.087  35.961  1.00  0.00     0.059 A 
ATOM     64  C   UNL A   1      45.042  26.627  37.030  1.00  0.00     0.059 A 
ATOM     65  F   UNL A   1      42.752  26.940  36.632  1.00  0.00    -0.206 F 
ATOM     66  C   UNL A   1      46.362  27.001  36.787  1.00  0.00     0.060 A 
BRANCH  66  67
ATOM     67  S   UNL A   1      47.725  26.089  37.544  1.00  0.00     0.124 S 
ATOM     68  O   UNL A   1      47.211  24.724  37.519  1.00  0.00    -0.237 OA
ATOM     69  O   UNL A   1      48.830  26.366  36.632  1.00  0.00    -0.237 OA
ATOM     70  O   UNL A   1      47.844  26.691  38.868  1.00  0.00    -0.744 OA
ENDBRANCH  66  67
ENDBRANCH  45  59
BRANCH  46  71
ATOM     71  C   UNL A   1      36.740  33.154  30.844  1.00  0.00     0.058 A 
ATOM     72  C   UNL A   1      35.416  32.904  31.230  1.00  0.00     0.135 A 
ATOM     73  C   UNL A   1      36.954  34.073  29.805  1.00  0.00     0.135 A 
ATOM     74  F   UNL A   1      35.158  32.028  32.214  1.00  0.00    -0.206 F 
ATOM     75  C   UNL A   1      34.342  33.527  30.601  1.00  0.00     0.059 A 
ATOM     76  C   UNL A   1      35.898  34.729  29.178  1.00  0.00     0.059 A 
ATOM     77  F   UNL A   1      38.203  34.358  29.403  1.00  0.00    -0.206 F 
ATOM     78  C   UNL A   1      34.594  34.440  29.576  1.00  0.00     0.060 A 
BRANCH  78  79
ATOM     79  S   UNL A   1      33.195  35.272  28.792  1.00  0.00     0.124 S 
ATOM     80  O   UNL A   1      33.868  36.308  28.016  1.00  0.00    -0.237 OA
ATOM     81  O   UNL A   1      32.586  34.192  28.022  1.00  0.00    -0.237 OA
ATOM     82  O   UNL A   1      32.408  35.745  29.926  1.00  0.00    -0.744 OA
ENDBRANCH  78  79
ENDBRANCH  46  71
BRANCH  58  83
ATOM     83  C   UNL A   1      39.973  34.064  36.962  1.00  0.00     0.058 A 
ATOM     84  C   UNL A   1      40.554  35.338  36.890  1.00  0.00     0.135 A 
ATOM     85  C   UNL A   1      39.160  33.768  38.068  1.00  0.00     0.135 A 
ATOM     86  F   UNL A   1      41.345  35.663  35.856  1.00  0.00    -0.206 F 
ATOM     87  C   UNL A   1      40.349  36.284  37.889  1.00  0.00     0.059 A 
ATOM     88  C   UNL A   1      38.920  34.708  39.065  1.00  0.00     0.059 A 
ATOM     89  F   UNL A   1      38.574  32.566  38.175  1.00  0.00    -0.206 F 
ATOM     90  C   UNL A   1      39.528  35.959  38.972  1.00  0.00     0.060 A 
BRANCH  90  91
ATOM     91  S   UNL A   1      39.235  37.209  40.240  1.00  0.00     0.124 S 
ATOM     92  O   UNL A   1      40.597  37.591  40.594  1.00  0.00    -0.237 OA
ATOM     93  O   UNL A   1      38.462  38.213  39.516  1.00  0.00    -0.237 OA
ATOM     94  O   UNL A   1      38.498  36.481  41.270  1.00  0.00    -0.744 OA
ENDBRANCH  90  91
ENDBRANCH  58  83
ENDBRANCH  32  33
ENDBRANCH  25  27
ENDBRANCH  24  25
ENDBRANCH  23  24
ENDBRANCH  22  23
ENDBRANCH   1  22
TORSDOF 20
ENDMDL
MODEL 2
REMARK VINA RESULT:     -10.1      2.875      4.337
REMARK SMILES CC[N@@H+](C)CCNC(=O)N1CCO[C@H](CC(=O)OCCOC(=O)c2ccc(-c3c4nc(c(-c5c(F)cc(S(=O)(=O)[O-])cc5F)c5ccc([nH]5)c(-c5c(F)cc(S(=O)(=O)[O-])cc5F)c5nc(c(-c6c(F)cc(S(=O)(=O)[O-])cc6F)c6ccc3[nH]6)C=C5)C=C4)cc2)C1
REMARK SMILES IDX 18 1 16 2 17 3 15 4 14 5 10 6 11 7 90 8 12 9 13 10 8 11 7 12
REMARK SMILES IDX 9 14 6 15 5 16 3 17 4 18 2 20 1 21 19 22 20 23 21 24 22 25
REMARK SMILES IDX 23 26 24 27 25 28 89 29 26 30 88 31 27 32 28 33 29 34 82 35
REMARK SMILES IDX 30 36 87 37 81 38 83 39 31 40 86 41 80 42 79 43 32 45 66 46
REMARK SMILES IDX 45 47 65 48 46 49 49 50 64 51 84 52 47 53 48 54 63 56 85 57
REMARK SMILES IDX 50 58 33 59 34 60 43 61 35 62 36 63 42 64 44 65 37 66 38 67
REMARK SMILES IDX 39 68 40 69 41 70 67 71 68 72 77 73 69 74 70 75 76 76 78 77
REMARK SMILES IDX 71 78 72 79 73 80 74 81 75 82 51 83 52 84 61 85 53 86 54 87
REMARK SMILES IDX 60 88 62 89 55 90 56 91 57 92 58 93 59 94
REMARK H PARENT 7 13 3 19 83 44 49 55
REMARK Flexibility Score: inf
ROOT
ATOM      1  O   UNL A   1      34.578  22.788  23.697  1.00  0.00    -0.462 OA
ENDROOT
BRANCH   1   2
ATOM      2  C   UNL A   1      33.813  23.693  23.050  1.00  0.00     0.308 C 
ATOM      3  O   UNL A   1      33.616  23.662  21.839  1.00  0.00    -0.252 OA
BRANCH   2   4
ATOM      4  C   UNL A   1      33.309  24.842  23.890  1.00  0.00     0.156 C 
BRANCH   4   5
ATOM      5  C   UNL A   1      33.733  25.113  25.345  1.00  0.00     0.149 C 
ATOM      6  N   UNL A   1      31.535  25.555  26.192  1.00  0.00    -0.320 N 
ATOM      7  C   UNL A   1      31.876  26.908  26.610  1.00  0.00     0.150 C 
ATOM      8  C   UNL A   1      32.656  24.646  26.324  1.00  0.00     0.154 C 
ATOM      9  C   UNL A   1      33.242  27.397  26.088  1.00  0.00     0.182 C 
ATOM     10  O   UNL A   1      34.204  26.416  25.679  1.00  0.00    -0.374 OA
BRANCH   6  11
ATOM     11  C   UNL A   1      30.280  25.039  26.072  1.00  0.00     0.317 C 
ATOM     12  N   UNL A   1      29.449  25.499  25.110  1.00  0.00    -0.332 N 
ATOM     13  H   UNL A   1      28.489  25.438  25.320  1.00  0.00     0.165 HD
ATOM     14  O   UNL A   1      29.878  24.109  26.772  1.00  0.00    -0.249 OA
BRANCH  12  15
ATOM     15  C   UNL A   1      29.765  26.070  23.811  1.00  0.00     0.179 C 
BRANCH  15  16
ATOM     16  C   UNL A   1      29.963  27.608  23.821  1.00  0.00     0.283 C 
BRANCH  16  17
ATOM     17  N   UNL A   1      29.591  28.410  22.648  1.00  0.00    -0.336 N 
ATOM     18  C   UNL A   1      30.606  29.389  22.283  1.00  0.00     0.332 C 
ATOM     19  H   UNL A   1      29.552  27.714  21.903  1.00  0.00     0.347 HD
BRANCH  17  20
ATOM     20  C   UNL A   1      28.245  28.978  22.654  1.00  0.00     0.258 C 
ATOM     21  C   UNL A   1      28.105  30.221  21.781  1.00  0.00     0.071 C 
ENDBRANCH  17  20
ENDBRANCH  16  17
ENDBRANCH  15  16
ENDBRANCH  12  15
ENDBRANCH   6  11
ENDBRANCH   4   5
ENDBRANCH   2   4
ENDBRANCH   1   2
BRANCH   1  22
ATOM     22  C   UNL A   1      36.011  22.967  23.641  1.00  0.00     0.274 C 
BRANCH  22  23
ATOM     23  C   UNL A   1      36.689  22.647  24.972  1.00  0.00     0.275 C 
BRANCH  23  24
ATOM     24  O   UNL A   1      37.626  23.673  25.314  1.00  0.00    -0.458 OA
BRANCH  24  25
ATOM     25  C   UNL A   1      38.727  23.241  25.973  1.00  0.00     0.338 C 
ATOM     26  O   UNL A   1      39.284  22.167  25.861  1.00  0.00    -0.246 OA
BRANCH  25  27
ATOM     27  C   UNL A   1      39.246  24.361  26.763  1.00  0.00     0.060 A 
ATOM     28  C   UNL A   1      38.808  24.502  28.083  1.00  0.00     0.016 A 
ATOM     29  C   UNL A   1      40.140  25.267  26.200  1.00  0.00     0.016 A 
ATOM     30  C   UNL A   1      39.282  25.542  28.867  1.00  0.00     0.010 A 
ATOM     31  C   UNL A   1      40.600  26.326  26.978  1.00  0.00     0.010 A 
ATOM     32  C   UNL A   1      40.168  26.467  28.309  1.00  0.00    -0.014 A 
BRANCH  32  33
ATOM     33  C   UNL A   1      40.572  27.654  29.083  1.00  0.00     0.031 A 
ATOM     34  C   UNL A   1      41.874  27.612  29.821  1.00  0.00     0.074 A 
ATOM     35  C   UNL A   1      39.767  28.730  29.123  1.00  0.00     0.049 A 
ATOM     36  N   UNL A   1      42.348  28.443  30.707  1.00  0.00    -0.248 NA
ATOM     37  C   UNL A   1      42.757  26.470  29.525  1.00  0.00     0.031 C 
ATOM     38  C   UNL A   1      38.517  28.879  28.376  1.00  0.00     0.029 A 
ATOM     39  N   UNL A   1      39.874  29.893  29.836  1.00  0.00    -0.354 N 
ATOM     40  C   UNL A   1      43.571  27.913  31.099  1.00  0.00     0.074 A 
ATOM     41  C   UNL A   1      43.762  26.682  30.363  1.00  0.00     0.031 C 
ATOM     42  C   UNL A   1      37.960  30.061  28.688  1.00  0.00     0.029 A 
ATOM     43  C   UNL A   1      38.788  30.722  29.692  1.00  0.00     0.049 A 
ATOM     44  H   UNL A   1      40.653  30.114  30.397  1.00  0.00     0.167 HD
ATOM     45  C   UNL A   1      44.448  28.417  31.996  1.00  0.00     0.037 A 
ATOM     46  C   UNL A   1      38.483  31.864  30.339  1.00  0.00     0.037 A 
ATOM     47  C   UNL A   1      44.227  29.648  32.709  1.00  0.00     0.049 A 
ATOM     48  C   UNL A   1      39.442  32.369  31.384  1.00  0.00     0.074 A 
ATOM     49  C   UNL A   1      45.030  30.257  33.654  1.00  0.00     0.029 A 
ATOM     50  N   UNL A   1      43.110  30.460  32.546  1.00  0.00    -0.354 N 
ATOM     51  N   UNL A   1      40.582  31.849  31.777  1.00  0.00    -0.248 NA
ATOM     52  C   UNL A   1      39.074  33.609  32.078  1.00  0.00     0.031 C 
ATOM     53  C   UNL A   1      44.383  31.419  34.089  1.00  0.00     0.029 A 
ATOM     54  C   UNL A   1      43.198  31.560  33.381  1.00  0.00     0.049 A 
ATOM     55  H   UNL A   1      42.366  30.279  31.927  1.00  0.00     0.167 HD
ATOM     56  C   UNL A   1      41.080  32.709  32.747  1.00  0.00     0.074 A 
ATOM     57  C   UNL A   1      40.120  33.789  32.873  1.00  0.00     0.031 C 
ATOM     58  C   UNL A   1      42.226  32.621  33.468  1.00  0.00     0.037 A 
BRANCH  45  59
ATOM     59  C   UNL A   1      45.693  27.623  32.277  1.00  0.00     0.058 A 
ATOM     60  C   UNL A   1      46.872  27.807  31.538  1.00  0.00     0.135 A 
ATOM     61  C   UNL A   1      45.710  26.667  33.305  1.00  0.00     0.135 A 
ATOM     62  F   UNL A   1      46.905  28.690  30.527  1.00  0.00    -0.206 F 
ATOM     63  C   UNL A   1      48.017  27.058  31.792  1.00  0.00     0.059 A 
ATOM     64  C   UNL A   1      46.851  25.923  33.594  1.00  0.00     0.059 A 
ATOM     65  F   UNL A   1      44.608  26.442  34.038  1.00  0.00    -0.206 F 
ATOM     66  C   UNL A   1      47.996  26.116  32.823  1.00  0.00     0.060 A 
BRANCH  66  67
ATOM     67  S   UNL A   1      49.489  25.152  33.144  1.00  0.00     0.124 S 
ATOM     68  O   UNL A   1      50.011  24.965  31.795  1.00  0.00    -0.237 OA
ATOM     69  O   UNL A   1      50.259  26.047  34.002  1.00  0.00    -0.237 OA
ATOM     70  O   UNL A   1      48.983  23.947  33.794  1.00  0.00    -0.744 OA
ENDBRANCH  66  67
ENDBRANCH  45  59
BRANCH  46  71
ATOM     71  C   UNL A   1      37.215  32.580  30.036  1.00  0.00     0.058 A 
ATOM     72  C   UNL A   1      37.189  33.646  29.127  1.00  0.00     0.135 A 
ATOM     73  C   UNL A   1      36.003  32.205  30.637  1.00  0.00     0.135 A 
ATOM     74  F   UNL A   1      38.322  34.048  28.531  1.00  0.00    -0.206 F 
ATOM     75  C   UNL A   1      36.011  34.328  28.835  1.00  0.00     0.059 A 
ATOM     76  C   UNL A   1      34.807  32.854  30.342  1.00  0.00     0.059 A 
ATOM     77  F   UNL A   1      35.969  31.182  31.506  1.00  0.00    -0.206 F 
ATOM     78  C   UNL A   1      34.824  33.923  29.448  1.00  0.00     0.060 A 
BRANCH  78  79
ATOM     79  S   UNL A   1      33.294  34.789  29.034  1.00  0.00     0.124 S 
ATOM     80  O   UNL A   1      32.692  33.875  28.070  1.00  0.00    -0.237 OA
ATOM     81  O   UNL A   1      32.630  34.879  30.330  1.00  0.00    -0.237 OA
ATOM     82  O   UNL A   1      33.765  36.060  28.490  1.00  0.00    -0.744 OA
ENDBRANCH  78  79
ENDBRANCH  46  71
BRANCH  58  83
ATOM     83  C   UNL A   1      42.518  33.742  34.423  1.00  0.00     0.058 A 
ATOM     84  C   UNL A   1      42.131  33.683  35.769  1.00  0.00     0.135 A 
ATOM     85  C   UNL A   1      43.249  34.861  33.993  1.00  0.00     0.135 A 
ATOM     86  F   UNL A   1      41.424  32.637  36.225  1.00  0.00    -0.206 F 
ATOM     87  C   UNL A   1      42.442  34.707  36.657  1.00  0.00     0.059 A 
ATOM     88  C   UNL A   1      43.594  35.884  34.869  1.00  0.00     0.059 A 
ATOM     89  F   UNL A   1      43.651  34.957  32.717  1.00  0.00    -0.206 F 
ATOM     90  C   UNL A   1      43.176  35.803  36.197  1.00  0.00     0.060 A 
BRANCH  90  91
ATOM     91  S   UNL A   1      43.612  37.105  37.368  1.00  0.00     0.124 S 
ATOM     92  O   UNL A   1      42.372  37.248  38.122  1.00  0.00    -0.237 OA
ATOM     93  O   UNL A   1      44.731  36.512  38.093  1.00  0.00    -0.237 OA
ATOM     94  O   UNL A   1      43.958  38.234  36.508  1.00  0.00    -0.744 OA
ENDBRANCH  90  91
ENDBRANCH  58  83
ENDBRANCH  32  33
ENDBRANCH  25  27
ENDBRANCH  24  25
ENDBRANCH  23  24
ENDBRANCH  22  23
ENDBRANCH   1  22
TORSDOF 20
ENDMDL
MODEL 3
REMARK VINA RESULT:     -10.0      0.968      8.407
REMARK SMILES CC[N@@H+](C)CCNC(=O)N1CCO[C@H](CC(=O)OCCOC(=O)c2ccc(-c3c4nc(c(-c5c(F)cc(S(=O)(=O)[O-])cc5F)c5ccc([nH]5)c(-c5c(F)cc(S(=O)(=O)[O-])cc5F)c5nc(c(-c6c(F)cc(S(=O)(=O)[O-])cc6F)c6ccc3[nH]6)C=C5)C=C4)cc2)C1
REMARK SMILES IDX 18 1 16 2 17 3 15 4 14 5 10 6 11 7 90 8 12 9 13 10 8 11 7 12
REMARK SMILES IDX 9 14 6 15 5 16 3 17 4 18 2 20 1 21 19 22 20 23 21 24 22 25
REMARK SMILES IDX 23 26 24 27 25 28 89 29 26 30 88 31 27 32 28 33 29 34 82 35
REMARK SMILES IDX 30 36 87 37 81 38 83 39 31 40 86 41 80 42 79 43 32 45 66 46
REMARK SMILES IDX 45 47 65 48 46 49 49 50 64 51 84 52 47 53 48 54 63 56 85 57
REMARK SMILES IDX 50 58 33 59 34 60 43 61 35 62 36 63 42 64 44 65 37 66 38 67
REMARK SMILES IDX 39 68 40 69 41 70 67 71 68 72 77 73 69 74 70 75 76 76 78 77
REMARK SMILES IDX 71 78 72 79 73 80 74 81 75 82 51 83 52 84 61 85 53 86 54 87
REMARK SMILES IDX 60 88 62 89 55 90 56 91 57 92 58 93 59 94
REMARK H PARENT 7 13 3 19 83 44 49 55
REMARK Flexibility Score: inf
ROOT
ATOM      1  O   UNL A   1      38.236  22.476  25.604  1.00  0.00    -0.462 OA
ENDROOT
BRANCH   1   2
ATOM      2  C   UNL A   1      37.303  21.694  25.021  1.00  0.00     0.308 C 
ATOM      3  O   UNL A   1      37.156  20.506  25.294  1.00  0.00    -0.252 OA
BRANCH   2   4
ATOM      4  C   UNL A   1      36.520  22.335  23.901  1.00  0.00     0.156 C 
BRANCH   4   5
ATOM      5  C   UNL A   1      35.614  23.571  24.062  1.00  0.00     0.149 C 
ATOM      6  N   UNL A   1      33.970  22.525  25.456  1.00  0.00    -0.320 N 
ATOM      7  C   UNL A   1      32.890  22.764  24.507  1.00  0.00     0.150 C 
ATOM      8  C   UNL A   1      34.954  23.588  25.440  1.00  0.00     0.154 C 
ATOM      9  C   UNL A   1      33.370  23.257  23.127  1.00  0.00     0.182 C 
ATOM     10  O   UNL A   1      34.670  23.854  23.033  1.00  0.00    -0.374 OA
BRANCH   6  11
ATOM     11  C   UNL A   1      33.935  21.675  26.520  1.00  0.00     0.317 C 
ATOM     12  N   UNL A   1      33.438  20.426  26.373  1.00  0.00    -0.332 N 
ATOM     13  H   UNL A   1      33.043  20.033  27.185  1.00  0.00     0.165 HD
ATOM     14  O   UNL A   1      34.403  21.973  27.619  1.00  0.00    -0.249 OA
BRANCH  12  15
ATOM     15  C   UNL A   1      33.402  19.579  25.192  1.00  0.00     0.179 C 
BRANCH  15  16
ATOM     16  C   UNL A   1      32.482  18.339  25.324  1.00  0.00     0.283 C 
BRANCH  16  17
ATOM     17  N   UNL A   1      32.929  17.029  24.831  1.00  0.00    -0.336 N 
ATOM     18  C   UNL A   1      32.714  15.955  25.793  1.00  0.00     0.332 C 
ATOM     19  H   UNL A   1      32.307  16.862  24.040  1.00  0.00     0.347 HD
BRANCH  17  20
ATOM     20  C   UNL A   1      34.262  16.983  24.235  1.00  0.00     0.258 C 
ATOM     21  C   UNL A   1      34.252  16.651  22.746  1.00  0.00     0.071 C 
ENDBRANCH  17  20
ENDBRANCH  16  17
ENDBRANCH  15  16
ENDBRANCH  12  15
ENDBRANCH   6  11
ENDBRANCH   4   5
ENDBRANCH   2   4
ENDBRANCH   1   2
BRANCH   1  22
ATOM     22  C   UNL A   1      39.411  21.825  26.135  1.00  0.00     0.274 C 
BRANCH  22  23
ATOM     23  C   UNL A   1      40.291  22.782  26.939  1.00  0.00     0.275 C 
BRANCH  23  24
ATOM     24  O   UNL A   1      39.878  24.136  26.728  1.00  0.00    -0.458 OA
BRANCH  24  25
ATOM     25  C   UNL A   1      40.887  25.038  26.694  1.00  0.00     0.338 C 
ATOM     26  O   UNL A   1      41.742  25.163  25.841  1.00  0.00    -0.246 OA
BRANCH  25  27
ATOM     27  C   UNL A   1      40.695  25.968  27.811  1.00  0.00     0.060 A 
ATOM     28  C   UNL A   1      41.655  26.962  28.020  1.00  0.00     0.016 A 
ATOM     29  C   UNL A   1      39.589  25.847  28.649  1.00  0.00     0.016 A 
ATOM     30  C   UNL A   1      41.506  27.867  29.059  1.00  0.00     0.010 A 
ATOM     31  C   UNL A   1      39.449  26.740  29.707  1.00  0.00     0.010 A 
ATOM     32  C   UNL A   1      40.409  27.747  29.916  1.00  0.00    -0.014 A 
BRANCH  32  33
ATOM     33  C   UNL A   1      40.309  28.611  31.105  1.00  0.00     0.031 A 
ATOM     34  C   UNL A   1      39.326  29.740  31.082  1.00  0.00     0.074 A 
ATOM     35  C   UNL A   1      41.103  28.382  32.165  1.00  0.00     0.049 A 
ATOM     36  N   UNL A   1      39.190  30.734  31.916  1.00  0.00    -0.248 NA
ATOM     37  C   UNL A   1      38.372  29.755  29.959  1.00  0.00     0.031 C 
ATOM     38  C   UNL A   1      42.037  27.262  32.295  1.00  0.00     0.029 A 
ATOM     39  N   UNL A   1      41.262  29.090  33.326  1.00  0.00    -0.354 N 
ATOM     40  C   UNL A   1      38.157  31.510  31.406  1.00  0.00     0.074 A 
ATOM     41  C   UNL A   1      37.707  30.879  30.184  1.00  0.00     0.031 C 
ATOM     42  C   UNL A   1      42.689  27.372  33.465  1.00  0.00     0.029 A 
ATOM     43  C   UNL A   1      42.255  28.594  34.135  1.00  0.00     0.049 A 
ATOM     44  H   UNL A   1      40.719  29.878  33.557  1.00  0.00     0.167 HD
ATOM     45  C   UNL A   1      37.638  32.648  31.920  1.00  0.00     0.037 A 
ATOM     46  C   UNL A   1      42.780  29.102  35.266  1.00  0.00     0.037 A 
ATOM     47  C   UNL A   1      38.109  33.247  33.142  1.00  0.00     0.049 A 
ATOM     48  C   UNL A   1      42.234  30.406  35.782  1.00  0.00     0.074 A 
ATOM     49  C   UNL A   1      37.677  34.405  33.760  1.00  0.00     0.029 A 
ATOM     50  N   UNL A   1      39.123  32.723  33.934  1.00  0.00    -0.354 N 
ATOM     51  N   UNL A   1      41.279  31.156  35.281  1.00  0.00    -0.248 NA
ATOM     52  C   UNL A   1      42.836  30.940  37.010  1.00  0.00     0.031 C 
ATOM     53  C   UNL A   1      38.455  34.601  34.907  1.00  0.00     0.029 A 
ATOM     54  C   UNL A   1      39.340  33.539  35.029  1.00  0.00     0.049 A 
ATOM     55  H   UNL A   1      39.615  31.891  33.744  1.00  0.00     0.167 HD
ATOM     56  C   UNL A   1      41.149  32.237  36.143  1.00  0.00     0.074 A 
ATOM     57  C   UNL A   1      42.118  32.037  37.205  1.00  0.00     0.031 C 
ATOM     58  C   UNL A   1      40.307  33.299  36.072  1.00  0.00     0.037 A 
BRANCH  45  59
ATOM     59  C   UNL A   1      36.542  33.327  31.148  1.00  0.00     0.058 A 
ATOM     60  C   UNL A   1      36.800  34.035  29.963  1.00  0.00     0.135 A 
ATOM     61  C   UNL A   1      35.212  33.263  31.594  1.00  0.00     0.135 A 
ATOM     62  F   UNL A   1      38.056  34.150  29.504  1.00  0.00    -0.206 F 
ATOM     63  C   UNL A   1      35.783  34.675  29.260  1.00  0.00     0.059 A 
ATOM     64  C   UNL A   1      34.175  33.874  30.893  1.00  0.00     0.059 A 
ATOM     65  F   UNL A   1      34.909  32.607  32.725  1.00  0.00    -0.206 F 
ATOM     66  C   UNL A   1      34.473  34.589  29.735  1.00  0.00     0.060 A 
BRANCH  66  67
ATOM     67  S   UNL A   1      33.163  35.421  28.812  1.00  0.00     0.124 S 
ATOM     68  O   UNL A   1      33.934  36.307  27.945  1.00  0.00    -0.237 OA
ATOM     69  O   UNL A   1      32.495  34.308  28.145  1.00  0.00    -0.237 OA
ATOM     70  O   UNL A   1      32.381  36.084  29.851  1.00  0.00    -0.744 OA
ENDBRANCH  66  67
ENDBRANCH  45  59
BRANCH  46  71
ATOM     71  C   UNL A   1      43.889  28.395  35.960  1.00  0.00     0.058 A 
ATOM     72  C   UNL A   1      43.627  27.383  36.893  1.00  0.00     0.135 A 
ATOM     73  C   UNL A   1      45.233  28.706  35.696  1.00  0.00     0.135 A 
ATOM     74  F   UNL A   1      42.359  27.053  37.186  1.00  0.00    -0.206 F 
ATOM     75  C   UNL A   1      44.654  26.714  37.552  1.00  0.00     0.059 A 
ATOM     76  C   UNL A   1      46.278  28.034  36.323  1.00  0.00     0.059 A 
ATOM     77  F   UNL A   1      45.541  29.660  34.802  1.00  0.00    -0.206 F 
ATOM     78  C   UNL A   1      45.977  27.047  37.260  1.00  0.00     0.060 A 
BRANCH  78  79
ATOM     79  S   UNL A   1      47.303  26.146  38.093  1.00  0.00     0.124 S 
ATOM     80  O   UNL A   1      48.193  27.233  38.487  1.00  0.00    -0.237 OA
ATOM     81  O   UNL A   1      46.589  25.481  39.179  1.00  0.00    -0.237 OA
ATOM     82  O   UNL A   1      47.812  25.259  37.052  1.00  0.00    -0.744 OA
ENDBRANCH  78  79
ENDBRANCH  46  71
BRANCH  58  83
ATOM     83  C   UNL A   1      40.371  34.296  37.191  1.00  0.00     0.058 A 
ATOM     84  C   UNL A   1      41.246  35.391  37.153  1.00  0.00     0.135 A 
ATOM     85  C   UNL A   1      39.500  34.182  38.287  1.00  0.00     0.135 A 
ATOM     86  F   UNL A   1      42.102  35.538  36.130  1.00  0.00    -0.206 F 
ATOM     87  C   UNL A   1      41.270  36.334  38.175  1.00  0.00     0.059 A 
ATOM     88  C   UNL A   1      39.488  35.128  39.307  1.00  0.00     0.059 A 
ATOM     89  F   UNL A   1      38.638  33.158  38.362  1.00  0.00    -0.206 F 
ATOM     90  C   UNL A   1      40.385  36.194  39.247  1.00  0.00     0.060 A 
BRANCH  90  91
ATOM     91  S   UNL A   1      40.395  37.447  40.546  1.00  0.00     0.124 S 
ATOM     92  O   UNL A   1      39.473  38.439  40.003  1.00  0.00    -0.237 OA
ATOM     93  O   UNL A   1      39.913  36.700  41.704  1.00  0.00    -0.237 OA
ATOM     94  O   UNL A   1      41.794  37.857  40.611  1.00  0.00    -0.744 OA
ENDBRANCH  90  91
ENDBRANCH  58  83
ENDBRANCH  32  33
ENDBRANCH  25  27
ENDBRANCH  24  25
ENDBRANCH  23  24
ENDBRANCH  22  23
ENDBRANCH   1  22
TORSDOF 20
ENDMDL
