MODEL 1
REMARK VINA RESULT:      -9.7      0.000      0.000
REMARK SMILES Cc1cc(F)ccc1NC(=O)[C@H]1CC=CC[C@@H]1C(=O)OCCOC(=O)c1ccc(-c2c3nc(c(-c4c(F)cc(S(=O)(=O)[O-])cc4F)c4ccc([nH]4)c(-c4c(F)cc(S(=O)(=O)[O-])cc4F)c4nc(c(-c5c(F)cc(S(=O)(=O)[O-])cc5F)c5ccc2[nH]5)C=C4)C=C3)cc1
REMARK SMILES IDX 22 1 21 2 20 3 18 4 19 5 17 6 12 7 13 8 14 9 16 10 15 11
REMARK SMILES IDX 10 12 9 13 11 15 8 16 1 17 2 18 3 19 4 20 7 21 5 22 6 23
REMARK SMILES IDX 23 24 24 25 25 26 26 27 27 28 91 29 28 30 90 31 29 32 30 33
REMARK SMILES IDX 31 34 84 35 32 36 89 37 83 38 85 39 33 40 88 41 82 42 81 43
REMARK SMILES IDX 34 45 68 46 47 47 67 48 48 49 51 50 66 51 86 52 49 53 50 54
REMARK SMILES IDX 65 56 87 57 52 58 35 59 36 60 45 61 37 62 38 63 44 64 46 65
REMARK SMILES IDX 39 66 40 67 41 68 42 69 43 70 69 71 70 72 79 73 71 74 72 75
REMARK SMILES IDX 78 76 80 77 73 78 74 79 75 80 76 81 77 82 53 83 54 84 63 85
REMARK SMILES IDX 55 86 56 87 62 88 64 89 57 90 58 91 59 92 60 93 61 94
REMARK H PARENT 9 14 85 44 51 55
REMARK Flexibility Score: inf
ROOT
ATOM      1  C   UNL A   1      33.617  32.528  28.194  1.00  0.00     0.275 C 
ENDROOT
BRANCH   1   2
ATOM      2  C   UNL A   1      34.336  33.500  29.137  1.00  0.00     0.274 C 
BRANCH   2   3
ATOM      3  O   UNL A   1      35.283  32.863  30.023  1.00  0.00    -0.462 OA
BRANCH   3   4
ATOM      4  C   UNL A   1      34.985  32.808  31.351  1.00  0.00     0.310 C 
ATOM      5  O   UNL A   1      33.883  33.096  31.795  1.00  0.00    -0.252 OA
BRANCH   4   6
ATOM      6  C   UNL A   1      36.181  32.317  32.204  1.00  0.00     0.116 C 
ATOM      7  C   UNL A   1      36.239  33.012  33.578  1.00  0.00     0.097 C 
ATOM      8  C   UNL A   1      36.598  34.502  33.392  1.00  0.00     0.041 C 
ATOM      9  C   UNL A   1      37.844  34.653  32.572  1.00  0.00    -0.030 C 
ATOM     10  C   UNL A   1      37.469  32.485  31.392  1.00  0.00     0.043 C 
ATOM     11  C   UNL A   1      38.254  33.719  31.706  1.00  0.00    -0.030 C 
BRANCH   7  12
ATOM     12  C   UNL A   1      37.017  32.491  34.827  1.00  0.00     0.228 C 
ATOM     13  N   UNL A   1      37.933  31.504  34.983  1.00  0.00    -0.326 N 
ATOM     14  H   UNL A   1      38.056  31.288  35.936  1.00  0.00     0.169 HD
ATOM     15  O   UNL A   1      36.677  32.983  35.924  1.00  0.00    -0.274 OA
BRANCH  13  16
ATOM     16  C   UNL A   1      38.753  30.706  34.179  1.00  0.00     0.044 A 
ATOM     17  C   UNL A   1      40.648  32.419  34.285  1.00  0.00     0.047 C 
ATOM     18  C   UNL A   1      40.106  31.046  33.996  1.00  0.00    -0.025 A 
ATOM     19  C   UNL A   1      40.973  30.118  33.388  1.00  0.00     0.044 A 
ATOM     20  C   UNL A   1      40.470  28.946  32.848  1.00  0.00     0.123 A 
ATOM     21  C   UNL A   1      38.250  29.668  33.411  1.00  0.00     0.029 A 
ATOM     22  F   UNL A   1      41.301  28.043  32.310  1.00  0.00    -0.207 F 
ATOM     23  C   UNL A   1      39.104  28.750  32.784  1.00  0.00     0.041 A 
ENDBRANCH  13  16
ENDBRANCH   7  12
ENDBRANCH   4   6
ENDBRANCH   3   4
ENDBRANCH   2   3
ENDBRANCH   1   2
BRANCH   1  24
ATOM     24  O   UNL A   1      34.603  31.729  27.528  1.00  0.00    -0.458 OA
BRANCH  24  25
ATOM     25  C   UNL A   1      34.557  30.396  27.751  1.00  0.00     0.338 C 
ATOM     26  O   UNL A   1      33.584  29.670  27.729  1.00  0.00    -0.246 OA
BRANCH  25  27
ATOM     27  C   UNL A   1      35.933  29.967  28.030  1.00  0.00     0.060 A 
ATOM     28  C   UNL A   1      36.902  30.058  27.027  1.00  0.00     0.016 A 
ATOM     29  C   UNL A   1      36.260  29.514  29.307  1.00  0.00     0.016 A 
ATOM     30  C   UNL A   1      38.215  29.695  27.304  1.00  0.00     0.010 A 
ATOM     31  C   UNL A   1      37.589  29.197  29.594  1.00  0.00     0.010 A 
ATOM     32  C   UNL A   1      38.575  29.288  28.596  1.00  0.00    -0.014 A 
BRANCH  32  33
ATOM     33  C   UNL A   1      39.990  28.975  28.906  1.00  0.00     0.031 A 
ATOM     34  C   UNL A   1      40.874  30.022  29.519  1.00  0.00     0.074 A 
ATOM     35  C   UNL A   1      40.472  27.748  28.625  1.00  0.00     0.049 A 
ATOM     36  N   UNL A   1      42.158  29.980  29.760  1.00  0.00    -0.248 NA
ATOM     37  C   UNL A   1      40.229  31.288  29.904  1.00  0.00     0.031 C 
ATOM     38  C   UNL A   1      39.693  26.646  28.052  1.00  0.00     0.029 A 
ATOM     39  N   UNL A   1      41.726  27.218  28.783  1.00  0.00    -0.354 N 
ATOM     40  C   UNL A   1      42.483  31.221  30.295  1.00  0.00     0.074 A 
ATOM     41  C   UNL A   1      41.263  31.999  30.331  1.00  0.00     0.031 C 
ATOM     42  C   UNL A   1      40.482  25.568  27.925  1.00  0.00     0.029 A 
ATOM     43  C   UNL A   1      41.834  25.919  28.346  1.00  0.00     0.049 A 
ATOM     44  H   UNL A   1      42.479  27.720  29.171  1.00  0.00     0.167 HD
ATOM     45  C   UNL A   1      43.692  31.664  30.716  1.00  0.00     0.037 A 
ATOM     46  C   UNL A   1      42.908  25.111  28.262  1.00  0.00     0.037 A 
ATOM     47  C   UNL A   1      44.891  30.866  30.692  1.00  0.00     0.049 A 
ATOM     48  C   UNL A   1      44.245  25.639  28.705  1.00  0.00     0.074 A 
ATOM     49  C   UNL A   1      46.165  31.210  31.111  1.00  0.00     0.029 A 
ATOM     50  N   UNL A   1      44.963  29.559  30.228  1.00  0.00    -0.354 N 
ATOM     51  N   UNL A   1      44.541  26.819  29.197  1.00  0.00    -0.248 NA
ATOM     52  C   UNL A   1      45.393  24.734  28.572  1.00  0.00     0.031 C 
ATOM     53  C   UNL A   1      47.014  30.126  30.863  1.00  0.00     0.029 A 
ATOM     54  C   UNL A   1      46.263  29.089  30.332  1.00  0.00     0.049 A 
ATOM     55  H   UNL A   1      44.203  29.042  29.876  1.00  0.00     0.167 HD
ATOM     56  C   UNL A   1      45.907  26.793  29.448  1.00  0.00     0.074 A 
ATOM     57  C   UNL A   1      46.376  25.476  29.067  1.00  0.00     0.031 C 
ATOM     58  C   UNL A   1      46.702  27.771  29.947  1.00  0.00     0.037 A 
BRANCH  45  59
ATOM     59  C   UNL A   1      43.782  33.083  31.202  1.00  0.00     0.058 A 
ATOM     60  C   UNL A   1      43.850  34.171  30.317  1.00  0.00     0.135 A 
ATOM     61  C   UNL A   1      43.778  33.362  32.579  1.00  0.00     0.135 A 
ATOM     62  F   UNL A   1      43.877  33.962  28.991  1.00  0.00    -0.206 F 
ATOM     63  C   UNL A   1      43.940  35.481  30.779  1.00  0.00     0.059 A 
ATOM     64  C   UNL A   1      43.842  34.666  33.063  1.00  0.00     0.059 A 
ATOM     65  F   UNL A   1      43.716  32.361  33.471  1.00  0.00    -0.206 F 
ATOM     66  C   UNL A   1      43.939  35.718  32.155  1.00  0.00     0.060 A 
BRANCH  66  67
ATOM     67  S   UNL A   1      44.065  37.422  32.740  1.00  0.00     0.124 S 
ATOM     68  O   UNL A   1      45.402  37.428  33.326  1.00  0.00    -0.237 OA
ATOM     69  O   UNL A   1      43.911  38.188  31.508  1.00  0.00    -0.237 OA
ATOM     70  O   UNL A   1      42.962  37.537  33.689  1.00  0.00    -0.744 OA
ENDBRANCH  66  67
ENDBRANCH  45  59
BRANCH  46  71
ATOM     71  C   UNL A   1      42.763  23.736  27.717  1.00  0.00     0.058 A 
ATOM     72  C   UNL A   1      42.590  22.634  28.567  1.00  0.00     0.135 A 
ATOM     73  C   UNL A   1      42.769  23.498  26.333  1.00  0.00     0.135 A 
ATOM     74  F   UNL A   1      42.586  22.808  29.898  1.00  0.00    -0.206 F 
ATOM     75  C   UNL A   1      42.436  21.345  28.066  1.00  0.00     0.059 A 
ATOM     76  C   UNL A   1      42.590  22.223  25.808  1.00  0.00     0.059 A 
ATOM     77  F   UNL A   1      42.919  24.520  25.476  1.00  0.00    -0.206 F 
ATOM     78  C   UNL A   1      42.434  21.150  26.684  1.00  0.00     0.060 A 
BRANCH  78  79
ATOM     79  S   UNL A   1      42.182  19.481  26.041  1.00  0.00     0.124 S 
ATOM     80  O   UNL A   1      43.020  19.497  24.847  1.00  0.00    -0.237 OA
ATOM     81  O   UNL A   1      42.657  18.650  27.143  1.00  0.00    -0.237 OA
ATOM     82  O   UNL A   1      40.742  19.428  25.802  1.00  0.00    -0.744 OA
ENDBRANCH  78  79
ENDBRANCH  46  71
BRANCH  58  83
ATOM     83  C   UNL A   1      48.155  27.439  30.135  1.00  0.00     0.058 A 
ATOM     84  C   UNL A   1      48.634  26.892  31.334  1.00  0.00     0.135 A 
ATOM     85  C   UNL A   1      49.068  27.632  29.087  1.00  0.00     0.135 A 
ATOM     86  F   UNL A   1      47.802  26.697  32.370  1.00  0.00    -0.206 F 
ATOM     87  C   UNL A   1      49.977  26.566  31.497  1.00  0.00     0.059 A 
ATOM     88  C   UNL A   1      50.410  27.290  29.218  1.00  0.00     0.059 A 
ATOM     89  F   UNL A   1      48.657  28.144  27.916  1.00  0.00    -0.206 F 
ATOM     90  C   UNL A   1      50.857  26.769  30.432  1.00  0.00     0.060 A 
BRANCH  90  91
ATOM     91  S   UNL A   1      52.591  26.310  30.641  1.00  0.00     0.124 S 
ATOM     92  O   UNL A   1      52.478  25.099  31.447  1.00  0.00    -0.237 OA
ATOM     93  O   UNL A   1      53.033  26.117  29.264  1.00  0.00    -0.237 OA
ATOM     94  O   UNL A   1      53.167  27.466  31.321  1.00  0.00    -0.744 OA
ENDBRANCH  90  91
ENDBRANCH  58  83
ENDBRANCH  32  33
ENDBRANCH  25  27
ENDBRANCH  24  25
ENDBRANCH   1  24
TORSDOF 16
ENDMDL
MODEL 2
REMARK VINA RESULT:      -9.6      3.846      6.398
REMARK SMILES Cc1cc(F)ccc1NC(=O)[C@H]1CC=CC[C@@H]1C(=O)OCCOC(=O)c1ccc(-c2c3nc(c(-c4c(F)cc(S(=O)(=O)[O-])cc4F)c4ccc([nH]4)c(-c4c(F)cc(S(=O)(=O)[O-])cc4F)c4nc(c(-c5c(F)cc(S(=O)(=O)[O-])cc5F)c5ccc2[nH]5)C=C4)C=C3)cc1
REMARK SMILES IDX 22 1 21 2 20 3 18 4 19 5 17 6 12 7 13 8 14 9 16 10 15 11
REMARK SMILES IDX 10 12 9 13 11 15 8 16 1 17 2 18 3 19 4 20 7 21 5 22 6 23
REMARK SMILES IDX 23 24 24 25 25 26 26 27 27 28 91 29 28 30 90 31 29 32 30 33
REMARK SMILES IDX 31 34 84 35 32 36 89 37 83 38 85 39 33 40 88 41 82 42 81 43
REMARK SMILES IDX 34 45 68 46 47 47 67 48 48 49 51 50 66 51 86 52 49 53 50 54
REMARK SMILES IDX 65 56 87 57 52 58 35 59 36 60 45 61 37 62 38 63 44 64 46 65
REMARK SMILES IDX 39 66 40 67 41 68 42 69 43 70 69 71 70 72 79 73 71 74 72 75
REMARK SMILES IDX 78 76 80 77 73 78 74 79 75 80 76 81 77 82 53 83 54 84 63 85
REMARK SMILES IDX 55 86 56 87 62 88 64 89 57 90 58 91 59 92 60 93 61 94
REMARK H PARENT 9 14 85 44 51 55
REMARK Flexibility Score: inf
ROOT
ATOM      1  C   UNL A   1      34.353  30.926  27.894  1.00  0.00     0.275 C 
ENDROOT
BRANCH   1   2
ATOM      2  C   UNL A   1      33.334  30.050  27.154  1.00  0.00     0.274 C 
BRANCH   2   3
ATOM      3  O   UNL A   1      33.528  28.632  27.353  1.00  0.00    -0.462 OA
BRANCH   3   4
ATOM      4  C   UNL A   1      32.452  27.809  27.214  1.00  0.00     0.310 C 
ATOM      5  O   UNL A   1      31.428  27.941  27.868  1.00  0.00    -0.252 OA
BRANCH   4   6
ATOM      6  C   UNL A   1      32.673  26.728  26.127  1.00  0.00     0.116 C 
ATOM      7  C   UNL A   1      32.546  27.301  24.702  1.00  0.00     0.097 C 
ATOM      8  C   UNL A   1      31.079  27.700  24.432  1.00  0.00     0.041 C 
ATOM      9  C   UNL A   1      30.152  26.558  24.720  1.00  0.00    -0.030 C 
ATOM     10  C   UNL A   1      31.717  25.560  26.390  1.00  0.00     0.043 C 
ATOM     11  C   UNL A   1      30.465  25.573  25.571  1.00  0.00    -0.030 C 
BRANCH   7  12
ATOM     12  C   UNL A   1      33.101  26.637  23.403  1.00  0.00     0.228 C 
ATOM     13  N   UNL A   1      33.816  25.505  23.193  1.00  0.00    -0.326 N 
ATOM     14  H   UNL A   1      34.197  25.494  22.285  1.00  0.00     0.169 HD
ATOM     15  O   UNL A   1      32.974  27.304  22.355  1.00  0.00    -0.274 OA
BRANCH  13  16
ATOM     16  C   UNL A   1      34.167  24.348  23.896  1.00  0.00     0.044 A 
ATOM     17  C   UNL A   1      32.024  23.164  23.159  1.00  0.00     0.047 C 
ATOM     18  C   UNL A   1      33.414  23.170  23.735  1.00  0.00    -0.025 A 
ATOM     19  C   UNL A   1      33.910  21.960  24.254  1.00  0.00     0.044 A 
ATOM     20  C   UNL A   1      35.052  21.954  25.038  1.00  0.00     0.123 A 
ATOM     21  C   UNL A   1      35.139  24.349  24.883  1.00  0.00     0.029 A 
ATOM     22  F   UNL A   1      35.549  20.797  25.495  1.00  0.00    -0.207 F 
ATOM     23  C   UNL A   1      35.627  23.151  25.422  1.00  0.00     0.041 A 
ENDBRANCH  13  16
ENDBRANCH   7  12
ENDBRANCH   4   6
ENDBRANCH   3   4
ENDBRANCH   2   3
ENDBRANCH   1   2
BRANCH   1  24
ATOM     24  O   UNL A   1      35.426  30.091  28.344  1.00  0.00    -0.458 OA
BRANCH  24  25
ATOM     25  C   UNL A   1      36.203  30.582  29.336  1.00  0.00     0.338 C 
ATOM     26  O   UNL A   1      35.875  31.311  30.249  1.00  0.00    -0.246 OA
BRANCH  25  27
ATOM     27  C   UNL A   1      37.557  30.059  29.108  1.00  0.00     0.060 A 
ATOM     28  C   UNL A   1      37.986  29.795  27.806  1.00  0.00     0.016 A 
ATOM     29  C   UNL A   1      38.407  29.873  30.198  1.00  0.00     0.016 A 
ATOM     30  C   UNL A   1      39.283  29.343  27.587  1.00  0.00     0.010 A 
ATOM     31  C   UNL A   1      39.722  29.466  29.969  1.00  0.00     0.010 A 
ATOM     32  C   UNL A   1      40.169  29.201  28.662  1.00  0.00    -0.014 A 
BRANCH  32  33
ATOM     33  C   UNL A   1      41.573  28.792  28.416  1.00  0.00     0.031 A 
ATOM     34  C   UNL A   1      42.673  29.812  28.473  1.00  0.00     0.074 A 
ATOM     35  C   UNL A   1      41.845  27.503  28.134  1.00  0.00     0.049 A 
ATOM     36  N   UNL A   1      43.939  29.676  28.181  1.00  0.00    -0.248 NA
ATOM     37  C   UNL A   1      42.297  31.166  28.910  1.00  0.00     0.031 C 
ATOM     38  C   UNL A   1      40.854  26.424  28.078  1.00  0.00     0.029 A 
ATOM     39  N   UNL A   1      43.030  26.878  27.845  1.00  0.00    -0.354 N 
ATOM     40  C   UNL A   1      44.507  30.931  28.366  1.00  0.00     0.074 A 
ATOM     41  C   UNL A   1      43.444  31.819  28.784  1.00  0.00     0.031 C 
ATOM     42  C   UNL A   1      41.476  25.269  27.793  1.00  0.00     0.029 A 
ATOM     43  C   UNL A   1      42.894  25.535  27.581  1.00  0.00     0.049 A 
ATOM     44  H   UNL A   1      43.896  27.347  27.825  1.00  0.00     0.167 HD
ATOM     45  C   UNL A   1      45.800  31.302  28.200  1.00  0.00     0.037 A 
ATOM     46  C   UNL A   1      43.805  24.626  27.183  1.00  0.00     0.037 A 
ATOM     47  C   UNL A   1      46.848  30.397  27.804  1.00  0.00     0.049 A 
ATOM     48  C   UNL A   1      45.226  25.072  26.974  1.00  0.00     0.074 A 
ATOM     49  C   UNL A   1      48.195  30.664  27.624  1.00  0.00     0.029 A 
ATOM     50  N   UNL A   1      46.669  29.047  27.532  1.00  0.00    -0.354 N 
ATOM     51  N   UNL A   1      45.747  26.264  27.141  1.00  0.00    -0.248 NA
ATOM     52  C   UNL A   1      46.180  24.054  26.514  1.00  0.00     0.031 C 
ATOM     53  C   UNL A   1      48.821  29.485  27.205  1.00  0.00     0.029 A 
ATOM     54  C   UNL A   1      47.876  28.472  27.167  1.00  0.00     0.049 A 
ATOM     55  H   UNL A   1      45.811  28.569  27.589  1.00  0.00     0.167 HD
ATOM     56  C   UNL A   1      47.093  26.139  26.822  1.00  0.00     0.074 A 
ATOM     57  C   UNL A   1      47.309  24.749  26.467  1.00  0.00     0.031 C 
ATOM     58  C   UNL A   1      48.063  27.085  26.820  1.00  0.00     0.037 A 
BRANCH  45  59
ATOM     59  C   UNL A   1      46.140  32.751  28.412  1.00  0.00     0.058 A 
ATOM     60  C   UNL A   1      46.079  33.689  27.369  1.00  0.00     0.135 A 
ATOM     61  C   UNL A   1      46.514  33.212  29.685  1.00  0.00     0.135 A 
ATOM     62  F   UNL A   1      45.746  33.301  26.129  1.00  0.00    -0.206 F 
ATOM     63  C   UNL A   1      46.403  35.028  27.576  1.00  0.00     0.059 A 
ATOM     64  C   UNL A   1      46.819  34.550  29.919  1.00  0.00     0.059 A 
ATOM     65  F   UNL A   1      46.591  32.357  30.718  1.00  0.00    -0.206 F 
ATOM     66  C   UNL A   1      46.776  35.447  28.854  1.00  0.00     0.060 A 
BRANCH  66  67
ATOM     67  S   UNL A   1      47.203  37.184  29.105  1.00  0.00     0.124 S 
ATOM     68  O   UNL A   1      47.772  37.151  30.449  1.00  0.00    -0.237 OA
ATOM     69  O   UNL A   1      48.150  37.433  28.023  1.00  0.00    -0.237 OA
ATOM     70  O   UNL A   1      45.921  37.870  28.982  1.00  0.00    -0.744 OA
ENDBRANCH  66  67
ENDBRANCH  45  59
BRANCH  46  71
ATOM     71  C   UNL A   1      43.392  23.221  26.935  1.00  0.00     0.058 A 
ATOM     72  C   UNL A   1      43.289  22.715  25.631  1.00  0.00     0.135 A 
ATOM     73  C   UNL A   1      43.116  22.345  27.998  1.00  0.00     0.135 A 
ATOM     74  F   UNL A   1      43.534  23.514  24.581  1.00  0.00    -0.206 F 
ATOM     75  C   UNL A   1      42.921  21.395  25.388  1.00  0.00     0.059 A 
ATOM     76  C   UNL A   1      42.772  21.015  27.781  1.00  0.00     0.059 A 
ATOM     77  F   UNL A   1      43.212  22.776  29.265  1.00  0.00    -0.206 F 
ATOM     78  C   UNL A   1      42.667  20.551  26.471  1.00  0.00     0.060 A 
BRANCH  78  79
ATOM     79  S   UNL A   1      42.240  18.826  26.149  1.00  0.00     0.124 S 
ATOM     80  O   UNL A   1      40.840  18.940  25.755  1.00  0.00    -0.237 OA
ATOM     81  O   UNL A   1      43.175  18.469  25.086  1.00  0.00    -0.237 OA
ATOM     82  O   UNL A   1      42.484  18.175  27.433  1.00  0.00    -0.744 OA
ENDBRANCH  78  79
ENDBRANCH  46  71
BRANCH  58  83
ATOM     83  C   UNL A   1      49.450  26.641  26.452  1.00  0.00     0.058 A 
ATOM     84  C   UNL A   1      50.299  26.031  27.386  1.00  0.00     0.135 A 
ATOM     85  C   UNL A   1      49.916  26.790  25.136  1.00  0.00     0.135 A 
ATOM     86  F   UNL A   1      49.902  25.874  28.659  1.00  0.00    -0.206 F 
ATOM     87  C   UNL A   1      51.574  25.602  27.034  1.00  0.00     0.059 A 
ATOM     88  C   UNL A   1      51.178  26.346  24.755  1.00  0.00     0.059 A 
ATOM     89  F   UNL A   1      49.137  27.360  24.203  1.00  0.00    -0.206 F 
ATOM     90  C   UNL A   1      52.004  25.764  25.715  1.00  0.00     0.060 A 
BRANCH  90  91
ATOM     91  S   UNL A   1      53.648  25.172  25.261  1.00  0.00     0.124 S 
ATOM     92  O   UNL A   1      53.484  23.727  25.386  1.00  0.00    -0.237 OA
ATOM     93  O   UNL A   1      53.800  25.678  23.900  1.00  0.00    -0.237 OA
ATOM     94  O   UNL A   1      54.519  25.794  26.255  1.00  0.00    -0.744 OA
ENDBRANCH  90  91
ENDBRANCH  58  83
ENDBRANCH  32  33
ENDBRANCH  25  27
ENDBRANCH  24  25
ENDBRANCH   1  24
TORSDOF 16
ENDMDL
MODEL 3
REMARK VINA RESULT:      -9.5      5.145     11.813
REMARK SMILES Cc1cc(F)ccc1NC(=O)[C@H]1CC=CC[C@@H]1C(=O)OCCOC(=O)c1ccc(-c2c3nc(c(-c4c(F)cc(S(=O)(=O)[O-])cc4F)c4ccc([nH]4)c(-c4c(F)cc(S(=O)(=O)[O-])cc4F)c4nc(c(-c5c(F)cc(S(=O)(=O)[O-])cc5F)c5ccc2[nH]5)C=C4)C=C3)cc1
REMARK SMILES IDX 22 1 21 2 20 3 18 4 19 5 17 6 12 7 13 8 14 9 16 10 15 11
REMARK SMILES IDX 10 12 9 13 11 15 8 16 1 17 2 18 3 19 4 20 7 21 5 22 6 23
REMARK SMILES IDX 23 24 24 25 25 26 26 27 27 28 91 29 28 30 90 31 29 32 30 33
REMARK SMILES IDX 31 34 84 35 32 36 89 37 83 38 85 39 33 40 88 41 82 42 81 43
REMARK SMILES IDX 34 45 68 46 47 47 67 48 48 49 51 50 66 51 86 52 49 53 50 54
REMARK SMILES IDX 65 56 87 57 52 58 35 59 36 60 45 61 37 62 38 63 44 64 46 65
REMARK SMILES IDX 39 66 40 67 41 68 42 69 43 70 69 71 70 72 79 73 71 74 72 75
REMARK SMILES IDX 78 76 80 77 73 78 74 79 75 80 76 81 77 82 53 83 54 84 63 85
REMARK SMILES IDX 55 86 56 87 62 88 64 89 57 90 58 91 59 92 60 93 61 94
REMARK H PARENT 9 14 85 44 51 55
REMARK Flexibility Score: inf
ROOT
ATOM      1  C   UNL A   1      38.665  22.910  26.134  1.00  0.00     0.275 C 
ENDROOT
BRANCH   1   2
ATOM      2  C   UNL A   1      37.356  22.834  25.339  1.00  0.00     0.274 C 
BRANCH   2   3
ATOM      3  O   UNL A   1      36.303  23.672  25.865  1.00  0.00    -0.462 OA
BRANCH   3   4
ATOM      4  C   UNL A   1      35.133  23.081  26.232  1.00  0.00     0.310 C 
ATOM      5  O   UNL A   1      35.064  21.915  26.592  1.00  0.00    -0.252 OA
BRANCH   4   6
ATOM      6  C   UNL A   1      33.932  24.058  26.166  1.00  0.00     0.116 C 
ATOM      7  C   UNL A   1      32.583  23.317  26.101  1.00  0.00     0.097 C 
ATOM      8  C   UNL A   1      32.453  22.592  24.745  1.00  0.00     0.041 C 
ATOM      9  C   UNL A   1      32.689  23.541  23.607  1.00  0.00    -0.030 C 
ATOM     10  C   UNL A   1      34.143  25.022  24.994  1.00  0.00     0.043 C 
ATOM     11  C   UNL A   1      33.415  24.657  23.739  1.00  0.00    -0.030 C 
BRANCH   7  12
ATOM     12  C   UNL A   1      31.190  23.934  26.442  1.00  0.00     0.228 C 
ATOM     13  N   UNL A   1      30.760  25.216  26.536  1.00  0.00    -0.326 N 
ATOM     14  H   UNL A   1      29.887  25.261  26.989  1.00  0.00     0.169 HD
ATOM     15  O   UNL A   1      30.311  23.125  26.808  1.00  0.00    -0.274 OA
BRANCH  13  16
ATOM     16  C   UNL A   1      31.202  26.492  26.174  1.00  0.00     0.044 A 
ATOM     17  C   UNL A   1      30.215  26.248  23.829  1.00  0.00     0.047 C 
ATOM     18  C   UNL A   1      30.788  27.062  24.956  1.00  0.00    -0.025 A 
ATOM     19  C   UNL A   1      31.040  28.426  24.713  1.00  0.00     0.044 A 
ATOM     20  C   UNL A   1      31.812  29.160  25.598  1.00  0.00     0.123 A 
ATOM     21  C   UNL A   1      32.173  27.170  26.894  1.00  0.00     0.029 A 
ATOM     22  F   UNL A   1      32.014  30.467  25.390  1.00  0.00    -0.207 F 
ATOM     23  C   UNL A   1      32.447  28.523  26.647  1.00  0.00     0.041 A 
ENDBRANCH  13  16
ENDBRANCH   7  12
ENDBRANCH   4   6
ENDBRANCH   3   4
ENDBRANCH   2   3
ENDBRANCH   1   2
BRANCH   1  24
ATOM     24  O   UNL A   1      39.054  24.285  26.239  1.00  0.00    -0.458 OA
BRANCH  24  25
ATOM     25  C   UNL A   1      40.320  24.529  26.644  1.00  0.00     0.338 C 
ATOM     26  O   UNL A   1      41.338  23.971  26.288  1.00  0.00    -0.246 OA
BRANCH  25  27
ATOM     27  C   UNL A   1      40.247  25.626  27.617  1.00  0.00     0.060 A 
ATOM     28  C   UNL A   1      39.327  25.560  28.666  1.00  0.00     0.016 A 
ATOM     29  C   UNL A   1      41.129  26.700  27.501  1.00  0.00     0.016 A 
ATOM     30  C   UNL A   1      39.289  26.576  29.614  1.00  0.00     0.010 A 
ATOM     31  C   UNL A   1      41.120  27.693  28.481  1.00  0.00     0.010 A 
ATOM     32  C   UNL A   1      40.202  27.637  29.545  1.00  0.00    -0.014 A 
BRANCH  32  33
ATOM     33  C   UNL A   1      40.208  28.679  30.600  1.00  0.00     0.031 A 
ATOM     34  C   UNL A   1      41.175  28.582  31.745  1.00  0.00     0.074 A 
ATOM     35  C   UNL A   1      39.335  29.702  30.522  1.00  0.00     0.049 A 
ATOM     36  N   UNL A   1      41.261  29.326  32.816  1.00  0.00    -0.248 NA
ATOM     37  C   UNL A   1      42.171  27.501  31.680  1.00  0.00     0.031 C 
ATOM     38  C   UNL A   1      38.369  29.906  29.439  1.00  0.00     0.029 A 
ATOM     39  N   UNL A   1      39.117  30.762  31.363  1.00  0.00    -0.354 N 
ATOM     40  C   UNL A   1      42.297  28.786  33.569  1.00  0.00     0.074 A 
ATOM     41  C   UNL A   1      42.801  27.644  32.837  1.00  0.00     0.031 C 
ATOM     42  C   UNL A   1      37.677  31.033  29.672  1.00  0.00     0.029 A 
ATOM     43  C   UNL A   1      38.103  31.593  30.949  1.00  0.00     0.049 A 
ATOM     44  H   UNL A   1      39.636  30.913  32.186  1.00  0.00     0.167 HD
ATOM     45  C   UNL A   1      42.780  29.211  34.761  1.00  0.00     0.037 A 
ATOM     46  C   UNL A   1      37.555  32.668  31.548  1.00  0.00     0.037 A 
ATOM     47  C   UNL A   1      42.279  30.364  35.464  1.00  0.00     0.049 A 
ATOM     48  C   UNL A   1      38.087  33.098  32.887  1.00  0.00     0.074 A 
ATOM     49  C   UNL A   1      42.707  30.892  36.670  1.00  0.00     0.029 A 
ATOM     50  N   UNL A   1      41.240  31.172  35.020  1.00  0.00    -0.354 N 
ATOM     51  N   UNL A   1      39.059  32.572  33.594  1.00  0.00    -0.248 NA
ATOM     52  C   UNL A   1      37.443  34.259  33.516  1.00  0.00     0.031 C 
ATOM     53  C   UNL A   1      41.901  31.995  36.973  1.00  0.00     0.029 A 
ATOM     54  C   UNL A   1      41.000  32.183  35.937  1.00  0.00     0.049 A 
ATOM     55  H   UNL A   1      40.746  31.045  34.178  1.00  0.00     0.167 HD
ATOM     56  C   UNL A   1      39.156  33.346  34.743  1.00  0.00     0.074 A 
ATOM     57  C   UNL A   1      38.152  34.386  34.630  1.00  0.00     0.031 C 
ATOM     58  C   UNL A   1      39.996  33.208  35.798  1.00  0.00     0.037 A 
BRANCH  45  59
ATOM     59  C   UNL A   1      43.879  28.404  35.395  1.00  0.00     0.058 A 
ATOM     60  C   UNL A   1      45.233  28.641  35.112  1.00  0.00     0.135 A 
ATOM     61  C   UNL A   1      43.571  27.390  36.317  1.00  0.00     0.135 A 
ATOM     62  F   UNL A   1      45.584  29.584  34.224  1.00  0.00    -0.206 F 
ATOM     63  C   UNL A   1      46.242  27.882  35.699  1.00  0.00     0.059 A 
ATOM     64  C   UNL A   1      44.565  26.636  36.935  1.00  0.00     0.059 A 
ATOM     65  F   UNL A   1      42.293  27.119  36.623  1.00  0.00    -0.206 F 
ATOM     66  C   UNL A   1      45.898  26.879  36.607  1.00  0.00     0.060 A 
BRANCH  66  67
ATOM     67  S   UNL A   1      47.216  25.896  37.354  1.00  0.00     0.124 S 
ATOM     68  O   UNL A   1      47.793  25.246  36.181  1.00  0.00    -0.237 OA
ATOM     69  O   UNL A   1      48.048  26.917  37.985  1.00  0.00    -0.237 OA
ATOM     70  O   UNL A   1      46.504  25.015  38.274  1.00  0.00    -0.744 OA
ENDBRANCH  66  67
ENDBRANCH  45  59
BRANCH  46  71
ATOM     71  C   UNL A   1      36.431  33.389  30.896  1.00  0.00     0.058 A 
ATOM     72  C   UNL A   1      35.125  33.301  31.398  1.00  0.00     0.135 A 
ATOM     73  C   UNL A   1      36.644  34.204  29.771  1.00  0.00     0.135 A 
ATOM     74  F   UNL A   1      34.868  32.529  32.466  1.00  0.00    -0.206 F 
ATOM     75  C   UNL A   1      34.068  33.986  30.805  1.00  0.00     0.059 A 
ATOM     76  C   UNL A   1      35.610  34.919  29.178  1.00  0.00     0.059 A 
ATOM     77  F   UNL A   1      37.878  34.332  29.259  1.00  0.00    -0.206 F 
ATOM     78  C   UNL A   1      34.322  34.796  29.697  1.00  0.00     0.060 A 
BRANCH  78  79
ATOM     79  S   UNL A   1      32.955  35.722  28.965  1.00  0.00     0.124 S 
ATOM     80  O   UNL A   1      32.357  34.721  28.090  1.00  0.00    -0.237 OA
ATOM     81  O   UNL A   1      32.171  36.095  30.138  1.00  0.00    -0.237 OA
ATOM     82  O   UNL A   1      33.625  36.831  28.291  1.00  0.00    -0.744 OA
ENDBRANCH  78  79
ENDBRANCH  46  71
BRANCH  58  83
ATOM     83  C   UNL A   1      39.883  34.226  36.897  1.00  0.00     0.058 A 
ATOM     84  C   UNL A   1      40.443  35.506  36.773  1.00  0.00     0.135 A 
ATOM     85  C   UNL A   1      39.170  33.928  38.069  1.00  0.00     0.135 A 
ATOM     86  F   UNL A   1      41.142  35.836  35.675  1.00  0.00    -0.206 F 
ATOM     87  C   UNL A   1      40.318  36.452  37.785  1.00  0.00     0.059 A 
ATOM     88  C   UNL A   1      39.011  34.867  39.083  1.00  0.00     0.059 A 
ATOM     89  F   UNL A   1      38.609  32.720  38.231  1.00  0.00    -0.206 F 
ATOM     90  C   UNL A   1      39.599  36.123  38.936  1.00  0.00     0.060 A 
BRANCH  90  91
ATOM     91  S   UNL A   1      39.413  37.370  40.228  1.00  0.00     0.124 S 
ATOM     92  O   UNL A   1      40.804  37.700  40.520  1.00  0.00    -0.237 OA
ATOM     93  O   UNL A   1      38.643  38.410  39.553  1.00  0.00    -0.237 OA
ATOM     94  O   UNL A   1      38.701  36.658  41.286  1.00  0.00    -0.744 OA
ENDBRANCH  90  91
ENDBRANCH  58  83
ENDBRANCH  32  33
ENDBRANCH  25  27
ENDBRANCH  24  25
ENDBRANCH   1  24
TORSDOF 16
ENDMDL
