MODEL 1
REMARK VINA RESULT:     -13.2      0.000      0.000
REMARK SMILES Cc1ccc(Cn2c(C)c(C[NH2+]Cc3ccco3)c(C(=O)OCCOC(=O)c3ccc(-c4c5nc(c(-c6c(F)cc(S(=O)(=O)[O-])cc6F)c6ccc([nH]6)c(-c6c(F)cc(S(=O)(=O)[O-])cc6F)c6nc(c(-c7c(F)cc(S(=O)(=O)[O-])cc7F)c7ccc4[nH]7)C=C6)C=C5)cc3)c2C)cc1
REMARK SMILES IDX 23 1 22 2 20 3 21 4 19 5 7 6 8 7 94 8 9 9 10 10 95 11 6 12
REMARK SMILES IDX 5 13 1 14 2 15 3 16 97 17 4 18 96 19 11 20 12 21 13 24 14 25
REMARK SMILES IDX 15 26 18 27 16 28 17 29 24 30 25 31 26 32 27 33 28 34 29 35
REMARK SMILES IDX 93 36 30 37 92 38 31 39 32 40 33 41 86 42 34 43 91 44 85 45
REMARK SMILES IDX 87 46 35 47 90 48 84 49 83 50 36 52 70 53 49 54 69 55 50 56
REMARK SMILES IDX 53 57 68 58 88 59 51 60 52 61 67 63 89 64 54 65 37 66 38 67
REMARK SMILES IDX 47 68 39 69 40 70 46 71 48 72 41 73 42 74 43 75 44 76 45 77
REMARK SMILES IDX 71 78 72 79 81 80 73 81 74 82 80 83 82 84 75 85 76 86 77 87
REMARK SMILES IDX 78 88 79 89 55 90 56 91 65 92 57 93 58 94 64 95 66 96 59 97
REMARK SMILES IDX 60 98 61 99 62 100 63 101
REMARK H PARENT 12 22 12 23 87 51 53 62
REMARK Flexibility Score: inf
ROOT
ATOM      1  C   UNL A   1      33.040  29.264  26.597  1.00  0.00     0.275 C 
ENDROOT
BRANCH   1   2
ATOM      2  O   UNL A   1      32.983  29.599  25.198  1.00  0.00    -0.458 OA
BRANCH   2   3
ATOM      3  C   UNL A   1      33.384  28.583  24.370  1.00  0.00     0.340 C 
ATOM      4  O   UNL A   1      34.336  28.680  23.601  1.00  0.00    -0.246 OA
BRANCH   3   5
ATOM      5  C   UNL A   1      32.405  27.527  24.168  1.00  0.00     0.089 A 
ATOM      6  N   UNL A   1      31.500  25.801  25.188  1.00  0.00    -0.343 N 
ATOM      7  C   UNL A   1      30.488  26.385  24.439  1.00  0.00     0.025 A 
ATOM      8  C   UNL A   1      32.699  26.277  24.703  1.00  0.00     0.030 A 
ATOM      9  C   UNL A   1      29.058  25.955  24.469  1.00  0.00     0.065 C 
ATOM     10  C   UNL A   1      31.019  27.505  23.771  1.00  0.00     0.042 A 
ATOM     11  C   UNL A   1      34.052  25.713  24.972  1.00  0.00     0.065 C 
BRANCH   6  12
ATOM     12  C   UNL A   1      31.360  24.808  26.263  1.00  0.00     0.157 C 
BRANCH  12  13
ATOM     13  C   UNL A   1      31.860  23.397  25.964  1.00  0.00    -0.028 A 
ATOM     14  C   UNL A   1      33.684  19.611  24.813  1.00  0.00     0.044 C 
ATOM     15  C   UNL A   1      33.045  20.914  25.197  1.00  0.00    -0.051 A 
ATOM     16  C   UNL A   1      33.323  21.484  26.437  1.00  0.00     0.004 A 
ATOM     17  C   UNL A   1      32.135  21.564  24.358  1.00  0.00     0.004 A 
ATOM     18  C   UNL A   1      32.743  22.705  26.806  1.00  0.00     0.006 A 
ATOM     19  C   UNL A   1      31.555  22.788  24.735  1.00  0.00     0.006 A 
ENDBRANCH  12  13
ENDBRANCH   6  12
BRANCH  10  20
ATOM     20  C   UNL A   1      30.157  28.513  23.012  1.00  0.00     0.300 C 
BRANCH  20  21
ATOM     21  N   UNL A   1      30.460  29.922  23.333  1.00  0.00    -0.336 N 
ATOM     22  H   UNL A   1      30.953  30.350  22.549  1.00  0.00     0.346 HD
ATOM     23  H   UNL A   1      31.046  29.963  24.167  1.00  0.00     0.346 HD
BRANCH  21  24
ATOM     24  C   UNL A   1      29.191  30.661  23.583  1.00  0.00     0.337 C 
BRANCH  24  25
ATOM     25  C   UNL A   1      28.547  31.353  22.410  1.00  0.00     0.157 A 
ATOM     26  C   UNL A   1      28.364  32.703  22.144  1.00  0.00     0.052 A 
ATOM     27  O   UNL A   1      28.193  30.623  21.311  1.00  0.00    -0.463 OA
ATOM     28  C   UNL A   1      27.972  32.802  20.786  1.00  0.00     0.042 A 
ATOM     29  C   UNL A   1      27.911  31.511  20.320  1.00  0.00     0.195 A 
ENDBRANCH  24  25
ENDBRANCH  21  24
ENDBRANCH  20  21
ENDBRANCH  10  20
ENDBRANCH   3   5
ENDBRANCH   2   3
ENDBRANCH   1   2
BRANCH   1  30
ATOM     30  C   UNL A   1      34.422  28.742  27.017  1.00  0.00     0.275 C 
BRANCH  30  31
ATOM     31  O   UNL A   1      35.589  29.576  26.824  1.00  0.00    -0.458 OA
BRANCH  31  32
ATOM     32  C   UNL A   1      36.014  30.337  27.866  1.00  0.00     0.338 C 
ATOM     33  O   UNL A   1      35.320  31.183  28.405  1.00  0.00    -0.246 OA
BRANCH  32  34
ATOM     34  C   UNL A   1      37.317  29.821  28.358  1.00  0.00     0.060 A 
ATOM     35  C   UNL A   1      37.328  29.011  29.498  1.00  0.00     0.016 A 
ATOM     36  C   UNL A   1      38.448  29.911  27.553  1.00  0.00     0.016 A 
ATOM     37  C   UNL A   1      38.410  28.180  29.781  1.00  0.00     0.010 A 
ATOM     38  C   UNL A   1      39.503  29.060  27.796  1.00  0.00     0.010 A 
ATOM     39  C   UNL A   1      39.477  28.183  28.895  1.00  0.00    -0.014 A 
BRANCH  39  40
ATOM     40  C   UNL A   1      40.717  27.461  29.121  1.00  0.00     0.031 A 
ATOM     41  C   UNL A   1      40.961  26.070  28.687  1.00  0.00     0.074 A 
ATOM     42  C   UNL A   1      41.692  28.252  29.615  1.00  0.00     0.049 A 
ATOM     43  N   UNL A   1      41.959  25.367  29.108  1.00  0.00    -0.248 NA
ATOM     44  C   UNL A   1      40.109  25.329  27.758  1.00  0.00     0.031 C 
ATOM     45  C   UNL A   1      43.125  28.060  29.616  1.00  0.00     0.029 A 
ATOM     46  N   UNL A   1      41.506  29.397  30.400  1.00  0.00    -0.354 N 
ATOM     47  C   UNL A   1      42.074  24.264  28.286  1.00  0.00     0.074 A 
ATOM     48  C   UNL A   1      40.836  24.221  27.544  1.00  0.00     0.031 C 
ATOM     49  C   UNL A   1      43.651  28.831  30.584  1.00  0.00     0.029 A 
ATOM     50  C   UNL A   1      42.540  29.392  31.340  1.00  0.00     0.049 A 
ATOM     51  H   UNL A   1      40.792  30.068  30.308  1.00  0.00     0.167 HD
ATOM     52  C   UNL A   1      43.279  23.627  28.210  1.00  0.00     0.037 A 
ATOM     53  C   UNL A   1      42.299  29.207  32.675  1.00  0.00     0.037 A 
ATOM     54  C   UNL A   1      44.228  24.207  29.154  1.00  0.00     0.049 A 
ATOM     55  C   UNL A   1      42.902  27.937  33.209  1.00  0.00     0.074 A 
ATOM     56  C   UNL A   1      45.174  25.213  29.046  1.00  0.00     0.029 A 
ATOM     57  N   UNL A   1      44.034  24.001  30.503  1.00  0.00    -0.354 N 
ATOM     58  N   UNL A   1      43.446  27.034  32.449  1.00  0.00    -0.248 NA
ATOM     59  C   UNL A   1      42.873  27.542  34.616  1.00  0.00     0.031 C 
ATOM     60  C   UNL A   1      45.494  25.659  30.357  1.00  0.00     0.029 A 
ATOM     61  C   UNL A   1      44.748  24.915  31.252  1.00  0.00     0.049 A 
ATOM     62  H   UNL A   1      43.463  23.295  30.883  1.00  0.00     0.167 HD
ATOM     63  C   UNL A   1      43.877  25.999  33.214  1.00  0.00     0.074 A 
ATOM     64  C   UNL A   1      43.472  26.339  34.564  1.00  0.00     0.031 C 
ATOM     65  C   UNL A   1      44.548  24.945  32.685  1.00  0.00     0.037 A 
BRANCH  52  66
ATOM     66  C   UNL A   1      43.707  22.675  27.116  1.00  0.00     0.058 A 
ATOM     67  C   UNL A   1      43.013  21.454  26.940  1.00  0.00     0.135 A 
ATOM     68  C   UNL A   1      44.776  22.881  26.225  1.00  0.00     0.135 A 
ATOM     69  F   UNL A   1      41.950  21.130  27.687  1.00  0.00    -0.206 F 
ATOM     70  C   UNL A   1      43.381  20.491  26.006  1.00  0.00     0.059 A 
ATOM     71  C   UNL A   1      45.185  21.912  25.294  1.00  0.00     0.059 A 
ATOM     72  F   UNL A   1      45.446  24.044  26.204  1.00  0.00    -0.206 F 
ATOM     73  C   UNL A   1      44.481  20.715  25.197  1.00  0.00     0.060 A 
BRANCH  73  74
ATOM     74  S   UNL A   1      44.952  19.419  24.037  1.00  0.00     0.124 S 
ATOM     75  O   UNL A   1      46.406  19.400  24.174  1.00  0.00    -0.237 OA
ATOM     76  O   UNL A   1      44.252  18.258  24.575  1.00  0.00    -0.237 OA
ATOM     77  O   UNL A   1      44.457  19.912  22.755  1.00  0.00    -0.744 OA
ENDBRANCH  73  74
ENDBRANCH  52  66
BRANCH  53  78
ATOM     78  C   UNL A   1      40.996  29.754  33.124  1.00  0.00     0.058 A 
ATOM     79  C   UNL A   1      40.904  31.155  33.235  1.00  0.00     0.135 A 
ATOM     80  C   UNL A   1      39.816  29.013  32.961  1.00  0.00     0.135 A 
ATOM     81  F   UNL A   1      42.009  31.893  33.422  1.00  0.00    -0.206 F 
ATOM     82  C   UNL A   1      39.720  31.813  32.973  1.00  0.00     0.059 A 
ATOM     83  C   UNL A   1      38.611  29.655  32.727  1.00  0.00     0.059 A 
ATOM     84  F   UNL A   1      39.848  27.676  32.872  1.00  0.00    -0.206 F 
ATOM     85  C   UNL A   1      38.599  31.052  32.668  1.00  0.00     0.060 A 
BRANCH  85  86
ATOM     86  S   UNL A   1      37.151  31.929  32.090  1.00  0.00     0.124 S 
ATOM     87  O   UNL A   1      36.156  30.865  32.169  1.00  0.00    -0.237 OA
ATOM     88  O   UNL A   1      37.023  33.003  33.069  1.00  0.00    -0.237 OA
ATOM     89  O   UNL A   1      37.586  32.330  30.760  1.00  0.00    -0.744 OA
ENDBRANCH  85  86
ENDBRANCH  53  78
BRANCH  65  90
ATOM     90  C   UNL A   1      45.133  23.878  33.532  1.00  0.00     0.058 A 
ATOM     91  C   UNL A   1      44.369  22.769  33.920  1.00  0.00     0.135 A 
ATOM     92  C   UNL A   1      46.413  24.017  34.095  1.00  0.00     0.135 A 
ATOM     93  F   UNL A   1      43.119  22.599  33.458  1.00  0.00    -0.206 F 
ATOM     94  C   UNL A   1      44.866  21.818  34.798  1.00  0.00     0.059 A 
ATOM     95  C   UNL A   1      46.909  23.109  35.017  1.00  0.00     0.059 A 
ATOM     96  F   UNL A   1      47.221  25.031  33.746  1.00  0.00    -0.206 F 
ATOM     97  C   UNL A   1      46.136  21.999  35.343  1.00  0.00     0.060 A 
BRANCH  97  98
ATOM     98  S   UNL A   1      46.778  20.777  36.494  1.00  0.00     0.124 S 
ATOM     99  O   UNL A   1      46.196  21.198  37.766  1.00  0.00    -0.237 OA
ATOM    100  O   UNL A   1      46.237  19.544  35.930  1.00  0.00    -0.237 OA
ATOM    101  O   UNL A   1      48.224  20.941  36.388  1.00  0.00    -0.744 OA
ENDBRANCH  97  98
ENDBRANCH  65  90
ENDBRANCH  39  40
ENDBRANCH  32  34
ENDBRANCH  31  32
ENDBRANCH  30  31
ENDBRANCH   1  30
TORSDOF 20
ENDMDL
MODEL 2
REMARK VINA RESULT:     -13.2      4.836     11.555
REMARK SMILES Cc1ccc(Cn2c(C)c(C[NH2+]Cc3ccco3)c(C(=O)OCCOC(=O)c3ccc(-c4c5nc(c(-c6c(F)cc(S(=O)(=O)[O-])cc6F)c6ccc([nH]6)c(-c6c(F)cc(S(=O)(=O)[O-])cc6F)c6nc(c(-c7c(F)cc(S(=O)(=O)[O-])cc7F)c7ccc4[nH]7)C=C6)C=C5)cc3)c2C)cc1
REMARK SMILES IDX 23 1 22 2 20 3 21 4 19 5 7 6 8 7 94 8 9 9 10 10 95 11 6 12
REMARK SMILES IDX 5 13 1 14 2 15 3 16 97 17 4 18 96 19 11 20 12 21 13 24 14 25
REMARK SMILES IDX 15 26 18 27 16 28 17 29 24 30 25 31 26 32 27 33 28 34 29 35
REMARK SMILES IDX 93 36 30 37 92 38 31 39 32 40 33 41 86 42 34 43 91 44 85 45
REMARK SMILES IDX 87 46 35 47 90 48 84 49 83 50 36 52 70 53 49 54 69 55 50 56
REMARK SMILES IDX 53 57 68 58 88 59 51 60 52 61 67 63 89 64 54 65 37 66 38 67
REMARK SMILES IDX 47 68 39 69 40 70 46 71 48 72 41 73 42 74 43 75 44 76 45 77
REMARK SMILES IDX 71 78 72 79 81 80 73 81 74 82 80 83 82 84 75 85 76 86 77 87
REMARK SMILES IDX 78 88 79 89 55 90 56 91 65 92 57 93 58 94 64 95 66 96 59 97
REMARK SMILES IDX 60 98 61 99 62 100 63 101
REMARK H PARENT 12 22 12 23 87 51 53 62
REMARK Flexibility Score: inf
ROOT
ATOM      1  C   UNL A   1      36.179  23.267  24.784  1.00  0.00     0.275 C 
ENDROOT
BRANCH   1   2
ATOM      2  O   UNL A   1      35.235  22.423  25.469  1.00  0.00    -0.458 OA
BRANCH   2   3
ATOM      3  C   UNL A   1      34.464  23.088  26.386  1.00  0.00     0.340 C 
ATOM      4  O   UNL A   1      34.606  22.962  27.599  1.00  0.00    -0.246 OA
BRANCH   3   5
ATOM      5  C   UNL A   1      33.230  23.652  25.865  1.00  0.00     0.089 A 
ATOM      6  N   UNL A   1      32.491  25.103  24.386  1.00  0.00    -0.343 N 
ATOM      7  C   UNL A   1      31.584  24.053  24.387  1.00  0.00     0.025 A 
ATOM      8  C   UNL A   1      33.237  25.005  25.541  1.00  0.00     0.030 A 
ATOM      9  C   UNL A   1      30.429  23.932  23.448  1.00  0.00     0.065 C 
ATOM     10  C   UNL A   1      32.021  23.089  25.316  1.00  0.00     0.042 A 
ATOM     11  C   UNL A   1      34.107  26.063  26.127  1.00  0.00     0.065 C 
BRANCH   6  12
ATOM     12  C   UNL A   1      32.619  26.176  23.388  1.00  0.00     0.157 C 
BRANCH  12  13
ATOM     13  C   UNL A   1      31.619  27.325  23.484  1.00  0.00    -0.028 A 
ATOM     14  C   UNL A   1      29.151  30.916  23.506  1.00  0.00     0.044 C 
ATOM     15  C   UNL A   1      30.006  29.683  23.514  1.00  0.00    -0.051 A 
ATOM     16  C   UNL A   1      29.835  28.714  22.528  1.00  0.00     0.004 A 
ATOM     17  C   UNL A   1      30.954  29.449  24.515  1.00  0.00     0.004 A 
ATOM     18  C   UNL A   1      30.632  27.562  22.515  1.00  0.00     0.006 A 
ATOM     19  C   UNL A   1      31.750  28.290  24.497  1.00  0.00     0.006 A 
ENDBRANCH  12  13
ENDBRANCH   6  12
BRANCH  10  20
ATOM     20  C   UNL A   1      31.387  21.705  25.447  1.00  0.00     0.300 C 
BRANCH  20  21
ATOM     21  N   UNL A   1      32.366  20.601  25.510  1.00  0.00    -0.336 N 
ATOM     22  H   UNL A   1      31.980  19.836  26.063  1.00  0.00     0.346 HD
ATOM     23  H   UNL A   1      33.227  20.934  25.945  1.00  0.00     0.346 HD
BRANCH  21  24
ATOM     24  C   UNL A   1      32.662  20.118  24.132  1.00  0.00     0.337 C 
BRANCH  24  25
ATOM     25  C   UNL A   1      33.228  18.728  23.990  1.00  0.00     0.157 A 
ATOM     26  C   UNL A   1      32.927  17.716  23.090  1.00  0.00     0.052 A 
ATOM     27  O   UNL A   1      34.324  18.372  24.723  1.00  0.00    -0.463 OA
ATOM     28  C   UNL A   1      33.946  16.740  23.216  1.00  0.00     0.042 A 
ATOM     29  C   UNL A   1      34.784  17.202  24.202  1.00  0.00     0.195 A 
ENDBRANCH  24  25
ENDBRANCH  21  24
ENDBRANCH  20  21
ENDBRANCH  10  20
ENDBRANCH   3   5
ENDBRANCH   2   3
ENDBRANCH   1   2
BRANCH   1  30
ATOM     30  C   UNL A   1      37.576  23.216  25.419  1.00  0.00     0.275 C 
BRANCH  30  31
ATOM     31  O   UNL A   1      37.928  24.173  26.446  1.00  0.00    -0.458 OA
BRANCH  31  32
ATOM     32  C   UNL A   1      39.093  23.991  27.121  1.00  0.00     0.338 C 
ATOM     33  O   UNL A   1      39.726  22.947  27.096  1.00  0.00    -0.246 OA
BRANCH  32  34
ATOM     34  C   UNL A   1      39.555  25.289  27.674  1.00  0.00     0.060 A 
ATOM     35  C   UNL A   1      40.005  26.272  26.786  1.00  0.00     0.016 A 
ATOM     36  C   UNL A   1      39.286  25.614  29.000  1.00  0.00     0.016 A 
ATOM     37  C   UNL A   1      40.068  27.611  27.165  1.00  0.00     0.010 A 
ATOM     38  C   UNL A   1      39.299  26.940  29.371  1.00  0.00     0.010 A 
ATOM     39  C   UNL A   1      39.669  27.939  28.452  1.00  0.00    -0.014 A 
BRANCH  39  40
ATOM     40  C   UNL A   1      39.790  29.269  29.022  1.00  0.00     0.031 A 
ATOM     41  C   UNL A   1      38.740  30.305  28.947  1.00  0.00     0.074 A 
ATOM     42  C   UNL A   1      40.896  29.405  29.783  1.00  0.00     0.049 A 
ATOM     43  N   UNL A   1      38.954  31.546  29.233  1.00  0.00    -0.248 NA
ATOM     44  C   UNL A   1      37.360  30.059  28.531  1.00  0.00     0.031 C 
ATOM     45  C   UNL A   1      41.196  30.378  30.810  1.00  0.00     0.029 A 
ATOM     46  N   UNL A   1      42.097  28.702  29.626  1.00  0.00    -0.354 N 
ATOM     47  C   UNL A   1      37.729  32.165  29.371  1.00  0.00     0.074 A 
ATOM     48  C   UNL A   1      36.777  31.237  28.808  1.00  0.00     0.031 C 
ATOM     49  C   UNL A   1      42.531  30.426  30.965  1.00  0.00     0.029 A 
ATOM     50  C   UNL A   1      43.118  29.613  29.909  1.00  0.00     0.049 A 
ATOM     51  H   UNL A   1      42.200  27.758  29.368  1.00  0.00     0.167 HD
ATOM     52  C   UNL A   1      37.653  33.312  30.107  1.00  0.00     0.037 A 
ATOM     53  C   UNL A   1      43.981  30.051  28.941  1.00  0.00     0.037 A 
ATOM     54  C   UNL A   1      38.982  33.739  30.531  1.00  0.00     0.049 A 
ATOM     55  C   UNL A   1      43.852  31.524  28.664  1.00  0.00     0.074 A 
ATOM     56  C   UNL A   1      39.733  33.501  31.670  1.00  0.00     0.029 A 
ATOM     57  N   UNL A   1      39.859  34.225  29.584  1.00  0.00    -0.354 N 
ATOM     58  N   UNL A   1      42.908  32.262  29.167  1.00  0.00    -0.248 NA
ATOM     59  C   UNL A   1      44.714  32.265  27.744  1.00  0.00     0.031 C 
ATOM     60  C   UNL A   1      41.093  33.785  31.368  1.00  0.00     0.029 A 
ATOM     61  C   UNL A   1      41.157  34.203  30.053  1.00  0.00     0.049 A 
ATOM     62  H   UNL A   1      39.594  34.546  28.692  1.00  0.00     0.167 HD
ATOM     63  C   UNL A   1      43.043  33.536  28.717  1.00  0.00     0.074 A 
ATOM     64  C   UNL A   1      44.167  33.492  27.803  1.00  0.00     0.031 C 
ATOM     65  C   UNL A   1      42.230  34.537  29.140  1.00  0.00     0.037 A 
BRANCH  52  66
ATOM     66  C   UNL A   1      36.390  33.910  30.684  1.00  0.00     0.058 A 
ATOM     67  C   UNL A   1      35.384  34.394  29.813  1.00  0.00     0.135 A 
ATOM     68  C   UNL A   1      36.105  34.052  32.054  1.00  0.00     0.135 A 
ATOM     69  F   UNL A   1      35.493  34.296  28.482  1.00  0.00    -0.206 F 
ATOM     70  C   UNL A   1      34.223  35.020  30.256  1.00  0.00     0.059 A 
ATOM     71  C   UNL A   1      34.955  34.707  32.525  1.00  0.00     0.059 A 
ATOM     72  F   UNL A   1      36.917  33.535  32.988  1.00  0.00    -0.206 F 
ATOM     73  C   UNL A   1      34.021  35.193  31.614  1.00  0.00     0.060 A 
BRANCH  73  74
ATOM     74  S   UNL A   1      32.528  36.055  32.141  1.00  0.00     0.124 S 
ATOM     75  O   UNL A   1      32.157  36.788  30.934  1.00  0.00    -0.237 OA
ATOM     76  O   UNL A   1      31.649  34.948  32.504  1.00  0.00    -0.237 OA
ATOM     77  O   UNL A   1      32.986  36.882  33.253  1.00  0.00    -0.744 OA
ENDBRANCH  73  74
ENDBRANCH  52  66
BRANCH  53  78
ATOM     78  C   UNL A   1      44.267  29.037  27.898  1.00  0.00     0.058 A 
ATOM     79  C   UNL A   1      45.188  28.026  28.236  1.00  0.00     0.135 A 
ATOM     80  C   UNL A   1      43.346  28.790  26.869  1.00  0.00     0.135 A 
ATOM     81  F   UNL A   1      46.104  28.239  29.194  1.00  0.00    -0.206 F 
ATOM     82  C   UNL A   1      45.060  26.749  27.731  1.00  0.00     0.059 A 
ATOM     83  C   UNL A   1      43.221  27.521  26.328  1.00  0.00     0.059 A 
ATOM     84  F   UNL A   1      42.462  29.727  26.496  1.00  0.00    -0.206 F 
ATOM     85  C   UNL A   1      44.040  26.501  26.822  1.00  0.00     0.060 A 
BRANCH  85  86
ATOM     86  S   UNL A   1      43.738  24.794  26.380  1.00  0.00     0.124 S 
ATOM     87  O   UNL A   1      45.088  24.256  26.491  1.00  0.00    -0.237 OA
ATOM     88  O   UNL A   1      42.790  24.369  27.405  1.00  0.00    -0.237 OA
ATOM     89  O   UNL A   1      43.195  24.950  25.038  1.00  0.00    -0.744 OA
ENDBRANCH  85  86
ENDBRANCH  53  78
BRANCH  65  90
ATOM     90  C   UNL A   1      42.453  35.950  28.752  1.00  0.00     0.058 A 
ATOM     91  C   UNL A   1      41.919  36.461  27.562  1.00  0.00     0.135 A 
ATOM     92  C   UNL A   1      43.326  36.774  29.482  1.00  0.00     0.135 A 
ATOM     93  F   UNL A   1      41.114  35.711  26.790  1.00  0.00    -0.206 F 
ATOM     94  C   UNL A   1      42.207  37.748  27.132  1.00  0.00     0.059 A 
ATOM     95  C   UNL A   1      43.672  38.043  29.043  1.00  0.00     0.059 A 
ATOM     96  F   UNL A   1      43.849  36.372  30.651  1.00  0.00    -0.206 F 
ATOM     97  C   UNL A   1      43.087  38.529  27.879  1.00  0.00     0.060 A 
BRANCH  97  98
ATOM     98  S   UNL A   1      43.476  40.191  27.316  1.00  0.00     0.124 S 
ATOM     99  O   UNL A   1      42.169  40.706  26.914  1.00  0.00    -0.237 OA
ATOM    100  O   UNL A   1      44.040  40.777  28.528  1.00  0.00    -0.237 OA
ATOM    101  O   UNL A   1      44.417  39.965  26.224  1.00  0.00    -0.744 OA
ENDBRANCH  97  98
ENDBRANCH  65  90
ENDBRANCH  39  40
ENDBRANCH  32  34
ENDBRANCH  31  32
ENDBRANCH  30  31
ENDBRANCH   1  30
TORSDOF 20
ENDMDL
MODEL 3
REMARK VINA RESULT:     -13.1      4.955     11.471
REMARK SMILES Cc1ccc(Cn2c(C)c(C[NH2+]Cc3ccco3)c(C(=O)OCCOC(=O)c3ccc(-c4c5nc(c(-c6c(F)cc(S(=O)(=O)[O-])cc6F)c6ccc([nH]6)c(-c6c(F)cc(S(=O)(=O)[O-])cc6F)c6nc(c(-c7c(F)cc(S(=O)(=O)[O-])cc7F)c7ccc4[nH]7)C=C6)C=C5)cc3)c2C)cc1
REMARK SMILES IDX 23 1 22 2 20 3 21 4 19 5 7 6 8 7 94 8 9 9 10 10 95 11 6 12
REMARK SMILES IDX 5 13 1 14 2 15 3 16 97 17 4 18 96 19 11 20 12 21 13 24 14 25
REMARK SMILES IDX 15 26 18 27 16 28 17 29 24 30 25 31 26 32 27 33 28 34 29 35
REMARK SMILES IDX 93 36 30 37 92 38 31 39 32 40 33 41 86 42 34 43 91 44 85 45
REMARK SMILES IDX 87 46 35 47 90 48 84 49 83 50 36 52 70 53 49 54 69 55 50 56
REMARK SMILES IDX 53 57 68 58 88 59 51 60 52 61 67 63 89 64 54 65 37 66 38 67
REMARK SMILES IDX 47 68 39 69 40 70 46 71 48 72 41 73 42 74 43 75 44 76 45 77
REMARK SMILES IDX 71 78 72 79 81 80 73 81 74 82 80 83 82 84 75 85 76 86 77 87
REMARK SMILES IDX 78 88 79 89 55 90 56 91 65 92 57 93 58 94 64 95 66 96 59 97
REMARK SMILES IDX 60 98 61 99 62 100 63 101
REMARK H PARENT 12 22 12 23 87 51 53 62
REMARK Flexibility Score: inf
ROOT
ATOM      1  C   UNL A   1      37.237  22.283  24.851  1.00  0.00     0.275 C 
ENDROOT
BRANCH   1   2
ATOM      2  O   UNL A   1      35.974  22.067  24.196  1.00  0.00    -0.458 OA
BRANCH   2   3
ATOM      3  C   UNL A   1      35.192  21.119  24.803  1.00  0.00     0.340 C 
ATOM      4  O   UNL A   1      35.536  19.948  24.933  1.00  0.00    -0.246 OA
BRANCH   3   5
ATOM      5  C   UNL A   1      33.789  21.473  24.944  1.00  0.00     0.089 A 
ATOM      6  N   UNL A   1      32.476  22.953  25.904  1.00  0.00    -0.343 N 
ATOM      7  C   UNL A   1      31.905  22.668  24.672  1.00  0.00     0.025 A 
ATOM      8  C   UNL A   1      33.375  21.947  26.184  1.00  0.00     0.030 A 
ATOM      9  C   UNL A   1      30.707  23.364  24.113  1.00  0.00     0.065 C 
ATOM     10  C   UNL A   1      32.718  21.727  24.012  1.00  0.00     0.042 A 
ATOM     11  C   UNL A   1      33.991  21.652  27.508  1.00  0.00     0.065 C 
BRANCH   6  12
ATOM     12  C   UNL A   1      32.158  24.075  26.800  1.00  0.00     0.157 C 
BRANCH  12  13
ATOM     13  C   UNL A   1      32.322  25.480  26.226  1.00  0.00    -0.028 A 
ATOM     14  C   UNL A   1      32.936  29.645  25.102  1.00  0.00     0.044 C 
ATOM     15  C   UNL A   1      32.708  28.213  25.492  1.00  0.00    -0.051 A 
ATOM     16  C   UNL A   1      33.701  27.264  25.257  1.00  0.00     0.004 A 
ATOM     17  C   UNL A   1      31.501  27.784  26.051  1.00  0.00     0.004 A 
ATOM     18  C   UNL A   1      33.508  25.926  25.625  1.00  0.00     0.006 A 
ATOM     19  C   UNL A   1      31.313  26.440  26.416  1.00  0.00     0.006 A 
ENDBRANCH  12  13
ENDBRANCH   6  12
BRANCH  10  20
ATOM     20  C   UNL A   1      32.518  21.325  22.551  1.00  0.00     0.300 C 
BRANCH  20  21
ATOM     21  N   UNL A   1      31.720  20.096  22.371  1.00  0.00    -0.336 N 
ATOM     22  H   UNL A   1      31.180  20.164  21.509  1.00  0.00     0.346 HD
ATOM     23  H   UNL A   1      31.085  19.984  23.162  1.00  0.00     0.346 HD
BRANCH  21  24
ATOM     24  C   UNL A   1      32.629  18.918  22.295  1.00  0.00     0.337 C 
BRANCH  24  25
ATOM     25  C   UNL A   1      32.722  18.033  23.511  1.00  0.00     0.157 A 
ATOM     26  C   UNL A   1      33.468  16.886  23.740  1.00  0.00     0.052 A 
ATOM     27  O   UNL A   1      32.131  18.430  24.676  1.00  0.00    -0.463 OA
ATOM     28  C   UNL A   1      33.404  16.627  25.131  1.00  0.00     0.042 A 
ATOM     29  C   UNL A   1      32.603  17.612  25.657  1.00  0.00     0.195 A 
ENDBRANCH  24  25
ENDBRANCH  21  24
ENDBRANCH  20  21
ENDBRANCH  10  20
ENDBRANCH   3   5
ENDBRANCH   2   3
ENDBRANCH   1   2
BRANCH   1  30
ATOM     30  C   UNL A   1      37.401  23.730  25.341  1.00  0.00     0.275 C 
BRANCH  30  31
ATOM     31  O   UNL A   1      37.866  23.978  26.689  1.00  0.00    -0.458 OA
BRANCH  31  32
ATOM     32  C   UNL A   1      39.202  23.921  26.928  1.00  0.00     0.338 C 
ATOM     33  O   UNL A   1      39.916  23.016  26.528  1.00  0.00    -0.246 OA
BRANCH  32  34
ATOM     34  C   UNL A   1      39.655  25.203  27.526  1.00  0.00     0.060 A 
ATOM     35  C   UNL A   1      40.103  26.217  26.673  1.00  0.00     0.016 A 
ATOM     36  C   UNL A   1      39.379  25.482  28.861  1.00  0.00     0.016 A 
ATOM     37  C   UNL A   1      40.156  27.543  27.097  1.00  0.00     0.010 A 
ATOM     38  C   UNL A   1      39.382  26.795  29.276  1.00  0.00     0.010 A 
ATOM     39  C   UNL A   1      39.751  27.825  28.393  1.00  0.00    -0.014 A 
BRANCH  39  40
ATOM     40  C   UNL A   1      39.863  29.137  29.007  1.00  0.00     0.031 A 
ATOM     41  C   UNL A   1      38.831  30.190  28.913  1.00  0.00     0.074 A 
ATOM     42  C   UNL A   1      40.933  29.234  29.824  1.00  0.00     0.049 A 
ATOM     43  N   UNL A   1      39.048  31.419  29.247  1.00  0.00    -0.248 NA
ATOM     44  C   UNL A   1      37.469  29.977  28.425  1.00  0.00     0.031 C 
ATOM     45  C   UNL A   1      41.195  30.172  30.893  1.00  0.00     0.029 A 
ATOM     46  N   UNL A   1      42.130  28.518  29.703  1.00  0.00    -0.354 N 
ATOM     47  C   UNL A   1      37.826  32.051  29.345  1.00  0.00     0.074 A 
ATOM     48  C   UNL A   1      36.889  31.154  28.709  1.00  0.00     0.031 C 
ATOM     49  C   UNL A   1      42.522  30.196  31.112  1.00  0.00     0.029 A 
ATOM     50  C   UNL A   1      43.148  29.406  30.061  1.00  0.00     0.049 A 
ATOM     51  H   UNL A   1      42.233  27.580  29.422  1.00  0.00     0.167 HD
ATOM     52  C   UNL A   1      37.730  33.178  30.110  1.00  0.00     0.037 A 
ATOM     53  C   UNL A   1      44.063  29.859  29.149  1.00  0.00     0.037 A 
ATOM     54  C   UNL A   1      39.043  33.572  30.609  1.00  0.00     0.049 A 
ATOM     55  C   UNL A   1      43.967  31.341  28.911  1.00  0.00     0.074 A 
ATOM     56  C   UNL A   1      39.735  33.289  31.775  1.00  0.00     0.029 A 
ATOM     57  N   UNL A   1      39.970  34.072  29.720  1.00  0.00    -0.354 N 
ATOM     58  N   UNL A   1      43.010  32.077  29.390  1.00  0.00    -0.248 NA
ATOM     59  C   UNL A   1      44.882  32.095  28.055  1.00  0.00     0.031 C 
ATOM     60  C   UNL A   1      41.111  33.562  31.547  1.00  0.00     0.029 A 
ATOM     61  C   UNL A   1      41.244  34.018  30.249  1.00  0.00     0.049 A 
ATOM     62  H   UNL A   1      39.753  34.424  28.826  1.00  0.00     0.167 HD
ATOM     63  C   UNL A   1      43.183  33.362  28.985  1.00  0.00     0.074 A 
ATOM     64  C   UNL A   1      44.349  33.328  28.125  1.00  0.00     0.031 C 
ATOM     65  C   UNL A   1      42.364  34.362  29.399  1.00  0.00     0.037 A 
BRANCH  52  66
ATOM     66  C   UNL A   1      36.449  33.777  30.644  1.00  0.00     0.058 A 
ATOM     67  C   UNL A   1      35.503  34.322  29.742  1.00  0.00     0.135 A 
ATOM     68  C   UNL A   1      36.091  33.863  32.001  1.00  0.00     0.135 A 
ATOM     69  F   UNL A   1      35.685  34.283  28.416  1.00  0.00    -0.206 F 
ATOM     70  C   UNL A   1      34.332  34.954  30.149  1.00  0.00     0.059 A 
ATOM     71  C   UNL A   1      34.929  34.521  32.438  1.00  0.00     0.059 A 
ATOM     72  F   UNL A   1      36.839  33.286  32.953  1.00  0.00    -0.206 F 
ATOM     73  C   UNL A   1      34.058  35.069  31.501  1.00  0.00     0.060 A 
BRANCH  73  74
ATOM     74  S   UNL A   1      32.555  35.940  31.985  1.00  0.00     0.124 S 
ATOM     75  O   UNL A   1      32.047  36.410  30.699  1.00  0.00    -0.237 OA
ATOM     76  O   UNL A   1      31.780  34.880  32.620  1.00  0.00    -0.237 OA
ATOM     77  O   UNL A   1      33.040  36.986  32.880  1.00  0.00    -0.744 OA
ENDBRANCH  73  74
ENDBRANCH  52  66
BRANCH  53  78
ATOM     78  C   UNL A   1      44.385  28.871  28.091  1.00  0.00     0.058 A 
ATOM     79  C   UNL A   1      45.153  27.757  28.480  1.00  0.00     0.135 A 
ATOM     80  C   UNL A   1      43.587  28.769  26.942  1.00  0.00     0.135 A 
ATOM     81  F   UNL A   1      45.952  27.829  29.557  1.00  0.00    -0.206 F 
ATOM     82  C   UNL A   1      44.971  26.525  27.887  1.00  0.00     0.059 A 
ATOM     83  C   UNL A   1      43.413  27.547  26.314  1.00  0.00     0.059 A 
ATOM     84  F   UNL A   1      42.852  29.808  26.518  1.00  0.00    -0.206 F 
ATOM     85  C   UNL A   1      44.060  26.426  26.845  1.00  0.00     0.060 A 
BRANCH  85  86
ATOM     86  S   UNL A   1      43.657  24.782  26.266  1.00  0.00     0.124 S 
ATOM     87  O   UNL A   1      44.987  24.301  25.908  1.00  0.00    -0.237 OA
ATOM     88  O   UNL A   1      43.050  24.175  27.446  1.00  0.00    -0.237 OA
ATOM     89  O   UNL A   1      42.748  25.090  25.172  1.00  0.00    -0.744 OA
ENDBRANCH  85  86
ENDBRANCH  53  78
BRANCH  65  90
ATOM     90  C   UNL A   1      42.624  35.782  29.064  1.00  0.00     0.058 A 
ATOM     91  C   UNL A   1      43.376  36.597  29.921  1.00  0.00     0.135 A 
ATOM     92  C   UNL A   1      42.004  36.393  27.961  1.00  0.00     0.135 A 
ATOM     93  F   UNL A   1      43.958  36.088  31.020  1.00  0.00    -0.206 F 
ATOM     94  C   UNL A   1      43.539  37.952  29.675  1.00  0.00     0.059 A 
ATOM     95  C   UNL A   1      42.106  37.756  27.727  1.00  0.00     0.059 A 
ATOM     96  F   UNL A   1      41.298  35.676  27.073  1.00  0.00    -0.206 F 
ATOM     97  C   UNL A   1      42.896  38.522  28.578  1.00  0.00     0.060 A 
BRANCH  97  98
ATOM     98  S   UNL A   1      43.091  40.281  28.266  1.00  0.00     0.124 S 
ATOM     99  O   UNL A   1      42.283  40.485  27.066  1.00  0.00    -0.237 OA
ATOM    100  O   UNL A   1      42.550  40.849  29.496  1.00  0.00    -0.237 OA
ATOM    101  O   UNL A   1      44.530  40.432  28.078  1.00  0.00    -0.744 OA
ENDBRANCH  97  98
ENDBRANCH  65  90
ENDBRANCH  39  40
ENDBRANCH  32  34
ENDBRANCH  31  32
ENDBRANCH  30  31
ENDBRANCH   1  30
TORSDOF 20
ENDMDL
