MODEL 1
REMARK VINA RESULT:     -11.3      0.000      0.000
REMARK SMILES CN1C(=O)N(CC(=O)OCCOC(=O)c2ccc(-c3c4nc(c(-c5c(F)cc(S(=O)(=O)[O-])cc5F)c5ccc([nH]5)c(-c5c(F)cc(S(=O)(=O)[O-])cc5F)c5nc(c(-c6c(F)cc(S(=O)(=O)[O-])cc6F)c6ccc3[nH]6)C=C5)C=C4)cc2)C(=O)C12CCCCC2
REMARK SMILES IDX 11 1 10 2 9 3 7 4 8 5 6 6 5 7 1 8 2 9 3 10 83 11 4 12 81 13
REMARK SMILES IDX 84 14 88 15 82 16 85 17 87 18 86 19 12 20 13 21 14 22 15 23
REMARK SMILES IDX 16 24 80 25 17 26 79 27 18 28 19 29 20 30 73 31 21 32 78 33
REMARK SMILES IDX 72 34 74 35 22 36 77 37 71 38 70 39 23 41 57 42 36 43 56 44
REMARK SMILES IDX 37 45 40 46 55 47 75 48 38 49 39 50 54 52 76 53 41 54 24 55
REMARK SMILES IDX 25 56 34 57 26 58 27 59 33 60 35 61 28 62 29 63 30 64 31 65
REMARK SMILES IDX 32 66 58 67 59 68 68 69 60 70 61 71 67 72 69 73 62 74 63 75
REMARK SMILES IDX 64 76 65 77 66 78 42 79 43 80 52 81 44 82 45 83 51 84 53 85
REMARK SMILES IDX 46 86 47 87 48 88 49 89 50 90
REMARK H PARENT 74 40 40 51
REMARK Flexibility Score: inf
ROOT
ATOM      1  C   UNL A   1      33.304  29.739  26.125  1.00  0.00     0.275 C 
ENDROOT
BRANCH   1   2
ATOM      2  C   UNL A   1      31.814  29.406  26.100  1.00  0.00     0.274 C 
BRANCH   2   3
ATOM      3  O   UNL A   1      31.600  28.161  25.407  1.00  0.00    -0.461 OA
BRANCH   3   4
ATOM      4  C   UNL A   1      31.421  27.056  26.191  1.00  0.00     0.326 C 
ATOM      5  O   UNL A   1      31.344  27.079  27.415  1.00  0.00    -0.250 OA
BRANCH   4   6
ATOM      6  C   UNL A   1      31.277  25.764  25.389  1.00  0.00     0.253 C 
BRANCH   6   7
ATOM      7  N   UNL A   1      32.288  24.801  25.748  1.00  0.00    -0.251 N 
ATOM      8  C   UNL A   1      33.388  21.847  27.508  1.00  0.00     0.150 C 
ATOM      9  N   UNL A   1      33.220  22.988  26.633  1.00  0.00    -0.313 N 
ATOM     10  C   UNL A   1      32.124  23.834  26.692  1.00  0.00     0.327 C 
ATOM     11  C   UNL A   1      34.185  23.393  25.608  1.00  0.00     0.124 C 
ATOM     12  O   UNL A   1      31.174  23.739  27.450  1.00  0.00    -0.248 OA
ATOM     13  C   UNL A   1      33.493  24.689  25.131  1.00  0.00     0.257 C 
ATOM     14  C   UNL A   1      35.575  23.662  26.188  1.00  0.00     0.039 C 
ATOM     15  C   UNL A   1      34.217  22.409  24.428  1.00  0.00     0.039 C 
ATOM     16  O   UNL A   1      33.922  25.468  24.290  1.00  0.00    -0.272 OA
ATOM     17  C   UNL A   1      36.609  24.026  25.123  1.00  0.00     0.003 C 
ATOM     18  C   UNL A   1      35.246  22.801  23.365  1.00  0.00     0.003 C 
ATOM     19  C   UNL A   1      36.628  23.029  23.967  1.00  0.00     0.000 C 
ENDBRANCH   6   7
ENDBRANCH   4   6
ENDBRANCH   3   4
ENDBRANCH   2   3
ENDBRANCH   1   2
BRANCH   1  20
ATOM     20  O   UNL A   1      33.833  29.392  27.414  1.00  0.00    -0.458 OA
BRANCH  20  21
ATOM     21  C   UNL A   1      34.451  30.396  28.083  1.00  0.00     0.338 C 
ATOM     22  O   UNL A   1      33.986  31.489  28.353  1.00  0.00    -0.246 OA
BRANCH  21  23
ATOM     23  C   UNL A   1      35.849  29.999  28.352  1.00  0.00     0.060 A 
ATOM     24  C   UNL A   1      36.263  29.573  29.618  1.00  0.00     0.016 A 
ATOM     25  C   UNL A   1      36.770  30.080  27.309  1.00  0.00     0.016 A 
ATOM     26  C   UNL A   1      37.605  29.274  29.858  1.00  0.00     0.010 A 
ATOM     27  C   UNL A   1      38.096  29.708  27.529  1.00  0.00     0.010 A 
ATOM     28  C   UNL A   1      38.532  29.320  28.809  1.00  0.00    -0.014 A 
BRANCH  28  29
ATOM     29  C   UNL A   1      39.964  28.988  29.016  1.00  0.00     0.031 A 
ATOM     30  C   UNL A   1      40.916  30.070  29.449  1.00  0.00     0.074 A 
ATOM     31  C   UNL A   1      40.423  27.747  28.759  1.00  0.00     0.049 A 
ATOM     32  N   UNL A   1      42.223  30.082  29.427  1.00  0.00    -0.248 NA
ATOM     33  C   UNL A   1      40.310  31.311  29.964  1.00  0.00     0.031 C 
ATOM     34  C   UNL A   1      39.598  26.594  28.387  1.00  0.00     0.029 A 
ATOM     35  N   UNL A   1      41.704  27.253  28.748  1.00  0.00    -0.354 N 
ATOM     36  C   UNL A   1      42.597  31.338  29.890  1.00  0.00     0.074 A 
ATOM     37  C   UNL A   1      41.380  32.067  30.173  1.00  0.00     0.031 C 
ATOM     38  C   UNL A   1      40.393  25.532  28.180  1.00  0.00     0.029 A 
ATOM     39  C   UNL A   1      41.784  25.946  28.327  1.00  0.00     0.049 A 
ATOM     40  H   UNL A   1      42.489  27.784  29.014  1.00  0.00     0.167 HD
ATOM     41  C   UNL A   1      43.846  31.833  30.065  1.00  0.00     0.037 A 
ATOM     42  C   UNL A   1      42.857  25.182  28.041  1.00  0.00     0.037 A 
ATOM     43  C   UNL A   1      45.049  31.088  29.798  1.00  0.00     0.049 A 
ATOM     44  C   UNL A   1      44.234  25.779  28.167  1.00  0.00     0.074 A 
ATOM     45  C   UNL A   1      46.364  31.503  29.915  1.00  0.00     0.029 A 
ATOM     46  N   UNL A   1      45.082  29.767  29.375  1.00  0.00    -0.354 N 
ATOM     47  N   UNL A   1      44.576  26.984  28.551  1.00  0.00    -0.248 NA
ATOM     48  C   UNL A   1      45.369  24.917  27.807  1.00  0.00     0.031 C 
ATOM     49  C   UNL A   1      47.193  30.441  29.540  1.00  0.00     0.029 A 
ATOM     50  C   UNL A   1      46.395  29.351  29.228  1.00  0.00     0.049 A 
ATOM     51  H   UNL A   1      44.290  29.208  29.205  1.00  0.00     0.167 HD
ATOM     52  C   UNL A   1      45.966  27.014  28.514  1.00  0.00     0.074 A 
ATOM     53  C   UNL A   1      46.401  25.707  28.068  1.00  0.00     0.031 C 
ATOM     54  C   UNL A   1      46.805  28.032  28.821  1.00  0.00     0.037 A 
BRANCH  41  55
ATOM     55  C   UNL A   1      43.980  33.247  30.555  1.00  0.00     0.058 A 
ATOM     56  C   UNL A   1      44.037  33.548  31.924  1.00  0.00     0.135 A 
ATOM     57  C   UNL A   1      44.110  34.309  29.646  1.00  0.00     0.135 A 
ATOM     58  F   UNL A   1      43.899  32.572  32.836  1.00  0.00    -0.206 F 
ATOM     59  C   UNL A   1      44.202  34.853  32.376  1.00  0.00     0.059 A 
ATOM     60  C   UNL A   1      44.301  35.621  30.074  1.00  0.00     0.059 A 
ATOM     61  F   UNL A   1      44.062  34.078  28.324  1.00  0.00    -0.206 F 
ATOM     62  C   UNL A   1      44.335  35.883  31.443  1.00  0.00     0.060 A 
BRANCH  62  63
ATOM     63  S   UNL A   1      44.572  37.568  32.045  1.00  0.00     0.124 S 
ATOM     64  O   UNL A   1      43.746  38.330  31.114  1.00  0.00    -0.237 OA
ATOM     65  O   UNL A   1      44.069  37.486  33.414  1.00  0.00    -0.237 OA
ATOM     66  O   UNL A   1      46.011  37.776  31.922  1.00  0.00    -0.744 OA
ENDBRANCH  62  63
ENDBRANCH  41  55
BRANCH  42  67
ATOM     67  C   UNL A   1      42.679  23.783  27.565  1.00  0.00     0.058 A 
ATOM     68  C   UNL A   1      42.568  23.498  26.197  1.00  0.00     0.135 A 
ATOM     69  C   UNL A   1      42.596  22.709  28.466  1.00  0.00     0.135 A 
ATOM     70  F   UNL A   1      42.633  24.492  25.297  1.00  0.00    -0.206 F 
ATOM     71  C   UNL A   1      42.355  22.203  25.737  1.00  0.00     0.059 A 
ATOM     72  C   UNL A   1      42.410  21.401  28.028  1.00  0.00     0.059 A 
ATOM     73  F   UNL A   1      42.709  22.926  29.785  1.00  0.00    -0.206 F 
ATOM     74  C   UNL A   1      42.273  21.161  26.662  1.00  0.00     0.060 A 
BRANCH  74  75
ATOM     75  S   UNL A   1      42.008  19.479  26.058  1.00  0.00     0.124 S 
ATOM     76  O   UNL A   1      42.416  18.688  27.213  1.00  0.00    -0.237 OA
ATOM     77  O   UNL A   1      40.580  19.479  25.755  1.00  0.00    -0.237 OA
ATOM     78  O   UNL A   1      42.888  19.401  24.895  1.00  0.00    -0.744 OA
ENDBRANCH  74  75
ENDBRANCH  42  67
BRANCH  54  79
ATOM     79  C   UNL A   1      48.281  27.760  28.759  1.00  0.00     0.058 A 
ATOM     80  C   UNL A   1      48.973  27.191  29.837  1.00  0.00     0.135 A 
ATOM     81  C   UNL A   1      48.989  27.994  27.569  1.00  0.00     0.135 A 
ATOM     82  F   UNL A   1      48.342  26.956  30.999  1.00  0.00    -0.206 F 
ATOM     83  C   UNL A   1      50.322  26.865  29.739  1.00  0.00     0.059 A 
ATOM     84  C   UNL A   1      50.331  27.655  27.442  1.00  0.00     0.059 A 
ATOM     85  F   UNL A   1      48.367  28.532  26.508  1.00  0.00    -0.206 F 
ATOM     86  C   UNL A   1      50.990  27.093  28.535  1.00  0.00     0.060 A 
BRANCH  86  87
ATOM     87  S   UNL A   1      52.721  26.599  28.396  1.00  0.00     0.124 S 
ATOM     88  O   UNL A   1      53.338  27.820  27.890  1.00  0.00    -0.237 OA
ATOM     89  O   UNL A   1      53.057  26.243  29.772  1.00  0.00    -0.237 OA
ATOM     90  O   UNL A   1      52.682  25.480  27.459  1.00  0.00    -0.744 OA
ENDBRANCH  86  87
ENDBRANCH  54  79
ENDBRANCH  28  29
ENDBRANCH  21  23
ENDBRANCH  20  21
ENDBRANCH   1  20
TORSDOF 15
ENDMDL
MODEL 2
REMARK VINA RESULT:     -11.3      1.048      2.234
REMARK SMILES CN1C(=O)N(CC(=O)OCCOC(=O)c2ccc(-c3c4nc(c(-c5c(F)cc(S(=O)(=O)[O-])cc5F)c5ccc([nH]5)c(-c5c(F)cc(S(=O)(=O)[O-])cc5F)c5nc(c(-c6c(F)cc(S(=O)(=O)[O-])cc6F)c6ccc3[nH]6)C=C5)C=C4)cc2)C(=O)C12CCCCC2
REMARK SMILES IDX 11 1 10 2 9 3 7 4 8 5 6 6 5 7 1 8 2 9 3 10 83 11 4 12 81 13
REMARK SMILES IDX 84 14 88 15 82 16 85 17 87 18 86 19 12 20 13 21 14 22 15 23
REMARK SMILES IDX 16 24 80 25 17 26 79 27 18 28 19 29 20 30 73 31 21 32 78 33
REMARK SMILES IDX 72 34 74 35 22 36 77 37 71 38 70 39 23 41 57 42 36 43 56 44
REMARK SMILES IDX 37 45 40 46 55 47 75 48 38 49 39 50 54 52 76 53 41 54 24 55
REMARK SMILES IDX 25 56 34 57 26 58 27 59 33 60 35 61 28 62 29 63 30 64 31 65
REMARK SMILES IDX 32 66 58 67 59 68 68 69 60 70 61 71 67 72 69 73 62 74 63 75
REMARK SMILES IDX 64 76 65 77 66 78 42 79 43 80 52 81 44 82 45 83 51 84 53 85
REMARK SMILES IDX 46 86 47 87 48 88 49 89 50 90
REMARK H PARENT 74 40 40 51
REMARK Flexibility Score: inf
ROOT
ATOM      1  C   UNL A   1      32.433  29.368  27.266  1.00  0.00     0.275 C 
ENDROOT
BRANCH   1   2
ATOM      2  C   UNL A   1      31.839  29.279  25.863  1.00  0.00     0.274 C 
BRANCH   2   3
ATOM      3  O   UNL A   1      32.842  29.610  24.883  1.00  0.00    -0.461 OA
BRANCH   3   4
ATOM      4  C   UNL A   1      32.785  28.920  23.704  1.00  0.00     0.326 C 
ATOM      5  O   UNL A   1      31.846  28.967  22.917  1.00  0.00    -0.250 OA
BRANCH   4   6
ATOM      6  C   UNL A   1      34.043  28.099  23.425  1.00  0.00     0.253 C 
BRANCH   6   7
ATOM      7  N   UNL A   1      33.785  26.684  23.517  1.00  0.00    -0.251 N 
ATOM      8  C   UNL A   1      33.259  23.439  22.025  1.00  0.00     0.150 C 
ATOM      9  N   UNL A   1      33.517  24.568  22.894  1.00  0.00    -0.313 N 
ATOM     10  C   UNL A   1      33.526  25.881  22.450  1.00  0.00     0.327 C 
ATOM     11  C   UNL A   1      33.774  24.462  24.332  1.00  0.00     0.124 C 
ATOM     12  O   UNL A   1      33.339  26.262  21.307  1.00  0.00    -0.248 OA
ATOM     13  C   UNL A   1      33.850  25.967  24.670  1.00  0.00     0.257 C 
ATOM     14  C   UNL A   1      32.636  23.762  25.079  1.00  0.00     0.039 C 
ATOM     15  C   UNL A   1      35.147  23.837  24.626  1.00  0.00     0.039 C 
ATOM     16  O   UNL A   1      34.006  26.449  25.784  1.00  0.00    -0.272 OA
ATOM     17  C   UNL A   1      32.916  23.587  26.571  1.00  0.00     0.003 C 
ATOM     18  C   UNL A   1      35.414  23.689  26.126  1.00  0.00     0.003 C 
ATOM     19  C   UNL A   1      34.281  22.958  26.836  1.00  0.00     0.000 C 
ENDBRANCH   6   7
ENDBRANCH   4   6
ENDBRANCH   3   4
ENDBRANCH   2   3
ENDBRANCH   1   2
BRANCH   1  20
ATOM     20  O   UNL A   1      33.858  29.519  27.157  1.00  0.00    -0.458 OA
BRANCH  20  21
ATOM     21  C   UNL A   1      34.414  30.441  27.979  1.00  0.00     0.338 C 
ATOM     22  O   UNL A   1      33.908  31.482  28.358  1.00  0.00    -0.246 OA
BRANCH  21  23
ATOM     23  C   UNL A   1      35.806  30.039  28.272  1.00  0.00     0.060 A 
ATOM     24  C   UNL A   1      36.198  29.619  29.547  1.00  0.00     0.016 A 
ATOM     25  C   UNL A   1      36.743  30.108  27.243  1.00  0.00     0.016 A 
ATOM     26  C   UNL A   1      37.534  29.315  29.810  1.00  0.00     0.010 A 
ATOM     27  C   UNL A   1      38.063  29.731  27.486  1.00  0.00     0.010 A 
ATOM     28  C   UNL A   1      38.478  29.349  28.775  1.00  0.00    -0.014 A 
BRANCH  28  29
ATOM     29  C   UNL A   1      39.905  29.011  29.006  1.00  0.00     0.031 A 
ATOM     30  C   UNL A   1      40.848  30.084  29.479  1.00  0.00     0.074 A 
ATOM     31  C   UNL A   1      40.367  27.774  28.737  1.00  0.00     0.049 A 
ATOM     32  N   UNL A   1      42.155  30.095  29.484  1.00  0.00    -0.248 NA
ATOM     33  C   UNL A   1      40.234  31.316  30.002  1.00  0.00     0.031 C 
ATOM     34  C   UNL A   1      39.549  26.630  28.328  1.00  0.00     0.029 A 
ATOM     35  N   UNL A   1      41.648  27.278  28.744  1.00  0.00    -0.354 N 
ATOM     36  C   UNL A   1      42.522  31.342  29.978  1.00  0.00     0.074 A 
ATOM     37  C   UNL A   1      41.299  32.067  30.248  1.00  0.00     0.031 C 
ATOM     38  C   UNL A   1      40.348  25.570  28.118  1.00  0.00     0.029 A 
ATOM     39  C   UNL A   1      41.735  25.979  28.302  1.00  0.00     0.049 A 
ATOM     40  H   UNL A   1      42.428  27.803  29.036  1.00  0.00     0.167 HD
ATOM     41  C   UNL A   1      43.767  31.831  30.187  1.00  0.00     0.037 A 
ATOM     42  C   UNL A   1      42.813  25.219  28.025  1.00  0.00     0.037 A 
ATOM     43  C   UNL A   1      44.975  31.089  29.933  1.00  0.00     0.049 A 
ATOM     44  C   UNL A   1      44.188  25.811  28.191  1.00  0.00     0.074 A 
ATOM     45  C   UNL A   1      46.287  31.500  30.085  1.00  0.00     0.029 A 
ATOM     46  N   UNL A   1      45.015  29.776  29.487  1.00  0.00    -0.354 N 
ATOM     47  N   UNL A   1      44.523  27.009  28.603  1.00  0.00    -0.248 NA
ATOM     48  C   UNL A   1      45.329  24.954  27.839  1.00  0.00     0.031 C 
ATOM     49  C   UNL A   1      47.122  30.443  29.709  1.00  0.00     0.029 A 
ATOM     50  C   UNL A   1      46.330  29.361  29.361  1.00  0.00     0.049 A 
ATOM     51  H   UNL A   1      44.226  29.222  29.291  1.00  0.00     0.167 HD
ATOM     52  C   UNL A   1      45.914  27.038  28.596  1.00  0.00     0.074 A 
ATOM     53  C   UNL A   1      46.357  25.738  28.136  1.00  0.00     0.031 C 
ATOM     54  C   UNL A   1      46.747  28.049  28.939  1.00  0.00     0.037 A 
BRANCH  41  55
ATOM     55  C   UNL A   1      43.893  33.236  30.706  1.00  0.00     0.058 A 
ATOM     56  C   UNL A   1      43.970  34.336  29.838  1.00  0.00     0.135 A 
ATOM     57  C   UNL A   1      43.880  33.491  32.087  1.00  0.00     0.135 A 
ATOM     58  F   UNL A   1      44.004  34.146  28.510  1.00  0.00    -0.206 F 
ATOM     59  C   UNL A   1      44.044  35.639  30.320  1.00  0.00     0.059 A 
ATOM     60  C   UNL A   1      43.929  34.789  32.592  1.00  0.00     0.059 A 
ATOM     61  F   UNL A   1      43.808  32.476  32.962  1.00  0.00    -0.206 F 
ATOM     62  C   UNL A   1      44.021  35.855  31.699  1.00  0.00     0.060 A 
BRANCH  62  63
ATOM     63  S   UNL A   1      44.096  37.553  32.308  1.00  0.00     0.124 S 
ATOM     64  O   UNL A   1      43.113  37.521  33.386  1.00  0.00    -0.237 OA
ATOM     65  O   UNL A   1      45.490  37.675  32.726  1.00  0.00    -0.237 OA
ATOM     66  O   UNL A   1      43.724  38.350  31.143  1.00  0.00    -0.744 OA
ENDBRANCH  62  63
ENDBRANCH  41  55
BRANCH  42  67
ATOM     67  C   UNL A   1      42.643  23.829  27.521  1.00  0.00     0.058 A 
ATOM     68  C   UNL A   1      42.509  22.754  28.409  1.00  0.00     0.135 A 
ATOM     69  C   UNL A   1      42.631  23.546  26.146  1.00  0.00     0.135 A 
ATOM     70  F   UNL A   1      42.523  22.972  29.734  1.00  0.00    -0.206 F 
ATOM     71  C   UNL A   1      42.395  21.443  27.957  1.00  0.00     0.059 A 
ATOM     72  C   UNL A   1      42.491  22.247  25.668  1.00  0.00     0.059 A 
ATOM     73  F   UNL A   1      42.743  24.541  25.252  1.00  0.00    -0.206 F 
ATOM     74  C   UNL A   1      42.393  21.200  26.582  1.00  0.00     0.060 A 
BRANCH  74  75
ATOM     75  S   UNL A   1      42.232  19.497  26.000  1.00  0.00     0.124 S 
ATOM     76  O   UNL A   1      43.141  19.493  24.860  1.00  0.00    -0.237 OA
ATOM     77  O   UNL A   1      42.664  18.730  27.165  1.00  0.00    -0.237 OA
ATOM     78  O   UNL A   1      40.812  19.387  25.678  1.00  0.00    -0.744 OA
ENDBRANCH  74  75
ENDBRANCH  42  67
BRANCH  54  79
ATOM     79  C   UNL A   1      48.224  27.775  28.904  1.00  0.00     0.058 A 
ATOM     80  C   UNL A   1      48.914  27.301  30.027  1.00  0.00     0.135 A 
ATOM     81  C   UNL A   1      48.934  27.910  27.700  1.00  0.00     0.135 A 
ATOM     82  F   UNL A   1      48.282  27.164  31.203  1.00  0.00    -0.206 F 
ATOM     83  C   UNL A   1      50.264  26.970  29.960  1.00  0.00     0.059 A 
ATOM     84  C   UNL A   1      50.277  27.564  27.604  1.00  0.00     0.059 A 
ATOM     85  F   UNL A   1      48.314  28.355  26.595  1.00  0.00    -0.206 F 
ATOM     86  C   UNL A   1      50.934  27.098  28.742  1.00  0.00     0.060 A 
BRANCH  86  87
ATOM     87  S   UNL A   1      52.667  26.597  28.649  1.00  0.00     0.124 S 
ATOM     88  O   UNL A   1      52.653  25.692  27.505  1.00  0.00    -0.237 OA
ATOM     89  O   UNL A   1      53.351  27.870  28.440  1.00  0.00    -0.237 OA
ATOM     90  O   UNL A   1      52.909  25.968  29.944  1.00  0.00    -0.744 OA
ENDBRANCH  86  87
ENDBRANCH  54  79
ENDBRANCH  28  29
ENDBRANCH  21  23
ENDBRANCH  20  21
ENDBRANCH   1  20
TORSDOF 15
ENDMDL
MODEL 3
REMARK VINA RESULT:     -11.1      0.912      1.666
REMARK SMILES CN1C(=O)N(CC(=O)OCCOC(=O)c2ccc(-c3c4nc(c(-c5c(F)cc(S(=O)(=O)[O-])cc5F)c5ccc([nH]5)c(-c5c(F)cc(S(=O)(=O)[O-])cc5F)c5nc(c(-c6c(F)cc(S(=O)(=O)[O-])cc6F)c6ccc3[nH]6)C=C5)C=C4)cc2)C(=O)C12CCCCC2
REMARK SMILES IDX 11 1 10 2 9 3 7 4 8 5 6 6 5 7 1 8 2 9 3 10 83 11 4 12 81 13
REMARK SMILES IDX 84 14 88 15 82 16 85 17 87 18 86 19 12 20 13 21 14 22 15 23
REMARK SMILES IDX 16 24 80 25 17 26 79 27 18 28 19 29 20 30 73 31 21 32 78 33
REMARK SMILES IDX 72 34 74 35 22 36 77 37 71 38 70 39 23 41 57 42 36 43 56 44
REMARK SMILES IDX 37 45 40 46 55 47 75 48 38 49 39 50 54 52 76 53 41 54 24 55
REMARK SMILES IDX 25 56 34 57 26 58 27 59 33 60 35 61 28 62 29 63 30 64 31 65
REMARK SMILES IDX 32 66 58 67 59 68 68 69 60 70 61 71 67 72 69 73 62 74 63 75
REMARK SMILES IDX 64 76 65 77 66 78 42 79 43 80 52 81 44 82 45 83 51 84 53 85
REMARK SMILES IDX 46 86 47 87 48 88 49 89 50 90
REMARK H PARENT 74 40 40 51
REMARK Flexibility Score: inf
ROOT
ATOM      1  C   UNL A   1      32.188  29.302  27.185  1.00  0.00     0.275 C 
ENDROOT
BRANCH   1   2
ATOM      2  C   UNL A   1      31.713  28.161  26.289  1.00  0.00     0.274 C 
BRANCH   2   3
ATOM      3  O   UNL A   1      31.441  26.992  27.086  1.00  0.00    -0.461 OA
BRANCH   3   4
ATOM      4  C   UNL A   1      31.460  25.794  26.428  1.00  0.00     0.326 C 
ATOM      5  O   UNL A   1      30.928  24.768  26.838  1.00  0.00    -0.250 OA
BRANCH   4   6
ATOM      6  C   UNL A   1      32.183  25.856  25.083  1.00  0.00     0.253 C 
BRANCH   6   7
ATOM      7  N   UNL A   1      32.602  24.549  24.644  1.00  0.00    -0.251 N 
ATOM      8  C   UNL A   1      32.213  21.600  22.599  1.00  0.00     0.150 C 
ATOM      9  N   UNL A   1      32.668  22.667  23.465  1.00  0.00    -0.313 N 
ATOM     10  C   UNL A   1      31.878  23.750  23.815  1.00  0.00     0.327 C 
ATOM     11  C   UNL A   1      33.994  22.718  24.086  1.00  0.00     0.124 C 
ATOM     12  O   UNL A   1      30.734  23.962  23.450  1.00  0.00    -0.248 OA
ATOM     13  C   UNL A   1      33.806  23.992  24.939  1.00  0.00     0.257 C 
ATOM     14  C   UNL A   1      34.284  21.487  24.947  1.00  0.00     0.039 C 
ATOM     15  C   UNL A   1      35.101  22.993  23.056  1.00  0.00     0.039 C 
ATOM     16  O   UNL A   1      34.626  24.469  25.713  1.00  0.00    -0.272 OA
ATOM     17  C   UNL A   1      35.687  21.495  25.552  1.00  0.00     0.003 C 
ATOM     18  C   UNL A   1      36.495  23.015  23.686  1.00  0.00     0.003 C 
ATOM     19  C   UNL A   1      36.768  21.761  24.508  1.00  0.00     0.000 C 
ENDBRANCH   6   7
ENDBRANCH   4   6
ENDBRANCH   3   4
ENDBRANCH   2   3
ENDBRANCH   1   2
BRANCH   1  20
ATOM     20  O   UNL A   1      33.620  29.386  27.108  1.00  0.00    -0.458 OA
BRANCH  20  21
ATOM     21  C   UNL A   1      34.188  30.380  27.831  1.00  0.00     0.338 C 
ATOM     22  O   UNL A   1      33.696  31.462  28.099  1.00  0.00    -0.246 OA
BRANCH  21  23
ATOM     23  C   UNL A   1      35.574  29.992  28.169  1.00  0.00     0.060 A 
ATOM     24  C   UNL A   1      35.932  29.589  29.460  1.00  0.00     0.016 A 
ATOM     25  C   UNL A   1      36.539  30.056  27.167  1.00  0.00     0.016 A 
ATOM     26  C   UNL A   1      37.262  29.299  29.764  1.00  0.00     0.010 A 
ATOM     27  C   UNL A   1      37.855  29.691  27.452  1.00  0.00     0.010 A 
ATOM     28  C   UNL A   1      38.234  29.327  28.756  1.00  0.00    -0.014 A 
BRANCH  28  29
ATOM     29  C   UNL A   1      39.657  29.002  29.032  1.00  0.00     0.031 A 
ATOM     30  C   UNL A   1      40.574  30.082  29.539  1.00  0.00     0.074 A 
ATOM     31  C   UNL A   1      40.140  27.771  28.772  1.00  0.00     0.049 A 
ATOM     32  N   UNL A   1      41.880  30.106  29.587  1.00  0.00    -0.248 NA
ATOM     33  C   UNL A   1      39.930  31.306  30.048  1.00  0.00     0.031 C 
ATOM     34  C   UNL A   1      39.347  26.621  28.332  1.00  0.00     0.029 A 
ATOM     35  N   UNL A   1      41.425  27.288  28.819  1.00  0.00    -0.354 N 
ATOM     36  C   UNL A   1      42.217  31.354  30.098  1.00  0.00     0.074 A 
ATOM     37  C   UNL A   1      40.980  32.066  30.331  1.00  0.00     0.031 C 
ATOM     38  C   UNL A   1      40.162  25.570  28.143  1.00  0.00     0.029 A 
ATOM     39  C   UNL A   1      41.539  25.992  28.374  1.00  0.00     0.049 A 
ATOM     40  H   UNL A   1      42.190  27.819  29.138  1.00  0.00     0.167 HD
ATOM     41  C   UNL A   1      43.450  31.854  30.349  1.00  0.00     0.037 A 
ATOM     42  C   UNL A   1      42.633  25.244  28.129  1.00  0.00     0.037 A 
ATOM     43  C   UNL A   1      44.673  31.125  30.131  1.00  0.00     0.049 A 
ATOM     44  C   UNL A   1      43.995  25.848  28.342  1.00  0.00     0.074 A 
ATOM     45  C   UNL A   1      45.976  31.549  30.328  1.00  0.00     0.029 A 
ATOM     46  N   UNL A   1      44.741  29.815  29.682  1.00  0.00    -0.354 N 
ATOM     47  N   UNL A   1      44.306  27.048  28.770  1.00  0.00    -0.248 NA
ATOM     48  C   UNL A   1      45.156  25.004  28.023  1.00  0.00     0.031 C 
ATOM     49  C   UNL A   1      46.833  30.502  29.974  1.00  0.00     0.029 A 
ATOM     50  C   UNL A   1      46.063  29.414  29.596  1.00  0.00     0.049 A 
ATOM     51  H   UNL A   1      43.964  29.254  29.457  1.00  0.00     0.167 HD
ATOM     52  C   UNL A   1      45.695  27.090  28.808  1.00  0.00     0.074 A 
ATOM     53  C   UNL A   1      46.166  25.797  28.357  1.00  0.00     0.031 C 
ATOM     54  C   UNL A   1      46.507  28.108  29.182  1.00  0.00     0.037 A 
BRANCH  41  55
ATOM     55  C   UNL A   1      43.545  33.258  30.878  1.00  0.00     0.058 A 
ATOM     56  C   UNL A   1      43.591  33.524  32.255  1.00  0.00     0.135 A 
ATOM     57  C   UNL A   1      43.647  34.347  29.997  1.00  0.00     0.135 A 
ATOM     58  F   UNL A   1      43.479  32.521  33.140  1.00  0.00    -0.206 F 
ATOM     59  C   UNL A   1      43.720  34.821  32.742  1.00  0.00     0.059 A 
ATOM     60  C   UNL A   1      43.801  35.652  30.461  1.00  0.00     0.059 A 
ATOM     61  F   UNL A   1      43.608  34.150  28.670  1.00  0.00    -0.206 F 
ATOM     62  C   UNL A   1      43.826  35.879  31.836  1.00  0.00     0.060 A 
BRANCH  62  63
ATOM     63  S   UNL A   1      44.015  37.553  32.483  1.00  0.00     0.124 S 
ATOM     64  O   UNL A   1      42.990  37.582  33.522  1.00  0.00    -0.237 OA
ATOM     65  O   UNL A   1      45.396  37.552  32.958  1.00  0.00    -0.237 OA
ATOM     66  O   UNL A   1      43.756  38.399  31.323  1.00  0.00    -0.744 OA
ENDBRANCH  62  63
ENDBRANCH  41  55
BRANCH  42  67
ATOM     67  C   UNL A   1      42.493  23.854  27.613  1.00  0.00     0.058 A 
ATOM     68  C   UNL A   1      42.471  22.761  28.490  1.00  0.00     0.135 A 
ATOM     69  C   UNL A   1      42.399  23.591  26.237  1.00  0.00     0.135 A 
ATOM     70  F   UNL A   1      42.567  22.961  29.814  1.00  0.00    -0.206 F 
ATOM     71  C   UNL A   1      42.388  21.453  28.024  1.00  0.00     0.059 A 
ATOM     72  C   UNL A   1      42.287  22.293  25.748  1.00  0.00     0.059 A 
ATOM     73  F   UNL A   1      42.402  24.602  25.356  1.00  0.00    -0.206 F 
ATOM     74  C   UNL A   1      42.301  21.230  26.648  1.00  0.00     0.060 A 
BRANCH  74  75
ATOM     75  S   UNL A   1      42.180  19.530  26.049  1.00  0.00     0.124 S 
ATOM     76  O   UNL A   1      43.132  19.543  24.945  1.00  0.00    -0.237 OA
ATOM     77  O   UNL A   1      42.574  18.758  27.224  1.00  0.00    -0.237 OA
ATOM     78  O   UNL A   1      40.775  19.408  25.671  1.00  0.00    -0.744 OA
ENDBRANCH  74  75
ENDBRANCH  42  67
BRANCH  54  79
ATOM     79  C   UNL A   1      47.987  27.849  29.193  1.00  0.00     0.058 A 
ATOM     80  C   UNL A   1      48.652  27.413  30.348  1.00  0.00     0.135 A 
ATOM     81  C   UNL A   1      48.727  27.957  28.005  1.00  0.00     0.135 A 
ATOM     82  F   UNL A   1      47.989  27.302  31.509  1.00  0.00    -0.206 F 
ATOM     83  C   UNL A   1      50.006  27.095  30.325  1.00  0.00     0.059 A 
ATOM     84  C   UNL A   1      50.076  27.623  27.955  1.00  0.00     0.059 A 
ATOM     85  F   UNL A   1      48.133  28.365  26.873  1.00  0.00    -0.206 F 
ATOM     86  C   UNL A   1      50.707  27.196  29.122  1.00  0.00     0.060 A 
BRANCH  86  87
ATOM     87  S   UNL A   1      52.446  26.711  29.089  1.00  0.00     0.124 S 
ATOM     88  O   UNL A   1      52.556  25.918  30.309  1.00  0.00    -0.237 OA
ATOM     89  O   UNL A   1      52.540  25.964  27.838  1.00  0.00    -0.237 OA
ATOM     90  O   UNL A   1      53.156  27.987  29.103  1.00  0.00    -0.744 OA
ENDBRANCH  86  87
ENDBRANCH  54  79
ENDBRANCH  28  29
ENDBRANCH  21  23
ENDBRANCH  20  21
ENDBRANCH   1  20
TORSDOF 15
ENDMDL
