MODEL 1
REMARK VINA RESULT:      -9.3      0.000      0.000
REMARK SMILES O=C(CSc1ccc2ccccc2c1)OCCOC(=O)c1ccc(-c2c3nc(c(-c4c(F)cc(S(=O)(=O)[O-])cc4F)c4ccc([nH]4)c(-c4c(F)cc(S(=O)(=O)[O-])cc4F)c4nc(c(-c5c(F)cc(S(=O)(=O)[O-])cc5F)c5ccc2[nH]5)C=C4)C=C3)cc1
REMARK SMILES IDX 17 1 16 2 15 3 2 4 1 5 3 6 4 7 5 8 6 9 14 10 7 11 13 12 8 13
REMARK SMILES IDX 12 14 9 15 11 16 10 17 18 18 19 19 20 20 21 21 22 22 86 23
REMARK SMILES IDX 23 24 85 25 24 26 25 27 26 28 79 29 27 30 84 31 78 32 80 33
REMARK SMILES IDX 28 34 83 35 77 36 76 37 29 39 63 40 42 41 62 42 43 43 46 44
REMARK SMILES IDX 61 45 81 46 44 47 45 48 60 50 82 51 47 52 30 53 31 54 40 55
REMARK SMILES IDX 32 56 33 57 39 58 41 59 34 60 35 61 36 62 37 63 38 64 64 65
REMARK SMILES IDX 65 66 74 67 66 68 67 69 73 70 75 71 68 72 69 73 70 74 71 75
REMARK SMILES IDX 72 76 48 77 49 78 58 79 50 80 51 81 57 82 59 83 52 84 53 85
REMARK SMILES IDX 54 86 55 87 56 88
REMARK H PARENT 80 38 46 49
REMARK Flexibility Score: inf
ROOT
ATOM      1  C   UNL A   1      40.566  21.093  26.108  1.00  0.00     0.275 C 
ENDROOT
BRANCH   1   2
ATOM      2  C   UNL A   1      41.989  21.624  26.292  1.00  0.00     0.274 C 
BRANCH   2   3
ATOM      3  O   UNL A   1      42.437  22.298  25.097  1.00  0.00    -0.461 OA
BRANCH   3   4
ATOM      4  C   UNL A   1      43.739  22.531  24.801  1.00  0.00     0.316 C 
ATOM      5  O   UNL A   1      44.102  22.543  23.626  1.00  0.00    -0.251 OA
BRANCH   4   6
ATOM      6  C   UNL A   1      44.710  22.816  25.925  1.00  0.00     0.197 C 
BRANCH   6   7
ATOM      7  S   UNL A   1      46.094  23.867  25.374  1.00  0.00    -0.114 SA
BRANCH   7   8
ATOM      8  C   UNL A   1      45.526  25.471  25.911  1.00  0.00     0.008 A 
ATOM      9  C   UNL A   1      46.270  26.169  26.865  1.00  0.00     0.016 A 
ATOM     10  C   UNL A   1      44.335  26.027  25.439  1.00  0.00     0.023 A 
ATOM     11  C   UNL A   1      45.832  27.411  27.333  1.00  0.00     0.010 A 
ATOM     12  C   UNL A   1      43.891  27.282  25.882  1.00  0.00    -0.017 A 
ATOM     13  C   UNL A   1      44.643  27.980  26.852  1.00  0.00    -0.018 A 
ATOM     14  C   UNL A   1      42.713  27.853  25.375  1.00  0.00     0.009 A 
ATOM     15  C   UNL A   1      44.177  29.223  27.311  1.00  0.00     0.009 A 
ATOM     16  C   UNL A   1      42.269  29.091  25.836  1.00  0.00     0.001 A 
ATOM     17  C   UNL A   1      42.995  29.772  26.808  1.00  0.00     0.001 A 
ENDBRANCH   7   8
ENDBRANCH   6   7
ENDBRANCH   4   6
ENDBRANCH   3   4
ENDBRANCH   2   3
ENDBRANCH   1   2
BRANCH   1  18
ATOM     18  O   UNL A   1      39.658  21.858  26.921  1.00  0.00    -0.458 OA
BRANCH  18  19
ATOM     19  C   UNL A   1      39.000  22.868  26.299  1.00  0.00     0.338 C 
ATOM     20  O   UNL A   1      38.148  22.762  25.433  1.00  0.00    -0.246 OA
BRANCH  19  21
ATOM     21  C   UNL A   1      39.348  24.138  26.975  1.00  0.00     0.060 A 
ATOM     22  C   UNL A   1      40.144  25.067  26.294  1.00  0.00     0.016 A 
ATOM     23  C   UNL A   1      38.871  24.426  28.259  1.00  0.00     0.016 A 
ATOM     24  C   UNL A   1      40.473  26.284  26.899  1.00  0.00     0.010 A 
ATOM     25  C   UNL A   1      39.207  25.638  28.864  1.00  0.00     0.010 A 
ATOM     26  C   UNL A   1      40.021  26.569  28.195  1.00  0.00    -0.014 A 
BRANCH  26  27
ATOM     27  C   UNL A   1      40.464  27.789  28.910  1.00  0.00     0.031 A 
ATOM     28  C   UNL A   1      41.778  27.772  29.639  1.00  0.00     0.074 A 
ATOM     29  C   UNL A   1      39.673  28.878  28.967  1.00  0.00     0.049 A 
ATOM     30  N   UNL A   1      42.302  28.682  30.418  1.00  0.00    -0.248 NA
ATOM     31  C   UNL A   1      42.605  26.567  29.476  1.00  0.00     0.031 C 
ATOM     32  C   UNL A   1      38.382  29.022  28.297  1.00  0.00     0.029 A 
ATOM     33  N   UNL A   1      39.832  30.060  29.648  1.00  0.00    -0.354 N 
ATOM     34  C   UNL A   1      43.515  28.158  30.846  1.00  0.00     0.074 A 
ATOM     35  C   UNL A   1      43.643  26.844  30.254  1.00  0.00     0.031 C 
ATOM     36  C   UNL A   1      37.849  30.211  28.629  1.00  0.00     0.029 A 
ATOM     37  C   UNL A   1      38.748  30.899  29.555  1.00  0.00     0.049 A 
ATOM     38  H   UNL A   1      40.645  30.285  30.155  1.00  0.00     0.167 HD
ATOM     39  C   UNL A   1      44.440  28.723  31.657  1.00  0.00     0.037 A 
ATOM     40  C   UNL A   1      38.494  32.070  30.174  1.00  0.00     0.037 A 
ATOM     41  C   UNL A   1      44.318  30.033  32.238  1.00  0.00     0.049 A 
ATOM     42  C   UNL A   1      39.513  32.650  31.122  1.00  0.00     0.074 A 
ATOM     43  C   UNL A   1      45.240  30.717  33.013  1.00  0.00     0.029 A 
ATOM     44  N   UNL A   1      43.203  30.848  32.128  1.00  0.00    -0.354 N 
ATOM     45  N   UNL A   1      40.689  32.178  31.458  1.00  0.00    -0.248 NA
ATOM     46  C   UNL A   1      39.167  33.919  31.783  1.00  0.00     0.031 C 
ATOM     47  C   UNL A   1      44.661  31.925  33.414  1.00  0.00     0.029 A 
ATOM     48  C   UNL A   1      43.396  32.012  32.854  1.00  0.00     0.049 A 
ATOM     49  H   UNL A   1      42.395  30.633  31.610  1.00  0.00     0.167 HD
ATOM     50  C   UNL A   1      41.230  33.099  32.349  1.00  0.00     0.074 A 
ATOM     51  C   UNL A   1      40.258  34.162  32.495  1.00  0.00     0.031 C 
ATOM     52  C   UNL A   1      42.424  33.067  32.989  1.00  0.00     0.037 A 
BRANCH  39  53
ATOM     53  C   UNL A   1      45.665  27.922  31.984  1.00  0.00     0.058 A 
ATOM     54  C   UNL A   1      45.708  27.062  33.091  1.00  0.00     0.135 A 
ATOM     55  C   UNL A   1      46.788  27.969  31.142  1.00  0.00     0.135 A 
ATOM     56  F   UNL A   1      44.665  26.993  33.934  1.00  0.00    -0.206 F 
ATOM     57  C   UNL A   1      46.828  26.283  33.361  1.00  0.00     0.059 A 
ATOM     58  C   UNL A   1      47.912  27.186  31.383  1.00  0.00     0.059 A 
ATOM     59  F   UNL A   1      46.797  28.782  30.074  1.00  0.00    -0.206 F 
ATOM     60  C   UNL A   1      47.924  26.352  32.500  1.00  0.00     0.060 A 
BRANCH  60  61
ATOM     61  S   UNL A   1      49.363  25.318  32.849  1.00  0.00     0.124 S 
ATOM     62  O   UNL A   1      48.770  24.262  33.665  1.00  0.00    -0.237 OA
ATOM     63  O   UNL A   1      49.795  24.920  31.514  1.00  0.00    -0.237 OA
ATOM     64  O   UNL A   1      50.267  26.221  33.555  1.00  0.00    -0.744 OA
ENDBRANCH  60  61
ENDBRANCH  39  53
BRANCH  40  65
ATOM     65  C   UNL A   1      37.197  32.765  29.954  1.00  0.00     0.058 A 
ATOM     66  C   UNL A   1      37.074  33.790  29.005  1.00  0.00     0.135 A 
ATOM     67  C   UNL A   1      36.064  32.437  30.714  1.00  0.00     0.135 A 
ATOM     68  F   UNL A   1      38.135  34.148  28.265  1.00  0.00    -0.206 F 
ATOM     69  C   UNL A   1      35.880  34.481  28.830  1.00  0.00     0.059 A 
ATOM     70  C   UNL A   1      34.852  33.099  30.543  1.00  0.00     0.059 A 
ATOM     71  F   UNL A   1      36.128  31.458  31.630  1.00  0.00    -0.206 F 
ATOM     72  C   UNL A   1      34.775  34.130  29.607  1.00  0.00     0.060 A 
BRANCH  72  73
ATOM     73  S   UNL A   1      33.219  35.012  29.358  1.00  0.00     0.124 S 
ATOM     74  O   UNL A   1      32.557  34.166  28.372  1.00  0.00    -0.237 OA
ATOM     75  O   UNL A   1      32.641  35.005  30.698  1.00  0.00    -0.237 OA
ATOM     76  O   UNL A   1      33.652  36.322  28.879  1.00  0.00    -0.744 OA
ENDBRANCH  72  73
ENDBRANCH  40  65
BRANCH  52  77
ATOM     77  C   UNL A   1      42.768  34.216  33.895  1.00  0.00     0.058 A 
ATOM     78  C   UNL A   1      42.579  34.135  35.283  1.00  0.00     0.135 A 
ATOM     79  C   UNL A   1      43.373  35.375  33.381  1.00  0.00     0.135 A 
ATOM     80  F   UNL A   1      41.998  33.052  35.824  1.00  0.00    -0.206 F 
ATOM     81  C   UNL A   1      42.975  35.165  36.131  1.00  0.00     0.059 A 
ATOM     82  C   UNL A   1      43.796  36.407  34.212  1.00  0.00     0.059 A 
ATOM     83  F   UNL A   1      43.583  35.498  32.061  1.00  0.00    -0.206 F 
ATOM     84  C   UNL A   1      43.589  36.295  35.586  1.00  0.00     0.060 A 
BRANCH  84  85
ATOM     85  S   UNL A   1      44.158  37.596  36.703  1.00  0.00     0.124 S 
ATOM     86  O   UNL A   1      44.130  38.766  35.832  1.00  0.00    -0.237 OA
ATOM     87  O   UNL A   1      43.150  37.567  37.759  1.00  0.00    -0.237 OA
ATOM     88  O   UNL A   1      45.486  37.141  37.102  1.00  0.00    -0.744 OA
ENDBRANCH  84  85
ENDBRANCH  52  77
ENDBRANCH  26  27
ENDBRANCH  19  21
ENDBRANCH  18  19
ENDBRANCH   1  18
TORSDOF 16
ENDMDL
MODEL 2
REMARK VINA RESULT:      -9.1      2.699     10.785
REMARK SMILES O=C(CSc1ccc2ccccc2c1)OCCOC(=O)c1ccc(-c2c3nc(c(-c4c(F)cc(S(=O)(=O)[O-])cc4F)c4ccc([nH]4)c(-c4c(F)cc(S(=O)(=O)[O-])cc4F)c4nc(c(-c5c(F)cc(S(=O)(=O)[O-])cc5F)c5ccc2[nH]5)C=C4)C=C3)cc1
REMARK SMILES IDX 17 1 16 2 15 3 2 4 1 5 3 6 4 7 5 8 6 9 14 10 7 11 13 12 8 13
REMARK SMILES IDX 12 14 9 15 11 16 10 17 18 18 19 19 20 20 21 21 22 22 86 23
REMARK SMILES IDX 23 24 85 25 24 26 25 27 26 28 79 29 27 30 84 31 78 32 80 33
REMARK SMILES IDX 28 34 83 35 77 36 76 37 29 39 63 40 42 41 62 42 43 43 46 44
REMARK SMILES IDX 61 45 81 46 44 47 45 48 60 50 82 51 47 52 30 53 31 54 40 55
REMARK SMILES IDX 32 56 33 57 39 58 41 59 34 60 35 61 36 62 37 63 38 64 64 65
REMARK SMILES IDX 65 66 74 67 66 68 67 69 73 70 75 71 68 72 69 73 70 74 71 75
REMARK SMILES IDX 72 76 48 77 49 78 58 79 50 80 51 81 57 82 59 83 52 84 53 85
REMARK SMILES IDX 54 86 55 87 56 88
REMARK H PARENT 80 38 46 49
REMARK Flexibility Score: inf
ROOT
ATOM      1  C   UNL A   1      34.097  32.845  29.074  1.00  0.00     0.275 C 
ENDROOT
BRANCH   1   2
ATOM      2  C   UNL A   1      33.628  34.302  29.034  1.00  0.00     0.274 C 
BRANCH   2   3
ATOM      3  O   UNL A   1      32.917  34.638  30.244  1.00  0.00    -0.461 OA
BRANCH   3   4
ATOM      4  C   UNL A   1      33.031  35.827  30.884  1.00  0.00     0.316 C 
ATOM      5  O   UNL A   1      32.570  36.843  30.366  1.00  0.00    -0.251 OA
BRANCH   4   6
ATOM      6  C   UNL A   1      33.686  35.870  32.246  1.00  0.00     0.197 C 
BRANCH   6   7
ATOM      7  S   UNL A   1      34.162  34.207  32.822  1.00  0.00    -0.114 SA
BRANCH   7   8
ATOM      8  C   UNL A   1      35.933  34.275  32.605  1.00  0.00     0.008 A 
ATOM      9  C   UNL A   1      36.743  34.497  33.720  1.00  0.00     0.016 A 
ATOM     10  C   UNL A   1      36.525  34.159  31.346  1.00  0.00     0.023 A 
ATOM     11  C   UNL A   1      38.130  34.592  33.577  1.00  0.00     0.010 A 
ATOM     12  C   UNL A   1      37.917  34.230  31.187  1.00  0.00    -0.017 A 
ATOM     13  C   UNL A   1      38.732  34.463  32.316  1.00  0.00    -0.018 A 
ATOM     14  C   UNL A   1      38.509  34.074  29.924  1.00  0.00     0.009 A 
ATOM     15  C   UNL A   1      40.123  34.561  32.144  1.00  0.00     0.009 A 
ATOM     16  C   UNL A   1      39.892  34.167  29.772  1.00  0.00     0.001 A 
ATOM     17  C   UNL A   1      40.697  34.418  30.879  1.00  0.00     0.001 A 
ENDBRANCH   7   8
ENDBRANCH   6   7
ENDBRANCH   4   6
ENDBRANCH   3   4
ENDBRANCH   2   3
ENDBRANCH   1   2
BRANCH   1  18
ATOM     18  O   UNL A   1      34.505  32.434  27.757  1.00  0.00    -0.458 OA
BRANCH  18  19
ATOM     19  C   UNL A   1      34.575  31.097  27.539  1.00  0.00     0.338 C 
ATOM     20  O   UNL A   1      33.846  30.434  26.821  1.00  0.00    -0.246 OA
BRANCH  19  21
ATOM     21  C   UNL A   1      35.810  30.586  28.175  1.00  0.00     0.060 A 
ATOM     22  C   UNL A   1      35.706  29.545  29.106  1.00  0.00     0.016 A 
ATOM     23  C   UNL A   1      37.064  31.104  27.836  1.00  0.00     0.016 A 
ATOM     24  C   UNL A   1      36.857  29.027  29.708  1.00  0.00     0.010 A 
ATOM     25  C   UNL A   1      38.211  30.590  28.444  1.00  0.00     0.010 A 
ATOM     26  C   UNL A   1      38.114  29.559  29.394  1.00  0.00    -0.014 A 
BRANCH  26  27
ATOM     27  C   UNL A   1      39.334  29.121  30.113  1.00  0.00     0.031 A 
ATOM     28  C   UNL A   1      39.739  29.842  31.369  1.00  0.00     0.074 A 
ATOM     29  C   UNL A   1      40.110  28.138  29.618  1.00  0.00     0.049 A 
ATOM     30  N   UNL A   1      40.821  29.701  32.089  1.00  0.00    -0.248 NA
ATOM     31  C   UNL A   1      38.805  30.861  31.873  1.00  0.00     0.031 C 
ATOM     32  C   UNL A   1      39.822  27.359  28.415  1.00  0.00     0.029 A 
ATOM     33  N   UNL A   1      41.318  27.651  30.054  1.00  0.00    -0.354 N 
ATOM     34  C   UNL A   1      40.705  30.619  33.126  1.00  0.00     0.074 A 
ATOM     35  C   UNL A   1      39.456  31.322  32.933  1.00  0.00     0.031 C 
ATOM     36  C   UNL A   1      40.844  26.514  28.189  1.00  0.00     0.029 A 
ATOM     37  C   UNL A   1      41.868  26.712  29.214  1.00  0.00     0.049 A 
ATOM     38  H   UNL A   1      41.748  27.946  30.888  1.00  0.00     0.167 HD
ATOM     39  C   UNL A   1      41.562  30.850  34.148  1.00  0.00     0.037 A 
ATOM     40  C   UNL A   1      43.073  26.109  29.249  1.00  0.00     0.037 A 
ATOM     41  C   UNL A   1      42.800  30.145  34.345  1.00  0.00     0.049 A 
ATOM     42  C   UNL A   1      44.037  26.431  30.363  1.00  0.00     0.074 A 
ATOM     43  C   UNL A   1      43.696  30.262  35.394  1.00  0.00     0.029 A 
ATOM     44  N   UNL A   1      43.327  29.208  33.471  1.00  0.00    -0.354 N 
ATOM     45  N   UNL A   1      43.882  27.245  31.378  1.00  0.00    -0.248 NA
ATOM     46  C   UNL A   1      45.345  25.756  30.332  1.00  0.00     0.031 C 
ATOM     47  C   UNL A   1      44.790  29.433  35.127  1.00  0.00     0.029 A 
ATOM     48  C   UNL A   1      44.556  28.768  33.935  1.00  0.00     0.049 A 
ATOM     49  H   UNL A   1      42.891  28.900  32.644  1.00  0.00     0.167 HD
ATOM     50  C   UNL A   1      45.059  27.165  32.116  1.00  0.00     0.074 A 
ATOM     51  C   UNL A   1      45.915  26.216  31.437  1.00  0.00     0.031 C 
ATOM     52  C   UNL A   1      45.399  27.819  33.253  1.00  0.00     0.037 A 
BRANCH  39  53
ATOM     53  C   UNL A   1      41.204  31.927  35.129  1.00  0.00     0.058 A 
ATOM     54  C   UNL A   1      41.746  33.217  35.036  1.00  0.00     0.135 A 
ATOM     55  C   UNL A   1      40.258  31.680  36.137  1.00  0.00     0.135 A 
ATOM     56  F   UNL A   1      42.666  33.497  34.099  1.00  0.00    -0.206 F 
ATOM     57  C   UNL A   1      41.372  34.225  35.917  1.00  0.00     0.059 A 
ATOM     58  C   UNL A   1      39.856  32.678  37.018  1.00  0.00     0.059 A 
ATOM     59  F   UNL A   1      39.715  30.460  36.270  1.00  0.00    -0.206 F 
ATOM     60  C   UNL A   1      40.425  33.946  36.904  1.00  0.00     0.060 A 
BRANCH  60  61
ATOM     61  S   UNL A   1      39.932  35.271  38.028  1.00  0.00     0.124 S 
ATOM     62  O   UNL A   1      38.733  34.704  38.637  1.00  0.00    -0.237 OA
ATOM     63  O   UNL A   1      41.094  35.387  38.904  1.00  0.00    -0.237 OA
ATOM     64  O   UNL A   1      39.707  36.405  37.137  1.00  0.00    -0.744 OA
ENDBRANCH  60  61
ENDBRANCH  39  53
BRANCH  40  65
ATOM     65  C   UNL A   1      43.466  25.164  28.170  1.00  0.00     0.058 A 
ATOM     66  C   UNL A   1      43.276  23.782  28.311  1.00  0.00     0.135 A 
ATOM     67  C   UNL A   1      44.071  25.625  26.991  1.00  0.00     0.135 A 
ATOM     68  F   UNL A   1      42.716  23.293  29.429  1.00  0.00    -0.206 F 
ATOM     69  C   UNL A   1      43.690  22.886  27.330  1.00  0.00     0.059 A 
ATOM     70  C   UNL A   1      44.473  24.751  25.985  1.00  0.00     0.059 A 
ATOM     71  F   UNL A   1      44.267  26.940  26.804  1.00  0.00    -0.206 F 
ATOM     72  C   UNL A   1      44.290  23.381  26.172  1.00  0.00     0.060 A 
BRANCH  72  73
ATOM     73  S   UNL A   1      44.802  22.216  24.889  1.00  0.00     0.124 S 
ATOM     74  O   UNL A   1      43.684  21.278  24.884  1.00  0.00    -0.237 OA
ATOM     75  O   UNL A   1      44.920  23.077  23.718  1.00  0.00    -0.237 OA
ATOM     76  O   UNL A   1      46.065  21.692  25.401  1.00  0.00    -0.744 OA
ENDBRANCH  72  73
ENDBRANCH  40  65
BRANCH  52  77
ATOM     77  C   UNL A   1      46.745  27.529  33.856  1.00  0.00     0.058 A 
ATOM     78  C   UNL A   1      46.914  26.528  34.823  1.00  0.00     0.135 A 
ATOM     79  C   UNL A   1      47.891  28.200  33.398  1.00  0.00     0.135 A 
ATOM     80  F   UNL A   1      45.850  25.863  35.300  1.00  0.00    -0.206 F 
ATOM     81  C   UNL A   1      48.173  26.203  35.320  1.00  0.00     0.059 A 
ATOM     82  C   UNL A   1      49.161  27.876  33.864  1.00  0.00     0.059 A 
ATOM     83  F   UNL A   1      47.786  29.161  32.466  1.00  0.00    -0.206 F 
ATOM     84  C   UNL A   1      49.291  26.879  34.829  1.00  0.00     0.060 A 
BRANCH  84  85
ATOM     85  S   UNL A   1      50.926  26.402  35.433  1.00  0.00     0.124 S 
ATOM     86  O   UNL A   1      50.811  26.695  36.858  1.00  0.00    -0.237 OA
ATOM     87  O   UNL A   1      50.992  24.988  35.080  1.00  0.00    -0.237 OA
ATOM     88  O   UNL A   1      51.830  27.270  34.685  1.00  0.00    -0.744 OA
ENDBRANCH  84  85
ENDBRANCH  52  77
ENDBRANCH  26  27
ENDBRANCH  19  21
ENDBRANCH  18  19
ENDBRANCH   1  18
TORSDOF 16
ENDMDL
MODEL 3
REMARK VINA RESULT:      -9.1      2.860      4.302
REMARK SMILES O=C(CSc1ccc2ccccc2c1)OCCOC(=O)c1ccc(-c2c3nc(c(-c4c(F)cc(S(=O)(=O)[O-])cc4F)c4ccc([nH]4)c(-c4c(F)cc(S(=O)(=O)[O-])cc4F)c4nc(c(-c5c(F)cc(S(=O)(=O)[O-])cc5F)c5ccc2[nH]5)C=C4)C=C3)cc1
REMARK SMILES IDX 17 1 16 2 15 3 2 4 1 5 3 6 4 7 5 8 6 9 14 10 7 11 13 12 8 13
REMARK SMILES IDX 12 14 9 15 11 16 10 17 18 18 19 19 20 20 21 21 22 22 86 23
REMARK SMILES IDX 23 24 85 25 24 26 25 27 26 28 79 29 27 30 84 31 78 32 80 33
REMARK SMILES IDX 28 34 83 35 77 36 76 37 29 39 63 40 42 41 62 42 43 43 46 44
REMARK SMILES IDX 61 45 81 46 44 47 45 48 60 50 82 51 47 52 30 53 31 54 40 55
REMARK SMILES IDX 32 56 33 57 39 58 41 59 34 60 35 61 36 62 37 63 38 64 64 65
REMARK SMILES IDX 65 66 74 67 66 68 67 69 73 70 75 71 68 72 69 73 70 74 71 75
REMARK SMILES IDX 72 76 48 77 49 78 58 79 50 80 51 81 57 82 59 83 52 84 53 85
REMARK SMILES IDX 54 86 55 87 56 88
REMARK H PARENT 80 38 46 49
REMARK Flexibility Score: inf
ROOT
ATOM      1  C   UNL A   1      42.565  22.841  25.889  1.00  0.00     0.275 C 
ENDROOT
BRANCH   1   2
ATOM      2  C   UNL A   1      43.431  22.989  24.636  1.00  0.00     0.274 C 
BRANCH   2   3
ATOM      3  O   UNL A   1      44.831  23.009  24.986  1.00  0.00    -0.461 OA
BRANCH   3   4
ATOM      4  C   UNL A   1      45.500  24.122  25.372  1.00  0.00     0.316 C 
ATOM      5  O   UNL A   1      45.513  25.108  24.636  1.00  0.00    -0.251 OA
BRANCH   4   6
ATOM      6  C   UNL A   1      46.179  24.143  26.723  1.00  0.00     0.197 C 
BRANCH   6   7
ATOM      7  S   UNL A   1      45.755  25.641  27.671  1.00  0.00    -0.114 SA
BRANCH   7   8
ATOM      8  C   UNL A   1      45.223  24.918  29.213  1.00  0.00     0.008 A 
ATOM      9  C   UNL A   1      44.276  23.893  29.190  1.00  0.00     0.016 A 
ATOM     10  C   UNL A   1      45.693  25.381  30.444  1.00  0.00     0.023 A 
ATOM     11  C   UNL A   1      43.812  23.332  30.383  1.00  0.00     0.010 A 
ATOM     12  C   UNL A   1      45.255  24.815  31.651  1.00  0.00    -0.017 A 
ATOM     13  C   UNL A   1      44.291  23.784  31.622  1.00  0.00    -0.018 A 
ATOM     14  C   UNL A   1      45.759  25.259  32.883  1.00  0.00     0.009 A 
ATOM     15  C   UNL A   1      43.835  23.242  32.836  1.00  0.00     0.009 A 
ATOM     16  C   UNL A   1      45.302  24.705  34.078  1.00  0.00     0.001 A 
ATOM     17  C   UNL A   1      44.336  23.703  34.055  1.00  0.00     0.001 A 
ENDBRANCH   7   8
ENDBRANCH   6   7
ENDBRANCH   4   6
ENDBRANCH   3   4
ENDBRANCH   2   3
ENDBRANCH   1   2
BRANCH   1  18
ATOM     18  O   UNL A   1      42.114  24.138  26.318  1.00  0.00    -0.458 OA
BRANCH  18  19
ATOM     19  C   UNL A   1      40.851  24.202  26.813  1.00  0.00     0.338 C 
ATOM     20  O   UNL A   1      39.960  23.388  26.647  1.00  0.00    -0.246 OA
BRANCH  19  21
ATOM     21  C   UNL A   1      40.777  25.340  27.755  1.00  0.00     0.060 A 
ATOM     22  C   UNL A   1      41.842  26.249  27.797  1.00  0.00     0.016 A 
ATOM     23  C   UNL A   1      39.657  25.530  28.571  1.00  0.00     0.016 A 
ATOM     24  C   UNL A   1      41.792  27.346  28.663  1.00  0.00     0.010 A 
ATOM     25  C   UNL A   1      39.612  26.623  29.439  1.00  0.00     0.010 A 
ATOM     26  C   UNL A   1      40.684  27.529  29.502  1.00  0.00    -0.014 A 
BRANCH  26  27
ATOM     27  C   UNL A   1      40.664  28.605  30.521  1.00  0.00     0.031 A 
ATOM     28  C   UNL A   1      41.554  28.486  31.726  1.00  0.00     0.074 A 
ATOM     29  C   UNL A   1      39.813  29.643  30.409  1.00  0.00     0.049 A 
ATOM     30  N   UNL A   1      41.613  29.248  32.787  1.00  0.00    -0.248 NA
ATOM     31  C   UNL A   1      42.494  27.354  31.741  1.00  0.00     0.031 C 
ATOM     32  C   UNL A   1      38.907  29.876  29.286  1.00  0.00     0.029 A 
ATOM     33  N   UNL A   1      39.554  30.680  31.271  1.00  0.00    -0.354 N 
ATOM     34  C   UNL A   1      42.588  28.684  33.601  1.00  0.00     0.074 A 
ATOM     35  C   UNL A   1      43.083  27.508  32.919  1.00  0.00     0.031 C 
ATOM     36  C   UNL A   1      38.165  30.968  29.545  1.00  0.00     0.029 A 
ATOM     37  C   UNL A   1      38.525  31.494  30.861  1.00  0.00     0.049 A 
ATOM     38  H   UNL A   1      40.058  30.827  32.104  1.00  0.00     0.167 HD
ATOM     39  C   UNL A   1      43.032  29.111  34.806  1.00  0.00     0.037 A 
ATOM     40  C   UNL A   1      37.919  32.521  31.490  1.00  0.00     0.037 A 
ATOM     41  C   UNL A   1      42.546  30.285  35.481  1.00  0.00     0.049 A 
ATOM     42  C   UNL A   1      38.390  32.939  32.861  1.00  0.00     0.074 A 
ATOM     43  C   UNL A   1      42.991  30.835  36.672  1.00  0.00     0.029 A 
ATOM     44  N   UNL A   1      41.500  31.077  35.039  1.00  0.00    -0.354 N 
ATOM     45  N   UNL A   1      39.364  32.443  33.585  1.00  0.00    -0.248 NA
ATOM     46  C   UNL A   1      37.674  34.052  33.504  1.00  0.00     0.031 C 
ATOM     47  C   UNL A   1      42.177  31.932  36.975  1.00  0.00     0.029 A 
ATOM     48  C   UNL A   1      41.255  32.089  35.953  1.00  0.00     0.049 A 
ATOM     49  H   UNL A   1      41.005  30.942  34.199  1.00  0.00     0.167 HD
ATOM     50  C   UNL A   1      39.391  33.195  34.755  1.00  0.00     0.074 A 
ATOM     51  C   UNL A   1      38.343  34.186  34.641  1.00  0.00     0.031 C 
ATOM     52  C   UNL A   1      40.211  33.075  35.827  1.00  0.00     0.037 A 
BRANCH  39  53
ATOM     53  C   UNL A   1      44.088  28.295  35.491  1.00  0.00     0.058 A 
ATOM     54  C   UNL A   1      45.452  28.495  35.237  1.00  0.00     0.135 A 
ATOM     55  C   UNL A   1      43.730  27.342  36.459  1.00  0.00     0.135 A 
ATOM     56  F   UNL A   1      45.844  29.383  34.309  1.00  0.00    -0.206 F 
ATOM     57  C   UNL A   1      46.429  27.770  35.911  1.00  0.00     0.059 A 
ATOM     58  C   UNL A   1      44.690  26.619  37.158  1.00  0.00     0.059 A 
ATOM     59  F   UNL A   1      42.437  27.110  36.732  1.00  0.00    -0.206 F 
ATOM     60  C   UNL A   1      46.037  26.835  36.871  1.00  0.00     0.060 A 
BRANCH  60  61
ATOM     61  S   UNL A   1      47.317  25.918  37.755  1.00  0.00     0.124 S 
ATOM     62  O   UNL A   1      47.732  26.893  38.759  1.00  0.00    -0.237 OA
ATOM     63  O   UNL A   1      46.582  24.763  38.261  1.00  0.00    -0.237 OA
ATOM     64  O   UNL A   1      48.303  25.626  36.719  1.00  0.00    -0.744 OA
ENDBRANCH  60  61
ENDBRANCH  39  53
BRANCH  40  65
ATOM     65  C   UNL A   1      36.766  33.210  30.854  1.00  0.00     0.058 A 
ATOM     66  C   UNL A   1      35.451  32.966  31.274  1.00  0.00     0.135 A 
ATOM     67  C   UNL A   1      36.957  34.104  29.789  1.00  0.00     0.135 A 
ATOM     68  F   UNL A   1      35.218  32.107  32.279  1.00  0.00    -0.206 F 
ATOM     69  C   UNL A   1      34.363  33.566  30.648  1.00  0.00     0.059 A 
ATOM     70  C   UNL A   1      35.887  34.734  29.161  1.00  0.00     0.059 A 
ATOM     71  F   UNL A   1      38.198  34.378  29.354  1.00  0.00    -0.206 F 
ATOM     72  C   UNL A   1      34.592  34.446  29.590  1.00  0.00     0.060 A 
BRANCH  72  73
ATOM     73  S   UNL A   1      33.177  35.243  28.799  1.00  0.00     0.124 S 
ATOM     74  O   UNL A   1      32.618  34.142  28.023  1.00  0.00    -0.237 OA
ATOM     75  O   UNL A   1      32.389  35.683  29.944  1.00  0.00    -0.237 OA
ATOM     76  O   UNL A   1      33.792  36.316  28.022  1.00  0.00    -0.744 OA
ENDBRANCH  72  73
ENDBRANCH  40  65
BRANCH  52  77
ATOM     77  C   UNL A   1      40.030  34.041  36.963  1.00  0.00     0.058 A 
ATOM     78  C   UNL A   1      40.641  35.304  36.956  1.00  0.00     0.135 A 
ATOM     79  C   UNL A   1      39.166  33.737  38.029  1.00  0.00     0.135 A 
ATOM     80  F   UNL A   1      41.482  35.641  35.965  1.00  0.00    -0.206 F 
ATOM     81  C   UNL A   1      40.407  36.231  37.967  1.00  0.00     0.059 A 
ATOM     82  C   UNL A   1      38.900  34.656  39.038  1.00  0.00     0.059 A 
ATOM     83  F   UNL A   1      38.549  32.546  38.079  1.00  0.00    -0.206 F 
ATOM     84  C   UNL A   1      39.529  35.900  39.001  1.00  0.00     0.060 A 
BRANCH  84  85
ATOM     85  S   UNL A   1      39.182  37.136  40.272  1.00  0.00     0.124 S 
ATOM     86  O   UNL A   1      40.525  37.474  40.731  1.00  0.00    -0.237 OA
ATOM     87  O   UNL A   1      38.489  38.176  39.518  1.00  0.00    -0.237 OA
ATOM     88  O   UNL A   1      38.354  36.411  41.232  1.00  0.00    -0.744 OA
ENDBRANCH  84  85
ENDBRANCH  52  77
ENDBRANCH  26  27
ENDBRANCH  19  21
ENDBRANCH  18  19
ENDBRANCH   1  18
TORSDOF 16
ENDMDL
