MODEL 1
REMARK VINA RESULT:     -11.1      0.000      0.000
REMARK SMILES CCc1cc(Nc2ccc(C(=O)OCCOC(=O)c3ccc(-c4c5nc(c(-c6c(F)cc(S(=O)(=O)[O-])cc6F)c6ccc([nH]6)c(-c6c(F)cc(S(=O)(=O)[O-])cc6F)c6nc(c(-c7c(F)cc(S(=O)(=O)[O-])cc7F)c7ccc4[nH]7)C=C6)C=C5)cc3)cc2)nc(C(C)C)n1
REMARK SMILES IDX 14 1 13 2 11 3 12 4 10 5 7 6 8 7 86 8 9 9 85 10 6 11 5 13
REMARK SMILES IDX 3 14 4 15 92 16 88 17 87 18 2 19 1 20 89 21 90 22 91 23
REMARK SMILES IDX 15 24 16 25 17 26 18 27 19 28 20 29 84 30 21 31 83 32 22 33
REMARK SMILES IDX 23 34 24 35 77 36 25 37 82 38 76 39 78 40 26 41 81 42 75 43
REMARK SMILES IDX 74 44 27 46 61 47 40 48 60 49 41 50 44 51 59 52 79 53 42 54
REMARK SMILES IDX 43 55 58 57 80 58 45 59 28 60 29 61 38 62 30 63 31 64 37 65
REMARK SMILES IDX 39 66 32 67 33 68 34 69 35 70 36 71 62 72 63 73 72 74 64 75
REMARK SMILES IDX 65 76 71 77 73 78 66 79 67 80 68 81 69 82 70 83 46 84 47 85
REMARK SMILES IDX 56 86 48 87 49 88 55 89 57 90 50 91 51 92 52 93 53 94 54 95
REMARK H PARENT 6 12 78 45 44 56
REMARK Flexibility Score: inf
ROOT
ATOM      1  C   UNL A   1      32.913  30.825  27.410  1.00  0.00     0.275 C 
ENDROOT
BRANCH   1   2
ATOM      2  O   UNL A   1      32.449  29.978  26.340  1.00  0.00    -0.458 OA
BRANCH   2   3
ATOM      3  C   UNL A   1      32.161  28.705  26.709  1.00  0.00     0.338 C 
ATOM      4  O   UNL A   1      31.732  28.338  27.791  1.00  0.00    -0.246 OA
BRANCH   3   5
ATOM      5  C   UNL A   1      32.378  27.772  25.584  1.00  0.00     0.060 A 
ATOM      6  C   UNL A   1      32.956  25.790  23.687  1.00  0.00     0.040 A 
ATOM      7  C   UNL A   1      31.906  25.612  24.591  1.00  0.00     0.027 A 
ATOM      8  C   UNL A   1      33.682  26.991  23.713  1.00  0.00     0.027 A 
ATOM      9  C   UNL A   1      31.638  26.586  25.550  1.00  0.00     0.018 A 
ATOM     10  C   UNL A   1      33.384  27.992  24.643  1.00  0.00     0.018 A 
BRANCH   6  11
ATOM     11  N   UNL A   1      33.401  24.680  22.937  1.00  0.00    -0.340 N 
ATOM     12  H   UNL A   1      33.462  24.769  21.959  1.00  0.00     0.168 HD
BRANCH  11  13
ATOM     13  C   UNL A   1      33.763  23.448  23.526  1.00  0.00     0.134 A 
ATOM     14  C   UNL A   1      33.292  21.198  24.046  1.00  0.00     0.046 A 
ATOM     15  C   UNL A   1      32.908  22.370  23.420  1.00  0.00     0.071 A 
ATOM     16  N   UNL A   1      34.469  21.081  24.695  1.00  0.00    -0.238 NA
ATOM     17  C   UNL A   1      35.246  22.176  24.745  1.00  0.00     0.133 A 
ATOM     18  N   UNL A   1      34.938  23.345  24.169  1.00  0.00    -0.216 NA
BRANCH  14  19
ATOM     19  C   UNL A   1      32.413  19.975  23.978  1.00  0.00     0.053 C 
ATOM     20  C   UNL A   1      32.856  18.881  24.940  1.00  0.00     0.011 C 
ENDBRANCH  14  19
BRANCH  17  21
ATOM     21  C   UNL A   1      36.574  22.105  25.462  1.00  0.00     0.051 C 
ATOM     22  C   UNL A   1      37.460  20.997  24.896  1.00  0.00     0.016 C 
ATOM     23  C   UNL A   1      37.276  23.460  25.416  1.00  0.00     0.016 C 
ENDBRANCH  17  21
ENDBRANCH  11  13
ENDBRANCH   6  11
ENDBRANCH   3   5
ENDBRANCH   2   3
ENDBRANCH   1   2
BRANCH   1  24
ATOM     24  C   UNL A   1      34.429  31.003  27.339  1.00  0.00     0.275 C 
BRANCH  24  25
ATOM     25  O   UNL A   1      35.070  30.080  28.237  1.00  0.00    -0.458 OA
BRANCH  25  26
ATOM     26  C   UNL A   1      35.987  30.614  29.077  1.00  0.00     0.338 C 
ATOM     27  O   UNL A   1      35.806  31.520  29.872  1.00  0.00    -0.246 OA
BRANCH  26  28
ATOM     28  C   UNL A   1      37.297  29.947  28.901  1.00  0.00     0.060 A 
ATOM     29  C   UNL A   1      38.014  29.466  29.996  1.00  0.00     0.016 A 
ATOM     30  C   UNL A   1      37.868  29.891  27.631  1.00  0.00     0.016 A 
ATOM     31  C   UNL A   1      39.335  29.034  29.843  1.00  0.00     0.010 A 
ATOM     32  C   UNL A   1      39.153  29.359  27.463  1.00  0.00     0.010 A 
ATOM     33  C   UNL A   1      39.924  28.965  28.572  1.00  0.00    -0.014 A 
BRANCH  33  34
ATOM     34  C   UNL A   1      41.349  28.547  28.393  1.00  0.00     0.031 A 
ATOM     35  C   UNL A   1      42.455  29.565  28.544  1.00  0.00     0.074 A 
ATOM     36  C   UNL A   1      41.676  27.270  28.101  1.00  0.00     0.049 A 
ATOM     37  N   UNL A   1      43.713  29.481  28.190  1.00  0.00    -0.248 NA
ATOM     38  C   UNL A   1      42.094  30.854  29.158  1.00  0.00     0.031 C 
ATOM     39  C   UNL A   1      40.736  26.156  27.962  1.00  0.00     0.029 A 
ATOM     40  N   UNL A   1      42.903  26.693  27.870  1.00  0.00    -0.354 N 
ATOM     41  C   UNL A   1      44.273  30.724  28.469  1.00  0.00     0.074 A 
ATOM     42  C   UNL A   1      43.221  31.542  29.032  1.00  0.00     0.031 C 
ATOM     43  C   UNL A   1      41.419  25.029  27.710  1.00  0.00     0.029 A 
ATOM     44  C   UNL A   1      42.837  25.349  27.582  1.00  0.00     0.049 A 
ATOM     45  H   UNL A   1      43.749  27.194  27.906  1.00  0.00     0.167 HD
ATOM     46  C   UNL A   1      45.546  31.146  28.271  1.00  0.00     0.037 A 
ATOM     47  C   UNL A   1      43.795  24.477  27.212  1.00  0.00     0.037 A 
ATOM     48  C   UNL A   1      46.611  30.312  27.778  1.00  0.00     0.049 A 
ATOM     49  C   UNL A   1      45.207  24.959  27.027  1.00  0.00     0.074 A 
ATOM     50  C   UNL A   1      47.924  30.660  27.503  1.00  0.00     0.029 A 
ATOM     51  N   UNL A   1      46.498  28.955  27.526  1.00  0.00    -0.354 N 
ATOM     52  N   UNL A   1      45.690  26.168  27.177  1.00  0.00    -0.248 NA
ATOM     53  C   UNL A   1      46.200  23.963  26.599  1.00  0.00     0.031 C 
ATOM     54  C   UNL A   1      48.605  29.510  27.086  1.00  0.00     0.029 A 
ATOM     55  C   UNL A   1      47.721  28.445  27.123  1.00  0.00     0.049 A 
ATOM     56  H   UNL A   1      45.671  28.430  27.620  1.00  0.00     0.167 HD
ATOM     57  C   UNL A   1      47.039  26.079  26.857  1.00  0.00     0.074 A 
ATOM     58  C   UNL A   1      47.305  24.693  26.534  1.00  0.00     0.031 C 
ATOM     59  C   UNL A   1      47.972  27.061  26.819  1.00  0.00     0.037 A 
BRANCH  46  60
ATOM     60  C   UNL A   1      45.860  32.585  28.571  1.00  0.00     0.058 A 
ATOM     61  C   UNL A   1      46.383  32.985  29.809  1.00  0.00     0.135 A 
ATOM     62  C   UNL A   1      45.680  33.568  27.584  1.00  0.00     0.135 A 
ATOM     63  F   UNL A   1      46.555  32.086  30.791  1.00  0.00    -0.206 F 
ATOM     64  C   UNL A   1      46.706  34.313  30.065  1.00  0.00     0.059 A 
ATOM     65  C   UNL A   1      46.014  34.901  27.811  1.00  0.00     0.059 A 
ATOM     66  F   UNL A   1      45.181  33.237  26.382  1.00  0.00    -0.206 F 
ATOM     67  C   UNL A   1      46.517  35.265  29.059  1.00  0.00     0.060 A 
BRANCH  67  68
ATOM     68  S   UNL A   1      46.958  36.984  29.395  1.00  0.00     0.124 S 
ATOM     69  O   UNL A   1      48.036  37.199  28.436  1.00  0.00    -0.237 OA
ATOM     70  O   UNL A   1      45.711  37.690  29.118  1.00  0.00    -0.237 OA
ATOM     71  O   UNL A   1      47.360  36.961  30.799  1.00  0.00    -0.744 OA
ENDBRANCH  67  68
ENDBRANCH  46  60
BRANCH  47  72
ATOM     72  C   UNL A   1      43.444  23.058  26.937  1.00  0.00     0.058 A 
ATOM     73  C   UNL A   1      43.143  22.173  27.981  1.00  0.00     0.135 A 
ATOM     74  C   UNL A   1      43.406  22.563  25.624  1.00  0.00     0.135 A 
ATOM     75  F   UNL A   1      43.179  22.599  29.253  1.00  0.00    -0.206 F 
ATOM     76  C   UNL A   1      42.829  20.839  27.737  1.00  0.00     0.059 A 
ATOM     77  C   UNL A   1      43.072  21.240  25.353  1.00  0.00     0.059 A 
ATOM     78  F   UNL A   1      43.675  23.374  24.590  1.00  0.00    -0.206 F 
ATOM     79  C   UNL A   1      42.798  20.382  26.419  1.00  0.00     0.060 A 
BRANCH  79  80
ATOM     80  S   UNL A   1      42.347  18.664  26.091  1.00  0.00     0.124 S 
ATOM     81  O   UNL A   1      40.959  18.803  25.665  1.00  0.00    -0.237 OA
ATOM     82  O   UNL A   1      43.298  18.280  25.053  1.00  0.00    -0.237 OA
ATOM     83  O   UNL A   1      42.552  18.019  27.386  1.00  0.00    -0.744 OA
ENDBRANCH  79  80
ENDBRANCH  47  72
BRANCH  59  84
ATOM     84  C   UNL A   1      49.368  26.666  26.440  1.00  0.00     0.058 A 
ATOM     85  C   UNL A   1      50.259  26.138  27.386  1.00  0.00     0.135 A 
ATOM     86  C   UNL A   1      49.809  26.788  25.114  1.00  0.00     0.135 A 
ATOM     87  F   UNL A   1      49.884  26.007  28.669  1.00  0.00    -0.206 F 
ATOM     88  C   UNL A   1      51.551  25.760  27.033  1.00  0.00     0.059 A 
ATOM     89  C   UNL A   1      51.091  26.402  24.736  1.00  0.00     0.059 A 
ATOM     90  F   UNL A   1      48.990  27.283  24.172  1.00  0.00    -0.206 F 
ATOM     91  C   UNL A   1      51.959  25.901  25.706  1.00  0.00     0.060 A 
BRANCH  91  92
ATOM     92  S   UNL A   1      53.629  25.389  25.248  1.00  0.00     0.124 S 
ATOM     93  O   UNL A   1      53.616  23.980  25.624  1.00  0.00    -0.237 OA
ATOM     94  O   UNL A   1      53.664  25.662  23.814  1.00  0.00    -0.237 OA
ATOM     95  O   UNL A   1      54.481  26.250  26.062  1.00  0.00    -0.744 OA
ENDBRANCH  91  92
ENDBRANCH  59  84
ENDBRANCH  33  34
ENDBRANCH  26  28
ENDBRANCH  25  26
ENDBRANCH  24  25
ENDBRANCH   1  24
TORSDOF 18
ENDMDL
MODEL 2
REMARK VINA RESULT:     -11.1      1.660      8.660
REMARK SMILES CCc1cc(Nc2ccc(C(=O)OCCOC(=O)c3ccc(-c4c5nc(c(-c6c(F)cc(S(=O)(=O)[O-])cc6F)c6ccc([nH]6)c(-c6c(F)cc(S(=O)(=O)[O-])cc6F)c6nc(c(-c7c(F)cc(S(=O)(=O)[O-])cc7F)c7ccc4[nH]7)C=C6)C=C5)cc3)cc2)nc(C(C)C)n1
REMARK SMILES IDX 14 1 13 2 11 3 12 4 10 5 7 6 8 7 86 8 9 9 85 10 6 11 5 13
REMARK SMILES IDX 3 14 4 15 92 16 88 17 87 18 2 19 1 20 89 21 90 22 91 23
REMARK SMILES IDX 15 24 16 25 17 26 18 27 19 28 20 29 84 30 21 31 83 32 22 33
REMARK SMILES IDX 23 34 24 35 77 36 25 37 82 38 76 39 78 40 26 41 81 42 75 43
REMARK SMILES IDX 74 44 27 46 61 47 40 48 60 49 41 50 44 51 59 52 79 53 42 54
REMARK SMILES IDX 43 55 58 57 80 58 45 59 28 60 29 61 38 62 30 63 31 64 37 65
REMARK SMILES IDX 39 66 32 67 33 68 34 69 35 70 36 71 62 72 63 73 72 74 64 75
REMARK SMILES IDX 65 76 71 77 73 78 66 79 67 80 68 81 69 82 70 83 46 84 47 85
REMARK SMILES IDX 56 86 48 87 49 88 55 89 57 90 50 91 51 92 52 93 53 94 54 95
REMARK H PARENT 6 12 78 45 44 56
REMARK Flexibility Score: inf
ROOT
ATOM      1  C   UNL A   1      35.260  33.033  30.449  1.00  0.00     0.275 C 
ENDROOT
BRANCH   1   2
ATOM      2  O   UNL A   1      34.224  32.666  29.517  1.00  0.00    -0.458 OA
BRANCH   2   3
ATOM      3  C   UNL A   1      34.621  32.606  28.222  1.00  0.00     0.338 C 
ATOM      4  O   UNL A   1      35.184  33.485  27.590  1.00  0.00    -0.246 OA
BRANCH   3   5
ATOM      5  C   UNL A   1      34.336  31.275  27.648  1.00  0.00     0.060 A 
ATOM      6  C   UNL A   1      33.620  28.680  26.864  1.00  0.00     0.040 A 
ATOM      7  C   UNL A   1      32.679  29.712  26.819  1.00  0.00     0.027 A 
ATOM      8  C   UNL A   1      34.934  28.973  27.260  1.00  0.00     0.027 A 
ATOM      9  C   UNL A   1      33.029  30.994  27.234  1.00  0.00     0.018 A 
ATOM     10  C   UNL A   1      35.302  30.270  27.631  1.00  0.00     0.018 A 
BRANCH   6  11
ATOM     11  N   UNL A   1      33.172  27.348  26.734  1.00  0.00    -0.340 N 
ATOM     12  H   UNL A   1      32.599  26.974  27.443  1.00  0.00     0.168 HD
BRANCH  11  13
ATOM     13  C   UNL A   1      33.509  26.526  25.636  1.00  0.00     0.134 A 
ATOM     14  C   UNL A   1      33.426  26.031  23.333  1.00  0.00     0.046 A 
ATOM     15  C   UNL A   1      33.103  26.890  24.369  1.00  0.00     0.071 A 
ATOM     16  N   UNL A   1      34.147  24.908  23.528  1.00  0.00    -0.238 NA
ATOM     17  C   UNL A   1      34.510  24.630  24.792  1.00  0.00     0.133 A 
ATOM     18  N   UNL A   1      34.227  25.410  25.844  1.00  0.00    -0.216 NA
BRANCH  14  19
ATOM     19  C   UNL A   1      33.018  26.357  21.919  1.00  0.00     0.053 C 
ATOM     20  C   UNL A   1      31.532  26.669  21.795  1.00  0.00     0.011 C 
ENDBRANCH  14  19
BRANCH  17  21
ATOM     21  C   UNL A   1      35.315  23.384  25.072  1.00  0.00     0.051 C 
ATOM     22  C   UNL A   1      36.782  23.565  24.687  1.00  0.00     0.016 C 
ATOM     23  C   UNL A   1      35.168  22.971  26.534  1.00  0.00     0.016 C 
ENDBRANCH  17  21
ENDBRANCH  11  13
ENDBRANCH   6  11
ENDBRANCH   3   5
ENDBRANCH   2   3
ENDBRANCH   1   2
BRANCH   1  24
ATOM     24  C   UNL A   1      35.427  31.959  31.524  1.00  0.00     0.275 C 
BRANCH  24  25
ATOM     25  O   UNL A   1      36.795  31.516  31.561  1.00  0.00    -0.458 OA
BRANCH  25  26
ATOM     26  C   UNL A   1      37.026  30.274  31.076  1.00  0.00     0.338 C 
ATOM     27  O   UNL A   1      36.262  29.324  31.114  1.00  0.00    -0.246 OA
BRANCH  26  28
ATOM     28  C   UNL A   1      38.378  30.197  30.479  1.00  0.00     0.060 A 
ATOM     29  C   UNL A   1      38.567  30.319  29.103  1.00  0.00     0.016 A 
ATOM     30  C   UNL A   1      39.467  29.895  31.296  1.00  0.00     0.016 A 
ATOM     31  C   UNL A   1      39.810  30.033  28.531  1.00  0.00     0.010 A 
ATOM     32  C   UNL A   1      40.736  29.713  30.731  1.00  0.00     0.010 A 
ATOM     33  C   UNL A   1      40.918  29.734  29.337  1.00  0.00    -0.014 A 
BRANCH  33  34
ATOM     34  C   UNL A   1      42.245  29.384  28.741  1.00  0.00     0.031 A 
ATOM     35  C   UNL A   1      42.489  27.988  28.217  1.00  0.00     0.074 A 
ATOM     36  C   UNL A   1      43.240  30.293  28.656  1.00  0.00     0.049 A 
ATOM     37  N   UNL A   1      43.619  27.406  27.901  1.00  0.00    -0.248 NA
ATOM     38  C   UNL A   1      41.307  27.126  28.043  1.00  0.00     0.031 C 
ATOM     39  C   UNL A   1      43.158  31.693  29.076  1.00  0.00     0.029 A 
ATOM     40  N   UNL A   1      44.524  30.169  28.179  1.00  0.00    -0.354 N 
ATOM     41  C   UNL A   1      43.293  26.096  27.562  1.00  0.00     0.074 A 
ATOM     42  C   UNL A   1      41.858  25.970  27.701  1.00  0.00     0.031 C 
ATOM     43  C   UNL A   1      44.321  32.306  28.804  1.00  0.00     0.029 A 
ATOM     44  C   UNL A   1      45.263  31.326  28.271  1.00  0.00     0.049 A 
ATOM     45  H   UNL A   1      44.883  29.331  27.807  1.00  0.00     0.167 HD
ATOM     46  C   UNL A   1      44.114  25.090  27.175  1.00  0.00     0.037 A 
ATOM     47  C   UNL A   1      46.561  31.570  28.004  1.00  0.00     0.037 A 
ATOM     48  C   UNL A   1      45.532  25.232  26.968  1.00  0.00     0.049 A 
ATOM     49  C   UNL A   1      47.448  30.446  27.546  1.00  0.00     0.074 A 
ATOM     50  C   UNL A   1      46.455  24.260  26.617  1.00  0.00     0.029 A 
ATOM     51  N   UNL A   1      46.225  26.428  27.049  1.00  0.00    -0.354 N 
ATOM     52  N   UNL A   1      47.145  29.185  27.352  1.00  0.00    -0.248 NA
ATOM     53  C   UNL A   1      48.859  30.772  27.294  1.00  0.00     0.031 C 
ATOM     54  C   UNL A   1      47.708  24.872  26.485  1.00  0.00     0.029 A 
ATOM     55  C   UNL A   1      47.558  26.226  26.733  1.00  0.00     0.049 A 
ATOM     56  H   UNL A   1      45.828  27.295  27.296  1.00  0.00     0.167 HD
ATOM     57  C   UNL A   1      48.328  28.568  26.961  1.00  0.00     0.074 A 
ATOM     58  C   UNL A   1      49.345  29.597  26.917  1.00  0.00     0.031 C 
ATOM     59  C   UNL A   1      48.554  27.262  26.680  1.00  0.00     0.037 A 
BRANCH  46  60
ATOM     60  C   UNL A   1      43.505  23.732  26.966  1.00  0.00     0.058 A 
ATOM     61  C   UNL A   1      43.251  23.226  25.683  1.00  0.00     0.135 A 
ATOM     62  C   UNL A   1      43.218  22.908  28.067  1.00  0.00     0.135 A 
ATOM     63  F   UNL A   1      43.490  23.981  24.600  1.00  0.00    -0.206 F 
ATOM     64  C   UNL A   1      42.722  21.952  25.497  1.00  0.00     0.059 A 
ATOM     65  C   UNL A   1      42.707  21.623  27.904  1.00  0.00     0.059 A 
ATOM     66  F   UNL A   1      43.442  23.347  29.316  1.00  0.00    -0.206 F 
ATOM     67  C   UNL A   1      42.452  21.159  26.615  1.00  0.00     0.060 A 
BRANCH  67  68
ATOM     68  S   UNL A   1      41.784  19.500  26.362  1.00  0.00     0.124 S 
ATOM     69  O   UNL A   1      42.216  18.824  27.581  1.00  0.00    -0.237 OA
ATOM     70  O   UNL A   1      40.350  19.751  26.250  1.00  0.00    -0.237 OA
ATOM     71  O   UNL A   1      42.435  19.058  25.132  1.00  0.00    -0.744 OA
ENDBRANCH  67  68
ENDBRANCH  46  60
BRANCH  47  72
ATOM     72  C   UNL A   1      47.121  32.931  28.213  1.00  0.00     0.058 A 
ATOM     73  C   UNL A   1      47.090  33.890  27.191  1.00  0.00     0.135 A 
ATOM     74  C   UNL A   1      47.701  33.296  29.438  1.00  0.00     0.135 A 
ATOM     75  F   UNL A   1      46.556  33.582  25.999  1.00  0.00    -0.206 F 
ATOM     76  C   UNL A   1      47.625  35.162  27.370  1.00  0.00     0.059 A 
ATOM     77  C   UNL A   1      48.221  34.568  29.648  1.00  0.00     0.059 A 
ATOM     78  F   UNL A   1      47.745  32.417  30.450  1.00  0.00    -0.206 F 
ATOM     79  C   UNL A   1      48.191  35.491  28.602  1.00  0.00     0.060 A 
BRANCH  79  80
ATOM     80  S   UNL A   1      48.847  37.155  28.856  1.00  0.00     0.124 S 
ATOM     81  O   UNL A   1      50.273  36.942  28.638  1.00  0.00    -0.237 OA
ATOM     82  O   UNL A   1      48.152  37.928  27.831  1.00  0.00    -0.237 OA
ATOM     83  O   UNL A   1      48.452  37.457  30.230  1.00  0.00    -0.744 OA
ENDBRANCH  79  80
ENDBRANCH  47  72
BRANCH  59  84
ATOM     84  C   UNL A   1      49.946  26.880  26.274  1.00  0.00     0.058 A 
ATOM     85  C   UNL A   1      50.337  26.867  24.927  1.00  0.00     0.135 A 
ATOM     86  C   UNL A   1      50.906  26.553  27.242  1.00  0.00     0.135 A 
ATOM     87  F   UNL A   1      49.450  27.167  23.964  1.00  0.00    -0.206 F 
ATOM     88  C   UNL A   1      51.631  26.524  24.550  1.00  0.00     0.059 A 
ATOM     89  C   UNL A   1      52.211  26.222  26.890  1.00  0.00     0.059 A 
ATOM     90  F   UNL A   1      50.581  26.558  28.545  1.00  0.00    -0.206 F 
ATOM     91  C   UNL A   1      52.560  26.198  25.539  1.00  0.00     0.060 A 
BRANCH  91  92
ATOM     92  S   UNL A   1      54.245  25.774  25.048  1.00  0.00     0.124 S 
ATOM     93  O   UNL A   1      54.312  26.350  23.709  1.00  0.00    -0.237 OA
ATOM     94  O   UNL A   1      55.051  26.441  26.066  1.00  0.00    -0.237 OA
ATOM     95  O   UNL A   1      54.257  24.315  25.107  1.00  0.00    -0.744 OA
ENDBRANCH  91  92
ENDBRANCH  59  84
ENDBRANCH  33  34
ENDBRANCH  26  28
ENDBRANCH  25  26
ENDBRANCH  24  25
ENDBRANCH   1  24
TORSDOF 18
ENDMDL
MODEL 3
REMARK VINA RESULT:     -11.0      6.563     12.055
REMARK SMILES CCc1cc(Nc2ccc(C(=O)OCCOC(=O)c3ccc(-c4c5nc(c(-c6c(F)cc(S(=O)(=O)[O-])cc6F)c6ccc([nH]6)c(-c6c(F)cc(S(=O)(=O)[O-])cc6F)c6nc(c(-c7c(F)cc(S(=O)(=O)[O-])cc7F)c7ccc4[nH]7)C=C6)C=C5)cc3)cc2)nc(C(C)C)n1
REMARK SMILES IDX 14 1 13 2 11 3 12 4 10 5 7 6 8 7 86 8 9 9 85 10 6 11 5 13
REMARK SMILES IDX 3 14 4 15 92 16 88 17 87 18 2 19 1 20 89 21 90 22 91 23
REMARK SMILES IDX 15 24 16 25 17 26 18 27 19 28 20 29 84 30 21 31 83 32 22 33
REMARK SMILES IDX 23 34 24 35 77 36 25 37 82 38 76 39 78 40 26 41 81 42 75 43
REMARK SMILES IDX 74 44 27 46 61 47 40 48 60 49 41 50 44 51 59 52 79 53 42 54
REMARK SMILES IDX 43 55 58 57 80 58 45 59 28 60 29 61 38 62 30 63 31 64 37 65
REMARK SMILES IDX 39 66 32 67 33 68 34 69 35 70 36 71 62 72 63 73 72 74 64 75
REMARK SMILES IDX 65 76 71 77 73 78 66 79 67 80 68 81 69 82 70 83 46 84 47 85
REMARK SMILES IDX 56 86 48 87 49 88 55 89 57 90 50 91 51 92 52 93 53 94 54 95
REMARK H PARENT 6 12 78 45 44 56
REMARK Flexibility Score: inf
ROOT
ATOM      1  C   UNL A   1      37.932  23.066  25.814  1.00  0.00     0.275 C 
ENDROOT
BRANCH   1   2
ATOM      2  O   UNL A   1      37.299  22.416  24.694  1.00  0.00    -0.458 OA
BRANCH   2   3
ATOM      3  C   UNL A   1      36.090  21.866  24.965  1.00  0.00     0.338 C 
ATOM      4  O   UNL A   1      35.868  20.706  25.271  1.00  0.00    -0.246 OA
BRANCH   3   5
ATOM      5  C   UNL A   1      35.025  22.889  24.903  1.00  0.00     0.060 A 
ATOM      6  C   UNL A   1      32.772  24.556  24.821  1.00  0.00     0.040 A 
ATOM      7  C   UNL A   1      33.221  24.041  26.039  1.00  0.00     0.027 A 
ATOM      8  C   UNL A   1      33.492  24.265  23.651  1.00  0.00     0.027 A 
ATOM      9  C   UNL A   1      34.324  23.191  26.075  1.00  0.00     0.018 A 
ATOM     10  C   UNL A   1      34.629  23.451  23.690  1.00  0.00     0.018 A 
BRANCH   6  11
ATOM     11  N   UNL A   1      31.495  25.155  24.766  1.00  0.00    -0.340 N 
ATOM     12  H   UNL A   1      30.703  24.582  24.881  1.00  0.00     0.168 HD
BRANCH  11  13
ATOM     13  C   UNL A   1      31.302  26.538  24.553  1.00  0.00     0.134 A 
ATOM     14  C   UNL A   1      30.201  28.320  23.474  1.00  0.00     0.046 A 
ATOM     15  C   UNL A   1      30.324  26.957  23.675  1.00  0.00     0.071 A 
ATOM     16  N   UNL A   1      30.962  29.216  24.135  1.00  0.00    -0.238 NA
ATOM     17  C   UNL A   1      31.886  28.725  24.978  1.00  0.00     0.133 A 
ATOM     18  N   UNL A   1      32.067  27.420  25.218  1.00  0.00    -0.216 NA
BRANCH  14  19
ATOM     19  C   UNL A   1      29.158  28.859  22.529  1.00  0.00     0.053 C 
ATOM     20  C   UNL A   1      29.301  30.357  22.290  1.00  0.00     0.011 C 
ENDBRANCH  14  19
BRANCH  17  21
ATOM     21  C   UNL A   1      32.769  29.682  25.744  1.00  0.00     0.051 C 
ATOM     22  C   UNL A   1      32.051  30.258  26.961  1.00  0.00     0.016 C 
ATOM     23  C   UNL A   1      34.077  28.999  26.136  1.00  0.00     0.016 C 
ENDBRANCH  17  21
ENDBRANCH  11  13
ENDBRANCH   6  11
ENDBRANCH   3   5
ENDBRANCH   2   3
ENDBRANCH   1   2
BRANCH   1  24
ATOM     24  C   UNL A   1      39.170  22.290  26.261  1.00  0.00     0.275 C 
BRANCH  24  25
ATOM     25  O   UNL A   1      39.840  23.006  27.313  1.00  0.00    -0.458 OA
BRANCH  25  26
ATOM     26  C   UNL A   1      40.774  23.901  26.917  1.00  0.00     0.338 C 
ATOM     27  O   UNL A   1      41.611  23.741  26.045  1.00  0.00    -0.246 OA
BRANCH  26  28
ATOM     28  C   UNL A   1      40.663  25.147  27.708  1.00  0.00     0.060 A 
ATOM     29  C   UNL A   1      41.695  26.084  27.727  1.00  0.00     0.016 A 
ATOM     30  C   UNL A   1      39.551  25.336  28.528  1.00  0.00     0.016 A 
ATOM     31  C   UNL A   1      41.671  27.145  28.637  1.00  0.00     0.010 A 
ATOM     32  C   UNL A   1      39.480  26.458  29.363  1.00  0.00     0.010 A 
ATOM     33  C   UNL A   1      40.558  27.355  29.465  1.00  0.00    -0.014 A 
BRANCH  33  34
ATOM     34  C   UNL A   1      40.533  28.459  30.474  1.00  0.00     0.031 A 
ATOM     35  C   UNL A   1      41.531  28.462  31.609  1.00  0.00     0.074 A 
ATOM     36  C   UNL A   1      39.636  29.464  30.395  1.00  0.00     0.049 A 
ATOM     37  N   UNL A   1      41.527  29.164  32.715  1.00  0.00    -0.248 NA
ATOM     38  C   UNL A   1      42.673  27.539  31.494  1.00  0.00     0.031 C 
ATOM     39  C   UNL A   1      38.632  29.635  29.342  1.00  0.00     0.029 A 
ATOM     40  N   UNL A   1      39.426  30.542  31.223  1.00  0.00    -0.354 N 
ATOM     41  C   UNL A   1      42.618  28.720  33.454  1.00  0.00     0.074 A 
ATOM     42  C   UNL A   1      43.268  27.693  32.669  1.00  0.00     0.031 C 
ATOM     43  C   UNL A   1      37.945  30.765  29.565  1.00  0.00     0.029 A 
ATOM     44  C   UNL A   1      38.393  31.357  30.821  1.00  0.00     0.049 A 
ATOM     45  H   UNL A   1      39.964  30.715  32.029  1.00  0.00     0.167 HD
ATOM     46  C   UNL A   1      43.037  29.126  34.678  1.00  0.00     0.037 A 
ATOM     47  C   UNL A   1      37.835  32.432  31.411  1.00  0.00     0.037 A 
ATOM     48  C   UNL A   1      42.435  30.196  35.429  1.00  0.00     0.049 A 
ATOM     49  C   UNL A   1      38.335  32.886  32.755  1.00  0.00     0.074 A 
ATOM     50  C   UNL A   1      42.761  30.652  36.696  1.00  0.00     0.029 A 
ATOM     51  N   UNL A   1      41.410  31.005  34.967  1.00  0.00    -0.354 N 
ATOM     52  N   UNL A   1      39.288  32.372  33.493  1.00  0.00    -0.248 NA
ATOM     53  C   UNL A   1      37.669  34.050  33.355  1.00  0.00     0.031 C 
ATOM     54  C   UNL A   1      41.933  31.740  36.998  1.00  0.00     0.029 A 
ATOM     55  C   UNL A   1      41.107  31.972  35.911  1.00  0.00     0.049 A 
ATOM     56  H   UNL A   1      40.962  30.906  34.096  1.00  0.00     0.167 HD
ATOM     57  C   UNL A   1      39.331  33.146  34.647  1.00  0.00     0.074 A 
ATOM     58  C   UNL A   1      38.330  34.181  34.497  1.00  0.00     0.031 C 
ATOM     59  C   UNL A   1      40.118  33.003  35.740  1.00  0.00     0.037 A 
BRANCH  46  60
ATOM     60  C   UNL A   1      44.198  28.399  35.296  1.00  0.00     0.058 A 
ATOM     61  C   UNL A   1      45.518  28.846  35.140  1.00  0.00     0.135 A 
ATOM     62  C   UNL A   1      43.977  27.266  36.096  1.00  0.00     0.135 A 
ATOM     63  F   UNL A   1      45.783  29.912  34.370  1.00  0.00    -0.206 F 
ATOM     64  C   UNL A   1      46.583  28.188  35.748  1.00  0.00     0.059 A 
ATOM     65  C   UNL A   1      45.026  26.603  36.730  1.00  0.00     0.059 A 
ATOM     66  F   UNL A   1      42.732  26.797  36.276  1.00  0.00    -0.206 F 
ATOM     67  C   UNL A   1      46.326  27.066  36.540  1.00  0.00     0.060 A 
BRANCH  67  68
ATOM     68  S   UNL A   1      47.714  26.231  37.339  1.00  0.00     0.124 S 
ATOM     69  O   UNL A   1      47.289  26.234  38.735  1.00  0.00    -0.237 OA
ATOM     70  O   UNL A   1      47.721  24.928  36.681  1.00  0.00    -0.237 OA
ATOM     71  O   UNL A   1      48.852  27.092  37.026  1.00  0.00    -0.744 OA
ENDBRANCH  67  68
ENDBRANCH  46  60
BRANCH  47  72
ATOM     72  C   UNL A   1      36.696  33.131  30.759  1.00  0.00     0.058 A 
ATOM     73  C   UNL A   1      36.905  34.013  29.690  1.00  0.00     0.135 A 
ATOM     74  C   UNL A   1      35.377  32.931  31.197  1.00  0.00     0.135 A 
ATOM     75  F   UNL A   1      38.151  34.244  29.246  1.00  0.00    -0.206 F 
ATOM     76  C   UNL A   1      35.849  34.685  29.083  1.00  0.00     0.059 A 
ATOM     77  C   UNL A   1      34.303  33.573  30.590  1.00  0.00     0.059 A 
ATOM     78  F   UNL A   1      35.124  32.088  32.209  1.00  0.00    -0.206 F 
ATOM     79  C   UNL A   1      34.551  34.459  29.542  1.00  0.00     0.060 A 
BRANCH  79  80
ATOM     80  S   UNL A   1      33.170  35.293  28.729  1.00  0.00     0.124 S 
ATOM     81  O   UNL A   1      33.868  36.260  27.889  1.00  0.00    -0.237 OA
ATOM     82  O   UNL A   1      32.509  34.198  28.027  1.00  0.00    -0.237 OA
ATOM     83  O   UNL A   1      32.418  35.851  29.850  1.00  0.00    -0.744 OA
ENDBRANCH  79  80
ENDBRANCH  47  72
BRANCH  59  84
ATOM     84  C   UNL A   1      39.947  34.003  36.844  1.00  0.00     0.058 A 
ATOM     85  C   UNL A   1      40.631  35.227  36.834  1.00  0.00     0.135 A 
ATOM     86  C   UNL A   1      39.067  33.747  37.907  1.00  0.00     0.135 A 
ATOM     87  F   UNL A   1      41.488  35.513  35.840  1.00  0.00    -0.206 F 
ATOM     88  C   UNL A   1      40.463  36.160  37.852  1.00  0.00     0.059 A 
ATOM     89  C   UNL A   1      38.872  34.673  38.928  1.00  0.00     0.059 A 
ATOM     90  F   UNL A   1      38.386  32.591  37.958  1.00  0.00    -0.206 F 
ATOM     91  C   UNL A   1      39.585  35.871  38.898  1.00  0.00     0.060 A 
BRANCH  91  92
ATOM     92  S   UNL A   1      39.354  37.094  40.206  1.00  0.00     0.124 S 
ATOM     93  O   UNL A   1      38.686  38.171  39.483  1.00  0.00    -0.237 OA
ATOM     94  O   UNL A   1      38.531  36.374  41.173  1.00  0.00    -0.237 OA
ATOM     95  O   UNL A   1      40.716  37.381  40.644  1.00  0.00    -0.744 OA
ENDBRANCH  91  92
ENDBRANCH  59  84
ENDBRANCH  33  34
ENDBRANCH  26  28
ENDBRANCH  25  26
ENDBRANCH  24  25
ENDBRANCH   1  24
TORSDOF 18
ENDMDL
