MODEL 1
REMARK VINA RESULT:     -10.2      0.000      0.000
REMARK SMILES COc1cnc(SCC(=O)OCCOC(=O)c2ccc(-c3c4nc(c(-c5c(F)cc(S(=O)(=O)[O-])cc5F)c5ccc([nH]5)c(-c5c(F)cc(S(=O)(=O)[O-])cc5F)c5nc(c(-c6c(F)cc(S(=O)(=O)[O-])cc6F)c6ccc3[nH]6)C=C5)C=C4)cc2)[nH]c1=O
REMARK SMILES IDX 12 1 11 2 9 3 10 4 8 5 7 6 6 7 3 8 4 9 84 10 5 11 83 12
REMARK SMILES IDX 85 13 2 15 1 16 13 17 14 18 15 19 16 20 17 21 18 22 82 23
REMARK SMILES IDX 19 24 81 25 20 26 21 27 22 28 75 29 23 30 80 31 74 32 76 33
REMARK SMILES IDX 24 34 79 35 73 36 72 37 25 39 59 40 38 41 58 42 39 43 42 44
REMARK SMILES IDX 57 45 77 46 40 47 41 48 56 50 78 51 43 52 26 53 27 54 36 55
REMARK SMILES IDX 28 56 29 57 35 58 37 59 30 60 31 61 32 62 33 63 34 64 60 65
REMARK SMILES IDX 61 66 70 67 62 68 63 69 69 70 71 71 64 72 65 73 66 74 67 75
REMARK SMILES IDX 68 76 44 77 45 78 54 79 46 80 47 81 53 82 55 83 48 84 49 85
REMARK SMILES IDX 50 86 51 87 52 88
REMARK H PARENT 83 14 76 38 42 49
REMARK Flexibility Score: inf
ROOT
ATOM      1  C   UNL A   1      41.115  21.867  26.212  1.00  0.00     0.274 C 
ENDROOT
BRANCH   1   2
ATOM      2  O   UNL A   1      42.122  20.943  26.675  1.00  0.00    -0.461 OA
BRANCH   2   3
ATOM      3  C   UNL A   1      42.054  19.688  26.154  1.00  0.00     0.316 C 
ATOM      4  O   UNL A   1      41.035  19.203  25.666  1.00  0.00    -0.251 OA
BRANCH   3   5
ATOM      5  C   UNL A   1      43.327  18.878  26.260  1.00  0.00     0.200 C 
BRANCH   5   6
ATOM      6  S   UNL A   1      44.400  18.880  24.802  1.00  0.00    -0.076 SA
BRANCH   6   7
ATOM      7  C   UNL A   1      44.743  20.572  24.630  1.00  0.00     0.168 A 
ATOM      8  C   UNL A   1      45.391  23.227  24.641  1.00  0.00     0.202 A 
ATOM      9  C   UNL A   1      44.853  22.577  23.597  1.00  0.00     0.166 A 
ATOM     10  C   UNL A   1      45.654  22.405  25.857  1.00  0.00     0.293 A 
ATOM     11  N   UNL A   1      44.529  21.239  23.549  1.00  0.00    -0.229 NA
ATOM     12  N   UNL A   1      45.295  21.091  25.756  1.00  0.00    -0.298 N 
ATOM     13  O   UNL A   1      46.158  22.845  26.886  1.00  0.00    -0.265 OA
ATOM     14  H   UNL A   1      45.442  20.499  26.528  1.00  0.00     0.172 HD
BRANCH   8  15
ATOM     15  O   UNL A   1      45.544  24.600  24.626  1.00  0.00    -0.490 OA
ATOM     16  C   UNL A   1      44.408  25.305  25.117  1.00  0.00     0.278 C 
ENDBRANCH   8  15
ENDBRANCH   6   7
ENDBRANCH   5   6
ENDBRANCH   3   5
ENDBRANCH   2   3
ENDBRANCH   1   2
BRANCH   1  17
ATOM     17  C   UNL A   1      41.620  23.304  26.273  1.00  0.00     0.275 C 
BRANCH  17  18
ATOM     18  O   UNL A   1      40.516  24.207  26.445  1.00  0.00    -0.458 OA
BRANCH  18  19
ATOM     19  C   UNL A   1      40.809  25.516  26.275  1.00  0.00     0.338 C 
ATOM     20  O   UNL A   1      41.156  26.063  25.241  1.00  0.00    -0.246 OA
BRANCH  19  21
ATOM     21  C   UNL A   1      40.706  26.219  27.564  1.00  0.00     0.060 A 
ATOM     22  C   UNL A   1      39.715  25.883  28.492  1.00  0.00     0.016 A 
ATOM     23  C   UNL A   1      41.545  27.311  27.793  1.00  0.00     0.016 A 
ATOM     24  C   UNL A   1      39.533  26.672  29.630  1.00  0.00     0.010 A 
ATOM     25  C   UNL A   1      41.401  28.059  28.961  1.00  0.00     0.010 A 
ATOM     26  C   UNL A   1      40.378  27.762  29.879  1.00  0.00    -0.014 A 
BRANCH  26  27
ATOM     27  C   UNL A   1      40.209  28.617  31.082  1.00  0.00     0.031 A 
ATOM     28  C   UNL A   1      39.215  29.745  31.070  1.00  0.00     0.074 A 
ATOM     29  C   UNL A   1      40.990  28.418  32.161  1.00  0.00     0.049 A 
ATOM     30  N   UNL A   1      39.066  30.724  31.925  1.00  0.00    -0.248 NA
ATOM     31  C   UNL A   1      38.271  29.781  29.942  1.00  0.00     0.031 C 
ATOM     32  C   UNL A   1      41.970  27.341  32.311  1.00  0.00     0.029 A 
ATOM     33  N   UNL A   1      41.101  29.135  33.326  1.00  0.00    -0.354 N 
ATOM     34  C   UNL A   1      38.036  31.511  31.424  1.00  0.00     0.074 A 
ATOM     35  C   UNL A   1      37.599  30.898  30.188  1.00  0.00     0.031 C 
ATOM     36  C   UNL A   1      42.588  27.474  33.495  1.00  0.00     0.029 A 
ATOM     37  C   UNL A   1      42.094  28.677  34.158  1.00  0.00     0.049 A 
ATOM     38  H   UNL A   1      40.524  29.902  33.545  1.00  0.00     0.167 HD
ATOM     39  C   UNL A   1      37.507  32.644  31.947  1.00  0.00     0.037 A 
ATOM     40  C   UNL A   1      42.587  29.192  35.301  1.00  0.00     0.037 A 
ATOM     41  C   UNL A   1      37.933  33.239  33.188  1.00  0.00     0.049 A 
ATOM     42  C   UNL A   1      42.017  30.473  35.841  1.00  0.00     0.074 A 
ATOM     43  C   UNL A   1      37.450  34.379  33.806  1.00  0.00     0.029 A 
ATOM     44  N   UNL A   1      38.940  32.740  34.000  1.00  0.00    -0.354 N 
ATOM     45  N   UNL A   1      41.060  31.221  35.344  1.00  0.00    -0.248 NA
ATOM     46  C   UNL A   1      42.601  30.988  37.086  1.00  0.00     0.031 C 
ATOM     47  C   UNL A   1      38.185  34.586  34.980  1.00  0.00     0.029 A 
ATOM     48  C   UNL A   1      39.101  33.554  35.108  1.00  0.00     0.049 A 
ATOM     49  H   UNL A   1      39.463  31.927  33.816  1.00  0.00     0.167 HD
ATOM     50  C   UNL A   1      40.914  32.283  36.227  1.00  0.00     0.074 A 
ATOM     51  C   UNL A   1      41.877  32.081  37.291  1.00  0.00     0.031 C 
ATOM     52  C   UNL A   1      40.057  33.332  36.164  1.00  0.00     0.037 A 
BRANCH  39  53
ATOM     53  C   UNL A   1      36.424  33.331  31.166  1.00  0.00     0.058 A 
ATOM     54  C   UNL A   1      35.078  33.267  31.557  1.00  0.00     0.135 A 
ATOM     55  C   UNL A   1      36.744  34.094  30.030  1.00  0.00     0.135 A 
ATOM     56  F   UNL A   1      34.719  32.539  32.625  1.00  0.00    -0.206 F 
ATOM     57  C   UNL A   1      34.082  33.918  30.835  1.00  0.00     0.059 A 
ATOM     58  C   UNL A   1      35.766  34.769  29.305  1.00  0.00     0.059 A 
ATOM     59  F   UNL A   1      38.016  34.187  29.614  1.00  0.00    -0.206 F 
ATOM     60  C   UNL A   1      34.435  34.662  29.708  1.00  0.00     0.060 A 
BRANCH  60  61
ATOM     61  S   UNL A   1      33.133  35.498  28.778  1.00  0.00     0.124 S 
ATOM     62  O   UNL A   1      32.308  36.036  29.856  1.00  0.00    -0.237 OA
ATOM     63  O   UNL A   1      33.881  36.483  28.003  1.00  0.00    -0.237 OA
ATOM     64  O   UNL A   1      32.527  34.423  28.000  1.00  0.00    -0.744 OA
ENDBRANCH  60  61
ENDBRANCH  39  53
BRANCH  40  65
ATOM     65  C   UNL A   1      43.704  28.502  35.994  1.00  0.00     0.058 A 
ATOM     66  C   UNL A   1      43.461  27.433  36.866  1.00  0.00     0.135 A 
ATOM     67  C   UNL A   1      45.039  28.879  35.771  1.00  0.00     0.135 A 
ATOM     68  F   UNL A   1      42.202  27.045  37.116  1.00  0.00    -0.206 F 
ATOM     69  C   UNL A   1      44.502  26.761  37.498  1.00  0.00     0.059 A 
ATOM     70  C   UNL A   1      46.096  28.208  36.375  1.00  0.00     0.059 A 
ATOM     71  F   UNL A   1      45.322  29.889  34.934  1.00  0.00    -0.206 F 
ATOM     72  C   UNL A   1      45.817  27.154  37.244  1.00  0.00     0.060 A 
BRANCH  72  73
ATOM     73  S   UNL A   1      47.167  26.234  38.014  1.00  0.00     0.124 S 
ATOM     74  O   UNL A   1      48.099  27.306  38.344  1.00  0.00    -0.237 OA
ATOM     75  O   UNL A   1      46.501  25.595  39.147  1.00  0.00    -0.237 OA
ATOM     76  O   UNL A   1      47.596  25.324  36.957  1.00  0.00    -0.744 OA
ENDBRANCH  72  73
ENDBRANCH  40  65
BRANCH  52  77
ATOM     77  C   UNL A   1      40.093  34.323  37.291  1.00  0.00     0.058 A 
ATOM     78  C   UNL A   1      40.919  35.456  37.247  1.00  0.00     0.135 A 
ATOM     79  C   UNL A   1      39.249  34.163  38.401  1.00  0.00     0.135 A 
ATOM     80  F   UNL A   1      41.749  35.648  36.211  1.00  0.00    -0.206 F 
ATOM     81  C   UNL A   1      40.914  36.395  38.274  1.00  0.00     0.059 A 
ATOM     82  C   UNL A   1      39.215  35.099  39.430  1.00  0.00     0.059 A 
ATOM     83  F   UNL A   1      38.437  33.098  38.485  1.00  0.00    -0.206 F 
ATOM     84  C   UNL A   1      40.057  36.208  39.361  1.00  0.00     0.060 A 
BRANCH  84  85
ATOM     85  S   UNL A   1      40.025  37.455  40.667  1.00  0.00     0.124 S 
ATOM     86  O   UNL A   1      39.345  38.561  40.001  1.00  0.00    -0.237 OA
ATOM     87  O   UNL A   1      39.266  36.789  41.722  1.00  0.00    -0.237 OA
ATOM     88  O   UNL A   1      41.438  37.671  40.962  1.00  0.00    -0.744 OA
ENDBRANCH  84  85
ENDBRANCH  52  77
ENDBRANCH  26  27
ENDBRANCH  19  21
ENDBRANCH  18  19
ENDBRANCH  17  18
ENDBRANCH   1  17
TORSDOF 17
ENDMDL
MODEL 2
REMARK VINA RESULT:     -10.1      2.439      8.970
REMARK SMILES COc1cnc(SCC(=O)OCCOC(=O)c2ccc(-c3c4nc(c(-c5c(F)cc(S(=O)(=O)[O-])cc5F)c5ccc([nH]5)c(-c5c(F)cc(S(=O)(=O)[O-])cc5F)c5nc(c(-c6c(F)cc(S(=O)(=O)[O-])cc6F)c6ccc3[nH]6)C=C5)C=C4)cc2)[nH]c1=O
REMARK SMILES IDX 12 1 11 2 9 3 10 4 8 5 7 6 6 7 3 8 4 9 84 10 5 11 83 12
REMARK SMILES IDX 85 13 2 15 1 16 13 17 14 18 15 19 16 20 17 21 18 22 82 23
REMARK SMILES IDX 19 24 81 25 20 26 21 27 22 28 75 29 23 30 80 31 74 32 76 33
REMARK SMILES IDX 24 34 79 35 73 36 72 37 25 39 59 40 38 41 58 42 39 43 42 44
REMARK SMILES IDX 57 45 77 46 40 47 41 48 56 50 78 51 43 52 26 53 27 54 36 55
REMARK SMILES IDX 28 56 29 57 35 58 37 59 30 60 31 61 32 62 33 63 34 64 60 65
REMARK SMILES IDX 61 66 70 67 62 68 63 69 69 70 71 71 64 72 65 73 66 74 67 75
REMARK SMILES IDX 68 76 44 77 45 78 54 79 46 80 47 81 53 82 55 83 48 84 49 85
REMARK SMILES IDX 50 86 51 87 52 88
REMARK H PARENT 83 14 76 38 42 49
REMARK Flexibility Score: inf
ROOT
ATOM      1  C   UNL A   1      41.155  20.219  26.150  1.00  0.00     0.274 C 
ENDROOT
BRANCH   1   2
ATOM      2  O   UNL A   1      42.555  19.968  26.397  1.00  0.00    -0.461 OA
BRANCH   2   3
ATOM      3  C   UNL A   1      43.048  18.815  25.871  1.00  0.00     0.316 C 
ATOM      4  O   UNL A   1      42.394  17.781  25.751  1.00  0.00    -0.251 OA
BRANCH   3   5
ATOM      5  C   UNL A   1      44.509  18.859  25.481  1.00  0.00     0.200 C 
BRANCH   5   6
ATOM      6  S   UNL A   1      44.883  19.592  23.869  1.00  0.00    -0.076 SA
BRANCH   6   7
ATOM      7  C   UNL A   1      45.199  21.241  24.306  1.00  0.00     0.168 A 
ATOM      8  C   UNL A   1      45.400  23.886  24.965  1.00  0.00     0.202 A 
ATOM      9  C   UNL A   1      46.431  23.028  24.931  1.00  0.00     0.166 A 
ATOM     10  C   UNL A   1      44.063  23.315  24.629  1.00  0.00     0.293 A 
ATOM     11  N   UNL A   1      46.366  21.687  24.620  1.00  0.00    -0.229 NA
ATOM     12  N   UNL A   1      44.065  21.987  24.313  1.00  0.00    -0.298 N 
ATOM     13  O   UNL A   1      43.021  23.963  24.633  1.00  0.00    -0.265 OA
ATOM     14  H   UNL A   1      43.213  21.554  24.079  1.00  0.00     0.172 HD
BRANCH   8  15
ATOM     15  O   UNL A   1      45.603  25.239  25.151  1.00  0.00    -0.490 OA
ATOM     16  C   UNL A   1      46.969  25.630  25.052  1.00  0.00     0.278 C 
ENDBRANCH   8  15
ENDBRANCH   6   7
ENDBRANCH   5   6
ENDBRANCH   3   5
ENDBRANCH   2   3
ENDBRANCH   1   2
BRANCH   1  17
ATOM     17  C   UNL A   1      40.867  21.715  26.100  1.00  0.00     0.275 C 
BRANCH  17  18
ATOM     18  O   UNL A   1      39.599  21.992  26.716  1.00  0.00    -0.458 OA
BRANCH  18  19
ATOM     19  C   UNL A   1      38.896  23.004  26.159  1.00  0.00     0.338 C 
ATOM     20  O   UNL A   1      38.136  22.936  25.208  1.00  0.00    -0.246 OA
BRANCH  19  21
ATOM     21  C   UNL A   1      39.222  24.268  26.841  1.00  0.00     0.060 A 
ATOM     22  C   UNL A   1      40.092  25.197  26.263  1.00  0.00     0.016 A 
ATOM     23  C   UNL A   1      38.736  24.467  28.134  1.00  0.00     0.016 A 
ATOM     24  C   UNL A   1      40.515  26.305  27.000  1.00  0.00     0.010 A 
ATOM     25  C   UNL A   1      39.111  25.606  28.845  1.00  0.00     0.010 A 
ATOM     26  C   UNL A   1      40.023  26.524  28.295  1.00  0.00    -0.014 A 
BRANCH  26  27
ATOM     27  C   UNL A   1      40.453  27.695  29.101  1.00  0.00     0.031 A 
ATOM     28  C   UNL A   1      41.724  27.631  29.901  1.00  0.00     0.074 A 
ATOM     29  C   UNL A   1      39.672  28.791  29.162  1.00  0.00     0.049 A 
ATOM     30  N   UNL A   1      42.163  28.451  30.822  1.00  0.00    -0.248 NA
ATOM     31  C   UNL A   1      42.615  26.491  29.637  1.00  0.00     0.031 C 
ATOM     32  C   UNL A   1      38.432  28.991  28.411  1.00  0.00     0.029 A 
ATOM     33  N   UNL A   1      39.794  29.933  29.914  1.00  0.00    -0.354 N 
ATOM     34  C   UNL A   1      43.362  27.910  31.271  1.00  0.00     0.074 A 
ATOM     35  C   UNL A   1      43.580  26.689  30.525  1.00  0.00     0.031 C 
ATOM     36  C   UNL A   1      37.903  30.178  28.747  1.00  0.00     0.029 A 
ATOM     37  C   UNL A   1      38.731  30.793  29.779  1.00  0.00     0.049 A 
ATOM     38  H   UNL A   1      40.569  30.117  30.493  1.00  0.00     0.167 HD
ATOM     39  C   UNL A   1      44.200  28.387  32.223  1.00  0.00     0.037 A 
ATOM     40  C   UNL A   1      38.430  31.924  30.445  1.00  0.00     0.037 A 
ATOM     41  C   UNL A   1      43.987  29.612  32.950  1.00  0.00     0.049 A 
ATOM     42  C   UNL A   1      39.350  32.412  31.528  1.00  0.00     0.074 A 
ATOM     43  C   UNL A   1      44.786  30.185  33.924  1.00  0.00     0.029 A 
ATOM     44  N   UNL A   1      42.899  30.454  32.779  1.00  0.00    -0.354 N 
ATOM     45  N   UNL A   1      40.467  31.878  31.960  1.00  0.00    -0.248 NA
ATOM     46  C   UNL A   1      38.963  33.647  32.223  1.00  0.00     0.031 C 
ATOM     47  C   UNL A   1      44.166  31.361  34.363  1.00  0.00     0.029 A 
ATOM     48  C   UNL A   1      42.999  31.537  33.637  1.00  0.00     0.049 A 
ATOM     49  H   UNL A   1      42.164  30.306  32.142  1.00  0.00     0.167 HD
ATOM     50  C   UNL A   1      40.927  32.723  32.963  1.00  0.00     0.074 A 
ATOM     51  C   UNL A   1      39.971  33.806  33.072  1.00  0.00     0.031 C 
ATOM     52  C   UNL A   1      42.043  32.612  33.725  1.00  0.00     0.037 A 
BRANCH  39  53
ATOM     53  C   UNL A   1      45.415  27.568  32.553  1.00  0.00     0.058 A 
ATOM     54  C   UNL A   1      45.366  26.516  33.481  1.00  0.00     0.135 A 
ATOM     55  C   UNL A   1      46.637  27.817  31.905  1.00  0.00     0.135 A 
ATOM     56  F   UNL A   1      44.227  26.248  34.138  1.00  0.00    -0.206 F 
ATOM     57  C   UNL A   1      46.492  25.753  33.772  1.00  0.00     0.059 A 
ATOM     58  C   UNL A   1      47.770  27.053  32.166  1.00  0.00     0.059 A 
ATOM     59  F   UNL A   1      46.736  28.812  31.010  1.00  0.00    -0.206 F 
ATOM     60  C   UNL A   1      47.691  26.032  33.113  1.00  0.00     0.060 A 
BRANCH  60  61
ATOM     61  S   UNL A   1      49.147  25.038  33.503  1.00  0.00     0.124 S 
ATOM     62  O   UNL A   1      49.880  25.935  34.391  1.00  0.00    -0.237 OA
ATOM     63  O   UNL A   1      48.564  23.859  34.135  1.00  0.00    -0.237 OA
ATOM     64  O   UNL A   1      49.759  24.806  32.199  1.00  0.00    -0.744 OA
ENDBRANCH  60  61
ENDBRANCH  39  53
BRANCH  40  65
ATOM     65  C   UNL A   1      37.179  32.655  30.119  1.00  0.00     0.058 A 
ATOM     66  C   UNL A   1      37.175  33.692  29.178  1.00  0.00     0.135 A 
ATOM     67  C   UNL A   1      35.958  32.308  30.722  1.00  0.00     0.135 A 
ATOM     68  F   UNL A   1      38.318  34.064  28.584  1.00  0.00    -0.206 F 
ATOM     69  C   UNL A   1      36.004  34.364  28.844  1.00  0.00     0.059 A 
ATOM     70  C   UNL A   1      34.772  32.951  30.388  1.00  0.00     0.059 A 
ATOM     71  F   UNL A   1      35.911  31.313  31.620  1.00  0.00    -0.206 F 
ATOM     72  C   UNL A   1      34.806  33.984  29.452  1.00  0.00     0.060 A 
BRANCH  72  73
ATOM     73  S   UNL A   1      33.278  34.815  28.964  1.00  0.00     0.124 S 
ATOM     74  O   UNL A   1      32.600  34.955  30.248  1.00  0.00    -0.237 OA
ATOM     75  O   UNL A   1      33.774  36.051  28.366  1.00  0.00    -0.237 OA
ATOM     76  O   UNL A   1      32.673  33.875  28.026  1.00  0.00    -0.744 OA
ENDBRANCH  72  73
ENDBRANCH  40  65
BRANCH  52  77
ATOM     77  C   UNL A   1      42.314  33.705  34.717  1.00  0.00     0.058 A 
ATOM     78  C   UNL A   1      41.888  33.609  36.050  1.00  0.00     0.135 A 
ATOM     79  C   UNL A   1      43.056  34.836  34.341  1.00  0.00     0.135 A 
ATOM     80  F   UNL A   1      41.169  32.551  36.456  1.00  0.00    -0.206 F 
ATOM     81  C   UNL A   1      42.182  34.605  36.978  1.00  0.00     0.059 A 
ATOM     82  C   UNL A   1      43.376  35.834  35.255  1.00  0.00     0.059 A 
ATOM     83  F   UNL A   1      43.490  34.969  33.078  1.00  0.00    -0.206 F 
ATOM     84  C   UNL A   1      42.927  35.713  36.570  1.00  0.00     0.060 A 
BRANCH  84  85
ATOM     85  S   UNL A   1      43.342  36.978  37.790  1.00  0.00     0.124 S 
ATOM     86  O   UNL A   1      43.764  38.083  36.935  1.00  0.00    -0.237 OA
ATOM     87  O   UNL A   1      42.077  37.168  38.492  1.00  0.00    -0.237 OA
ATOM     88  O   UNL A   1      44.402  36.353  38.577  1.00  0.00    -0.744 OA
ENDBRANCH  84  85
ENDBRANCH  52  77
ENDBRANCH  26  27
ENDBRANCH  19  21
ENDBRANCH  18  19
ENDBRANCH  17  18
ENDBRANCH   1  17
TORSDOF 17
ENDMDL
MODEL 3
REMARK VINA RESULT:     -10.0      6.404     12.131
REMARK SMILES COc1cnc(SCC(=O)OCCOC(=O)c2ccc(-c3c4nc(c(-c5c(F)cc(S(=O)(=O)[O-])cc5F)c5ccc([nH]5)c(-c5c(F)cc(S(=O)(=O)[O-])cc5F)c5nc(c(-c6c(F)cc(S(=O)(=O)[O-])cc6F)c6ccc3[nH]6)C=C5)C=C4)cc2)[nH]c1=O
REMARK SMILES IDX 12 1 11 2 9 3 10 4 8 5 7 6 6 7 3 8 4 9 84 10 5 11 83 12
REMARK SMILES IDX 85 13 2 15 1 16 13 17 14 18 15 19 16 20 17 21 18 22 82 23
REMARK SMILES IDX 19 24 81 25 20 26 21 27 22 28 75 29 23 30 80 31 74 32 76 33
REMARK SMILES IDX 24 34 79 35 73 36 72 37 25 39 59 40 38 41 58 42 39 43 42 44
REMARK SMILES IDX 57 45 77 46 40 47 41 48 56 50 78 51 43 52 26 53 27 54 36 55
REMARK SMILES IDX 28 56 29 57 35 58 37 59 30 60 31 61 32 62 33 63 34 64 60 65
REMARK SMILES IDX 61 66 70 67 62 68 63 69 69 70 71 71 64 72 65 73 66 74 67 75
REMARK SMILES IDX 68 76 44 77 45 78 54 79 46 80 47 81 53 82 55 83 48 84 49 85
REMARK SMILES IDX 50 86 51 87 52 88
REMARK H PARENT 83 14 76 38 42 49
REMARK Flexibility Score: inf
ROOT
ATOM      1  C   UNL A   1      32.736  29.336  25.396  1.00  0.00     0.274 C 
ENDROOT
BRANCH   1   2
ATOM      2  O   UNL A   1      31.479  28.786  25.843  1.00  0.00    -0.461 OA
BRANCH   2   3
ATOM      3  C   UNL A   1      31.448  27.435  25.999  1.00  0.00     0.316 C 
ATOM      4  O   UNL A   1      31.284  26.874  27.080  1.00  0.00    -0.251 OA
BRANCH   3   5
ATOM      5  C   UNL A   1      31.691  26.637  24.738  1.00  0.00     0.200 C 
BRANCH   5   6
ATOM      6  S   UNL A   1      30.231  26.267  23.733  1.00  0.00    -0.076 SA
BRANCH   6   7
ATOM      7  C   UNL A   1      29.871  27.827  23.063  1.00  0.00     0.168 A 
ATOM      8  C   UNL A   1      29.025  30.247  22.115  1.00  0.00     0.202 A 
ATOM      9  C   UNL A   1      30.272  29.769  21.983  1.00  0.00     0.166 A 
ATOM     10  C   UNL A   1      28.065  29.373  22.852  1.00  0.00     0.293 A 
ATOM     11  N   UNL A   1      30.738  28.564  22.460  1.00  0.00    -0.229 NA
ATOM     12  N   UNL A   1      28.581  28.185  23.284  1.00  0.00    -0.298 N 
ATOM     13  O   UNL A   1      26.896  29.673  23.072  1.00  0.00    -0.265 OA
ATOM     14  H   UNL A   1      27.994  27.564  23.774  1.00  0.00     0.172 HD
BRANCH   8  15
ATOM     15  O   UNL A   1      28.631  31.405  21.474  1.00  0.00    -0.490 OA
ATOM     16  C   UNL A   1      28.675  32.560  22.305  1.00  0.00     0.278 C 
ENDBRANCH   8  15
ENDBRANCH   6   7
ENDBRANCH   5   6
ENDBRANCH   3   5
ENDBRANCH   2   3
ENDBRANCH   1   2
BRANCH   1  17
ATOM     17  C   UNL A   1      33.869  28.956  26.342  1.00  0.00     0.275 C 
BRANCH  17  18
ATOM     18  O   UNL A   1      33.591  29.444  27.664  1.00  0.00    -0.458 OA
BRANCH  18  19
ATOM     19  C   UNL A   1      34.372  30.468  28.077  1.00  0.00     0.338 C 
ATOM     20  O   UNL A   1      34.049  31.638  28.193  1.00  0.00    -0.246 OA
BRANCH  19  21
ATOM     21  C   UNL A   1      35.738  29.980  28.327  1.00  0.00     0.060 A 
ATOM     22  C   UNL A   1      36.128  29.545  29.597  1.00  0.00     0.016 A 
ATOM     23  C   UNL A   1      36.673  30.070  27.295  1.00  0.00     0.016 A 
ATOM     24  C   UNL A   1      37.469  29.247  29.848  1.00  0.00     0.010 A 
ATOM     25  C   UNL A   1      38.000  29.712  27.532  1.00  0.00     0.010 A 
ATOM     26  C   UNL A   1      38.416  29.320  28.817  1.00  0.00    -0.014 A 
BRANCH  26  27
ATOM     27  C   UNL A   1      39.848  29.005  29.054  1.00  0.00     0.031 A 
ATOM     28  C   UNL A   1      40.786  30.080  29.527  1.00  0.00     0.074 A 
ATOM     29  C   UNL A   1      40.318  27.771  28.785  1.00  0.00     0.049 A 
ATOM     30  N   UNL A   1      42.093  30.067  29.592  1.00  0.00    -0.248 NA
ATOM     31  C   UNL A   1      40.173  31.338  29.981  1.00  0.00     0.031 C 
ATOM     32  C   UNL A   1      39.507  26.632  28.350  1.00  0.00     0.029 A 
ATOM     33  N   UNL A   1      41.598  27.278  28.812  1.00  0.00    -0.354 N 
ATOM     34  C   UNL A   1      42.462  31.323  30.060  1.00  0.00     0.074 A 
ATOM     35  C   UNL A   1      41.241  32.075  30.260  1.00  0.00     0.031 C 
ATOM     36  C   UNL A   1      40.310  25.578  28.142  1.00  0.00     0.029 A 
ATOM     37  C   UNL A   1      41.695  25.981  28.368  1.00  0.00     0.049 A 
ATOM     38  H   UNL A   1      42.372  27.803  29.121  1.00  0.00     0.167 HD
ATOM     39  C   UNL A   1      43.706  31.804  30.296  1.00  0.00     0.037 A 
ATOM     40  C   UNL A   1      42.777  25.218  28.124  1.00  0.00     0.037 A 
ATOM     41  C   UNL A   1      44.917  31.046  30.113  1.00  0.00     0.049 A 
ATOM     42  C   UNL A   1      44.149  25.786  28.349  1.00  0.00     0.074 A 
ATOM     43  C   UNL A   1      46.224  31.443  30.337  1.00  0.00     0.029 A 
ATOM     44  N   UNL A   1      44.969  29.735  29.665  1.00  0.00    -0.354 N 
ATOM     45  N   UNL A   1      44.485  26.983  28.768  1.00  0.00    -0.248 NA
ATOM     46  C   UNL A   1      45.289  24.907  28.057  1.00  0.00     0.031 C 
ATOM     47  C   UNL A   1      47.069  30.379  29.998  1.00  0.00     0.029 A 
ATOM     48  C   UNL A   1      46.284  29.309  29.595  1.00  0.00     0.049 A 
ATOM     49  H   UNL A   1      44.186  29.186  29.431  1.00  0.00     0.167 HD
ATOM     50  C   UNL A   1      45.874  26.993  28.808  1.00  0.00     0.074 A 
ATOM     51  C   UNL A   1      46.317  25.683  28.376  1.00  0.00     0.031 C 
ATOM     52  C   UNL A   1      46.708  27.999  29.173  1.00  0.00     0.037 A 
BRANCH  39  53
ATOM     53  C   UNL A   1      43.825  33.230  30.754  1.00  0.00     0.058 A 
ATOM     54  C   UNL A   1      43.884  33.564  32.116  1.00  0.00     0.135 A 
ATOM     55  C   UNL A   1      43.916  34.272  29.817  1.00  0.00     0.135 A 
ATOM     56  F   UNL A   1      43.785  32.607  33.051  1.00  0.00    -0.206 F 
ATOM     57  C   UNL A   1      44.008  34.886  32.533  1.00  0.00     0.059 A 
ATOM     58  C   UNL A   1      44.060  35.599  30.211  1.00  0.00     0.059 A 
ATOM     59  F   UNL A   1      43.864  34.005  28.502  1.00  0.00    -0.206 F 
ATOM     60  C   UNL A   1      44.090  35.897  31.573  1.00  0.00     0.060 A 
BRANCH  60  61
ATOM     61  S   UNL A   1      44.245  37.608  32.127  1.00  0.00     0.124 S 
ATOM     62  O   UNL A   1      44.047  38.335  30.877  1.00  0.00    -0.237 OA
ATOM     63  O   UNL A   1      43.166  37.723  33.103  1.00  0.00    -0.237 OA
ATOM     64  O   UNL A   1      45.594  37.665  32.681  1.00  0.00    -0.744 OA
ENDBRANCH  60  61
ENDBRANCH  39  53
BRANCH  40  65
ATOM     65  C   UNL A   1      42.597  23.837  27.606  1.00  0.00     0.058 A 
ATOM     66  C   UNL A   1      42.526  23.587  26.230  1.00  0.00     0.135 A 
ATOM     67  C   UNL A   1      42.524  22.740  28.480  1.00  0.00     0.135 A 
ATOM     68  F   UNL A   1      42.581  24.605  25.360  1.00  0.00    -0.206 F 
ATOM     69  C   UNL A   1      42.387  22.295  25.734  1.00  0.00     0.059 A 
ATOM     70  C   UNL A   1      42.407  21.438  28.006  1.00  0.00     0.059 A 
ATOM     71  F   UNL A   1      42.601  22.929  29.806  1.00  0.00    -0.206 F 
ATOM     72  C   UNL A   1      42.331  21.226  26.630  1.00  0.00     0.060 A 
BRANCH  72  73
ATOM     73  S   UNL A   1      42.219  19.545  25.977  1.00  0.00     0.124 S 
ATOM     74  O   UNL A   1      40.813  19.476  25.593  1.00  0.00    -0.237 OA
ATOM     75  O   UNL A   1      43.181  19.574  24.879  1.00  0.00    -0.237 OA
ATOM     76  O   UNL A   1      42.606  18.719  27.116  1.00  0.00    -0.744 OA
ENDBRANCH  72  73
ENDBRANCH  40  65
BRANCH  52  77
ATOM     77  C   UNL A   1      48.181  27.713  29.158  1.00  0.00     0.058 A 
ATOM     78  C   UNL A   1      48.809  27.036  30.213  1.00  0.00     0.135 A 
ATOM     79  C   UNL A   1      48.961  28.073  28.047  1.00  0.00     0.135 A 
ATOM     80  F   UNL A   1      48.108  26.679  31.300  1.00  0.00    -0.206 F 
ATOM     81  C   UNL A   1      50.167  26.733  30.174  1.00  0.00     0.059 A 
ATOM     82  C   UNL A   1      50.316  27.764  27.978  1.00  0.00     0.059 A 
ATOM     83  F   UNL A   1      48.403  28.716  27.010  1.00  0.00    -0.206 F 
ATOM     84  C   UNL A   1      50.911  27.101  29.050  1.00  0.00     0.060 A 
BRANCH  84  85
ATOM     85  S   UNL A   1      52.663  26.664  28.986  1.00  0.00     0.124 S 
ATOM     86  O   UNL A   1      52.673  25.643  27.943  1.00  0.00    -0.237 OA
ATOM     87  O   UNL A   1      53.293  27.933  28.636  1.00  0.00    -0.237 OA
ATOM     88  O   UNL A   1      52.940  26.185  30.338  1.00  0.00    -0.744 OA
ENDBRANCH  84  85
ENDBRANCH  52  77
ENDBRANCH  26  27
ENDBRANCH  19  21
ENDBRANCH  18  19
ENDBRANCH  17  18
ENDBRANCH   1  17
TORSDOF 17
ENDMDL
