MODEL 1
REMARK VINA RESULT:     -11.5      0.000      0.000
REMARK SMILES CC[N@@H+](C)Cc1cc2c(cc1Cl)C=C(C(=O)OCCOC(=O)c1ccc(-c3c4nc(c(-c5c(F)cc(S(=O)(=O)[O-])cc5F)c5ccc([nH]5)c(-c5c(F)cc(S(=O)(=O)[O-])cc5F)c5nc(c(-c6c(F)cc(S(=O)(=O)[O-])cc6F)c6ccc3[nH]6)C=C5)C=C4)cc1)[C@@H](C(F)(F)F)O2
REMARK SMILES IDX 18 1 17 2 15 3 16 4 14 5 6 6 7 7 11 8 8 9 10 10 12 11 9 12
REMARK SMILES IDX 94 13 13 14 89 15 5 16 3 17 4 18 2 20 1 21 90 22 91 23 92 24
REMARK SMILES IDX 93 25 19 26 20 27 21 28 22 29 23 30 24 31 88 32 25 33 87 34
REMARK SMILES IDX 26 35 27 36 28 37 81 38 29 39 86 40 80 41 82 42 30 43 85 44
REMARK SMILES IDX 79 45 78 46 31 48 65 49 44 50 64 51 45 52 48 53 63 54 83 55
REMARK SMILES IDX 46 56 47 57 62 59 84 60 49 61 32 62 33 63 42 64 34 65 35 66
REMARK SMILES IDX 41 67 43 68 36 69 37 70 38 71 39 72 40 73 66 74 67 75 76 76
REMARK SMILES IDX 68 77 69 78 75 79 77 80 70 81 71 82 72 83 73 84 74 85 50 86
REMARK SMILES IDX 51 87 60 88 52 89 53 90 59 91 61 92 54 93 55 94 56 95 57 96
REMARK SMILES IDX 58 97
REMARK H PARENT 3 19 82 47 48 58
REMARK Flexibility Score: inf
ROOT
ATOM      1  C   UNL A   1      32.821  27.849  25.517  1.00  0.00     0.275 C 
ENDROOT
BRANCH   1   2
ATOM      2  O   UNL A   1      32.818  26.440  25.193  1.00  0.00    -0.459 OA
BRANCH   2   3
ATOM      3  C   UNL A   1      32.085  25.665  26.024  1.00  0.00     0.338 C 
ATOM      4  O   UNL A   1      31.375  26.057  26.940  1.00  0.00    -0.246 OA
BRANCH   3   5
ATOM      5  C   UNL A   1      32.212  24.237  25.679  1.00  0.00     0.087 C 
ATOM      6  C   UNL A   1      34.106  19.716  24.528  1.00  0.00     0.029 A 
ATOM      7  C   UNL A   1      32.827  20.312  24.409  1.00  0.00     0.058 A 
ATOM      8  C   UNL A   1      35.168  20.509  24.991  1.00  0.00     0.050 A 
ATOM      9  C   UNL A   1      32.594  21.617  24.835  1.00  0.00     0.128 A 
ATOM     10  C   UNL A   1      34.932  21.808  25.426  1.00  0.00     0.033 A 
ATOM     11  Cl  UNL A   1      36.807  19.971  25.036  1.00  0.00    -0.084 Cl
ATOM     12  C   UNL A   1      33.646  22.348  25.363  1.00  0.00     0.019 A 
ATOM     13  O   UNL A   1      31.315  22.095  24.746  1.00  0.00    -0.475 OA
ATOM     14  C   UNL A   1      33.420  23.691  25.830  1.00  0.00     0.027 C 
ATOM     15  C   UNL A   1      31.071  23.508  25.032  1.00  0.00     0.316 C 
BRANCH   6  16
ATOM     16  C   UNL A   1      34.267  18.239  24.219  1.00  0.00     0.300 C 
BRANCH  16  17
ATOM     17  N   UNL A   1      33.996  17.307  25.338  1.00  0.00    -0.334 N 
ATOM     18  C   UNL A   1      34.872  16.139  25.332  1.00  0.00     0.333 C 
ATOM     19  H   UNL A   1      34.209  17.861  26.167  1.00  0.00     0.348 HD
BRANCH  17  20
ATOM     20  C   UNL A   1      32.589  16.893  25.459  1.00  0.00     0.258 C 
ATOM     21  C   UNL A   1      32.426  15.400  25.714  1.00  0.00     0.071 C 
ENDBRANCH  17  20
ENDBRANCH  16  17
ENDBRANCH   6  16
BRANCH  15  22
ATOM     22  C   UNL A   1      30.634  24.209  23.737  1.00  0.00     0.430 C 
ATOM     23  F   UNL A   1      31.705  24.617  23.013  1.00  0.00    -0.167 F 
ATOM     24  F   UNL A   1      29.924  23.379  22.935  1.00  0.00    -0.167 F 
ATOM     25  F   UNL A   1      29.868  25.298  23.976  1.00  0.00    -0.167 F 
ENDBRANCH  15  22
ENDBRANCH   3   5
ENDBRANCH   2   3
ENDBRANCH   1   2
BRANCH   1  26
ATOM     26  C   UNL A   1      34.141  28.291  26.153  1.00  0.00     0.275 C 
BRANCH  26  27
ATOM     27  O   UNL A   1      33.959  28.689  27.525  1.00  0.00    -0.458 OA
BRANCH  27  28
ATOM     28  C   UNL A   1      34.391  29.936  27.816  1.00  0.00     0.338 C 
ATOM     29  O   UNL A   1      33.730  30.960  27.839  1.00  0.00    -0.246 OA
BRANCH  28  30
ATOM     30  C   UNL A   1      35.798  29.896  28.238  1.00  0.00     0.060 A 
ATOM     31  C   UNL A   1      36.182  29.395  29.473  1.00  0.00     0.016 A 
ATOM     32  C   UNL A   1      36.760  30.199  27.284  1.00  0.00     0.016 A 
ATOM     33  C   UNL A   1      37.546  29.205  29.731  1.00  0.00     0.010 A 
ATOM     34  C   UNL A   1      38.086  29.834  27.473  1.00  0.00     0.010 A 
ATOM     35  C   UNL A   1      38.516  29.375  28.719  1.00  0.00    -0.014 A 
BRANCH  35  36
ATOM     36  C   UNL A   1      39.963  29.099  28.964  1.00  0.00     0.031 A 
ATOM     37  C   UNL A   1      40.576  27.760  28.608  1.00  0.00     0.074 A 
ATOM     38  C   UNL A   1      40.734  30.053  29.529  1.00  0.00     0.049 A 
ATOM     39  N   UNL A   1      41.825  27.373  28.704  1.00  0.00    -0.248 NA
ATOM     40  C   UNL A   1      39.675  26.701  28.123  1.00  0.00     0.031 C 
ATOM     41  C   UNL A   1      40.252  31.345  30.029  1.00  0.00     0.029 A 
ATOM     42  N   UNL A   1      42.089  30.103  29.753  1.00  0.00    -0.354 N 
ATOM     43  C   UNL A   1      41.846  26.039  28.309  1.00  0.00     0.074 A 
ATOM     44  C   UNL A   1      40.478  25.650  28.064  1.00  0.00     0.031 C 
ATOM     45  C   UNL A   1      41.301  32.094  30.402  1.00  0.00     0.029 A 
ATOM     46  C   UNL A   1      42.526  31.324  30.219  1.00  0.00     0.049 A 
ATOM     47  H   UNL A   1      42.690  29.341  29.596  1.00  0.00     0.167 HD
ATOM     48  C   UNL A   1      42.908  25.222  28.108  1.00  0.00     0.037 A 
ATOM     49  C   UNL A   1      43.772  31.783  30.447  1.00  0.00     0.037 A 
ATOM     50  C   UNL A   1      44.274  25.630  28.292  1.00  0.00     0.049 A 
ATOM     51  C   UNL A   1      44.942  30.879  30.173  1.00  0.00     0.074 A 
ATOM     52  C   UNL A   1      45.428  24.908  28.048  1.00  0.00     0.029 A 
ATOM     53  N   UNL A   1      44.669  26.878  28.753  1.00  0.00    -0.354 N 
ATOM     54  N   UNL A   1      44.941  29.647  29.720  1.00  0.00    -0.248 NA
ATOM     55  C   UNL A   1      46.281  31.423  30.437  1.00  0.00     0.031 C 
ATOM     56  C   UNL A   1      46.522  25.706  28.397  1.00  0.00     0.029 A 
ATOM     57  C   UNL A   1      46.050  26.942  28.812  1.00  0.00     0.049 A 
ATOM     58  H   UNL A   1      44.058  27.608  29.001  1.00  0.00     0.167 HD
ATOM     59  C   UNL A   1      46.278  29.275  29.628  1.00  0.00     0.074 A 
ATOM     60  C   UNL A   1      47.059  30.418  30.054  1.00  0.00     0.031 C 
ATOM     61  C   UNL A   1      46.809  28.093  29.233  1.00  0.00     0.037 A 
BRANCH  48  62
ATOM     62  C   UNL A   1      42.640  23.822  27.616  1.00  0.00     0.058 A 
ATOM     63  C   UNL A   1      42.550  23.535  26.244  1.00  0.00     0.135 A 
ATOM     64  C   UNL A   1      42.522  22.750  28.515  1.00  0.00     0.135 A 
ATOM     65  F   UNL A   1      42.641  24.522  25.337  1.00  0.00    -0.206 F 
ATOM     66  C   UNL A   1      42.326  22.242  25.781  1.00  0.00     0.059 A 
ATOM     67  C   UNL A   1      42.330  21.442  28.072  1.00  0.00     0.059 A 
ATOM     68  F   UNL A   1      42.601  22.964  29.837  1.00  0.00    -0.206 F 
ATOM     69  C   UNL A   1      42.221  21.201  26.704  1.00  0.00     0.060 A 
BRANCH  69  70
ATOM     70  S   UNL A   1      41.955  19.528  26.080  1.00  0.00     0.124 S 
ATOM     71  O   UNL A   1      42.857  19.497  24.933  1.00  0.00    -0.237 OA
ATOM     72  O   UNL A   1      42.353  18.706  27.219  1.00  0.00    -0.237 OA
ATOM     73  O   UNL A   1      40.532  19.505  25.760  1.00  0.00    -0.744 OA
ENDBRANCH  69  70
ENDBRANCH  48  62
BRANCH  49  74
ATOM     74  C   UNL A   1      43.972  33.189  30.894  1.00  0.00     0.058 A 
ATOM     75  C   UNL A   1      44.130  34.224  29.959  1.00  0.00     0.135 A 
ATOM     76  C   UNL A   1      43.964  33.536  32.254  1.00  0.00     0.135 A 
ATOM     77  F   UNL A   1      44.150  33.945  28.647  1.00  0.00    -0.206 F 
ATOM     78  C   UNL A   1      44.279  35.550  30.356  1.00  0.00     0.059 A 
ATOM     79  C   UNL A   1      44.084  34.858  32.674  1.00  0.00     0.059 A 
ATOM     80  F   UNL A   1      43.797  32.586  33.188  1.00  0.00    -0.206 F 
ATOM     81  C   UNL A   1      44.246  35.858  31.716  1.00  0.00     0.060 A 
BRANCH  81  82
ATOM     82  S   UNL A   1      44.373  37.590  32.213  1.00  0.00     0.124 S 
ATOM     83  O   UNL A   1      43.820  38.273  31.049  1.00  0.00    -0.237 OA
ATOM     84  O   UNL A   1      43.552  37.620  33.420  1.00  0.00    -0.237 OA
ATOM     85  O   UNL A   1      45.804  37.774  32.433  1.00  0.00    -0.744 OA
ENDBRANCH  81  82
ENDBRANCH  49  74
BRANCH  61  86
ATOM     86  C   UNL A   1      48.306  27.968  29.224  1.00  0.00     0.058 A 
ATOM     87  C   UNL A   1      49.011  27.546  30.360  1.00  0.00     0.135 A 
ATOM     88  C   UNL A   1      49.030  28.184  28.040  1.00  0.00     0.135 A 
ATOM     89  F   UNL A   1      48.364  27.332  31.517  1.00  0.00    -0.206 F 
ATOM     90  C   UNL A   1      50.387  27.352  30.327  1.00  0.00     0.059 A 
ATOM     91  C   UNL A   1      50.402  27.969  27.976  1.00  0.00     0.059 A 
ATOM     92  F   UNL A   1      48.399  28.578  26.923  1.00  0.00    -0.206 F 
ATOM     93  C   UNL A   1      51.073  27.557  29.128  1.00  0.00     0.060 A 
BRANCH  93  94
ATOM     94  S   UNL A   1      52.850  27.247  29.089  1.00  0.00     0.124 S 
ATOM     95  O   UNL A   1      53.015  26.644  27.770  1.00  0.00    -0.237 OA
ATOM     96  O   UNL A   1      53.402  28.589  29.247  1.00  0.00    -0.237 OA
ATOM     97  O   UNL A   1      53.065  26.350  30.220  1.00  0.00    -0.744 OA
ENDBRANCH  93  94
ENDBRANCH  61  86
ENDBRANCH  35  36
ENDBRANCH  28  30
ENDBRANCH  27  28
ENDBRANCH  26  27
ENDBRANCH   1  26
TORSDOF 18
ENDMDL
MODEL 2
REMARK VINA RESULT:     -11.0      2.510      8.675
REMARK SMILES CC[N@@H+](C)Cc1cc2c(cc1Cl)C=C(C(=O)OCCOC(=O)c1ccc(-c3c4nc(c(-c5c(F)cc(S(=O)(=O)[O-])cc5F)c5ccc([nH]5)c(-c5c(F)cc(S(=O)(=O)[O-])cc5F)c5nc(c(-c6c(F)cc(S(=O)(=O)[O-])cc6F)c6ccc3[nH]6)C=C5)C=C4)cc1)[C@@H](C(F)(F)F)O2
REMARK SMILES IDX 18 1 17 2 15 3 16 4 14 5 6 6 7 7 11 8 8 9 10 10 12 11 9 12
REMARK SMILES IDX 94 13 13 14 89 15 5 16 3 17 4 18 2 20 1 21 90 22 91 23 92 24
REMARK SMILES IDX 93 25 19 26 20 27 21 28 22 29 23 30 24 31 88 32 25 33 87 34
REMARK SMILES IDX 26 35 27 36 28 37 81 38 29 39 86 40 80 41 82 42 30 43 85 44
REMARK SMILES IDX 79 45 78 46 31 48 65 49 44 50 64 51 45 52 48 53 63 54 83 55
REMARK SMILES IDX 46 56 47 57 62 59 84 60 49 61 32 62 33 63 42 64 34 65 35 66
REMARK SMILES IDX 41 67 43 68 36 69 37 70 38 71 39 72 40 73 66 74 67 75 76 76
REMARK SMILES IDX 68 77 69 78 75 79 77 80 70 81 71 82 72 83 73 84 74 85 50 86
REMARK SMILES IDX 51 87 60 88 52 89 53 90 59 91 61 92 54 93 55 94 56 95 57 96
REMARK SMILES IDX 58 97
REMARK H PARENT 3 19 82 47 48 58
REMARK Flexibility Score: inf
ROOT
ATOM      1  C   UNL A   1      34.073  31.082  27.304  1.00  0.00     0.275 C 
ENDROOT
BRANCH   1   2
ATOM      2  O   UNL A   1      33.918  29.742  26.783  1.00  0.00    -0.459 OA
BRANCH   2   3
ATOM      3  C   UNL A   1      32.653  29.266  26.801  1.00  0.00     0.338 C 
ATOM      4  O   UNL A   1      31.674  29.832  27.267  1.00  0.00    -0.246 OA
BRANCH   3   5
ATOM      5  C   UNL A   1      32.566  27.948  26.147  1.00  0.00     0.087 C 
ATOM      6  C   UNL A   1      33.761  23.525  24.057  1.00  0.00     0.029 A 
ATOM      7  C   UNL A   1      32.608  24.346  24.042  1.00  0.00     0.058 A 
ATOM      8  C   UNL A   1      34.907  24.000  24.714  1.00  0.00     0.050 A 
ATOM      9  C   UNL A   1      32.565  25.548  24.744  1.00  0.00     0.128 A 
ATOM     10  C   UNL A   1      34.860  25.195  25.424  1.00  0.00     0.033 A 
ATOM     11  Cl  UNL A   1      36.428  23.188  24.680  1.00  0.00    -0.084 Cl
ATOM     12  C   UNL A   1      33.687  25.952  25.451  1.00  0.00     0.019 A 
ATOM     13  O   UNL A   1      31.391  26.250  24.732  1.00  0.00    -0.475 OA
ATOM     14  C   UNL A   1      33.655  27.180  26.202  1.00  0.00     0.027 C 
ATOM     15  C   UNL A   1      31.365  27.587  25.323  1.00  0.00     0.316 C 
BRANCH   6  16
ATOM     16  C   UNL A   1      33.696  22.146  23.428  1.00  0.00     0.300 C 
BRANCH  16  17
ATOM     17  N   UNL A   1      33.460  21.017  24.356  1.00  0.00    -0.334 N 
ATOM     18  C   UNL A   1      34.692  20.351  24.770  1.00  0.00     0.333 C 
ATOM     19  H   UNL A   1      33.048  21.464  25.176  1.00  0.00     0.348 HD
BRANCH  17  20
ATOM     20  C   UNL A   1      32.478  20.031  23.879  1.00  0.00     0.258 C 
ATOM     21  C   UNL A   1      32.453  18.759  24.717  1.00  0.00     0.071 C 
ENDBRANCH  17  20
ENDBRANCH  16  17
ENDBRANCH   6  16
BRANCH  15  22
ATOM     22  C   UNL A   1      31.133  28.619  24.208  1.00  0.00     0.430 C 
ATOM     23  F   UNL A   1      30.333  28.119  23.234  1.00  0.00    -0.167 F 
ATOM     24  F   UNL A   1      30.517  29.731  24.676  1.00  0.00    -0.167 F 
ATOM     25  F   UNL A   1      32.287  29.010  23.622  1.00  0.00    -0.167 F 
ENDBRANCH  15  22
ENDBRANCH   3   5
ENDBRANCH   2   3
ENDBRANCH   1   2
BRANCH   1  26
ATOM     26  C   UNL A   1      34.929  31.112  28.572  1.00  0.00     0.275 C 
BRANCH  26  27
ATOM     27  O   UNL A   1      35.629  29.869  28.767  1.00  0.00    -0.458 OA
BRANCH  27  28
ATOM     28  C   UNL A   1      36.386  29.814  29.885  1.00  0.00     0.338 C 
ATOM     29  O   UNL A   1      35.997  29.739  31.038  1.00  0.00    -0.246 OA
BRANCH  28  30
ATOM     30  C   UNL A   1      37.809  29.733  29.527  1.00  0.00     0.060 A 
ATOM     31  C   UNL A   1      38.775  29.331  30.438  1.00  0.00     0.016 A 
ATOM     32  C   UNL A   1      38.141  29.886  28.188  1.00  0.00     0.016 A 
ATOM     33  C   UNL A   1      40.077  29.087  29.980  1.00  0.00     0.010 A 
ATOM     34  C   UNL A   1      39.375  29.463  27.710  1.00  0.00     0.010 A 
ATOM     35  C   UNL A   1      40.385  29.101  28.602  1.00  0.00    -0.014 A 
BRANCH  35  36
ATOM     36  C   UNL A   1      41.752  28.765  28.100  1.00  0.00     0.031 A 
ATOM     37  C   UNL A   1      42.853  29.804  28.072  1.00  0.00     0.074 A 
ATOM     38  C   UNL A   1      42.004  27.518  27.646  1.00  0.00     0.049 A 
ATOM     39  N   UNL A   1      44.108  29.667  27.719  1.00  0.00    -0.248 NA
ATOM     40  C   UNL A   1      42.502  31.186  28.446  1.00  0.00     0.031 C 
ATOM     41  C   UNL A   1      41.007  26.451  27.506  1.00  0.00     0.029 A 
ATOM     42  N   UNL A   1      43.176  26.922  27.247  1.00  0.00    -0.354 N 
ATOM     43  C   UNL A   1      44.675  30.934  27.815  1.00  0.00     0.074 A 
ATOM     44  C   UNL A   1      43.615  31.846  28.165  1.00  0.00     0.031 C 
ATOM     45  C   UNL A   1      41.625  25.313  27.154  1.00  0.00     0.029 A 
ATOM     46  C   UNL A   1      43.051  25.575  26.993  1.00  0.00     0.049 A 
ATOM     47  H   UNL A   1      44.024  27.412  27.152  1.00  0.00     0.167 HD
ATOM     48  C   UNL A   1      45.972  31.303  27.684  1.00  0.00     0.037 A 
ATOM     49  C   UNL A   1      43.980  24.646  26.692  1.00  0.00     0.037 A 
ATOM     50  C   UNL A   1      47.039  30.382  27.398  1.00  0.00     0.049 A 
ATOM     51  C   UNL A   1      45.421  25.065  26.598  1.00  0.00     0.074 A 
ATOM     52  C   UNL A   1      48.396  30.636  27.316  1.00  0.00     0.029 A 
ATOM     53  N   UNL A   1      46.868  29.026  27.161  1.00  0.00    -0.354 N 
ATOM     54  N   UNL A   1      45.946  26.255  26.775  1.00  0.00    -0.248 NA
ATOM     55  C   UNL A   1      46.398  24.019  26.267  1.00  0.00     0.031 C 
ATOM     56  C   UNL A   1      49.043  29.439  26.992  1.00  0.00     0.029 A 
ATOM     57  C   UNL A   1      48.094  28.432  26.920  1.00  0.00     0.049 A 
ATOM     58  H   UNL A   1      46.002  28.557  27.164  1.00  0.00     0.167 HD
ATOM     59  C   UNL A   1      47.315  26.097  26.594  1.00  0.00     0.074 A 
ATOM     60  C   UNL A   1      47.540  24.694  26.313  1.00  0.00     0.031 C 
ATOM     61  C   UNL A   1      48.296  27.030  26.650  1.00  0.00     0.037 A 
BRANCH  48  62
ATOM     62  C   UNL A   1      46.320  32.754  27.902  1.00  0.00     0.058 A 
ATOM     63  C   UNL A   1      46.154  33.707  26.883  1.00  0.00     0.135 A 
ATOM     64  C   UNL A   1      46.775  33.209  29.151  1.00  0.00     0.135 A 
ATOM     65  F   UNL A   1      45.736  33.328  25.664  1.00  0.00    -0.206 F 
ATOM     66  C   UNL A   1      46.451  35.050  27.084  1.00  0.00     0.059 A 
ATOM     67  C   UNL A   1      47.048  34.556  29.383  1.00  0.00     0.059 A 
ATOM     68  F   UNL A   1      46.952  32.345  30.162  1.00  0.00    -0.206 F 
ATOM     69  C   UNL A   1      46.894  35.467  28.340  1.00  0.00     0.060 A 
BRANCH  69  70
ATOM     70  S   UNL A   1      47.250  37.219  28.585  1.00  0.00     0.124 S 
ATOM     71  O   UNL A   1      47.397  37.288  30.036  1.00  0.00    -0.237 OA
ATOM     72  O   UNL A   1      48.478  37.396  27.816  1.00  0.00    -0.237 OA
ATOM     73  O   UNL A   1      46.072  37.887  28.042  1.00  0.00    -0.744 OA
ENDBRANCH  69  70
ENDBRANCH  48  62
BRANCH  49  74
ATOM     74  C   UNL A   1      43.578  23.223  26.530  1.00  0.00     0.058 A 
ATOM     75  C   UNL A   1      43.612  22.607  25.269  1.00  0.00     0.135 A 
ATOM     76  C   UNL A   1      43.198  22.436  27.628  1.00  0.00     0.135 A 
ATOM     77  F   UNL A   1      43.964  23.315  24.185  1.00  0.00    -0.206 F 
ATOM     78  C   UNL A   1      43.278  21.266  25.102  1.00  0.00     0.059 A 
ATOM     79  C   UNL A   1      42.886  21.087  27.490  1.00  0.00     0.059 A 
ATOM     80  F   UNL A   1      43.168  22.972  28.859  1.00  0.00    -0.206 F 
ATOM     81  C   UNL A   1      42.924  20.511  26.221  1.00  0.00     0.060 A 
BRANCH  81  82
ATOM     82  S   UNL A   1      42.558  18.756  25.999  1.00  0.00     0.124 S 
ATOM     83  O   UNL A   1      43.458  18.402  24.908  1.00  0.00    -0.237 OA
ATOM     84  O   UNL A   1      42.897  18.208  27.309  1.00  0.00    -0.237 OA
ATOM     85  O   UNL A   1      41.135  18.747  25.673  1.00  0.00    -0.744 OA
ENDBRANCH  81  82
ENDBRANCH  49  74
BRANCH  61  86
ATOM     86  C   UNL A   1      49.708  26.574  26.419  1.00  0.00     0.058 A 
ATOM     87  C   UNL A   1      50.485  26.045  27.460  1.00  0.00     0.135 A 
ATOM     88  C   UNL A   1      50.256  26.581  25.125  1.00  0.00     0.135 A 
ATOM     89  F   UNL A   1      50.007  26.021  28.715  1.00  0.00    -0.206 F 
ATOM     90  C   UNL A   1      51.762  25.546  27.229  1.00  0.00     0.059 A 
ATOM     91  C   UNL A   1      51.520  26.062  24.867  1.00  0.00     0.059 A 
ATOM     92  F   UNL A   1      49.548  27.066  24.093  1.00  0.00    -0.206 F 
ATOM     93  C   UNL A   1      52.268  25.551  25.928  1.00  0.00     0.060 A 
BRANCH  93  94
ATOM     94  S   UNL A   1      53.905  24.850  25.638  1.00  0.00     0.124 S 
ATOM     95  O   UNL A   1      54.559  25.089  26.920  1.00  0.00    -0.237 OA
ATOM     96  O   UNL A   1      53.595  23.457  25.334  1.00  0.00    -0.237 OA
ATOM     97  O   UNL A   1      54.418  25.632  24.517  1.00  0.00    -0.744 OA
ENDBRANCH  93  94
ENDBRANCH  61  86
ENDBRANCH  35  36
ENDBRANCH  28  30
ENDBRANCH  27  28
ENDBRANCH  26  27
ENDBRANCH   1  26
TORSDOF 18
ENDMDL
MODEL 3
REMARK VINA RESULT:     -11.0      3.667      8.641
REMARK SMILES CC[N@@H+](C)Cc1cc2c(cc1Cl)C=C(C(=O)OCCOC(=O)c1ccc(-c3c4nc(c(-c5c(F)cc(S(=O)(=O)[O-])cc5F)c5ccc([nH]5)c(-c5c(F)cc(S(=O)(=O)[O-])cc5F)c5nc(c(-c6c(F)cc(S(=O)(=O)[O-])cc6F)c6ccc3[nH]6)C=C5)C=C4)cc1)[C@@H](C(F)(F)F)O2
REMARK SMILES IDX 18 1 17 2 15 3 16 4 14 5 6 6 7 7 11 8 8 9 10 10 12 11 9 12
REMARK SMILES IDX 94 13 13 14 89 15 5 16 3 17 4 18 2 20 1 21 90 22 91 23 92 24
REMARK SMILES IDX 93 25 19 26 20 27 21 28 22 29 23 30 24 31 88 32 25 33 87 34
REMARK SMILES IDX 26 35 27 36 28 37 81 38 29 39 86 40 80 41 82 42 30 43 85 44
REMARK SMILES IDX 79 45 78 46 31 48 65 49 44 50 64 51 45 52 48 53 63 54 83 55
REMARK SMILES IDX 46 56 47 57 62 59 84 60 49 61 32 62 33 63 42 64 34 65 35 66
REMARK SMILES IDX 41 67 43 68 36 69 37 70 38 71 39 72 40 73 66 74 67 75 76 76
REMARK SMILES IDX 68 77 69 78 75 79 77 80 70 81 71 82 72 83 73 84 74 85 50 86
REMARK SMILES IDX 51 87 60 88 52 89 53 90 59 91 61 92 54 93 55 94 56 95 57 96
REMARK SMILES IDX 58 97
REMARK H PARENT 3 19 82 47 48 58
REMARK Flexibility Score: inf
ROOT
ATOM      1  C   UNL A   1      31.753  29.583  25.737  1.00  0.00     0.275 C 
ENDROOT
BRANCH   1   2
ATOM      2  O   UNL A   1      32.105  28.225  26.090  1.00  0.00    -0.459 OA
BRANCH   2   3
ATOM      3  C   UNL A   1      32.858  27.575  25.174  1.00  0.00     0.338 C 
ATOM      4  O   UNL A   1      33.623  28.089  24.370  1.00  0.00    -0.246 OA
BRANCH   3   5
ATOM      5  C   UNL A   1      32.676  26.115  25.269  1.00  0.00     0.087 C 
ATOM      6  C   UNL A   1      33.503  21.148  25.193  1.00  0.00     0.029 A 
ATOM      7  C   UNL A   1      32.342  21.958  25.171  1.00  0.00     0.058 A 
ATOM      8  C   UNL A   1      34.755  21.782  25.150  1.00  0.00     0.050 A 
ATOM      9  C   UNL A   1      32.426  23.348  25.213  1.00  0.00     0.128 A 
ATOM     10  C   UNL A   1      34.839  23.169  25.203  1.00  0.00     0.033 A 
ATOM     11  Cl  UNL A   1      36.248  20.929  25.008  1.00  0.00    -0.084 Cl
ATOM     12  C   UNL A   1      33.677  23.942  25.252  1.00  0.00     0.019 A 
ATOM     13  O   UNL A   1      31.255  24.054  25.256  1.00  0.00    -0.475 OA
ATOM     14  C   UNL A   1      33.785  25.376  25.319  1.00  0.00     0.027 C 
ATOM     15  C   UNL A   1      31.309  25.511  25.137  1.00  0.00     0.316 C 
BRANCH   6  16
ATOM     16  C   UNL A   1      33.355  19.645  25.328  1.00  0.00     0.300 C 
BRANCH  16  17
ATOM     17  N   UNL A   1      33.609  18.852  24.103  1.00  0.00    -0.334 N 
ATOM     18  C   UNL A   1      32.395  18.573  23.342  1.00  0.00     0.333 C 
ATOM     19  H   UNL A   1      34.204  19.463  23.543  1.00  0.00     0.348 HD
BRANCH  17  20
ATOM     20  C   UNL A   1      34.372  17.614  24.326  1.00  0.00     0.258 C 
ATOM     21  C   UNL A   1      34.208  16.601  23.200  1.00  0.00     0.071 C 
ENDBRANCH  17  20
ENDBRANCH  16  17
ENDBRANCH   6  16
BRANCH  15  22
ATOM     22  C   UNL A   1      30.648  25.926  23.814  1.00  0.00     0.430 C 
ATOM     23  F   UNL A   1      30.058  27.141  23.919  1.00  0.00    -0.167 F 
ATOM     24  F   UNL A   1      31.556  26.027  22.813  1.00  0.00    -0.167 F 
ATOM     25  F   UNL A   1      29.701  25.048  23.415  1.00  0.00    -0.167 F 
ENDBRANCH  15  22
ENDBRANCH   3   5
ENDBRANCH   2   3
ENDBRANCH   1   2
BRANCH   1  26
ATOM     26  C   UNL A   1      32.188  30.588  26.806  1.00  0.00     0.275 C 
BRANCH  26  27
ATOM     27  O   UNL A   1      33.524  30.320  27.272  1.00  0.00    -0.458 OA
BRANCH  27  28
ATOM     28  C   UNL A   1      34.225  31.414  27.643  1.00  0.00     0.338 C 
ATOM     29  O   UNL A   1      33.811  32.556  27.746  1.00  0.00    -0.246 OA
BRANCH  28  30
ATOM     30  C   UNL A   1      35.585  31.029  28.043  1.00  0.00     0.060 A 
ATOM     31  C   UNL A   1      36.613  31.957  28.141  1.00  0.00     0.016 A 
ATOM     32  C   UNL A   1      35.773  29.736  28.509  1.00  0.00     0.016 A 
ATOM     33  C   UNL A   1      37.829  31.561  28.714  1.00  0.00     0.010 A 
ATOM     34  C   UNL A   1      36.904  29.403  29.243  1.00  0.00     0.010 A 
ATOM     35  C   UNL A   1      37.977  30.293  29.319  1.00  0.00    -0.014 A 
BRANCH  35  36
ATOM     36  C   UNL A   1      39.244  29.892  30.001  1.00  0.00     0.031 A 
ATOM     37  C   UNL A   1      39.650  30.509  31.324  1.00  0.00     0.074 A 
ATOM     38  C   UNL A   1      40.050  28.978  29.420  1.00  0.00     0.049 A 
ATOM     39  N   UNL A   1      40.688  30.237  32.077  1.00  0.00    -0.248 NA
ATOM     40  C   UNL A   1      38.815  31.601  31.856  1.00  0.00     0.031 C 
ATOM     41  C   UNL A   1      39.843  28.388  28.093  1.00  0.00     0.029 A 
ATOM     42  N   UNL A   1      41.189  28.358  29.876  1.00  0.00    -0.354 N 
ATOM     43  C   UNL A   1      40.631  31.126  33.146  1.00  0.00     0.074 A 
ATOM     44  C   UNL A   1      39.517  32.009  32.902  1.00  0.00     0.031 C 
ATOM     45  C   UNL A   1      40.756  27.426  27.889  1.00  0.00     0.029 A 
ATOM     46  C   UNL A   1      41.645  27.361  29.043  1.00  0.00     0.049 A 
ATOM     47  H   UNL A   1      41.635  28.603  30.718  1.00  0.00     0.167 HD
ATOM     48  C   UNL A   1      41.396  31.171  34.263  1.00  0.00     0.037 A 
ATOM     49  C   UNL A   1      42.648  26.475  29.199  1.00  0.00     0.037 A 
ATOM     50  C   UNL A   1      42.465  30.249  34.536  1.00  0.00     0.049 A 
ATOM     51  C   UNL A   1      43.456  26.508  30.467  1.00  0.00     0.074 A 
ATOM     52  C   UNL A   1      43.256  30.158  35.667  1.00  0.00     0.029 A 
ATOM     53  N   UNL A   1      42.884  29.249  33.670  1.00  0.00    -0.354 N 
ATOM     54  N   UNL A   1      43.331  27.305  31.502  1.00  0.00    -0.248 NA
ATOM     55  C   UNL A   1      44.540  25.523  30.593  1.00  0.00     0.031 C 
ATOM     56  C   UNL A   1      44.179  29.126  35.470  1.00  0.00     0.029 A 
ATOM     57  C   UNL A   1      43.931  28.544  34.237  1.00  0.00     0.049 A 
ATOM     58  H   UNL A   1      42.494  29.069  32.784  1.00  0.00     0.167 HD
ATOM     59  C   UNL A   1      44.307  26.907  32.409  1.00  0.00     0.074 A 
ATOM     60  C   UNL A   1      45.002  25.786  31.809  1.00  0.00     0.031 C 
ATOM     61  C   UNL A   1      44.605  27.426  33.625  1.00  0.00     0.037 A 
BRANCH  48  62
ATOM     62  C   UNL A   1      41.071  32.216  35.301  1.00  0.00     0.058 A 
ATOM     63  C   UNL A   1      41.797  33.416  35.382  1.00  0.00     0.135 A 
ATOM     64  C   UNL A   1      39.996  32.044  36.189  1.00  0.00     0.135 A 
ATOM     65  F   UNL A   1      42.844  33.630  34.568  1.00  0.00    -0.206 F 
ATOM     66  C   UNL A   1      41.489  34.394  36.322  1.00  0.00     0.059 A 
ATOM     67  C   UNL A   1      39.650  33.024  37.116  1.00  0.00     0.059 A 
ATOM     68  F   UNL A   1      39.266  30.918  36.157  1.00  0.00    -0.206 F 
ATOM     69  C   UNL A   1      40.409  34.191  37.183  1.00  0.00     0.060 A 
BRANCH  69  70
ATOM     70  S   UNL A   1      40.012  35.484  38.378  1.00  0.00     0.124 S 
ATOM     71  O   UNL A   1      38.985  34.831  39.184  1.00  0.00    -0.237 OA
ATOM     72  O   UNL A   1      41.296  35.698  39.040  1.00  0.00    -0.237 OA
ATOM     73  O   UNL A   1      39.548  36.588  37.544  1.00  0.00    -0.744 OA
ENDBRANCH  69  70
ENDBRANCH  48  62
BRANCH  49  74
ATOM     74  C   UNL A   1      42.892  25.441  28.157  1.00  0.00     0.058 A 
ATOM     75  C   UNL A   1      43.973  25.558  27.268  1.00  0.00     0.135 A 
ATOM     76  C   UNL A   1      42.085  24.297  28.052  1.00  0.00     0.135 A 
ATOM     77  F   UNL A   1      44.772  26.635  27.322  1.00  0.00    -0.206 F 
ATOM     78  C   UNL A   1      44.241  24.583  26.312  1.00  0.00     0.059 A 
ATOM     79  C   UNL A   1      42.349  23.296  27.122  1.00  0.00     0.059 A 
ATOM     80  F   UNL A   1      41.050  24.127  28.890  1.00  0.00    -0.206 F 
ATOM     81  C   UNL A   1      43.428  23.451  26.252  1.00  0.00     0.060 A 
BRANCH  81  82
ATOM     82  S   UNL A   1      43.828  22.162  25.051  1.00  0.00     0.124 S 
ATOM     83  O   UNL A   1      45.225  21.888  25.366  1.00  0.00    -0.237 OA
ATOM     84  O   UNL A   1      42.876  21.114  25.403  1.00  0.00    -0.237 OA
ATOM     85  O   UNL A   1      43.586  22.812  23.766  1.00  0.00    -0.744 OA
ENDBRANCH  81  82
ENDBRANCH  49  74
BRANCH  61  86
ATOM     86  C   UNL A   1      45.718  26.786  34.404  1.00  0.00     0.058 A 
ATOM     87  C   UNL A   1      45.480  25.703  35.263  1.00  0.00     0.135 A 
ATOM     88  C   UNL A   1      47.047  27.202  34.218  1.00  0.00     0.135 A 
ATOM     89  F   UNL A   1      44.226  25.272  35.477  1.00  0.00    -0.206 F 
ATOM     90  C   UNL A   1      46.522  25.059  35.920  1.00  0.00     0.059 A 
ATOM     91  C   UNL A   1      48.106  26.554  34.843  1.00  0.00     0.059 A 
ATOM     92  F   UNL A   1      47.327  28.226  33.397  1.00  0.00    -0.206 F 
ATOM     93  C   UNL A   1      47.833  25.486  35.698  1.00  0.00     0.060 A 
BRANCH  93  94
ATOM     94  S   UNL A   1      49.176  24.602  36.516  1.00  0.00     0.124 S 
ATOM     95  O   UNL A   1      48.497  23.396  36.978  1.00  0.00    -0.237 OA
ATOM     96  O   UNL A   1      50.131  24.415  35.428  1.00  0.00    -0.237 OA
ATOM     97  O   UNL A   1      49.601  25.524  37.565  1.00  0.00    -0.744 OA
ENDBRANCH  93  94
ENDBRANCH  61  86
ENDBRANCH  35  36
ENDBRANCH  28  30
ENDBRANCH  27  28
ENDBRANCH  26  27
ENDBRANCH   1  26
TORSDOF 18
ENDMDL
