MODEL 1
REMARK VINA RESULT:     -11.5      0.000      0.000
REMARK SMILES Cc1cc(CNc2ccc(C(=O)OCCOC(=O)c3ccc(-c4c5nc(c(-c6c(F)cc(S(=O)(=O)[O-])cc6F)c6ccc([nH]6)c(-c6c(F)cc(S(=O)(=O)[O-])cc6F)c6nc(c(-c7c(F)cc(S(=O)(=O)[O-])cc7F)c7ccc4[nH]7)C=C6)C=C5)cc3)c(F)c2F)sc1C
REMARK SMILES IDX 14 1 13 2 11 3 12 4 10 5 7 6 8 7 87 8 9 9 85 10 88 11 86 12
REMARK SMILES IDX 6 13 5 15 4 16 1 17 2 18 3 19 90 20 89 21 91 22 15 23 16 24
REMARK SMILES IDX 17 25 18 26 19 27 20 28 84 29 21 30 83 31 22 32 23 33 24 34
REMARK SMILES IDX 77 35 25 36 82 37 76 38 78 39 26 40 81 41 75 42 74 43 27 45
REMARK SMILES IDX 61 46 40 47 60 48 41 49 44 50 59 51 79 52 42 53 43 54 58 56
REMARK SMILES IDX 80 57 45 58 28 59 29 60 38 61 30 62 31 63 37 64 39 65 32 66
REMARK SMILES IDX 33 67 34 68 35 69 36 70 62 71 63 72 72 73 64 74 65 75 71 76
REMARK SMILES IDX 73 77 66 78 67 79 68 80 69 81 70 82 46 83 47 84 56 85 48 86
REMARK SMILES IDX 49 87 55 88 57 89 50 90 51 91 52 92 53 93 54 94
REMARK H PARENT 6 14 78 44 44 55
REMARK Flexibility Score: inf
ROOT
ATOM      1  C   UNL A   1      39.671  21.222  26.126  1.00  0.00     0.275 C 
ENDROOT
BRANCH   1   2
ATOM      2  O   UNL A   1      38.398  21.787  25.755  1.00  0.00    -0.458 OA
BRANCH   2   3
ATOM      3  C   UNL A   1      37.564  20.975  25.065  1.00  0.00     0.341 C 
ATOM      4  O   UNL A   1      37.799  19.834  24.695  1.00  0.00    -0.246 OA
BRANCH   3   5
ATOM      5  C   UNL A   1      36.238  21.594  24.895  1.00  0.00     0.099 A 
ATOM      6  C   UNL A   1      33.655  22.704  24.640  1.00  0.00     0.074 A 
ATOM      7  C   UNL A   1      33.991  21.945  25.761  1.00  0.00     0.030 A 
ATOM      8  C   UNL A   1      34.637  22.878  23.648  1.00  0.00     0.182 A 
ATOM      9  C   UNL A   1      35.257  21.365  25.871  1.00  0.00     0.021 A 
ATOM     10  C   UNL A   1      35.917  22.345  23.775  1.00  0.00     0.175 A 
ATOM     11  F   UNL A   1      34.331  23.589  22.548  1.00  0.00    -0.201 F 
ATOM     12  F   UNL A   1      36.805  22.531  22.786  1.00  0.00    -0.203 F 
BRANCH   6  13
ATOM     13  N   UNL A   1      32.406  23.283  24.490  1.00  0.00    -0.378 N 
ATOM     14  H   UNL A   1      31.860  23.032  23.710  1.00  0.00     0.161 HD
BRANCH  13  15
ATOM     15  C   UNL A   1      31.864  24.250  25.439  1.00  0.00     0.160 C 
BRANCH  15  16
ATOM     16  C   UNL A   1      32.451  25.612  25.202  1.00  0.00     0.024 A 
ATOM     17  C   UNL A   1      34.286  28.664  26.394  1.00  0.00     0.045 C 
ATOM     18  C   UNL A   1      33.580  27.635  25.577  1.00  0.00    -0.037 A 
ATOM     19  C   UNL A   1      33.000  26.457  26.146  1.00  0.00     0.021 A 
ATOM     20  C   UNL A   1      33.400  27.657  24.203  1.00  0.00     0.005 A 
ATOM     21  S   UNL A   1      32.565  26.273  23.637  1.00  0.00    -0.144 S 
ATOM     22  C   UNL A   1      33.845  28.696  23.228  1.00  0.00     0.056 C 
ENDBRANCH  15  16
ENDBRANCH  13  15
ENDBRANCH   6  13
ENDBRANCH   3   5
ENDBRANCH   2   3
ENDBRANCH   1   2
BRANCH   1  23
ATOM     23  C   UNL A   1      40.362  22.076  27.186  1.00  0.00     0.275 C 
BRANCH  23  24
ATOM     24  O   UNL A   1      39.948  23.448  27.062  1.00  0.00    -0.458 OA
BRANCH  24  25
ATOM     25  C   UNL A   1      40.941  24.343  26.863  1.00  0.00     0.338 C 
ATOM     26  O   UNL A   1      41.879  24.256  26.089  1.00  0.00    -0.246 OA
BRANCH  25  27
ATOM     27  C   UNL A   1      40.715  25.526  27.708  1.00  0.00     0.060 A 
ATOM     28  C   UNL A   1      41.697  26.510  27.756  1.00  0.00     0.016 A 
ATOM     29  C   UNL A   1      39.614  25.593  28.557  1.00  0.00     0.016 A 
ATOM     30  C   UNL A   1      41.641  27.509  28.725  1.00  0.00     0.010 A 
ATOM     31  C   UNL A   1      39.505  26.660  29.458  1.00  0.00     0.010 A 
ATOM     32  C   UNL A   1      40.537  27.610  29.584  1.00  0.00    -0.014 A 
BRANCH  32  33
ATOM     33  C   UNL A   1      40.479  28.670  30.635  1.00  0.00     0.031 A 
ATOM     34  C   UNL A   1      41.443  28.639  31.798  1.00  0.00     0.074 A 
ATOM     35  C   UNL A   1      39.580  29.675  30.555  1.00  0.00     0.049 A 
ATOM     36  N   UNL A   1      41.429  29.336  32.906  1.00  0.00    -0.248 NA
ATOM     37  C   UNL A   1      42.565  27.689  31.707  1.00  0.00     0.031 C 
ATOM     38  C   UNL A   1      38.616  29.870  29.470  1.00  0.00     0.029 A 
ATOM     39  N   UNL A   1      39.331  30.727  31.404  1.00  0.00    -0.354 N 
ATOM     40  C   UNL A   1      42.497  28.870  33.666  1.00  0.00     0.074 A 
ATOM     41  C   UNL A   1      43.140  27.829  32.894  1.00  0.00     0.031 C 
ATOM     42  C   UNL A   1      37.914  30.991  29.696  1.00  0.00     0.029 A 
ATOM     43  C   UNL A   1      38.306  31.544  30.987  1.00  0.00     0.049 A 
ATOM     44  H   UNL A   1      39.840  30.882  32.233  1.00  0.00     0.167 HD
ATOM     45  C   UNL A   1      42.905  29.274  34.895  1.00  0.00     0.037 A 
ATOM     46  C   UNL A   1      37.709  32.591  31.591  1.00  0.00     0.037 A 
ATOM     47  C   UNL A   1      42.301  30.352  35.636  1.00  0.00     0.049 A 
ATOM     48  C   UNL A   1      38.158  33.001  32.965  1.00  0.00     0.074 A 
ATOM     49  C   UNL A   1      42.638  30.830  36.891  1.00  0.00     0.029 A 
ATOM     50  N   UNL A   1      41.251  31.135  35.180  1.00  0.00    -0.354 N 
ATOM     51  N   UNL A   1      39.116  32.494  33.704  1.00  0.00    -0.248 NA
ATOM     52  C   UNL A   1      37.427  34.106  33.601  1.00  0.00     0.031 C 
ATOM     53  C   UNL A   1      41.778  31.888  37.204  1.00  0.00     0.029 A 
ATOM     54  C   UNL A   1      40.928  32.091  36.129  1.00  0.00     0.049 A 
ATOM     55  H   UNL A   1      40.800  31.026  34.312  1.00  0.00     0.167 HD
ATOM     56  C   UNL A   1      39.111  33.228  34.884  1.00  0.00     0.074 A 
ATOM     57  C   UNL A   1      38.067  34.224  34.756  1.00  0.00     0.031 C 
ATOM     58  C   UNL A   1      39.896  33.085  35.980  1.00  0.00     0.037 A 
BRANCH  45  59
ATOM     59  C   UNL A   1      44.048  28.533  35.535  1.00  0.00     0.058 A 
ATOM     60  C   UNL A   1      43.841  27.420  36.361  1.00  0.00     0.135 A 
ATOM     61  C   UNL A   1      45.374  28.917  35.272  1.00  0.00     0.135 A 
ATOM     62  F   UNL A   1      42.595  27.021  36.659  1.00  0.00    -0.206 F 
ATOM     63  C   UNL A   1      44.908  26.723  36.922  1.00  0.00     0.059 A 
ATOM     64  C   UNL A   1      46.457  28.221  35.802  1.00  0.00     0.059 A 
ATOM     65  F   UNL A   1      45.629  29.976  34.486  1.00  0.00    -0.206 F 
ATOM     66  C   UNL A   1      46.213  27.131  36.637  1.00  0.00     0.060 A 
BRANCH  66  67
ATOM     67  S   UNL A   1      47.587  26.211  37.361  1.00  0.00     0.124 S 
ATOM     68  O   UNL A   1      47.959  25.329  36.259  1.00  0.00    -0.237 OA
ATOM     69  O   UNL A   1      48.543  27.268  37.675  1.00  0.00    -0.237 OA
ATOM     70  O   UNL A   1      46.985  25.552  38.516  1.00  0.00    -0.744 OA
ENDBRANCH  66  67
ENDBRANCH  45  59
BRANCH  46  71
ATOM     71  C   UNL A   1      36.583  33.296  30.920  1.00  0.00     0.058 A 
ATOM     72  C   UNL A   1      36.815  34.185  29.861  1.00  0.00     0.135 A 
ATOM     73  C   UNL A   1      35.254  33.097  31.327  1.00  0.00     0.135 A 
ATOM     74  F   UNL A   1      38.069  34.418  29.444  1.00  0.00    -0.206 F 
ATOM     75  C   UNL A   1      35.772  34.861  29.235  1.00  0.00     0.059 A 
ATOM     76  C   UNL A   1      34.193  33.739  30.699  1.00  0.00     0.059 A 
ATOM     77  F   UNL A   1      34.977  32.249  32.329  1.00  0.00    -0.206 F 
ATOM     78  C   UNL A   1      34.463  34.630  29.662  1.00  0.00     0.060 A 
BRANCH  78  79
ATOM     79  S   UNL A   1      33.108  35.478  28.820  1.00  0.00     0.124 S 
ATOM     80  O   UNL A   1      33.831  36.441  27.999  1.00  0.00    -0.237 OA
ATOM     81  O   UNL A   1      32.458  34.385  28.101  1.00  0.00    -0.237 OA
ATOM     82  O   UNL A   1      32.333  36.041  29.922  1.00  0.00    -0.744 OA
ENDBRANCH  78  79
ENDBRANCH  46  71
BRANCH  58  83
ATOM     83  C   UNL A   1      39.683  34.050  37.111  1.00  0.00     0.058 A 
ATOM     84  C   UNL A   1      38.907  33.713  38.229  1.00  0.00     0.135 A 
ATOM     85  C   UNL A   1      40.300  35.311  37.093  1.00  0.00     0.135 A 
ATOM     86  F   UNL A   1      38.290  32.521  38.289  1.00  0.00    -0.206 F 
ATOM     87  C   UNL A   1      38.734  34.600  39.286  1.00  0.00     0.059 A 
ATOM     88  C   UNL A   1      40.158  36.207  38.148  1.00  0.00     0.059 A 
ATOM     89  F   UNL A   1      41.059  35.678  36.048  1.00  0.00    -0.206 F 
ATOM     90  C   UNL A   1      39.364  35.845  39.236  1.00  0.00     0.060 A 
BRANCH  90  91
ATOM     91  S   UNL A   1      39.162  36.977  40.628  1.00  0.00     0.124 S 
ATOM     92  O   UNL A   1      38.528  36.113  41.619  1.00  0.00    -0.237 OA
ATOM     93  O   UNL A   1      40.537  37.368  40.918  1.00  0.00    -0.237 OA
ATOM     94  O   UNL A   1      38.317  38.035  40.085  1.00  0.00    -0.744 OA
ENDBRANCH  90  91
ENDBRANCH  58  83
ENDBRANCH  32  33
ENDBRANCH  25  27
ENDBRANCH  24  25
ENDBRANCH  23  24
ENDBRANCH   1  23
TORSDOF 17
ENDMDL
MODEL 2
REMARK VINA RESULT:     -11.4      6.630     12.166
REMARK SMILES Cc1cc(CNc2ccc(C(=O)OCCOC(=O)c3ccc(-c4c5nc(c(-c6c(F)cc(S(=O)(=O)[O-])cc6F)c6ccc([nH]6)c(-c6c(F)cc(S(=O)(=O)[O-])cc6F)c6nc(c(-c7c(F)cc(S(=O)(=O)[O-])cc7F)c7ccc4[nH]7)C=C6)C=C5)cc3)c(F)c2F)sc1C
REMARK SMILES IDX 14 1 13 2 11 3 12 4 10 5 7 6 8 7 87 8 9 9 85 10 88 11 86 12
REMARK SMILES IDX 6 13 5 15 4 16 1 17 2 18 3 19 90 20 89 21 91 22 15 23 16 24
REMARK SMILES IDX 17 25 18 26 19 27 20 28 84 29 21 30 83 31 22 32 23 33 24 34
REMARK SMILES IDX 77 35 25 36 82 37 76 38 78 39 26 40 81 41 75 42 74 43 27 45
REMARK SMILES IDX 61 46 40 47 60 48 41 49 44 50 59 51 79 52 42 53 43 54 58 56
REMARK SMILES IDX 80 57 45 58 28 59 29 60 38 61 30 62 31 63 37 64 39 65 32 66
REMARK SMILES IDX 33 67 34 68 35 69 36 70 62 71 63 72 72 73 64 74 65 75 71 76
REMARK SMILES IDX 73 77 66 78 67 79 68 80 69 81 70 82 46 83 47 84 56 85 48 86
REMARK SMILES IDX 49 87 55 88 57 89 50 90 51 91 52 92 53 93 54 94
REMARK H PARENT 6 14 78 44 44 55
REMARK Flexibility Score: inf
ROOT
ATOM      1  C   UNL A   1      34.792  33.243  30.606  1.00  0.00     0.275 C 
ENDROOT
BRANCH   1   2
ATOM      2  O   UNL A   1      35.641  33.115  29.448  1.00  0.00    -0.458 OA
BRANCH   2   3
ATOM      3  C   UNL A   1      35.015  33.110  28.248  1.00  0.00     0.341 C 
ATOM      4  O   UNL A   1      34.909  34.053  27.478  1.00  0.00    -0.246 OA
BRANCH   3   5
ATOM      5  C   UNL A   1      34.550  31.757  27.897  1.00  0.00     0.099 A 
ATOM      6  C   UNL A   1      33.765  29.136  27.202  1.00  0.00     0.074 A 
ATOM      7  C   UNL A   1      35.070  29.396  27.620  1.00  0.00     0.030 A 
ATOM      8  C   UNL A   1      32.872  30.221  27.126  1.00  0.00     0.182 A 
ATOM      9  C   UNL A   1      35.469  30.698  27.930  1.00  0.00     0.021 A 
ATOM     10  C   UNL A   1      33.250  31.514  27.481  1.00  0.00     0.175 A 
ATOM     11  F   UNL A   1      31.614  30.000  26.705  1.00  0.00    -0.201 F 
ATOM     12  F   UNL A   1      32.358  32.510  27.370  1.00  0.00    -0.203 F 
BRANCH   6  13
ATOM     13  N   UNL A   1      33.337  27.861  26.875  1.00  0.00    -0.378 N 
ATOM     14  H   UNL A   1      32.895  27.319  27.568  1.00  0.00     0.161 HD
BRANCH  13  15
ATOM     15  C   UNL A   1      33.512  27.285  25.545  1.00  0.00     0.160 C 
BRANCH  15  16
ATOM     16  C   UNL A   1      32.275  27.479  24.715  1.00  0.00     0.024 A 
ATOM     17  C   UNL A   1      28.706  26.667  23.878  1.00  0.00     0.045 C 
ATOM     18  C   UNL A   1      30.074  27.259  23.932  1.00  0.00    -0.037 A 
ATOM     19  C   UNL A   1      31.109  26.743  24.776  1.00  0.00     0.021 A 
ATOM     20  C   UNL A   1      30.525  28.357  23.217  1.00  0.00     0.005 A 
ATOM     21  S   UNL A   1      32.152  28.746  23.584  1.00  0.00    -0.144 S 
ATOM     22  C   UNL A   1      29.775  29.189  22.230  1.00  0.00     0.056 C 
ENDBRANCH  15  16
ENDBRANCH  13  15
ENDBRANCH   6  13
ENDBRANCH   3   5
ENDBRANCH   2   3
ENDBRANCH   1   2
BRANCH   1  23
ATOM     23  C   UNL A   1      35.235  32.295  31.718  1.00  0.00     0.275 C 
BRANCH  23  24
ATOM     24  O   UNL A   1      36.638  32.007  31.592  1.00  0.00    -0.458 OA
BRANCH  24  25
ATOM     25  C   UNL A   1      36.958  30.700  31.464  1.00  0.00     0.338 C 
ATOM     26  O   UNL A   1      36.260  29.734  31.722  1.00  0.00    -0.246 OA
BRANCH  25  27
ATOM     27  C   UNL A   1      38.310  30.576  30.899  1.00  0.00     0.060 A 
ATOM     28  C   UNL A   1      38.486  30.785  29.535  1.00  0.00     0.016 A 
ATOM     29  C   UNL A   1      39.367  30.113  31.679  1.00  0.00     0.016 A 
ATOM     30  C   UNL A   1      39.686  30.432  28.921  1.00  0.00     0.010 A 
ATOM     31  C   UNL A   1      40.606  29.861  31.076  1.00  0.00     0.010 A 
ATOM     32  C   UNL A   1      40.772  29.977  29.683  1.00  0.00    -0.014 A 
BRANCH  32  33
ATOM     33  C   UNL A   1      42.055  29.583  29.028  1.00  0.00     0.031 A 
ATOM     34  C   UNL A   1      42.236  28.181  28.493  1.00  0.00     0.074 A 
ATOM     35  C   UNL A   1      43.063  30.472  28.891  1.00  0.00     0.049 A 
ATOM     36  N   UNL A   1      43.325  27.585  28.080  1.00  0.00    -0.248 NA
ATOM     37  C   UNL A   1      41.031  27.336  28.427  1.00  0.00     0.031 C 
ATOM     38  C   UNL A   1      43.024  31.874  29.310  1.00  0.00     0.029 A 
ATOM     39  N   UNL A   1      44.321  30.328  28.353  1.00  0.00    -0.354 N 
ATOM     40  C   UNL A   1      42.951  26.282  27.762  1.00  0.00     0.074 A 
ATOM     41  C   UNL A   1      41.534  26.174  28.031  1.00  0.00     0.031 C 
ATOM     42  C   UNL A   1      44.180  32.469  28.979  1.00  0.00     0.029 A 
ATOM     43  C   UNL A   1      45.081  31.473  28.412  1.00  0.00     0.049 A 
ATOM     44  H   UNL A   1      44.646  29.484  27.963  1.00  0.00     0.167 HD
ATOM     45  C   UNL A   1      43.720  25.271  27.288  1.00  0.00     0.037 A 
ATOM     46  C   UNL A   1      46.373  31.692  28.095  1.00  0.00     0.037 A 
ATOM     47  C   UNL A   1      45.118  25.399  26.964  1.00  0.00     0.049 A 
ATOM     48  C   UNL A   1      47.213  30.548  27.601  1.00  0.00     0.074 A 
ATOM     49  C   UNL A   1      45.984  24.429  26.485  1.00  0.00     0.029 A 
ATOM     50  N   UNL A   1      45.850  26.573  27.061  1.00  0.00    -0.354 N 
ATOM     51  N   UNL A   1      46.864  29.303  27.385  1.00  0.00    -0.248 NA
ATOM     52  C   UNL A   1      48.631  30.832  27.333  1.00  0.00     0.031 C 
ATOM     53  C   UNL A   1      47.244  25.012  26.314  1.00  0.00     0.029 A 
ATOM     54  C   UNL A   1      47.155  26.352  26.652  1.00  0.00     0.049 A 
ATOM     55  H   UNL A   1      45.495  27.435  27.375  1.00  0.00     0.167 HD
ATOM     56  C   UNL A   1      48.014  28.659  26.943  1.00  0.00     0.074 A 
ATOM     57  C   UNL A   1      49.066  29.654  26.907  1.00  0.00     0.031 C 
ATOM     58  C   UNL A   1      48.186  27.357  26.607  1.00  0.00     0.037 A 
BRANCH  45  59
ATOM     59  C   UNL A   1      43.077  23.922  27.112  1.00  0.00     0.058 A 
ATOM     60  C   UNL A   1      42.835  23.068  28.196  1.00  0.00     0.135 A 
ATOM     61  C   UNL A   1      42.650  23.503  25.840  1.00  0.00     0.135 A 
ATOM     62  F   UNL A   1      43.237  23.411  29.431  1.00  0.00    -0.206 F 
ATOM     63  C   UNL A   1      42.209  21.836  28.026  1.00  0.00     0.059 A 
ATOM     64  C   UNL A   1      42.001  22.287  25.649  1.00  0.00     0.059 A 
ATOM     65  F   UNL A   1      42.856  24.284  24.767  1.00  0.00    -0.206 F 
ATOM     66  C   UNL A   1      41.797  21.453  26.747  1.00  0.00     0.060 A 
BRANCH  66  67
ATOM     67  S   UNL A   1      40.976  19.858  26.542  1.00  0.00     0.124 S 
ATOM     68  O   UNL A   1      41.902  19.168  25.649  1.00  0.00    -0.237 OA
ATOM     69  O   UNL A   1      40.921  19.354  27.910  1.00  0.00    -0.237 OA
ATOM     70  O   UNL A   1      39.686  20.213  25.956  1.00  0.00    -0.744 OA
ENDBRANCH  66  67
ENDBRANCH  45  59
BRANCH  46  71
ATOM     71  C   UNL A   1      46.968  33.043  28.283  1.00  0.00     0.058 A 
ATOM     72  C   UNL A   1      47.572  33.405  29.496  1.00  0.00     0.135 A 
ATOM     73  C   UNL A   1      46.943  33.999  27.255  1.00  0.00     0.135 A 
ATOM     74  F   UNL A   1      47.610  32.530  30.512  1.00  0.00    -0.206 F 
ATOM     75  C   UNL A   1      48.119  34.670  29.688  1.00  0.00     0.059 A 
ATOM     76  C   UNL A   1      47.508  35.259  27.413  1.00  0.00     0.059 A 
ATOM     77  F   UNL A   1      46.387  33.699  26.071  1.00  0.00    -0.206 F 
ATOM     78  C   UNL A   1      48.082  35.590  28.639  1.00  0.00     0.060 A 
BRANCH  78  79
ATOM     79  S   UNL A   1      48.831  37.216  28.879  1.00  0.00     0.124 S 
ATOM     80  O   UNL A   1      48.041  38.039  27.971  1.00  0.00    -0.237 OA
ATOM     81  O   UNL A   1      48.616  37.450  30.304  1.00  0.00    -0.237 OA
ATOM     82  O   UNL A   1      50.222  37.001  28.491  1.00  0.00    -0.744 OA
ENDBRANCH  78  79
ENDBRANCH  46  71
BRANCH  58  83
ATOM     83  C   UNL A   1      49.549  26.943  26.132  1.00  0.00     0.058 A 
ATOM     84  C   UNL A   1      50.475  26.338  26.994  1.00  0.00     0.135 A 
ATOM     85  C   UNL A   1      49.915  27.115  24.787  1.00  0.00     0.135 A 
ATOM     86  F   UNL A   1      50.175  26.158  28.291  1.00  0.00    -0.206 F 
ATOM     87  C   UNL A   1      51.727  25.931  26.544  1.00  0.00     0.059 A 
ATOM     88  C   UNL A   1      51.153  26.698  24.310  1.00  0.00     0.059 A 
ATOM     89  F   UNL A   1      49.060  27.683  23.921  1.00  0.00    -0.206 F 
ATOM     90  C   UNL A   1      52.057  26.116  25.200  1.00  0.00     0.060 A 
BRANCH  90  91
ATOM     91  S   UNL A   1      53.670  25.554  24.616  1.00  0.00     0.124 S 
ATOM     92  O   UNL A   1      53.586  24.117  24.858  1.00  0.00    -0.237 OA
ATOM     93  O   UNL A   1      53.658  25.962  23.216  1.00  0.00    -0.237 OA
ATOM     94  O   UNL A   1      54.609  26.280  25.466  1.00  0.00    -0.744 OA
ENDBRANCH  90  91
ENDBRANCH  58  83
ENDBRANCH  32  33
ENDBRANCH  25  27
ENDBRANCH  24  25
ENDBRANCH  23  24
ENDBRANCH   1  23
TORSDOF 17
ENDMDL
MODEL 3
REMARK VINA RESULT:     -11.4      5.006     11.969
REMARK SMILES Cc1cc(CNc2ccc(C(=O)OCCOC(=O)c3ccc(-c4c5nc(c(-c6c(F)cc(S(=O)(=O)[O-])cc6F)c6ccc([nH]6)c(-c6c(F)cc(S(=O)(=O)[O-])cc6F)c6nc(c(-c7c(F)cc(S(=O)(=O)[O-])cc7F)c7ccc4[nH]7)C=C6)C=C5)cc3)c(F)c2F)sc1C
REMARK SMILES IDX 14 1 13 2 11 3 12 4 10 5 7 6 8 7 87 8 9 9 85 10 88 11 86 12
REMARK SMILES IDX 6 13 5 15 4 16 1 17 2 18 3 19 90 20 89 21 91 22 15 23 16 24
REMARK SMILES IDX 17 25 18 26 19 27 20 28 84 29 21 30 83 31 22 32 23 33 24 34
REMARK SMILES IDX 77 35 25 36 82 37 76 38 78 39 26 40 81 41 75 42 74 43 27 45
REMARK SMILES IDX 61 46 40 47 60 48 41 49 44 50 59 51 79 52 42 53 43 54 58 56
REMARK SMILES IDX 80 57 45 58 28 59 29 60 38 61 30 62 31 63 37 64 39 65 32 66
REMARK SMILES IDX 33 67 34 68 35 69 36 70 62 71 63 72 72 73 64 74 65 75 71 76
REMARK SMILES IDX 73 77 66 78 67 79 68 80 69 81 70 82 46 83 47 84 56 85 48 86
REMARK SMILES IDX 49 87 55 88 57 89 50 90 51 91 52 92 53 93 54 94
REMARK H PARENT 6 14 78 44 44 55
REMARK Flexibility Score: inf
ROOT
ATOM      1  C   UNL A   1      32.688  33.247  27.336  1.00  0.00     0.275 C 
ENDROOT
BRANCH   1   2
ATOM      2  O   UNL A   1      32.595  33.684  28.707  1.00  0.00    -0.458 OA
BRANCH   2   3
ATOM      3  C   UNL A   1      33.364  34.745  29.046  1.00  0.00     0.341 C 
ATOM      4  O   UNL A   1      33.226  35.897  28.664  1.00  0.00    -0.246 OA
BRANCH   3   5
ATOM      5  C   UNL A   1      34.363  34.374  30.064  1.00  0.00     0.099 A 
ATOM      6  C   UNL A   1      36.242  33.747  32.075  1.00  0.00     0.074 A 
ATOM      7  C   UNL A   1      35.086  34.462  32.386  1.00  0.00     0.030 A 
ATOM      8  C   UNL A   1      36.439  33.370  30.734  1.00  0.00     0.182 A 
ATOM      9  C   UNL A   1      34.173  34.804  31.385  1.00  0.00     0.021 A 
ATOM     10  C   UNL A   1      35.509  33.664  29.740  1.00  0.00     0.175 A 
ATOM     11  F   UNL A   1      37.557  32.698  30.405  1.00  0.00    -0.201 F 
ATOM     12  F   UNL A   1      35.763  33.292  28.476  1.00  0.00    -0.203 F 
BRANCH   6  13
ATOM     13  N   UNL A   1      37.175  33.402  33.038  1.00  0.00    -0.378 N 
ATOM     14  H   UNL A   1      37.995  33.942  33.115  1.00  0.00     0.161 HD
BRANCH  13  15
ATOM     15  C   UNL A   1      36.996  32.271  33.943  1.00  0.00     0.160 C 
BRANCH  15  16
ATOM     16  C   UNL A   1      38.083  31.254  33.743  1.00  0.00     0.024 A 
ATOM     17  C   UNL A   1      39.308  27.947  32.453  1.00  0.00     0.045 C 
ATOM     18  C   UNL A   1      39.198  29.307  33.056  1.00  0.00    -0.037 A 
ATOM     19  C   UNL A   1      37.947  29.982  33.223  1.00  0.00     0.021 A 
ATOM     20  C   UNL A   1      40.246  30.093  33.511  1.00  0.00     0.005 A 
ATOM     21  S   UNL A   1      39.709  31.607  34.104  1.00  0.00    -0.144 S 
ATOM     22  C   UNL A   1      41.704  29.773  33.522  1.00  0.00     0.056 C 
ENDBRANCH  15  16
ENDBRANCH  13  15
ENDBRANCH   6  13
ENDBRANCH   3   5
ENDBRANCH   2   3
ENDBRANCH   1   2
BRANCH   1  23
ATOM     23  C   UNL A   1      32.711  31.723  27.247  1.00  0.00     0.275 C 
BRANCH  23  24
ATOM     24  O   UNL A   1      33.703  31.191  28.143  1.00  0.00    -0.458 OA
BRANCH  24  25
ATOM     25  C   UNL A   1      34.207  29.983  27.806  1.00  0.00     0.338 C 
ATOM     26  O   UNL A   1      33.628  29.061  27.258  1.00  0.00    -0.246 OA
BRANCH  25  27
ATOM     27  C   UNL A   1      35.634  29.928  28.160  1.00  0.00     0.060 A 
ATOM     28  C   UNL A   1      36.579  30.086  27.152  1.00  0.00     0.016 A 
ATOM     29  C   UNL A   1      36.034  29.576  29.447  1.00  0.00     0.016 A 
ATOM     30  C   UNL A   1      37.918  29.790  27.394  1.00  0.00     0.010 A 
ATOM     31  C   UNL A   1      37.396  29.384  29.713  1.00  0.00     0.010 A 
ATOM     32  C   UNL A   1      38.353  29.448  28.682  1.00  0.00    -0.014 A 
BRANCH  32  33
ATOM     33  C   UNL A   1      39.786  29.115  28.944  1.00  0.00     0.031 A 
ATOM     34  C   UNL A   1      40.705  30.144  29.559  1.00  0.00     0.074 A 
ATOM     35  C   UNL A   1      40.276  27.891  28.650  1.00  0.00     0.049 A 
ATOM     36  N   UNL A   1      42.008  30.128  29.677  1.00  0.00    -0.248 NA
ATOM     37  C   UNL A   1      40.073  31.360  30.100  1.00  0.00     0.031 C 
ATOM     38  C   UNL A   1      39.504  26.775  28.098  1.00  0.00     0.029 A 
ATOM     39  N   UNL A   1      41.545  27.377  28.777  1.00  0.00    -0.354 N 
ATOM     40  C   UNL A   1      42.357  31.347  30.250  1.00  0.00     0.074 A 
ATOM     41  C   UNL A   1      41.127  32.082  30.454  1.00  0.00     0.031 C 
ATOM     42  C   UNL A   1      40.300  25.702  27.976  1.00  0.00     0.029 A 
ATOM     43  C   UNL A   1      41.660  26.076  28.346  1.00  0.00     0.049 A 
ATOM     44  H   UNL A   1      42.300  27.892  29.144  1.00  0.00     0.167 HD
ATOM     45  C   UNL A   1      43.589  31.811  30.575  1.00  0.00     0.037 A 
ATOM     46  C   UNL A   1      42.742  25.282  28.213  1.00  0.00     0.037 A 
ATOM     47  C   UNL A   1      44.805  31.053  30.426  1.00  0.00     0.049 A 
ATOM     48  C   UNL A   1      44.100  25.828  28.551  1.00  0.00     0.074 A 
ATOM     49  C   UNL A   1      46.102  31.439  30.721  1.00  0.00     0.029 A 
ATOM     50  N   UNL A   1      44.874  29.747  29.964  1.00  0.00    -0.354 N 
ATOM     51  N   UNL A   1      44.420  27.013  29.013  1.00  0.00    -0.248 NA
ATOM     52  C   UNL A   1      45.249  24.939  28.324  1.00  0.00     0.031 C 
ATOM     53  C   UNL A   1      46.957  30.374  30.416  1.00  0.00     0.029 A 
ATOM     54  C   UNL A   1      46.189  29.313  29.965  1.00  0.00     0.049 A 
ATOM     55  H   UNL A   1      44.102  29.209  29.677  1.00  0.00     0.167 HD
ATOM     56  C   UNL A   1      45.804  27.007  29.144  1.00  0.00     0.074 A 
ATOM     57  C   UNL A   1      46.260  25.696  28.729  1.00  0.00     0.031 C 
ATOM     58  C   UNL A   1      46.625  28.000  29.563  1.00  0.00     0.037 A 
BRANCH  45  59
ATOM     59  C   UNL A   1      43.694  33.215  31.105  1.00  0.00     0.058 A 
ATOM     60  C   UNL A   1      43.754  33.487  32.479  1.00  0.00     0.135 A 
ATOM     61  C   UNL A   1      43.788  34.301  30.217  1.00  0.00     0.135 A 
ATOM     62  F   UNL A   1      43.652  32.489  33.371  1.00  0.00    -0.206 F 
ATOM     63  C   UNL A   1      43.884  34.788  32.957  1.00  0.00     0.059 A 
ATOM     64  C   UNL A   1      43.943  35.607  30.673  1.00  0.00     0.059 A 
ATOM     65  F   UNL A   1      43.737  34.096  28.891  1.00  0.00    -0.206 F 
ATOM     66  C   UNL A   1      43.978  35.842  32.046  1.00  0.00     0.060 A 
BRANCH  66  67
ATOM     67  S   UNL A   1      44.158  37.523  32.679  1.00  0.00     0.124 S 
ATOM     68  O   UNL A   1      45.512  37.484  33.225  1.00  0.00    -0.237 OA
ATOM     69  O   UNL A   1      43.984  38.333  31.478  1.00  0.00    -0.237 OA
ATOM     70  O   UNL A   1      43.088  37.632  33.666  1.00  0.00    -0.744 OA
ENDBRANCH  66  67
ENDBRANCH  45  59
BRANCH  46  71
ATOM     71  C   UNL A   1      42.591  23.898  27.687  1.00  0.00     0.058 A 
ATOM     72  C   UNL A   1      42.521  22.798  28.555  1.00  0.00     0.135 A 
ATOM     73  C   UNL A   1      42.517  23.648  26.307  1.00  0.00     0.135 A 
ATOM     74  F   UNL A   1      42.600  22.985  29.881  1.00  0.00    -0.206 F 
ATOM     75  C   UNL A   1      42.395  21.499  28.074  1.00  0.00     0.059 A 
ATOM     76  C   UNL A   1      42.362  22.361  25.804  1.00  0.00     0.059 A 
ATOM     77  F   UNL A   1      42.569  24.667  25.435  1.00  0.00    -0.206 F 
ATOM     78  C   UNL A   1      42.315  21.291  26.695  1.00  0.00     0.060 A 
BRANCH  78  79
ATOM     79  S   UNL A   1      42.109  19.606  26.078  1.00  0.00     0.124 S 
ATOM     80  O   UNL A   1      43.031  19.593  24.949  1.00  0.00    -0.237 OA
ATOM     81  O   UNL A   1      42.499  18.802  27.232  1.00  0.00    -0.237 OA
ATOM     82  O   UNL A   1      40.690  19.550  25.736  1.00  0.00    -0.744 OA
ENDBRANCH  78  79
ENDBRANCH  46  71
BRANCH  58  83
ATOM     83  C   UNL A   1      48.094  27.698  29.632  1.00  0.00     0.058 A 
ATOM     84  C   UNL A   1      48.677  27.142  30.780  1.00  0.00     0.135 A 
ATOM     85  C   UNL A   1      48.919  27.927  28.519  1.00  0.00     0.135 A 
ATOM     86  F   UNL A   1      47.932  26.912  31.873  1.00  0.00    -0.206 F 
ATOM     87  C   UNL A   1      50.034  26.839  30.830  1.00  0.00     0.059 A 
ATOM     88  C   UNL A   1      50.274  27.613  28.539  1.00  0.00     0.059 A 
ATOM     89  F   UNL A   1      48.406  28.451  27.394  1.00  0.00    -0.206 F 
ATOM     90  C   UNL A   1      50.824  27.079  29.704  1.00  0.00     0.060 A 
BRANCH  90  91
ATOM     91  S   UNL A   1      52.577  26.650  29.766  1.00  0.00     0.124 S 
ATOM     92  O   UNL A   1      52.779  26.050  28.451  1.00  0.00    -0.237 OA
ATOM     93  O   UNL A   1      53.210  27.948  29.974  1.00  0.00    -0.237 OA
ATOM     94  O   UNL A   1      52.662  25.731  30.896  1.00  0.00    -0.744 OA
ENDBRANCH  90  91
ENDBRANCH  58  83
ENDBRANCH  32  33
ENDBRANCH  25  27
ENDBRANCH  24  25
ENDBRANCH  23  24
ENDBRANCH   1  23
TORSDOF 17
ENDMDL
