MODEL 1
REMARK VINA RESULT:     -11.4      0.000      0.000
REMARK SMILES O=C(Cc1ccc(NC(=O)C2CCCC2)cc1)OCCOC(=O)c1ccc(-c2c3nc(c(-c4c(F)cc(S(=O)(=O)[O-])cc4F)c4ccc([nH]4)c(-c4c(F)cc(S(=O)(=O)[O-])cc4F)c4nc(c(-c5c(F)cc(S(=O)(=O)[O-])cc5F)c5ccc2[nH]5)C=C4)C=C3)cc1
REMARK SMILES IDX 19 1 18 2 2 3 1 4 3 5 4 6 5 7 17 8 6 9 16 10 7 11 8 12 9 13
REMARK SMILES IDX 10 15 11 16 12 17 15 18 13 19 14 20 20 21 21 22 22 23 23 24
REMARK SMILES IDX 24 25 25 26 89 27 26 28 88 29 27 30 28 31 29 32 82 33 30 34
REMARK SMILES IDX 87 35 81 36 83 37 31 38 86 39 80 40 79 41 32 43 66 44 45 45
REMARK SMILES IDX 65 46 46 47 49 48 64 49 84 50 47 51 48 52 63 54 85 55 50 56
REMARK SMILES IDX 33 57 34 58 43 59 35 60 36 61 42 62 44 63 37 64 38 65 39 66
REMARK SMILES IDX 40 67 41 68 67 69 68 70 77 71 69 72 70 73 76 74 78 75 71 76
REMARK SMILES IDX 72 77 73 78 74 79 75 80 51 81 52 82 61 83 53 84 54 85 60 86
REMARK SMILES IDX 62 87 55 88 56 89 57 90 58 91 59 92
REMARK H PARENT 8 14 83 42 49 53
REMARK Flexibility Score: inf
ROOT
ATOM      1  C   UNL A   1      39.320  22.527  26.371  1.00  0.00     0.274 C 
ENDROOT
BRANCH   1   2
ATOM      2  O   UNL A   1      38.719  21.230  26.169  1.00  0.00    -0.462 OA
BRANCH   2   3
ATOM      3  C   UNL A   1      37.905  20.875  25.146  1.00  0.00     0.310 C 
ATOM      4  O   UNL A   1      38.016  19.758  24.642  1.00  0.00    -0.252 OA
BRANCH   3   5
ATOM      5  C   UNL A   1      36.848  21.844  24.657  1.00  0.00     0.158 C 
BRANCH   5   6
ATOM      6  C   UNL A   1      35.611  21.902  25.507  1.00  0.00    -0.037 A 
ATOM      7  C   UNL A   1      35.444  22.917  26.450  1.00  0.00     0.006 A 
ATOM      8  C   UNL A   1      34.624  20.914  25.388  1.00  0.00     0.006 A 
ATOM      9  C   UNL A   1      34.241  23.032  27.140  1.00  0.00     0.026 A 
ATOM     10  C   UNL A   1      33.418  21.035  26.080  1.00  0.00     0.026 A 
ATOM     11  C   UNL A   1      33.189  22.158  26.873  1.00  0.00     0.041 A 
BRANCH  11  12
ATOM     12  N   UNL A   1      31.878  22.386  27.314  1.00  0.00    -0.326 N 
ATOM     13  C   UNL A   1      30.941  23.265  26.827  1.00  0.00     0.227 C 
ATOM     14  H   UNL A   1      31.588  21.840  28.080  1.00  0.00     0.169 HD
ATOM     15  O   UNL A   1      29.839  23.310  27.379  1.00  0.00    -0.274 OA
BRANCH  13  16
ATOM     16  C   UNL A   1      31.243  24.096  25.583  1.00  0.00     0.079 C 
ATOM     17  C   UNL A   1      31.007  23.351  24.266  1.00  0.00     0.013 C 
ATOM     18  C   UNL A   1      30.327  25.308  25.396  1.00  0.00     0.013 C 
ATOM     19  C   UNL A   1      31.061  24.459  23.225  1.00  0.00     0.001 C 
ATOM     20  C   UNL A   1      30.520  25.702  23.930  1.00  0.00     0.001 C 
ENDBRANCH  13  16
ENDBRANCH  11  12
ENDBRANCH   5   6
ENDBRANCH   3   5
ENDBRANCH   2   3
ENDBRANCH   1   2
BRANCH   1  21
ATOM     21  C   UNL A   1      40.846  22.448  26.283  1.00  0.00     0.275 C 
BRANCH  21  22
ATOM     22  O   UNL A   1      41.429  23.317  27.269  1.00  0.00    -0.458 OA
BRANCH  22  23
ATOM     23  C   UNL A   1      41.823  24.538  26.823  1.00  0.00     0.338 C 
ATOM     24  O   UNL A   1      42.238  24.803  25.709  1.00  0.00    -0.246 OA
BRANCH  23  25
ATOM     25  C   UNL A   1      41.444  25.555  27.834  1.00  0.00     0.060 A 
ATOM     26  C   UNL A   1      42.394  26.529  28.165  1.00  0.00     0.016 A 
ATOM     27  C   UNL A   1      40.155  25.617  28.379  1.00  0.00     0.016 A 
ATOM     28  C   UNL A   1      42.065  27.550  29.057  1.00  0.00     0.010 A 
ATOM     29  C   UNL A   1      39.828  26.641  29.274  1.00  0.00     0.010 A 
ATOM     30  C   UNL A   1      40.789  27.598  29.636  1.00  0.00    -0.014 A 
BRANCH  30  31
ATOM     31  C   UNL A   1      40.527  28.562  30.733  1.00  0.00     0.031 A 
ATOM     32  C   UNL A   1      41.342  28.454  31.993  1.00  0.00     0.074 A 
ATOM     33  C   UNL A   1      39.615  29.543  30.602  1.00  0.00     0.049 A 
ATOM     34  N   UNL A   1      41.357  29.236  33.040  1.00  0.00    -0.248 NA
ATOM     35  C   UNL A   1      42.264  27.309  32.082  1.00  0.00     0.031 C 
ATOM     36  C   UNL A   1      38.752  29.751  29.440  1.00  0.00     0.029 A 
ATOM     37  N   UNL A   1      39.268  30.553  31.464  1.00  0.00    -0.354 N 
ATOM     38  C   UNL A   1      42.312  28.701  33.896  1.00  0.00     0.074 A 
ATOM     39  C   UNL A   1      42.810  27.494  33.274  1.00  0.00     0.031 C 
ATOM     40  C   UNL A   1      37.966  30.820  29.668  1.00  0.00     0.029 A 
ATOM     41  C   UNL A   1      38.273  31.372  30.986  1.00  0.00     0.049 A 
ATOM     42  H   UNL A   1      39.692  30.680  32.344  1.00  0.00     0.167 HD
ATOM     43  C   UNL A   1      42.757  29.186  35.079  1.00  0.00     0.037 A 
ATOM     44  C   UNL A   1      37.682  32.444  31.549  1.00  0.00     0.037 A 
ATOM     45  C   UNL A   1      42.247  30.372  35.714  1.00  0.00     0.049 A 
ATOM     46  C   UNL A   1      38.160  32.939  32.893  1.00  0.00     0.074 A 
ATOM     47  C   UNL A   1      42.635  30.940  36.916  1.00  0.00     0.029 A 
ATOM     48  N   UNL A   1      41.232  31.167  35.206  1.00  0.00    -0.354 N 
ATOM     49  N   UNL A   1      39.107  32.457  33.663  1.00  0.00    -0.248 NA
ATOM     50  C   UNL A   1      37.501  34.137  33.433  1.00  0.00     0.031 C 
ATOM     51  C   UNL A   1      41.827  32.059  37.151  1.00  0.00     0.029 A 
ATOM     52  C   UNL A   1      40.967  32.212  36.076  1.00  0.00     0.049 A 
ATOM     53  H   UNL A   1      40.767  31.012  34.351  1.00  0.00     0.167 HD
ATOM     54  C   UNL A   1      39.172  33.305  34.765  1.00  0.00     0.074 A 
ATOM     55  C   UNL A   1      38.182  34.341  34.552  1.00  0.00     0.031 C 
ATOM     56  C   UNL A   1      39.977  33.235  35.853  1.00  0.00     0.037 A 
BRANCH  43  57
ATOM     57  C   UNL A   1      43.862  28.429  35.755  1.00  0.00     0.058 A 
ATOM     58  C   UNL A   1      45.210  28.729  35.500  1.00  0.00     0.135 A 
ATOM     59  C   UNL A   1      43.577  27.416  36.683  1.00  0.00     0.135 A 
ATOM     60  F   UNL A   1      45.534  29.675  34.603  1.00  0.00    -0.206 F 
ATOM     61  C   UNL A   1      46.240  28.036  36.127  1.00  0.00     0.059 A 
ATOM     62  C   UNL A   1      44.591  26.724  37.338  1.00  0.00     0.059 A 
ATOM     63  F   UNL A   1      42.306  27.086  36.956  1.00  0.00    -0.206 F 
ATOM     64  C   UNL A   1      45.920  27.034  37.044  1.00  0.00     0.060 A 
BRANCH  64  65
ATOM     65  S   UNL A   1      47.267  26.148  37.855  1.00  0.00     0.124 S 
ATOM     66  O   UNL A   1      47.583  27.048  38.960  1.00  0.00    -0.237 OA
ATOM     67  O   UNL A   1      46.634  24.887  38.227  1.00  0.00    -0.237 OA
ATOM     68  O   UNL A   1      48.285  26.051  36.813  1.00  0.00    -0.744 OA
ENDBRANCH  64  65
ENDBRANCH  43  57
BRANCH  44  69
ATOM     69  C   UNL A   1      36.570  33.140  30.849  1.00  0.00     0.058 A 
ATOM     70  C   UNL A   1      36.810  33.991  29.760  1.00  0.00     0.135 A 
ATOM     71  C   UNL A   1      35.243  32.994  31.284  1.00  0.00     0.135 A 
ATOM     72  F   UNL A   1      38.062  34.173  29.316  1.00  0.00    -0.206 F 
ATOM     73  C   UNL A   1      35.780  34.696  29.145  1.00  0.00     0.059 A 
ATOM     74  C   UNL A   1      34.193  33.669  30.669  1.00  0.00     0.059 A 
ATOM     75  F   UNL A   1      34.959  32.183  32.315  1.00  0.00    -0.206 F 
ATOM     76  C   UNL A   1      34.474  34.530  29.609  1.00  0.00     0.060 A 
BRANCH  76  77
ATOM     77  S   UNL A   1      33.137  35.429  28.792  1.00  0.00     0.124 S 
ATOM     78  O   UNL A   1      32.406  35.968  29.932  1.00  0.00    -0.237 OA
ATOM     79  O   UNL A   1      33.867  36.400  27.983  1.00  0.00    -0.237 OA
ATOM     80  O   UNL A   1      32.450  34.386  28.035  1.00  0.00    -0.744 OA
ENDBRANCH  76  77
ENDBRANCH  44  69
BRANCH  56  81
ATOM     81  C   UNL A   1      39.835  34.317  36.890  1.00  0.00     0.058 A 
ATOM     82  C   UNL A   1      38.994  34.166  38.004  1.00  0.00     0.135 A 
ATOM     83  C   UNL A   1      40.566  35.511  36.779  1.00  0.00     0.135 A 
ATOM     84  F   UNL A   1      38.273  33.045  38.157  1.00  0.00    -0.206 F 
ATOM     85  C   UNL A   1      38.853  35.176  38.950  1.00  0.00     0.059 A 
ATOM     86  C   UNL A   1      40.461  36.524  37.729  1.00  0.00     0.059 A 
ATOM     87  F   UNL A   1      41.398  35.702  35.742  1.00  0.00    -0.206 F 
ATOM     88  C   UNL A   1      39.587  36.354  38.801  1.00  0.00     0.060 A 
BRANCH  88  89
ATOM     89  S   UNL A   1      39.399  37.658  40.036  1.00  0.00     0.124 S 
ATOM     90  O   UNL A   1      40.665  38.372  39.903  1.00  0.00    -0.237 OA
ATOM     91  O   UNL A   1      38.216  38.371  39.565  1.00  0.00    -0.237 OA
ATOM     92  O   UNL A   1      39.222  36.920  41.283  1.00  0.00    -0.744 OA
ENDBRANCH  88  89
ENDBRANCH  56  81
ENDBRANCH  30  31
ENDBRANCH  23  25
ENDBRANCH  22  23
ENDBRANCH  21  22
ENDBRANCH   1  21
TORSDOF 17
ENDMDL
MODEL 2
REMARK VINA RESULT:     -11.3      1.463      2.366
REMARK SMILES O=C(Cc1ccc(NC(=O)C2CCCC2)cc1)OCCOC(=O)c1ccc(-c2c3nc(c(-c4c(F)cc(S(=O)(=O)[O-])cc4F)c4ccc([nH]4)c(-c4c(F)cc(S(=O)(=O)[O-])cc4F)c4nc(c(-c5c(F)cc(S(=O)(=O)[O-])cc5F)c5ccc2[nH]5)C=C4)C=C3)cc1
REMARK SMILES IDX 19 1 18 2 2 3 1 4 3 5 4 6 5 7 17 8 6 9 16 10 7 11 8 12 9 13
REMARK SMILES IDX 10 15 11 16 12 17 15 18 13 19 14 20 20 21 21 22 22 23 23 24
REMARK SMILES IDX 24 25 25 26 89 27 26 28 88 29 27 30 28 31 29 32 82 33 30 34
REMARK SMILES IDX 87 35 81 36 83 37 31 38 86 39 80 40 79 41 32 43 66 44 45 45
REMARK SMILES IDX 65 46 46 47 49 48 64 49 84 50 47 51 48 52 63 54 85 55 50 56
REMARK SMILES IDX 33 57 34 58 43 59 35 60 36 61 42 62 44 63 37 64 38 65 39 66
REMARK SMILES IDX 40 67 41 68 67 69 68 70 77 71 69 72 70 73 76 74 78 75 71 76
REMARK SMILES IDX 72 77 73 78 74 79 75 80 51 81 52 82 61 83 53 84 54 85 60 86
REMARK SMILES IDX 62 87 55 88 56 89 57 90 58 91 59 92
REMARK H PARENT 8 14 83 42 49 53
REMARK Flexibility Score: inf
ROOT
ATOM      1  C   UNL A   1      43.478  22.106  25.871  1.00  0.00     0.274 C 
ENDROOT
BRANCH   1   2
ATOM      2  O   UNL A   1      42.391  21.250  25.460  1.00  0.00    -0.462 OA
BRANCH   2   3
ATOM      3  C   UNL A   1      41.532  20.598  26.279  1.00  0.00     0.310 C 
ATOM      4  O   UNL A   1      41.577  19.370  26.351  1.00  0.00    -0.252 OA
BRANCH   3   5
ATOM      5  C   UNL A   1      40.549  21.389  27.118  1.00  0.00     0.158 C 
BRANCH   5   6
ATOM      6  C   UNL A   1      39.340  21.877  26.373  1.00  0.00    -0.037 A 
ATOM      7  C   UNL A   1      38.890  23.188  26.531  1.00  0.00     0.006 A 
ATOM      8  C   UNL A   1      38.626  21.008  25.536  1.00  0.00     0.006 A 
ATOM      9  C   UNL A   1      37.847  23.664  25.742  1.00  0.00     0.026 A 
ATOM     10  C   UNL A   1      37.583  21.490  24.744  1.00  0.00     0.026 A 
ATOM     11  C   UNL A   1      37.269  22.848  24.771  1.00  0.00     0.041 A 
BRANCH  11  12
ATOM     12  N   UNL A   1      36.425  23.340  23.766  1.00  0.00    -0.326 N 
ATOM     13  C   UNL A   1      35.059  23.486  23.777  1.00  0.00     0.227 C 
ATOM     14  H   UNL A   1      36.873  23.620  22.935  1.00  0.00     0.169 HD
ATOM     15  O   UNL A   1      34.511  23.936  22.768  1.00  0.00    -0.274 OA
BRANCH  13  16
ATOM     16  C   UNL A   1      34.264  23.176  25.043  1.00  0.00     0.079 C 
ATOM     17  C   UNL A   1      33.321  24.302  25.476  1.00  0.00     0.013 C 
ATOM     18  C   UNL A   1      33.280  22.014  24.901  1.00  0.00     0.013 C 
ATOM     19  C   UNL A   1      32.445  23.636  26.527  1.00  0.00     0.001 C 
ATOM     20  C   UNL A   1      32.333  22.176  26.093  1.00  0.00     0.001 C 
ENDBRANCH  13  16
ENDBRANCH  11  12
ENDBRANCH   5   6
ENDBRANCH   3   5
ENDBRANCH   2   3
ENDBRANCH   1   2
BRANCH   1  21
ATOM     21  C   UNL A   1      43.244  23.550  25.420  1.00  0.00     0.275 C 
BRANCH  21  22
ATOM     22  O   UNL A   1      42.566  24.275  26.461  1.00  0.00    -0.458 OA
BRANCH  22  23
ATOM     23  C   UNL A   1      41.900  25.390  26.066  1.00  0.00     0.338 C 
ATOM     24  O   UNL A   1      41.376  25.577  24.982  1.00  0.00    -0.246 OA
BRANCH  23  25
ATOM     25  C   UNL A   1      41.697  26.262  27.249  1.00  0.00     0.060 A 
ATOM     26  C   UNL A   1      40.644  25.947  28.117  1.00  0.00     0.016 A 
ATOM     27  C   UNL A   1      42.574  27.309  27.561  1.00  0.00     0.016 A 
ATOM     28  C   UNL A   1      40.453  26.691  29.282  1.00  0.00     0.010 A 
ATOM     29  C   UNL A   1      42.380  28.054  28.729  1.00  0.00     0.010 A 
ATOM     30  C   UNL A   1      41.304  27.764  29.582  1.00  0.00    -0.014 A 
BRANCH  30  31
ATOM     31  C   UNL A   1      40.961  28.668  30.708  1.00  0.00     0.031 A 
ATOM     32  C   UNL A   1      41.740  28.548  31.988  1.00  0.00     0.074 A 
ATOM     33  C   UNL A   1      40.006  29.609  30.584  1.00  0.00     0.049 A 
ATOM     34  N   UNL A   1      41.684  29.287  33.065  1.00  0.00    -0.248 NA
ATOM     35  C   UNL A   1      42.715  27.447  32.063  1.00  0.00     0.031 C 
ATOM     36  C   UNL A   1      39.170  29.822  29.404  1.00  0.00     0.029 A 
ATOM     37  N   UNL A   1      39.582  30.565  31.473  1.00  0.00    -0.354 N 
ATOM     38  C   UNL A   1      42.637  28.765  33.930  1.00  0.00     0.074 A 
ATOM     39  C   UNL A   1      43.213  27.610  33.279  1.00  0.00     0.031 C 
ATOM     40  C   UNL A   1      38.325  30.841  29.647  1.00  0.00     0.029 A 
ATOM     41  C   UNL A   1      38.564  31.354  30.995  1.00  0.00     0.049 A 
ATOM     42  H   UNL A   1      39.973  30.676  32.371  1.00  0.00     0.167 HD
ATOM     43  C   UNL A   1      43.021  29.222  35.145  1.00  0.00     0.037 A 
ATOM     44  C   UNL A   1      37.903  32.373  31.580  1.00  0.00     0.037 A 
ATOM     45  C   UNL A   1      42.433  30.355  35.809  1.00  0.00     0.049 A 
ATOM     46  C   UNL A   1      38.314  32.835  32.957  1.00  0.00     0.074 A 
ATOM     47  C   UNL A   1      42.755  30.892  37.044  1.00  0.00     0.029 A 
ATOM     48  N   UNL A   1      41.396  31.121  35.299  1.00  0.00    -0.354 N 
ATOM     49  N   UNL A   1      39.259  32.368  33.738  1.00  0.00    -0.248 NA
ATOM     50  C   UNL A   1      37.580  33.977  33.522  1.00  0.00     0.031 C 
ATOM     51  C   UNL A   1      41.886  31.960  37.296  1.00  0.00     0.029 A 
ATOM     52  C   UNL A   1      41.054  32.115  36.200  1.00  0.00     0.049 A 
ATOM     53  H   UNL A   1      40.967  30.978  34.424  1.00  0.00     0.167 HD
ATOM     54  C   UNL A   1      39.248  33.173  34.874  1.00  0.00     0.074 A 
ATOM     55  C   UNL A   1      38.215  34.168  34.669  1.00  0.00     0.031 C 
ATOM     56  C   UNL A   1      40.022  33.098  35.985  1.00  0.00     0.037 A 
BRANCH  43  57
ATOM     57  C   UNL A   1      44.140  28.493  35.828  1.00  0.00     0.058 A 
ATOM     58  C   UNL A   1      45.480  28.863  35.625  1.00  0.00     0.135 A 
ATOM     59  C   UNL A   1      43.877  27.434  36.710  1.00  0.00     0.135 A 
ATOM     60  F   UNL A   1      45.785  29.856  34.773  1.00  0.00    -0.206 F 
ATOM     61  C   UNL A   1      46.523  28.196  36.257  1.00  0.00     0.059 A 
ATOM     62  C   UNL A   1      44.904  26.766  37.370  1.00  0.00     0.059 A 
ATOM     63  F   UNL A   1      42.616  27.036  36.931  1.00  0.00    -0.206 F 
ATOM     64  C   UNL A   1      46.224  27.147  37.128  1.00  0.00     0.060 A 
BRANCH  64  65
ATOM     65  S   UNL A   1      47.588  26.295  37.948  1.00  0.00     0.124 S 
ATOM     66  O   UNL A   1      48.552  27.379  38.110  1.00  0.00    -0.237 OA
ATOM     67  O   UNL A   1      46.963  25.814  39.176  1.00  0.00    -0.237 OA
ATOM     68  O   UNL A   1      47.963  25.258  36.992  1.00  0.00    -0.744 OA
ENDBRANCH  64  65
ENDBRANCH  43  57
BRANCH  44  69
ATOM     69  C   UNL A   1      36.780  33.042  30.871  1.00  0.00     0.058 A 
ATOM     70  C   UNL A   1      37.012  33.959  29.835  1.00  0.00     0.135 A 
ATOM     71  C   UNL A   1      35.448  32.802  31.245  1.00  0.00     0.135 A 
ATOM     72  F   UNL A   1      38.268  34.231  29.450  1.00  0.00    -0.206 F 
ATOM     73  C   UNL A   1      35.967  34.637  29.215  1.00  0.00     0.059 A 
ATOM     74  C   UNL A   1      34.386  33.450  30.623  1.00  0.00     0.059 A 
ATOM     75  F   UNL A   1      35.173  31.925  32.223  1.00  0.00    -0.206 F 
ATOM     76  C   UNL A   1      34.656  34.378  29.619  1.00  0.00     0.060 A 
BRANCH  76  77
ATOM     77  S   UNL A   1      33.303  35.244  28.794  1.00  0.00     0.124 S 
ATOM     78  O   UNL A   1      32.529  35.727  29.931  1.00  0.00    -0.237 OA
ATOM     79  O   UNL A   1      34.011  36.261  28.023  1.00  0.00    -0.237 OA
ATOM     80  O   UNL A   1      32.672  34.193  28.000  1.00  0.00    -0.744 OA
ENDBRANCH  76  77
ENDBRANCH  44  69
BRANCH  56  81
ATOM     81  C   UNL A   1      39.794  34.129  37.058  1.00  0.00     0.058 A 
ATOM     82  C   UNL A   1      40.332  35.423  36.962  1.00  0.00     0.135 A 
ATOM     83  C   UNL A   1      39.011  33.827  38.183  1.00  0.00     0.135 A 
ATOM     84  F   UNL A   1      41.088  35.763  35.907  1.00  0.00    -0.206 F 
ATOM     85  C   UNL A   1      40.133  36.368  37.963  1.00  0.00     0.059 A 
ATOM     86  C   UNL A   1      38.777  34.766  39.184  1.00  0.00     0.059 A 
ATOM     87  F   UNL A   1      38.460  32.610  38.318  1.00  0.00    -0.206 F 
ATOM     88  C   UNL A   1      39.358  36.029  39.074  1.00  0.00     0.060 A 
BRANCH  88  89
ATOM     89  S   UNL A   1      39.104  37.263  40.367  1.00  0.00     0.124 S 
ATOM     90  O   UNL A   1      38.285  36.522  41.322  1.00  0.00    -0.237 OA
ATOM     91  O   UNL A   1      40.468  37.556  40.796  1.00  0.00    -0.237 OA
ATOM     92  O   UNL A   1      38.426  38.350  39.669  1.00  0.00    -0.744 OA
ENDBRANCH  88  89
ENDBRANCH  56  81
ENDBRANCH  30  31
ENDBRANCH  23  25
ENDBRANCH  22  23
ENDBRANCH  21  22
ENDBRANCH   1  21
TORSDOF 17
ENDMDL
MODEL 3
REMARK VINA RESULT:     -11.2      3.866      5.852
REMARK SMILES O=C(Cc1ccc(NC(=O)C2CCCC2)cc1)OCCOC(=O)c1ccc(-c2c3nc(c(-c4c(F)cc(S(=O)(=O)[O-])cc4F)c4ccc([nH]4)c(-c4c(F)cc(S(=O)(=O)[O-])cc4F)c4nc(c(-c5c(F)cc(S(=O)(=O)[O-])cc5F)c5ccc2[nH]5)C=C4)C=C3)cc1
REMARK SMILES IDX 19 1 18 2 2 3 1 4 3 5 4 6 5 7 17 8 6 9 16 10 7 11 8 12 9 13
REMARK SMILES IDX 10 15 11 16 12 17 15 18 13 19 14 20 20 21 21 22 22 23 23 24
REMARK SMILES IDX 24 25 25 26 89 27 26 28 88 29 27 30 28 31 29 32 82 33 30 34
REMARK SMILES IDX 87 35 81 36 83 37 31 38 86 39 80 40 79 41 32 43 66 44 45 45
REMARK SMILES IDX 65 46 46 47 49 48 64 49 84 50 47 51 48 52 63 54 85 55 50 56
REMARK SMILES IDX 33 57 34 58 43 59 35 60 36 61 42 62 44 63 37 64 38 65 39 66
REMARK SMILES IDX 40 67 41 68 67 69 68 70 77 71 69 72 70 73 76 74 78 75 71 76
REMARK SMILES IDX 72 77 73 78 74 79 75 80 51 81 52 82 61 83 53 84 54 85 60 86
REMARK SMILES IDX 62 87 55 88 56 89 57 90 58 91 59 92
REMARK H PARENT 8 14 83 42 49 53
REMARK Flexibility Score: inf
ROOT
ATOM      1  C   UNL A   1      42.143  22.043  25.774  1.00  0.00     0.274 C 
ENDROOT
BRANCH   1   2
ATOM      2  O   UNL A   1      43.131  22.260  24.744  1.00  0.00    -0.462 OA
BRANCH   2   3
ATOM      3  C   UNL A   1      44.441  21.922  24.808  1.00  0.00     0.310 C 
ATOM      4  O   UNL A   1      44.760  20.805  25.215  1.00  0.00    -0.252 OA
BRANCH   3   5
ATOM      5  C   UNL A   1      45.495  22.909  24.347  1.00  0.00     0.158 C 
BRANCH   5   6
ATOM      6  C   UNL A   1      45.724  24.061  25.283  1.00  0.00    -0.037 A 
ATOM      7  C   UNL A   1      44.972  25.231  25.166  1.00  0.00     0.006 A 
ATOM      8  C   UNL A   1      46.723  23.990  26.263  1.00  0.00     0.006 A 
ATOM      9  C   UNL A   1      45.106  26.240  26.115  1.00  0.00     0.026 A 
ATOM     10  C   UNL A   1      46.852  25.002  27.215  1.00  0.00     0.026 A 
ATOM     11  C   UNL A   1      45.964  26.077  27.201  1.00  0.00     0.041 A 
BRANCH  11  12
ATOM     12  N   UNL A   1      45.938  26.913  28.325  1.00  0.00    -0.326 N 
ATOM     13  C   UNL A   1      45.561  26.619  29.614  1.00  0.00     0.227 C 
ATOM     14  H   UNL A   1      46.230  27.841  28.171  1.00  0.00     0.169 HD
ATOM     15  O   UNL A   1      45.607  27.520  30.455  1.00  0.00    -0.274 OA
BRANCH  13  16
ATOM     16  C   UNL A   1      45.181  25.191  29.996  1.00  0.00     0.079 C 
ATOM     17  C   UNL A   1      45.012  24.975  31.502  1.00  0.00     0.013 C 
ATOM     18  C   UNL A   1      43.810  24.745  29.485  1.00  0.00     0.013 C 
ATOM     19  C   UNL A   1      44.341  23.612  31.585  1.00  0.00     0.001 C 
ATOM     20  C   UNL A   1      43.479  23.510  30.327  1.00  0.00     0.001 C 
ENDBRANCH  13  16
ENDBRANCH  11  12
ENDBRANCH   5   6
ENDBRANCH   3   5
ENDBRANCH   2   3
ENDBRANCH   1   2
BRANCH   1  21
ATOM     21  C   UNL A   1      42.153  23.180  26.798  1.00  0.00     0.275 C 
BRANCH  21  22
ATOM     22  O   UNL A   1      41.047  24.064  26.546  1.00  0.00    -0.458 OA
BRANCH  22  23
ATOM     23  C   UNL A   1      41.373  25.323  26.154  1.00  0.00     0.338 C 
ATOM     24  O   UNL A   1      41.561  25.701  25.012  1.00  0.00    -0.246 OA
BRANCH  23  25
ATOM     25  C   UNL A   1      41.230  26.230  27.319  1.00  0.00     0.060 A 
ATOM     26  C   UNL A   1      40.208  25.956  28.236  1.00  0.00     0.016 A 
ATOM     27  C   UNL A   1      42.133  27.272  27.565  1.00  0.00     0.016 A 
ATOM     28  C   UNL A   1      40.074  26.736  29.385  1.00  0.00     0.010 A 
ATOM     29  C   UNL A   1      41.996  28.053  28.717  1.00  0.00     0.010 A 
ATOM     30  C   UNL A   1      40.951  27.804  29.621  1.00  0.00    -0.014 A 
BRANCH  30  31
ATOM     31  C   UNL A   1      40.666  28.744  30.732  1.00  0.00     0.031 A 
ATOM     32  C   UNL A   1      41.482  28.637  31.991  1.00  0.00     0.074 A 
ATOM     33  C   UNL A   1      39.731  29.705  30.614  1.00  0.00     0.049 A 
ATOM     34  N   UNL A   1      41.478  29.405  33.050  1.00  0.00    -0.248 NA
ATOM     35  C   UNL A   1      42.432  27.514  32.064  1.00  0.00     0.031 C 
ATOM     36  C   UNL A   1      38.864  29.910  29.455  1.00  0.00     0.029 A 
ATOM     37  N   UNL A   1      39.359  30.695  31.491  1.00  0.00    -0.354 N 
ATOM     38  C   UNL A   1      42.445  28.881  33.898  1.00  0.00     0.074 A 
ATOM     39  C   UNL A   1      42.972  27.695  33.259  1.00  0.00     0.031 C 
ATOM     40  C   UNL A   1      38.052  30.956  29.697  1.00  0.00     0.029 A 
ATOM     41  C   UNL A   1      38.346  31.496  31.024  1.00  0.00     0.049 A 
ATOM     42  H   UNL A   1      39.780  30.818  32.372  1.00  0.00     0.167 HD
ATOM     43  C   UNL A   1      42.878  29.359  35.088  1.00  0.00     0.037 A 
ATOM     44  C   UNL A   1      37.729  32.546  31.601  1.00  0.00     0.037 A 
ATOM     45  C   UNL A   1      42.339  30.523  35.740  1.00  0.00     0.049 A 
ATOM     46  C   UNL A   1      38.194  33.032  32.953  1.00  0.00     0.074 A 
ATOM     47  C   UNL A   1      42.713  31.082  36.950  1.00  0.00     0.029 A 
ATOM     48  N   UNL A   1      41.306  31.301  35.243  1.00  0.00    -0.354 N 
ATOM     49  N   UNL A   1      39.152  32.562  33.716  1.00  0.00    -0.248 NA
ATOM     50  C   UNL A   1      37.506  34.206  33.510  1.00  0.00     0.031 C 
ATOM     51  C   UNL A   1      41.879  32.178  37.201  1.00  0.00     0.029 A 
ATOM     52  C   UNL A   1      41.016  32.326  36.128  1.00  0.00     0.049 A 
ATOM     53  H   UNL A   1      40.845  31.147  34.385  1.00  0.00     0.167 HD
ATOM     54  C   UNL A   1      39.196  33.396  34.830  1.00  0.00     0.074 A 
ATOM     55  C   UNL A   1      38.182  34.410  34.632  1.00  0.00     0.031 C 
ATOM     56  C   UNL A   1      40.002  33.329  35.919  1.00  0.00     0.037 A 
BRANCH  43  57
ATOM     57  C   UNL A   1      44.000  28.619  35.755  1.00  0.00     0.058 A 
ATOM     58  C   UNL A   1      45.341  28.949  35.501  1.00  0.00     0.135 A 
ATOM     59  C   UNL A   1      43.739  27.590  36.673  1.00  0.00     0.135 A 
ATOM     60  F   UNL A   1      45.643  29.912  34.613  1.00  0.00    -0.206 F 
ATOM     61  C   UNL A   1      46.387  28.272  36.118  1.00  0.00     0.059 A 
ATOM     62  C   UNL A   1      44.769  26.913  37.318  1.00  0.00     0.059 A 
ATOM     63  F   UNL A   1      42.475  27.230  36.944  1.00  0.00    -0.206 F 
ATOM     64  C   UNL A   1      46.090  27.254  37.025  1.00  0.00     0.060 A 
BRANCH  64  65
ATOM     65  S   UNL A   1      47.457  26.388  37.825  1.00  0.00     0.124 S 
ATOM     66  O   UNL A   1      46.773  25.720  38.927  1.00  0.00    -0.237 OA
ATOM     67  O   UNL A   1      47.941  25.517  36.759  1.00  0.00    -0.237 OA
ATOM     68  O   UNL A   1      48.363  27.467  38.208  1.00  0.00    -0.744 OA
ENDBRANCH  64  65
ENDBRANCH  43  57
BRANCH  44  69
ATOM     69  C   UNL A   1      36.601  33.226  30.910  1.00  0.00     0.058 A 
ATOM     70  C   UNL A   1      36.818  34.068  29.810  1.00  0.00     0.135 A 
ATOM     71  C   UNL A   1      35.281  33.073  31.366  1.00  0.00     0.135 A 
ATOM     72  F   UNL A   1      38.062  34.256  29.345  1.00  0.00    -0.206 F 
ATOM     73  C   UNL A   1      35.773  34.757  29.202  1.00  0.00     0.059 A 
ATOM     74  C   UNL A   1      34.217  33.733  30.759  1.00  0.00     0.059 A 
ATOM     75  F   UNL A   1      35.019  32.269  32.409  1.00  0.00    -0.206 F 
ATOM     76  C   UNL A   1      34.475  34.585  29.687  1.00  0.00     0.060 A 
BRANCH  76  77
ATOM     77  S   UNL A   1      33.120  35.465  28.880  1.00  0.00     0.124 S 
ATOM     78  O   UNL A   1      32.357  35.942  30.026  1.00  0.00    -0.237 OA
ATOM     79  O   UNL A   1      33.827  36.485  28.112  1.00  0.00    -0.237 OA
ATOM     80  O   UNL A   1      32.478  34.424  28.081  1.00  0.00    -0.744 OA
ENDBRANCH  76  77
ENDBRANCH  44  69
BRANCH  56  81
ATOM     81  C   UNL A   1      39.834  34.392  36.970  1.00  0.00     0.058 A 
ATOM     82  C   UNL A   1      40.479  35.636  36.872  1.00  0.00     0.135 A 
ATOM     83  C   UNL A   1      39.000  34.175  38.079  1.00  0.00     0.135 A 
ATOM     84  F   UNL A   1      41.288  35.895  35.832  1.00  0.00    -0.206 F 
ATOM     85  C   UNL A   1      40.334  36.610  37.854  1.00  0.00     0.059 A 
ATOM     86  C   UNL A   1      38.819  35.145  39.060  1.00  0.00     0.059 A 
ATOM     87  F   UNL A   1      38.346  33.009  38.215  1.00  0.00    -0.206 F 
ATOM     88  C   UNL A   1      39.506  36.353  38.948  1.00  0.00     0.060 A 
BRANCH  88  89
ATOM     89  S   UNL A   1      39.322  37.625  40.217  1.00  0.00     0.124 S 
ATOM     90  O   UNL A   1      38.278  38.466  39.639  1.00  0.00    -0.237 OA
ATOM     91  O   UNL A   1      38.933  36.848  41.389  1.00  0.00    -0.237 OA
ATOM     92  O   UNL A   1      40.648  38.229  40.285  1.00  0.00    -0.744 OA
ENDBRANCH  88  89
ENDBRANCH  56  81
ENDBRANCH  30  31
ENDBRANCH  23  25
ENDBRANCH  22  23
ENDBRANCH  21  22
ENDBRANCH   1  21
TORSDOF 17
ENDMDL
