MODEL 1
REMARK VINA RESULT:     -10.2      0.000      0.000
REMARK SMILES O=C(OCCOC(=O)c1cnc(-c2ccccc2Cl)nc1)c1ccc(-c2c3nc(c(-c4c(F)cc(S(=O)(=O)[O-])cc4F)c4ccc([nH]4)c(-c4c(F)cc(S(=O)(=O)[O-])cc4F)c4nc(c(-c5c(F)cc(S(=O)(=O)[O-])cc5F)c5ccc2[nH]5)C=C4)C=C3)cc1
REMARK SMILES IDX 4 1 3 2 2 3 1 4 22 5 23 6 87 7 24 8 86 9 25 10 26 11 27 12
REMARK SMILES IDX 80 13 28 14 85 15 79 16 81 17 29 18 84 19 78 20 77 21 30 23
REMARK SMILES IDX 64 24 43 25 63 26 44 27 47 28 62 29 82 30 45 31 46 32 61 34
REMARK SMILES IDX 83 35 48 36 31 37 32 38 41 39 33 40 34 41 40 42 42 43 35 44
REMARK SMILES IDX 36 45 37 46 38 47 39 48 65 49 66 50 75 51 67 52 68 53 74 54
REMARK SMILES IDX 76 55 69 56 70 57 71 58 72 59 73 60 49 61 50 62 59 63 51 64
REMARK SMILES IDX 52 65 58 66 60 67 53 68 54 69 55 70 56 71 57 72 5 73 6 74
REMARK SMILES IDX 7 75 8 76 9 77 10 78 21 79 11 80 20 81 12 82 13 83 14 84
REMARK SMILES IDX 18 85 15 86 17 87 19 88 16 89
REMARK H PARENT 81 22 47 33
REMARK Flexibility Score: inf
ROOT
ATOM      1  C   UNL A   1      34.653  33.037  28.180  1.00  0.00     0.275 C 
ENDROOT
BRANCH   1   2
ATOM      2  O   UNL A   1      33.931  31.836  27.877  1.00  0.00    -0.458 OA
BRANCH   2   3
ATOM      3  C   UNL A   1      34.362  30.556  27.807  1.00  0.00     0.338 C 
ATOM      4  O   UNL A   1      33.557  29.700  27.442  1.00  0.00    -0.246 OA
BRANCH   3   5
ATOM      5  C   UNL A   1      35.717  30.092  28.263  1.00  0.00     0.060 A 
ATOM      6  C   UNL A   1      36.103  29.729  29.560  1.00  0.00     0.016 A 
ATOM      7  C   UNL A   1      36.687  29.990  27.255  1.00  0.00     0.016 A 
ATOM      8  C   UNL A   1      37.373  29.207  29.836  1.00  0.00     0.010 A 
ATOM      9  C   UNL A   1      37.960  29.493  27.531  1.00  0.00     0.010 A 
ATOM     10  C   UNL A   1      38.312  29.079  28.820  1.00  0.00    -0.014 A 
BRANCH  10  11
ATOM     11  C   UNL A   1      39.719  28.726  29.120  1.00  0.00     0.031 A 
ATOM     12  C   UNL A   1      40.598  29.811  29.659  1.00  0.00     0.074 A 
ATOM     13  C   UNL A   1      40.207  27.490  28.906  1.00  0.00     0.049 A 
ATOM     14  N   UNL A   1      41.878  29.793  29.909  1.00  0.00    -0.248 NA
ATOM     15  C   UNL A   1      39.935  31.088  29.973  1.00  0.00     0.031 C 
ATOM     16  C   UNL A   1      39.425  26.339  28.475  1.00  0.00     0.029 A 
ATOM     17  N   UNL A   1      41.488  27.001  28.986  1.00  0.00    -0.354 N 
ATOM     18  C   UNL A   1      42.170  31.051  30.416  1.00  0.00     0.074 A 
ATOM     19  C   UNL A   1      40.952  31.828  30.376  1.00  0.00     0.031 C 
ATOM     20  C   UNL A   1      40.245  25.303  28.229  1.00  0.00     0.029 A 
ATOM     21  C   UNL A   1      41.616  25.716  28.504  1.00  0.00     0.049 A 
ATOM     22  H   UNL A   1      42.242  27.518  29.352  1.00  0.00     0.167 HD
ATOM     23  C   UNL A   1      43.347  31.506  30.898  1.00  0.00     0.037 A 
ATOM     24  C   UNL A   1      42.719  24.971  28.286  1.00  0.00     0.037 A 
ATOM     25  C   UNL A   1      44.551  30.725  30.897  1.00  0.00     0.049 A 
ATOM     26  C   UNL A   1      44.049  25.537  28.694  1.00  0.00     0.074 A 
ATOM     27  C   UNL A   1      45.806  31.073  31.355  1.00  0.00     0.029 A 
ATOM     28  N   UNL A   1      44.648  29.437  30.383  1.00  0.00    -0.354 N 
ATOM     29  N   UNL A   1      44.313  26.716  29.207  1.00  0.00    -0.248 NA
ATOM     30  C   UNL A   1      45.226  24.673  28.531  1.00  0.00     0.031 C 
ATOM     31  C   UNL A   1      46.675  30.015  31.069  1.00  0.00     0.029 A 
ATOM     32  C   UNL A   1      45.949  28.983  30.489  1.00  0.00     0.049 A 
ATOM     33  H   UNL A   1      43.900  28.924  30.000  1.00  0.00     0.167 HD
ATOM     34  C   UNL A   1      45.673  26.717  29.484  1.00  0.00     0.074 A 
ATOM     35  C   UNL A   1      46.184  25.430  29.052  1.00  0.00     0.031 C 
ATOM     36  C   UNL A   1      46.423  27.685  30.069  1.00  0.00     0.037 A 
BRANCH  23  37
ATOM     37  C   UNL A   1      43.360  32.917  31.413  1.00  0.00     0.058 A 
ATOM     38  C   UNL A   1      43.592  34.011  30.560  1.00  0.00     0.135 A 
ATOM     39  C   UNL A   1      43.225  33.173  32.786  1.00  0.00     0.135 A 
ATOM     40  F   UNL A   1      43.756  33.819  29.241  1.00  0.00    -0.206 F 
ATOM     41  C   UNL A   1      43.755  35.299  31.059  1.00  0.00     0.059 A 
ATOM     42  C   UNL A   1      43.352  34.459  33.302  1.00  0.00     0.059 A 
ATOM     43  F   UNL A   1      43.008  32.165  33.644  1.00  0.00    -0.206 F 
ATOM     44  C   UNL A   1      43.646  35.510  32.434  1.00  0.00     0.060 A 
BRANCH  44  45
ATOM     45  S   UNL A   1      43.924  37.174  33.075  1.00  0.00     0.124 S 
ATOM     46  O   UNL A   1      45.181  37.001  33.797  1.00  0.00    -0.237 OA
ATOM     47  O   UNL A   1      44.001  37.971  31.854  1.00  0.00    -0.237 OA
ATOM     48  O   UNL A   1      42.751  37.419  33.907  1.00  0.00    -0.744 OA
ENDBRANCH  44  45
ENDBRANCH  23  37
BRANCH  24  49
ATOM     49  C   UNL A   1      42.596  23.631  27.651  1.00  0.00     0.058 A 
ATOM     50  C   UNL A   1      42.776  23.437  26.277  1.00  0.00     0.135 A 
ATOM     51  C   UNL A   1      42.340  22.497  28.438  1.00  0.00     0.135 A 
ATOM     52  F   UNL A   1      43.002  24.488  25.475  1.00  0.00    -0.206 F 
ATOM     53  C   UNL A   1      42.723  22.166  25.706  1.00  0.00     0.059 A 
ATOM     54  C   UNL A   1      42.304  21.215  27.898  1.00  0.00     0.059 A 
ATOM     55  F   UNL A   1      42.136  22.637  29.754  1.00  0.00    -0.206 F 
ATOM     56  C   UNL A   1      42.500  21.058  26.528  1.00  0.00     0.060 A 
BRANCH  56  57
ATOM     57  S   UNL A   1      42.521  19.407  25.790  1.00  0.00     0.124 S 
ATOM     58  O   UNL A   1      41.104  19.179  25.532  1.00  0.00    -0.237 OA
ATOM     59  O   UNL A   1      43.360  19.612  24.613  1.00  0.00    -0.237 OA
ATOM     60  O   UNL A   1      43.113  18.578  26.836  1.00  0.00    -0.744 OA
ENDBRANCH  56  57
ENDBRANCH  24  49
BRANCH  36  61
ATOM     61  C   UNL A   1      47.863  27.376  30.351  1.00  0.00     0.058 A 
ATOM     62  C   UNL A   1      48.880  27.688  29.440  1.00  0.00     0.135 A 
ATOM     63  C   UNL A   1      48.231  26.882  31.614  1.00  0.00     0.135 A 
ATOM     64  F   UNL A   1      48.576  28.151  28.217  1.00  0.00    -0.206 F 
ATOM     65  C   UNL A   1      50.220  27.533  29.777  1.00  0.00     0.059 A 
ATOM     66  C   UNL A   1      49.563  26.745  31.981  1.00  0.00     0.059 A 
ATOM     67  F   UNL A   1      47.289  26.575  32.520  1.00  0.00    -0.206 F 
ATOM     68  C   UNL A   1      50.551  27.077  31.056  1.00  0.00     0.060 A 
BRANCH  68  69
ATOM     69  S   UNL A   1      52.294  26.980  31.516  1.00  0.00     0.124 S 
ATOM     70  O   UNL A   1      52.949  27.360  30.270  1.00  0.00    -0.237 OA
ATOM     71  O   UNL A   1      52.381  27.952  32.602  1.00  0.00    -0.237 OA
ATOM     72  O   UNL A   1      52.463  25.586  31.916  1.00  0.00    -0.744 OA
ENDBRANCH  68  69
ENDBRANCH  36  61
ENDBRANCH  10  11
ENDBRANCH   3   5
ENDBRANCH   2   3
ENDBRANCH   1   2
BRANCH   1  73
ATOM     73  C   UNL A   1      33.769  34.188  28.678  1.00  0.00     0.275 C 
BRANCH  73  74
ATOM     74  O   UNL A   1      34.358  34.981  29.726  1.00  0.00    -0.458 OA
BRANCH  74  75
ATOM     75  C   UNL A   1      33.874  34.756  30.980  1.00  0.00     0.341 C 
ATOM     76  O   UNL A   1      32.765  35.027  31.387  1.00  0.00    -0.246 OA
BRANCH  75  77
ATOM     77  C   UNL A   1      34.862  34.018  31.777  1.00  0.00     0.096 A 
ATOM     78  C   UNL A   1      34.791  32.671  32.016  1.00  0.00     0.131 A 
ATOM     79  C   UNL A   1      35.954  34.658  32.321  1.00  0.00     0.131 A 
ATOM     80  N   UNL A   1      35.715  31.999  32.741  1.00  0.00    -0.236 NA
ATOM     81  N   UNL A   1      36.885  34.041  33.092  1.00  0.00    -0.236 NA
ATOM     82  C   UNL A   1      36.715  32.719  33.299  1.00  0.00     0.160 A 
BRANCH  82  83
ATOM     83  C   UNL A   1      37.757  31.978  34.024  1.00  0.00     0.038 A 
ATOM     84  C   UNL A   1      38.512  31.015  33.321  1.00  0.00     0.013 A 
ATOM     85  C   UNL A   1      38.069  32.157  35.384  1.00  0.00     0.052 A 
ATOM     86  C   UNL A   1      39.536  30.287  33.934  1.00  0.00     0.001 A 
ATOM     87  C   UNL A   1      39.073  31.402  36.010  1.00  0.00     0.021 A 
ATOM     88  Cl  UNL A   1      37.264  33.296  36.396  1.00  0.00    -0.084 Cl
ATOM     89  C   UNL A   1      39.813  30.476  35.283  1.00  0.00     0.002 A 
ENDBRANCH  82  83
ENDBRANCH  75  77
ENDBRANCH  74  75
ENDBRANCH  73  74
ENDBRANCH   1  73
TORSDOF 15
ENDMDL
MODEL 2
REMARK VINA RESULT:     -10.1      3.202     11.217
REMARK SMILES O=C(OCCOC(=O)c1cnc(-c2ccccc2Cl)nc1)c1ccc(-c2c3nc(c(-c4c(F)cc(S(=O)(=O)[O-])cc4F)c4ccc([nH]4)c(-c4c(F)cc(S(=O)(=O)[O-])cc4F)c4nc(c(-c5c(F)cc(S(=O)(=O)[O-])cc5F)c5ccc2[nH]5)C=C4)C=C3)cc1
REMARK SMILES IDX 4 1 3 2 2 3 1 4 22 5 23 6 87 7 24 8 86 9 25 10 26 11 27 12
REMARK SMILES IDX 80 13 28 14 85 15 79 16 81 17 29 18 84 19 78 20 77 21 30 23
REMARK SMILES IDX 64 24 43 25 63 26 44 27 47 28 62 29 82 30 45 31 46 32 61 34
REMARK SMILES IDX 83 35 48 36 31 37 32 38 41 39 33 40 34 41 40 42 42 43 35 44
REMARK SMILES IDX 36 45 37 46 38 47 39 48 65 49 66 50 75 51 67 52 68 53 74 54
REMARK SMILES IDX 76 55 69 56 70 57 71 58 72 59 73 60 49 61 50 62 59 63 51 64
REMARK SMILES IDX 52 65 58 66 60 67 53 68 54 69 55 70 56 71 57 72 5 73 6 74
REMARK SMILES IDX 7 75 8 76 9 77 10 78 21 79 11 80 20 81 12 82 13 83 14 84
REMARK SMILES IDX 18 85 15 86 17 87 19 88 16 89
REMARK H PARENT 81 22 47 33
REMARK Flexibility Score: inf
ROOT
ATOM      1  C   UNL A   1      39.511  20.648  25.848  1.00  0.00     0.275 C 
ENDROOT
BRANCH   1   2
ATOM      2  O   UNL A   1      39.697  21.907  26.509  1.00  0.00    -0.458 OA
BRANCH   2   3
ATOM      3  C   UNL A   1      39.003  23.061  26.393  1.00  0.00     0.338 C 
ATOM      4  O   UNL A   1      37.950  23.034  25.756  1.00  0.00    -0.246 OA
BRANCH   3   5
ATOM      5  C   UNL A   1      39.490  24.397  26.881  1.00  0.00     0.060 A 
ATOM      6  C   UNL A   1      40.246  25.340  26.173  1.00  0.00     0.016 A 
ATOM      7  C   UNL A   1      39.111  24.732  28.189  1.00  0.00     0.016 A 
ATOM      8  C   UNL A   1      40.546  26.600  26.706  1.00  0.00     0.010 A 
ATOM      9  C   UNL A   1      39.429  25.976  28.732  1.00  0.00     0.010 A 
ATOM     10  C   UNL A   1      40.134  26.931  27.991  1.00  0.00    -0.014 A 
BRANCH  10  11
ATOM     11  C   UNL A   1      40.611  28.168  28.651  1.00  0.00     0.031 A 
ATOM     12  C   UNL A   1      42.014  28.171  29.171  1.00  0.00     0.074 A 
ATOM     13  C   UNL A   1      39.821  29.248  28.801  1.00  0.00     0.049 A 
ATOM     14  N   UNL A   1      42.639  29.079  29.867  1.00  0.00    -0.248 NA
ATOM     15  C   UNL A   1      42.830  26.988  28.844  1.00  0.00     0.031 C 
ATOM     16  C   UNL A   1      38.477  29.391  28.256  1.00  0.00     0.029 A 
ATOM     17  N   UNL A   1      40.019  30.420  29.490  1.00  0.00    -0.354 N 
ATOM     18  C   UNL A   1      43.920  28.582  30.055  1.00  0.00     0.074 A 
ATOM     19  C   UNL A   1      43.965  27.266  29.459  1.00  0.00     0.031 C 
ATOM     20  C   UNL A   1      37.927  30.531  28.707  1.00  0.00     0.029 A 
ATOM     21  C   UNL A   1      38.893  31.210  29.564  1.00  0.00     0.049 A 
ATOM     22  H   UNL A   1      40.882  30.672  29.891  1.00  0.00     0.167 HD
ATOM     23  C   UNL A   1      44.973  29.185  30.649  1.00  0.00     0.037 A 
ATOM     24  C   UNL A   1      38.662  32.338  30.265  1.00  0.00     0.037 A 
ATOM     25  C   UNL A   1      44.893  30.480  31.263  1.00  0.00     0.049 A 
ATOM     26  C   UNL A   1      39.800  32.935  31.044  1.00  0.00     0.074 A 
ATOM     27  C   UNL A   1      45.887  31.196  31.898  1.00  0.00     0.029 A 
ATOM     28  N   UNL A   1      43.732  31.240  31.337  1.00  0.00    -0.354 N 
ATOM     29  N   UNL A   1      41.021  32.475  31.188  1.00  0.00    -0.248 NA
ATOM     30  C   UNL A   1      39.551  34.210  31.727  1.00  0.00     0.031 C 
ATOM     31  C   UNL A   1      45.314  32.368  32.404  1.00  0.00     0.029 A 
ATOM     32  C   UNL A   1      43.978  32.411  32.030  1.00  0.00     0.049 A 
ATOM     33  H   UNL A   1      42.863  30.984  30.952  1.00  0.00     0.167 HD
ATOM     34  C   UNL A   1      41.705  33.432  31.925  1.00  0.00     0.074 A 
ATOM     35  C   UNL A   1      40.751  34.482  32.226  1.00  0.00     0.031 C 
ATOM     36  C   UNL A   1      43.010  33.450  32.294  1.00  0.00     0.037 A 
BRANCH  23  37
ATOM     37  C   UNL A   1      46.258  28.409  30.682  1.00  0.00     0.058 A 
ATOM     38  C   UNL A   1      47.264  28.606  29.720  1.00  0.00     0.135 A 
ATOM     39  C   UNL A   1      46.451  27.396  31.634  1.00  0.00     0.135 A 
ATOM     40  F   UNL A   1      47.118  29.543  28.768  1.00  0.00    -0.206 F 
ATOM     41  C   UNL A   1      48.384  27.784  29.661  1.00  0.00     0.059 A 
ATOM     42  C   UNL A   1      47.581  26.583  31.613  1.00  0.00     0.059 A 
ATOM     43  F   UNL A   1      45.521  27.162  32.571  1.00  0.00    -0.206 F 
ATOM     44  C   UNL A   1      48.527  26.766  30.605  1.00  0.00     0.060 A 
BRANCH  44  45
ATOM     45  S   UNL A   1      49.951  25.666  30.478  1.00  0.00     0.124 S 
ATOM     46  O   UNL A   1      51.058  26.615  30.547  1.00  0.00    -0.237 OA
ATOM     47  O   UNL A   1      49.784  24.803  31.643  1.00  0.00    -0.237 OA
ATOM     48  O   UNL A   1      49.763  25.013  29.186  1.00  0.00    -0.744 OA
ENDBRANCH  44  45
ENDBRANCH  23  37
BRANCH  24  49
ATOM     49  C   UNL A   1      37.306  32.952  30.259  1.00  0.00     0.058 A 
ATOM     50  C   UNL A   1      36.452  32.889  31.365  1.00  0.00     0.135 A 
ATOM     51  C   UNL A   1      36.861  33.669  29.137  1.00  0.00     0.135 A 
ATOM     52  F   UNL A   1      36.818  32.199  32.456  1.00  0.00    -0.206 F 
ATOM     53  C   UNL A   1      35.212  33.526  31.368  1.00  0.00     0.059 A 
ATOM     54  C   UNL A   1      35.638  34.333  29.121  1.00  0.00     0.059 A 
ATOM     55  F   UNL A   1      37.634  33.737  28.045  1.00  0.00    -0.206 F 
ATOM     56  C   UNL A   1      34.819  34.258  30.245  1.00  0.00     0.060 A 
BRANCH  56  57
ATOM     57  S   UNL A   1      33.248  35.152  30.293  1.00  0.00     0.124 S 
ATOM     58  O   UNL A   1      32.524  34.541  29.184  1.00  0.00    -0.237 OA
ATOM     59  O   UNL A   1      32.757  34.831  31.630  1.00  0.00    -0.237 OA
ATOM     60  O   UNL A   1      33.645  36.543  30.098  1.00  0.00    -0.744 OA
ENDBRANCH  56  57
ENDBRANCH  24  49
BRANCH  36  61
ATOM     61  C   UNL A   1      43.517  34.671  33.001  1.00  0.00     0.058 A 
ATOM     62  C   UNL A   1      43.919  35.818  32.305  1.00  0.00     0.135 A 
ATOM     63  C   UNL A   1      43.469  34.729  34.405  1.00  0.00     0.135 A 
ATOM     64  F   UNL A   1      43.992  35.806  30.965  1.00  0.00    -0.206 F 
ATOM     65  C   UNL A   1      44.245  36.991  32.978  1.00  0.00     0.059 A 
ATOM     66  C   UNL A   1      43.764  35.897  35.095  1.00  0.00     0.059 A 
ATOM     67  F   UNL A   1      43.085  33.655  35.113  1.00  0.00    -0.206 F 
ATOM     68  C   UNL A   1      44.148  37.024  34.371  1.00  0.00     0.060 A 
BRANCH  68  69
ATOM     69  S   UNL A   1      44.472  38.582  35.224  1.00  0.00     0.124 S 
ATOM     70  O   UNL A   1      45.918  38.702  35.079  1.00  0.00    -0.237 OA
ATOM     71  O   UNL A   1      43.675  39.530  34.449  1.00  0.00    -0.237 OA
ATOM     72  O   UNL A   1      43.994  38.333  36.580  1.00  0.00    -0.744 OA
ENDBRANCH  68  69
ENDBRANCH  36  61
ENDBRANCH  10  11
ENDBRANCH   3   5
ENDBRANCH   2   3
ENDBRANCH   1   2
BRANCH   1  73
ATOM     73  C   UNL A   1      40.487  19.555  26.302  1.00  0.00     0.275 C 
BRANCH  73  74
ATOM     74  O   UNL A   1      41.756  20.047  26.773  1.00  0.00    -0.458 OA
BRANCH  74  75
ATOM     75  C   UNL A   1      42.726  20.179  25.825  1.00  0.00     0.341 C 
ATOM     76  O   UNL A   1      43.048  19.353  24.999  1.00  0.00    -0.246 OA
BRANCH  75  77
ATOM     77  C   UNL A   1      43.282  21.537  25.860  1.00  0.00     0.096 A 
ATOM     78  C   UNL A   1      44.117  22.040  24.896  1.00  0.00     0.131 A 
ATOM     79  C   UNL A   1      42.964  22.408  26.878  1.00  0.00     0.131 A 
ATOM     80  N   UNL A   1      44.613  23.299  24.931  1.00  0.00    -0.236 NA
ATOM     81  N   UNL A   1      43.468  23.663  26.985  1.00  0.00    -0.236 NA
ATOM     82  C   UNL A   1      44.308  24.060  26.007  1.00  0.00     0.160 A 
BRANCH  82  83
ATOM     83  C   UNL A   1      44.786  25.450  26.008  1.00  0.00     0.038 A 
ATOM     84  C   UNL A   1      43.970  26.444  25.427  1.00  0.00     0.013 A 
ATOM     85  C   UNL A   1      46.011  25.876  26.552  1.00  0.00     0.052 A 
ATOM     86  C   UNL A   1      44.344  27.791  25.409  1.00  0.00     0.001 A 
ATOM     87  C   UNL A   1      46.404  27.223  26.504  1.00  0.00     0.021 A 
ATOM     88  Cl  UNL A   1      47.129  24.809  27.314  1.00  0.00    -0.084 Cl
ATOM     89  C   UNL A   1      45.566  28.181  25.944  1.00  0.00     0.002 A 
ENDBRANCH  82  83
ENDBRANCH  75  77
ENDBRANCH  74  75
ENDBRANCH  73  74
ENDBRANCH   1  73
TORSDOF 15
ENDMDL
MODEL 3
REMARK VINA RESULT:     -10.1      3.086      5.342
REMARK SMILES O=C(OCCOC(=O)c1cnc(-c2ccccc2Cl)nc1)c1ccc(-c2c3nc(c(-c4c(F)cc(S(=O)(=O)[O-])cc4F)c4ccc([nH]4)c(-c4c(F)cc(S(=O)(=O)[O-])cc4F)c4nc(c(-c5c(F)cc(S(=O)(=O)[O-])cc5F)c5ccc2[nH]5)C=C4)C=C3)cc1
REMARK SMILES IDX 4 1 3 2 2 3 1 4 22 5 23 6 87 7 24 8 86 9 25 10 26 11 27 12
REMARK SMILES IDX 80 13 28 14 85 15 79 16 81 17 29 18 84 19 78 20 77 21 30 23
REMARK SMILES IDX 64 24 43 25 63 26 44 27 47 28 62 29 82 30 45 31 46 32 61 34
REMARK SMILES IDX 83 35 48 36 31 37 32 38 41 39 33 40 34 41 40 42 42 43 35 44
REMARK SMILES IDX 36 45 37 46 38 47 39 48 65 49 66 50 75 51 67 52 68 53 74 54
REMARK SMILES IDX 76 55 69 56 70 57 71 58 72 59 73 60 49 61 50 62 59 63 51 64
REMARK SMILES IDX 52 65 58 66 60 67 53 68 54 69 55 70 56 71 57 72 5 73 6 74
REMARK SMILES IDX 7 75 8 76 9 77 10 78 21 79 11 80 20 81 12 82 13 83 14 84
REMARK SMILES IDX 18 85 15 86 17 87 19 88 16 89
REMARK H PARENT 81 22 47 33
REMARK Flexibility Score: inf
ROOT
ATOM      1  C   UNL A   1      32.464  30.011  26.615  1.00  0.00     0.275 C 
ENDROOT
BRANCH   1   2
ATOM      2  O   UNL A   1      33.583  29.695  27.455  1.00  0.00    -0.458 OA
BRANCH   2   3
ATOM      3  C   UNL A   1      34.523  30.504  27.992  1.00  0.00     0.338 C 
ATOM      4  O   UNL A   1      34.275  31.709  28.052  1.00  0.00    -0.246 OA
BRANCH   3   5
ATOM      5  C   UNL A   1      35.896  30.052  28.406  1.00  0.00     0.060 A 
ATOM      6  C   UNL A   1      36.298  29.587  29.664  1.00  0.00     0.016 A 
ATOM      7  C   UNL A   1      36.867  30.081  27.394  1.00  0.00     0.016 A 
ATOM      8  C   UNL A   1      37.588  29.090  29.893  1.00  0.00     0.010 A 
ATOM      9  C   UNL A   1      38.159  29.610  27.624  1.00  0.00     0.010 A 
ATOM     10  C   UNL A   1      38.529  29.093  28.871  1.00  0.00    -0.014 A 
BRANCH  10  11
ATOM     11  C   UNL A   1      39.949  28.768  29.139  1.00  0.00     0.031 A 
ATOM     12  C   UNL A   1      40.832  29.885  29.602  1.00  0.00     0.074 A 
ATOM     13  C   UNL A   1      40.445  27.529  28.961  1.00  0.00     0.049 A 
ATOM     14  N   UNL A   1      42.119  29.891  29.811  1.00  0.00    -0.248 NA
ATOM     15  C   UNL A   1      40.164  31.167  29.884  1.00  0.00     0.031 C 
ATOM     16  C   UNL A   1      39.663  26.352  28.605  1.00  0.00     0.029 A 
ATOM     17  N   UNL A   1      41.734  27.058  29.019  1.00  0.00    -0.354 N 
ATOM     18  C   UNL A   1      42.412  31.172  30.254  1.00  0.00     0.074 A 
ATOM     19  C   UNL A   1      41.184  31.933  30.222  1.00  0.00     0.031 C 
ATOM     20  C   UNL A   1      40.488  25.317  28.376  1.00  0.00     0.029 A 
ATOM     21  C   UNL A   1      41.862  25.756  28.588  1.00  0.00     0.049 A 
ATOM     22  H   UNL A   1      42.493  27.598  29.338  1.00  0.00     0.167 HD
ATOM     23  C   UNL A   1      43.599  31.660  30.679  1.00  0.00     0.037 A 
ATOM     24  C   UNL A   1      42.966  25.014  28.365  1.00  0.00     0.037 A 
ATOM     25  C   UNL A   1      44.811  30.892  30.670  1.00  0.00     0.049 A 
ATOM     26  C   UNL A   1      44.302  25.611  28.705  1.00  0.00     0.074 A 
ATOM     27  C   UNL A   1      46.076  31.273  31.072  1.00  0.00     0.029 A 
ATOM     28  N   UNL A   1      44.907  29.585  30.208  1.00  0.00    -0.354 N 
ATOM     29  N   UNL A   1      44.568  26.814  29.159  1.00  0.00    -0.248 NA
ATOM     30  C   UNL A   1      45.483  24.754  28.540  1.00  0.00     0.031 C 
ATOM     31  C   UNL A   1      46.948  30.214  30.802  1.00  0.00     0.029 A 
ATOM     32  C   UNL A   1      46.217  29.150  30.291  1.00  0.00     0.049 A 
ATOM     33  H   UNL A   1      44.154  29.048  29.871  1.00  0.00     0.167 HD
ATOM     34  C   UNL A   1      45.936  26.841  29.391  1.00  0.00     0.074 A 
ATOM     35  C   UNL A   1      46.448  25.542  28.997  1.00  0.00     0.031 C 
ATOM     36  C   UNL A   1      46.692  27.840  29.910  1.00  0.00     0.037 A 
BRANCH  23  37
ATOM     37  C   UNL A   1      43.611  33.092  31.132  1.00  0.00     0.058 A 
ATOM     38  C   UNL A   1      43.849  34.148  30.235  1.00  0.00     0.135 A 
ATOM     39  C   UNL A   1      43.470  33.406  32.492  1.00  0.00     0.135 A 
ATOM     40  F   UNL A   1      44.020  33.900  28.926  1.00  0.00    -0.206 F 
ATOM     41  C   UNL A   1      44.011  35.455  30.679  1.00  0.00     0.059 A 
ATOM     42  C   UNL A   1      43.596  34.713  32.955  1.00  0.00     0.059 A 
ATOM     43  F   UNL A   1      43.247  32.436  33.391  1.00  0.00    -0.206 F 
ATOM     44  C   UNL A   1      43.896  35.726  32.044  1.00  0.00     0.060 A 
BRANCH  44  45
ATOM     45  S   UNL A   1      44.173  37.414  32.614  1.00  0.00     0.124 S 
ATOM     46  O   UNL A   1      45.523  37.319  33.161  1.00  0.00    -0.237 OA
ATOM     47  O   UNL A   1      44.042  38.187  31.382  1.00  0.00    -0.237 OA
ATOM     48  O   UNL A   1      43.112  37.621  33.595  1.00  0.00    -0.744 OA
ENDBRANCH  44  45
ENDBRANCH  23  37
BRANCH  24  49
ATOM     49  C   UNL A   1      42.839  23.647  27.792  1.00  0.00     0.058 A 
ATOM     50  C   UNL A   1      42.726  22.507  28.596  1.00  0.00     0.135 A 
ATOM     51  C   UNL A   1      42.777  23.467  26.401  1.00  0.00     0.135 A 
ATOM     52  F   UNL A   1      42.800  22.619  29.931  1.00  0.00    -0.206 F 
ATOM     53  C   UNL A   1      42.541  21.240  28.046  1.00  0.00     0.059 A 
ATOM     54  C   UNL A   1      42.570  22.217  25.825  1.00  0.00     0.059 A 
ATOM     55  F   UNL A   1      42.904  24.526  25.591  1.00  0.00    -0.206 F 
ATOM     56  C   UNL A   1      42.450  21.107  26.657  1.00  0.00     0.060 A 
BRANCH  56  57
ATOM     57  S   UNL A   1      42.123  19.471  25.959  1.00  0.00     0.124 S 
ATOM     58  O   UNL A   1      40.679  19.517  25.758  1.00  0.00    -0.237 OA
ATOM     59  O   UNL A   1      42.938  19.489  24.748  1.00  0.00    -0.237 OA
ATOM     60  O   UNL A   1      42.586  18.560  27.002  1.00  0.00    -0.744 OA
ENDBRANCH  56  57
ENDBRANCH  24  49
BRANCH  36  61
ATOM     61  C   UNL A   1      48.144  27.560  30.157  1.00  0.00     0.058 A 
ATOM     62  C   UNL A   1      49.135  27.902  29.227  1.00  0.00     0.135 A 
ATOM     63  C   UNL A   1      48.551  27.062  31.407  1.00  0.00     0.135 A 
ATOM     64  F   UNL A   1      48.794  28.369  28.015  1.00  0.00    -0.206 F 
ATOM     65  C   UNL A   1      50.485  27.772  29.533  1.00  0.00     0.059 A 
ATOM     66  C   UNL A   1      49.893  26.950  31.743  1.00  0.00     0.059 A 
ATOM     67  F   UNL A   1      47.636  26.727  32.330  1.00  0.00    -0.206 F 
ATOM     68  C   UNL A   1      50.853  27.311  30.799  1.00  0.00     0.060 A 
BRANCH  68  69
ATOM     69  S   UNL A   1      52.607  27.246  31.220  1.00  0.00     0.124 S 
ATOM     70  O   UNL A   1      53.039  28.600  30.890  1.00  0.00    -0.237 OA
ATOM     71  O   UNL A   1      52.573  26.920  32.643  1.00  0.00    -0.237 OA
ATOM     72  O   UNL A   1      53.126  26.192  30.354  1.00  0.00    -0.744 OA
ENDBRANCH  68  69
ENDBRANCH  36  61
ENDBRANCH  10  11
ENDBRANCH   3   5
ENDBRANCH   2   3
ENDBRANCH   1   2
BRANCH   1  73
ATOM     73  C   UNL A   1      31.534  28.823  26.342  1.00  0.00     0.275 C 
BRANCH  73  74
ATOM     74  O   UNL A   1      31.799  28.130  25.107  1.00  0.00    -0.458 OA
BRANCH  74  75
ATOM     75  C   UNL A   1      31.401  26.827  25.063  1.00  0.00     0.341 C 
ATOM     76  O   UNL A   1      30.272  26.421  24.896  1.00  0.00    -0.246 OA
BRANCH  75  77
ATOM     77  C   UNL A   1      32.569  25.941  25.140  1.00  0.00     0.096 A 
ATOM     78  C   UNL A   1      33.589  25.951  24.225  1.00  0.00     0.131 A 
ATOM     79  C   UNL A   1      32.713  25.047  26.176  1.00  0.00     0.131 A 
ATOM     80  N   UNL A   1      34.668  25.138  24.312  1.00  0.00    -0.236 NA
ATOM     81  N   UNL A   1      33.751  24.180  26.288  1.00  0.00    -0.236 NA
ATOM     82  C   UNL A   1      34.692  24.239  25.323  1.00  0.00     0.160 A 
BRANCH  82  83
ATOM     83  C   UNL A   1      35.897  23.408  25.459  1.00  0.00     0.038 A 
ATOM     84  C   UNL A   1      37.087  24.018  25.908  1.00  0.00     0.013 A 
ATOM     85  C   UNL A   1      35.958  22.032  25.175  1.00  0.00     0.052 A 
ATOM     86  C   UNL A   1      38.268  23.291  26.086  1.00  0.00     0.001 A 
ATOM     87  C   UNL A   1      37.152  21.308  25.320  1.00  0.00     0.021 A 
ATOM     88  Cl  UNL A   1      34.602  21.118  24.631  1.00  0.00    -0.084 Cl
ATOM     89  C   UNL A   1      38.303  21.934  25.785  1.00  0.00     0.002 A 
ENDBRANCH  82  83
ENDBRANCH  75  77
ENDBRANCH  74  75
ENDBRANCH  73  74
ENDBRANCH   1  73
TORSDOF 15
ENDMDL
