MODEL 1
REMARK VINA RESULT:      -9.2      0.000      0.000
REMARK SMILES O=C(COc1ccc(C(=O)/C=C/c2ccc(Cl)c([N+](=O)[O-])c2)cc1)OCCOC(=O)c1ccc(-c2c3nc(c(-c4c(F)cc(S(=O)(=O)[O-])cc4F)c4ccc([nH]4)c(-c4c(F)cc(S(=O)(=O)[O-])cc4F)c4nc(c(-c5c(F)cc(S(=O)(=O)[O-])cc5F)c5ccc2[nH]5)C=C4)C=C3)cc1
REMARK SMILES IDX 25 1 2 2 1 3 3 4 4 5 5 6 6 7 24 8 7 9 23 10 8 11 9 12 10 13
REMARK SMILES IDX 11 14 12 15 13 16 14 17 22 18 15 19 18 20 16 21 17 22 19 23
REMARK SMILES IDX 20 24 21 25 26 26 27 27 28 28 29 29 30 30 31 31 32 32 96 33
REMARK SMILES IDX 33 34 95 35 34 36 35 37 36 38 89 39 37 40 94 41 88 42 90 43
REMARK SMILES IDX 38 44 93 45 87 46 86 47 39 49 73 50 52 51 72 52 53 53 56 54
REMARK SMILES IDX 71 55 91 56 54 57 55 58 70 60 92 61 57 62 40 63 41 64 50 65
REMARK SMILES IDX 42 66 43 67 49 68 51 69 44 70 45 71 46 72 47 73 48 74 74 75
REMARK SMILES IDX 75 76 84 77 76 78 77 79 83 80 85 81 78 82 79 83 80 84 81 85
REMARK SMILES IDX 82 86 58 87 59 88 68 89 60 90 61 91 67 92 69 93 62 94 63 95
REMARK SMILES IDX 64 96 65 97 66 98
REMARK H PARENT 90 48 56 59
REMARK Flexibility Score: inf
ROOT
ATOM      1  O   UNL A   1      35.092  34.138  29.912  1.00  0.00    -0.460 OA
ENDROOT
BRANCH   1   2
ATOM      2  C   UNL A   1      35.007  34.168  31.266  1.00  0.00     0.344 C 
ATOM      3  O   UNL A   1      33.915  34.023  31.816  1.00  0.00    -0.248 OA
BRANCH   2   4
ATOM      4  C   UNL A   1      36.293  34.323  32.074  1.00  0.00     0.351 C 
BRANCH   4   5
ATOM      5  O   UNL A   1      37.443  33.708  31.493  1.00  0.00    -0.482 OA
BRANCH   5   6
ATOM      6  C   UNL A   1      38.108  32.991  32.448  1.00  0.00     0.120 A 
ATOM      7  C   UNL A   1      39.289  33.495  32.991  1.00  0.00     0.047 A 
ATOM      8  C   UNL A   1      37.596  31.762  32.855  1.00  0.00     0.047 A 
ATOM      9  C   UNL A   1      39.919  32.798  34.025  1.00  0.00     0.016 A 
ATOM     10  C   UNL A   1      38.226  31.066  33.882  1.00  0.00     0.016 A 
ATOM     11  C   UNL A   1      39.362  31.605  34.503  1.00  0.00     0.022 A 
BRANCH  11  12
ATOM     12  C   UNL A   1      40.019  30.913  35.641  1.00  0.00     0.185 C 
ATOM     13  O   UNL A   1      39.907  31.351  36.780  1.00  0.00    -0.289 OA
BRANCH  12  14
ATOM     14  C   UNL A   1      40.864  29.709  35.400  1.00  0.00     0.053 C 
ATOM     15  C   UNL A   1      41.039  29.131  34.203  1.00  0.00     0.012 C 
BRANCH  15  16
ATOM     16  C   UNL A   1      41.964  28.016  34.016  1.00  0.00    -0.019 A 
ATOM     17  C   UNL A   1      42.938  28.108  33.018  1.00  0.00     0.010 A 
ATOM     18  C   UNL A   1      41.898  26.866  34.808  1.00  0.00     0.095 A 
ATOM     19  C   UNL A   1      43.856  27.072  32.827  1.00  0.00     0.028 A 
ATOM     20  C   UNL A   1      42.816  25.817  34.606  1.00  0.00     0.288 A 
ATOM     21  C   UNL A   1      43.810  25.921  33.624  1.00  0.00     0.118 A 
ATOM     22  Cl  UNL A   1      45.055  24.758  33.335  1.00  0.00    -0.077 Cl
BRANCH  20  23
ATOM     23  N   UNL A   1      42.686  24.639  35.463  1.00  0.00     0.064 N 
ATOM     24  O   UNL A   1      41.622  24.008  35.451  1.00  0.00    -0.258 OA
ATOM     25  O   UNL A   1      43.653  24.359  36.186  1.00  0.00    -0.258 OA
ENDBRANCH  20  23
ENDBRANCH  15  16
ENDBRANCH  12  14
ENDBRANCH  11  12
ENDBRANCH   5   6
ENDBRANCH   4   5
ENDBRANCH   2   4
ENDBRANCH   1   2
BRANCH   1  26
ATOM     26  C   UNL A   1      33.950  34.163  29.029  1.00  0.00     0.274 C 
BRANCH  26  27
ATOM     27  C   UNL A   1      33.944  32.936  28.114  1.00  0.00     0.275 C 
BRANCH  27  28
ATOM     28  O   UNL A   1      34.384  31.783  28.852  1.00  0.00    -0.458 OA
BRANCH  28  29
ATOM     29  C   UNL A   1      34.510  30.634  28.141  1.00  0.00     0.338 C 
ATOM     30  O   UNL A   1      33.716  30.187  27.334  1.00  0.00    -0.246 OA
BRANCH  29  31
ATOM     31  C   UNL A   1      35.883  30.113  28.339  1.00  0.00     0.060 A 
ATOM     32  C   UNL A   1      36.225  29.603  29.598  1.00  0.00     0.016 A 
ATOM     33  C   UNL A   1      36.808  30.077  27.290  1.00  0.00     0.016 A 
ATOM     34  C   UNL A   1      37.501  29.081  29.817  1.00  0.00     0.010 A 
ATOM     35  C   UNL A   1      38.084  29.556  27.512  1.00  0.00     0.010 A 
ATOM     36  C   UNL A   1      38.446  29.078  28.782  1.00  0.00    -0.014 A 
BRANCH  36  37
ATOM     37  C   UNL A   1      39.859  28.721  29.053  1.00  0.00     0.031 A 
ATOM     38  C   UNL A   1      40.768  29.773  29.627  1.00  0.00     0.074 A 
ATOM     39  C   UNL A   1      40.338  27.498  28.766  1.00  0.00     0.049 A 
ATOM     40  N   UNL A   1      42.046  29.709  29.890  1.00  0.00    -0.248 NA
ATOM     41  C   UNL A   1      40.150  31.074  29.932  1.00  0.00     0.031 C 
ATOM     42  C   UNL A   1      39.560  26.390  28.214  1.00  0.00     0.029 A 
ATOM     43  N   UNL A   1      41.609  26.991  28.883  1.00  0.00    -0.354 N 
ATOM     44  C   UNL A   1      42.388  30.958  30.395  1.00  0.00     0.074 A 
ATOM     45  C   UNL A   1      41.190  31.769  30.367  1.00  0.00     0.031 C 
ATOM     46  C   UNL A   1      40.377  25.340  28.018  1.00  0.00     0.029 A 
ATOM     47  C   UNL A   1      41.738  25.707  28.411  1.00  0.00     0.049 A 
ATOM     48  H   UNL A   1      42.358  27.501  29.269  1.00  0.00     0.167 HD
ATOM     49  C   UNL A   1      43.588  31.389  30.848  1.00  0.00     0.037 A 
ATOM     50  C   UNL A   1      42.831  24.928  28.291  1.00  0.00     0.037 A 
ATOM     51  C   UNL A   1      44.782  30.588  30.867  1.00  0.00     0.049 A 
ATOM     52  C   UNL A   1      44.170  25.445  28.752  1.00  0.00     0.074 A 
ATOM     53  C   UNL A   1      46.038  30.926  31.337  1.00  0.00     0.029 A 
ATOM     54  N   UNL A   1      44.872  29.293  30.380  1.00  0.00    -0.354 N 
ATOM     55  N   UNL A   1      44.468  26.609  29.280  1.00  0.00    -0.248 NA
ATOM     56  C   UNL A   1      45.323  24.543  28.604  1.00  0.00     0.031 C 
ATOM     57  C   UNL A   1      46.900  29.852  31.094  1.00  0.00     0.029 A 
ATOM     58  C   UNL A   1      46.169  28.827  30.514  1.00  0.00     0.049 A 
ATOM     59  H   UNL A   1      44.126  28.780  29.996  1.00  0.00     0.167 HD
ATOM     60  C   UNL A   1      45.833  26.567  29.552  1.00  0.00     0.074 A 
ATOM     61  C   UNL A   1      46.302  25.263  29.134  1.00  0.00     0.031 C 
ATOM     62  C   UNL A   1      46.624  27.521  30.102  1.00  0.00     0.037 A 
BRANCH  49  63
ATOM     63  C   UNL A   1      43.666  32.803  31.342  1.00  0.00     0.058 A 
ATOM     64  C   UNL A   1      44.019  33.861  30.490  1.00  0.00     0.135 A 
ATOM     65  C   UNL A   1      43.383  33.106  32.683  1.00  0.00     0.135 A 
ATOM     66  F   UNL A   1      44.319  33.621  29.203  1.00  0.00    -0.206 F 
ATOM     67  C   UNL A   1      44.120  35.167  30.957  1.00  0.00     0.059 A 
ATOM     68  C   UNL A   1      43.455  34.408  33.168  1.00  0.00     0.059 A 
ATOM     69  F   UNL A   1      43.046  32.129  33.540  1.00  0.00    -0.206 F 
ATOM     70  C   UNL A   1      43.842  35.429  32.300  1.00  0.00     0.060 A 
BRANCH  70  71
ATOM     71  S   UNL A   1      43.998  37.124  32.900  1.00  0.00     0.124 S 
ATOM     72  O   UNL A   1      43.881  37.883  31.659  1.00  0.00    -0.237 OA
ATOM     73  O   UNL A   1      42.870  37.237  33.820  1.00  0.00    -0.237 OA
ATOM     74  O   UNL A   1      45.316  37.142  33.525  1.00  0.00    -0.744 OA
ENDBRANCH  70  71
ENDBRANCH  49  63
BRANCH  50  75
ATOM     75  C   UNL A   1      42.712  23.571  27.695  1.00  0.00     0.058 A 
ATOM     76  C   UNL A   1      42.353  22.465  28.478  1.00  0.00     0.135 A 
ATOM     77  C   UNL A   1      42.964  23.355  26.331  1.00  0.00     0.135 A 
ATOM     78  F   UNL A   1      42.115  22.619  29.789  1.00  0.00    -0.206 F 
ATOM     79  C   UNL A   1      42.260  21.187  27.934  1.00  0.00     0.059 A 
ATOM     80  C   UNL A   1      42.857  22.092  25.759  1.00  0.00     0.059 A 
ATOM     81  F   UNL A   1      43.300  24.384  25.539  1.00  0.00    -0.206 F 
ATOM     82  C   UNL A   1      42.514  21.011  26.573  1.00  0.00     0.060 A 
BRANCH  82  83
ATOM     83  S   UNL A   1      42.348  19.359  25.863  1.00  0.00     0.124 S 
ATOM     84  O   UNL A   1      42.947  18.532  26.905  1.00  0.00    -0.237 OA
ATOM     85  O   UNL A   1      40.903  19.237  25.701  1.00  0.00    -0.237 OA
ATOM     86  O   UNL A   1      43.106  19.453  24.618  1.00  0.00    -0.744 OA
ENDBRANCH  82  83
ENDBRANCH  50  75
BRANCH  62  87
ATOM     87  C   UNL A   1      48.074  27.192  30.318  1.00  0.00     0.058 A 
ATOM     88  C   UNL A   1      49.052  27.507  29.362  1.00  0.00     0.135 A 
ATOM     89  C   UNL A   1      48.502  26.628  31.531  1.00  0.00     0.135 A 
ATOM     90  F   UNL A   1      48.696  28.044  28.184  1.00  0.00    -0.206 F 
ATOM     91  C   UNL A   1      50.403  27.265  29.597  1.00  0.00     0.059 A 
ATOM     92  C   UNL A   1      49.848  26.397  31.795  1.00  0.00     0.059 A 
ATOM     93  F   UNL A   1      47.608  26.316  32.484  1.00  0.00    -0.206 F 
ATOM     94  C   UNL A   1      50.791  26.713  30.819  1.00  0.00     0.060 A 
BRANCH  94  95
ATOM     95  S   UNL A   1      52.551  26.455  31.136  1.00  0.00     0.124 S 
ATOM     96  O   UNL A   1      52.547  25.138  31.764  1.00  0.00    -0.237 OA
ATOM     97  O   UNL A   1      53.123  26.515  29.794  1.00  0.00    -0.237 OA
ATOM     98  O   UNL A   1      52.905  27.569  32.010  1.00  0.00    -0.744 OA
ENDBRANCH  94  95
ENDBRANCH  62  87
ENDBRANCH  36  37
ENDBRANCH  29  31
ENDBRANCH  28  29
ENDBRANCH  27  28
ENDBRANCH  26  27
ENDBRANCH   1  26
TORSDOF 20
ENDMDL
MODEL 2
REMARK VINA RESULT:      -9.2      4.432      7.250
REMARK SMILES O=C(COc1ccc(C(=O)/C=C/c2ccc(Cl)c([N+](=O)[O-])c2)cc1)OCCOC(=O)c1ccc(-c2c3nc(c(-c4c(F)cc(S(=O)(=O)[O-])cc4F)c4ccc([nH]4)c(-c4c(F)cc(S(=O)(=O)[O-])cc4F)c4nc(c(-c5c(F)cc(S(=O)(=O)[O-])cc5F)c5ccc2[nH]5)C=C4)C=C3)cc1
REMARK SMILES IDX 25 1 2 2 1 3 3 4 4 5 5 6 6 7 24 8 7 9 23 10 8 11 9 12 10 13
REMARK SMILES IDX 11 14 12 15 13 16 14 17 22 18 15 19 18 20 16 21 17 22 19 23
REMARK SMILES IDX 20 24 21 25 26 26 27 27 28 28 29 29 30 30 31 31 32 32 96 33
REMARK SMILES IDX 33 34 95 35 34 36 35 37 36 38 89 39 37 40 94 41 88 42 90 43
REMARK SMILES IDX 38 44 93 45 87 46 86 47 39 49 73 50 52 51 72 52 53 53 56 54
REMARK SMILES IDX 71 55 91 56 54 57 55 58 70 60 92 61 57 62 40 63 41 64 50 65
REMARK SMILES IDX 42 66 43 67 49 68 51 69 44 70 45 71 46 72 47 73 48 74 74 75
REMARK SMILES IDX 75 76 84 77 76 78 77 79 83 80 85 81 78 82 79 83 80 84 81 85
REMARK SMILES IDX 82 86 58 87 59 88 68 89 60 90 61 91 67 92 69 93 62 94 63 95
REMARK SMILES IDX 64 96 65 97 66 98
REMARK H PARENT 90 48 56 59
REMARK Flexibility Score: inf
ROOT
ATOM      1  O   UNL A   1      34.107  32.633  29.052  1.00  0.00    -0.460 OA
ENDROOT
BRANCH   1   2
ATOM      2  C   UNL A   1      34.730  32.114  27.964  1.00  0.00     0.344 C 
ATOM      3  O   UNL A   1      35.819  32.563  27.606  1.00  0.00    -0.248 OA
BRANCH   2   4
ATOM      4  C   UNL A   1      34.080  30.934  27.246  1.00  0.00     0.351 C 
BRANCH   4   5
ATOM      5  O   UNL A   1      32.684  30.773  27.502  1.00  0.00    -0.482 OA
BRANCH   5   6
ATOM      6  C   UNL A   1      32.227  29.660  26.851  1.00  0.00     0.120 A 
ATOM      7  C   UNL A   1      32.016  28.482  27.564  1.00  0.00     0.047 A 
ATOM      8  C   UNL A   1      31.991  29.724  25.480  1.00  0.00     0.047 A 
ATOM      9  C   UNL A   1      31.471  27.375  26.911  1.00  0.00     0.016 A 
ATOM     10  C   UNL A   1      31.451  28.619  24.829  1.00  0.00     0.016 A 
ATOM     11  C   UNL A   1      31.145  27.457  25.551  1.00  0.00     0.022 A 
BRANCH  11  12
ATOM     12  C   UNL A   1      30.515  26.285  24.892  1.00  0.00     0.185 C 
ATOM     13  O   UNL A   1      29.350  26.339  24.515  1.00  0.00    -0.289 OA
BRANCH  12  14
ATOM     14  C   UNL A   1      31.276  25.014  24.733  1.00  0.00     0.053 C 
ATOM     15  C   UNL A   1      32.595  24.887  24.941  1.00  0.00     0.012 C 
BRANCH  15  16
ATOM     16  C   UNL A   1      33.263  23.590  24.869  1.00  0.00    -0.019 A 
ATOM     17  C   UNL A   1      34.627  23.517  25.166  1.00  0.00     0.010 A 
ATOM     18  C   UNL A   1      32.574  22.428  24.513  1.00  0.00     0.095 A 
ATOM     19  C   UNL A   1      35.293  22.289  25.132  1.00  0.00     0.028 A 
ATOM     20  C   UNL A   1      33.249  21.193  24.467  1.00  0.00     0.288 A 
ATOM     21  C   UNL A   1      34.611  21.114  24.791  1.00  0.00     0.118 A 
ATOM     22  Cl  UNL A   1      35.537  19.658  24.870  1.00  0.00    -0.077 Cl
BRANCH  20  23
ATOM     23  N   UNL A   1      32.472  20.017  24.079  1.00  0.00     0.064 N 
ATOM     24  O   UNL A   1      32.164  19.873  22.889  1.00  0.00    -0.258 OA
ATOM     25  O   UNL A   1      32.133  19.241  24.985  1.00  0.00    -0.258 OA
ENDBRANCH  20  23
ENDBRANCH  15  16
ENDBRANCH  12  14
ENDBRANCH  11  12
ENDBRANCH   5   6
ENDBRANCH   4   5
ENDBRANCH   2   4
ENDBRANCH   1   2
BRANCH   1  26
ATOM     26  C   UNL A   1      34.767  33.434  30.056  1.00  0.00     0.274 C 
BRANCH  26  27
ATOM     27  C   UNL A   1      35.287  32.557  31.196  1.00  0.00     0.275 C 
BRANCH  27  28
ATOM     28  O   UNL A   1      36.604  32.078  30.872  1.00  0.00    -0.458 OA
BRANCH  28  29
ATOM     29  C   UNL A   1      36.816  30.750  31.059  1.00  0.00     0.338 C 
ATOM     30  O   UNL A   1      35.988  29.919  31.385  1.00  0.00    -0.246 OA
BRANCH  29  31
ATOM     31  C   UNL A   1      38.182  30.426  30.584  1.00  0.00     0.060 A 
ATOM     32  C   UNL A   1      38.398  30.323  29.204  1.00  0.00     0.016 A 
ATOM     33  C   UNL A   1      39.249  30.276  31.477  1.00  0.00     0.016 A 
ATOM     34  C   UNL A   1      39.676  30.043  28.716  1.00  0.00     0.010 A 
ATOM     35  C   UNL A   1      40.525  29.994  30.987  1.00  0.00     0.010 A 
ATOM     36  C   UNL A   1      40.741  29.852  29.606  1.00  0.00    -0.014 A 
BRANCH  36  37
ATOM     37  C   UNL A   1      42.050  29.353  29.119  1.00  0.00     0.031 A 
ATOM     38  C   UNL A   1      43.182  30.332  28.971  1.00  0.00     0.074 A 
ATOM     39  C   UNL A   1      42.224  28.063  28.783  1.00  0.00     0.049 A 
ATOM     40  N   UNL A   1      44.390  30.138  28.513  1.00  0.00    -0.248 NA
ATOM     41  C   UNL A   1      42.906  31.717  29.387  1.00  0.00     0.031 C 
ATOM     42  C   UNL A   1      41.210  27.015  28.887  1.00  0.00     0.029 A 
ATOM     43  N   UNL A   1      43.321  27.420  28.264  1.00  0.00    -0.354 N 
ATOM     44  C   UNL A   1      45.021  31.374  28.586  1.00  0.00     0.074 A 
ATOM     45  C   UNL A   1      44.052  32.316  29.100  1.00  0.00     0.031 C 
ATOM     46  C   UNL A   1      41.726  25.863  28.422  1.00  0.00     0.029 A 
ATOM     47  C   UNL A   1      43.098  26.096  27.970  1.00  0.00     0.049 A 
ATOM     48  H   UNL A   1      44.186  27.866  28.117  1.00  0.00     0.167 HD
ATOM     49  C   UNL A   1      46.296  31.694  28.262  1.00  0.00     0.037 A 
ATOM     50  C   UNL A   1      43.902  25.186  27.385  1.00  0.00     0.037 A 
ATOM     51  C   UNL A   1      47.258  30.761  27.742  1.00  0.00     0.049 A 
ATOM     52  C   UNL A   1      45.301  25.576  26.982  1.00  0.00     0.074 A 
ATOM     53  C   UNL A   1      48.584  30.984  27.414  1.00  0.00     0.029 A 
ATOM     54  N   UNL A   1      46.994  29.429  27.457  1.00  0.00    -0.354 N 
ATOM     55  N   UNL A   1      45.904  26.734  27.109  1.00  0.00    -0.248 NA
ATOM     56  C   UNL A   1      46.132  24.534  26.358  1.00  0.00     0.031 C 
ATOM     57  C   UNL A   1      49.111  29.799  26.890  1.00  0.00     0.029 A 
ATOM     58  C   UNL A   1      48.125  28.826  26.933  1.00  0.00     0.049 A 
ATOM     59  H   UNL A   1      46.132  28.980  27.606  1.00  0.00     0.167 HD
ATOM     60  C   UNL A   1      47.190  26.552  26.609  1.00  0.00     0.074 A 
ATOM     61  C   UNL A   1      47.281  25.173  26.179  1.00  0.00     0.031 C 
ATOM     62  C   UNL A   1      48.206  27.447  26.517  1.00  0.00     0.037 A 
BRANCH  49  63
ATOM     63  C   UNL A   1      46.711  33.124  28.447  1.00  0.00     0.058 A 
ATOM     64  C   UNL A   1      46.586  34.065  27.412  1.00  0.00     0.135 A 
ATOM     65  C   UNL A   1      47.239  33.560  29.672  1.00  0.00     0.135 A 
ATOM     66  F   UNL A   1      46.106  33.693  26.215  1.00  0.00    -0.206 F 
ATOM     67  C   UNL A   1      47.000  35.382  27.576  1.00  0.00     0.059 A 
ATOM     68  C   UNL A   1      47.638  34.878  29.866  1.00  0.00     0.059 A 
ATOM     69  F   UNL A   1      47.384  32.697  30.690  1.00  0.00    -0.206 F 
ATOM     70  C   UNL A   1      47.530  35.778  28.806  1.00  0.00     0.060 A 
BRANCH  70  71
ATOM     71  S   UNL A   1      48.084  37.484  28.999  1.00  0.00     0.124 S 
ATOM     72  O   UNL A   1      47.915  37.683  30.435  1.00  0.00    -0.237 OA
ATOM     73  O   UNL A   1      49.464  37.422  28.526  1.00  0.00    -0.237 OA
ATOM     74  O   UNL A   1      47.167  38.236  28.149  1.00  0.00    -0.744 OA
ENDBRANCH  70  71
ENDBRANCH  49  63
BRANCH  50  75
ATOM     75  C   UNL A   1      43.399  23.810  27.130  1.00  0.00     0.058 A 
ATOM     76  C   UNL A   1      42.951  23.426  25.859  1.00  0.00     0.135 A 
ATOM     77  C   UNL A   1      43.351  22.856  28.159  1.00  0.00     0.135 A 
ATOM     78  F   UNL A   1      42.966  24.306  24.848  1.00  0.00    -0.206 F 
ATOM     79  C   UNL A   1      42.459  22.147  25.616  1.00  0.00     0.059 A 
ATOM     80  C   UNL A   1      42.883  21.565  27.937  1.00  0.00     0.059 A 
ATOM     81  F   UNL A   1      43.779  23.173  29.390  1.00  0.00    -0.206 F 
ATOM     82  C   UNL A   1      42.429  21.223  26.663  1.00  0.00     0.060 A 
BRANCH  82  83
ATOM     83  S   UNL A   1      41.830  19.552  26.331  1.00  0.00     0.124 S 
ATOM     84  O   UNL A   1      42.336  18.825  27.491  1.00  0.00    -0.237 OA
ATOM     85  O   UNL A   1      40.386  19.747  26.279  1.00  0.00    -0.237 OA
ATOM     86  O   UNL A   1      42.458  19.220  25.055  1.00  0.00    -0.744 OA
ENDBRANCH  82  83
ENDBRANCH  50  75
BRANCH  62  87
ATOM     87  C   UNL A   1      49.517  26.966  25.961  1.00  0.00     0.058 A 
ATOM     88  C   UNL A   1      49.834  27.101  24.601  1.00  0.00     0.135 A 
ATOM     89  C   UNL A   1      50.499  26.437  26.814  1.00  0.00     0.135 A 
ATOM     90  F   UNL A   1      48.929  27.596  23.742  1.00  0.00    -0.206 F 
ATOM     91  C   UNL A   1      51.077  26.719  24.104  1.00  0.00     0.059 A 
ATOM     92  C   UNL A   1      51.755  26.069  26.343  1.00  0.00     0.059 A 
ATOM     93  F   UNL A   1      50.250  26.296  28.126  1.00  0.00    -0.206 F 
ATOM     94  C   UNL A   1      52.034  26.208  24.984  1.00  0.00     0.060 A 
BRANCH  94  95
ATOM     95  S   UNL A   1      53.662  25.769  24.338  1.00  0.00     0.124 S 
ATOM     96  O   UNL A   1      53.458  25.918  22.901  1.00  0.00    -0.237 OA
ATOM     97  O   UNL A   1      54.527  26.766  24.962  1.00  0.00    -0.237 OA
ATOM     98  O   UNL A   1      53.855  24.401  24.808  1.00  0.00    -0.744 OA
ENDBRANCH  94  95
ENDBRANCH  62  87
ENDBRANCH  36  37
ENDBRANCH  29  31
ENDBRANCH  28  29
ENDBRANCH  27  28
ENDBRANCH  26  27
ENDBRANCH   1  26
TORSDOF 20
ENDMDL
MODEL 3
REMARK VINA RESULT:      -9.1      5.042     12.656
REMARK SMILES O=C(COc1ccc(C(=O)/C=C/c2ccc(Cl)c([N+](=O)[O-])c2)cc1)OCCOC(=O)c1ccc(-c2c3nc(c(-c4c(F)cc(S(=O)(=O)[O-])cc4F)c4ccc([nH]4)c(-c4c(F)cc(S(=O)(=O)[O-])cc4F)c4nc(c(-c5c(F)cc(S(=O)(=O)[O-])cc5F)c5ccc2[nH]5)C=C4)C=C3)cc1
REMARK SMILES IDX 25 1 2 2 1 3 3 4 4 5 5 6 6 7 24 8 7 9 23 10 8 11 9 12 10 13
REMARK SMILES IDX 11 14 12 15 13 16 14 17 22 18 15 19 18 20 16 21 17 22 19 23
REMARK SMILES IDX 20 24 21 25 26 26 27 27 28 28 29 29 30 30 31 31 32 32 96 33
REMARK SMILES IDX 33 34 95 35 34 36 35 37 36 38 89 39 37 40 94 41 88 42 90 43
REMARK SMILES IDX 38 44 93 45 87 46 86 47 39 49 73 50 52 51 72 52 53 53 56 54
REMARK SMILES IDX 71 55 91 56 54 57 55 58 70 60 92 61 57 62 40 63 41 64 50 65
REMARK SMILES IDX 42 66 43 67 49 68 51 69 44 70 45 71 46 72 47 73 48 74 74 75
REMARK SMILES IDX 75 76 84 77 76 78 77 79 83 80 85 81 78 82 79 83 80 84 81 85
REMARK SMILES IDX 82 86 58 87 59 88 68 89 60 90 61 91 67 92 69 93 62 94 63 95
REMARK SMILES IDX 64 96 65 97 66 98
REMARK H PARENT 90 48 56 59
REMARK Flexibility Score: inf
ROOT
ATOM      1  O   UNL A   1      42.316  20.830  25.711  1.00  0.00    -0.460 OA
ENDROOT
BRANCH   1   2
ATOM      2  C   UNL A   1      41.232  20.436  26.425  1.00  0.00     0.344 C 
ATOM      3  O   UNL A   1      41.382  19.836  27.489  1.00  0.00    -0.248 OA
BRANCH   2   4
ATOM      4  C   UNL A   1      39.844  20.808  25.908  1.00  0.00     0.351 C 
BRANCH   4   5
ATOM      5  O   UNL A   1      39.219  21.892  26.597  1.00  0.00    -0.482 OA
BRANCH   5   6
ATOM      6  C   UNL A   1      38.125  22.310  25.891  1.00  0.00     0.120 A 
ATOM      7  C   UNL A   1      37.586  23.570  26.138  1.00  0.00     0.047 A 
ATOM      8  C   UNL A   1      37.563  21.459  24.943  1.00  0.00     0.047 A 
ATOM      9  C   UNL A   1      36.521  24.024  25.356  1.00  0.00     0.016 A 
ATOM     10  C   UNL A   1      36.500  21.910  24.167  1.00  0.00     0.016 A 
ATOM     11  C   UNL A   1      36.006  23.211  24.338  1.00  0.00     0.022 A 
BRANCH  11  12
ATOM     12  C   UNL A   1      34.912  23.738  23.484  1.00  0.00     0.185 C 
ATOM     13  O   UNL A   1      34.595  23.154  22.454  1.00  0.00    -0.289 OA
BRANCH  12  14
ATOM     14  C   UNL A   1      34.224  25.010  23.845  1.00  0.00     0.053 C 
ATOM     15  C   UNL A   1      33.430  25.705  23.016  1.00  0.00     0.012 C 
BRANCH  15  16
ATOM     16  C   UNL A   1      32.701  26.889  23.465  1.00  0.00    -0.019 A 
ATOM     17  C   UNL A   1      33.152  27.568  24.601  1.00  0.00     0.010 A 
ATOM     18  C   UNL A   1      31.572  27.357  22.787  1.00  0.00     0.095 A 
ATOM     19  C   UNL A   1      32.496  28.718  25.043  1.00  0.00     0.028 A 
ATOM     20  C   UNL A   1      30.903  28.510  23.242  1.00  0.00     0.288 A 
ATOM     21  C   UNL A   1      31.371  29.206  24.366  1.00  0.00     0.118 A 
ATOM     22  Cl  UNL A   1      30.709  30.682  24.973  1.00  0.00    -0.077 Cl
BRANCH  20  23
ATOM     23  N   UNL A   1      29.723  28.941  22.494  1.00  0.00     0.064 N 
ATOM     24  O   UNL A   1      28.608  28.557  22.868  1.00  0.00    -0.258 OA
ATOM     25  O   UNL A   1      29.918  29.646  21.493  1.00  0.00    -0.258 OA
ENDBRANCH  20  23
ENDBRANCH  15  16
ENDBRANCH  12  14
ENDBRANCH  11  12
ENDBRANCH   5   6
ENDBRANCH   4   5
ENDBRANCH   2   4
ENDBRANCH   1   2
BRANCH   1  26
ATOM     26  C   UNL A   1      43.212  21.887  26.118  1.00  0.00     0.274 C 
BRANCH  26  27
ATOM     27  C   UNL A   1      42.442  23.024  26.792  1.00  0.00     0.275 C 
BRANCH  27  28
ATOM     28  O   UNL A   1      43.094  24.276  26.517  1.00  0.00    -0.458 OA
BRANCH  28  29
ATOM     29  C   UNL A   1      42.280  25.308  26.176  1.00  0.00     0.338 C 
ATOM     30  O   UNL A   1      41.648  25.426  25.142  1.00  0.00    -0.246 OA
BRANCH  29  31
ATOM     31  C   UNL A   1      42.105  26.175  27.365  1.00  0.00     0.060 A 
ATOM     32  C   UNL A   1      40.988  25.961  28.183  1.00  0.00     0.016 A 
ATOM     33  C   UNL A   1      43.049  27.150  27.703  1.00  0.00     0.016 A 
ATOM     34  C   UNL A   1      40.800  26.742  29.326  1.00  0.00     0.010 A 
ATOM     35  C   UNL A   1      42.858  27.930  28.845  1.00  0.00     0.010 A 
ATOM     36  C   UNL A   1      41.721  27.747  29.649  1.00  0.00    -0.014 A 
BRANCH  36  37
ATOM     37  C   UNL A   1      41.431  28.714  30.734  1.00  0.00     0.031 A 
ATOM     38  C   UNL A   1      42.223  28.622  32.009  1.00  0.00     0.074 A 
ATOM     39  C   UNL A   1      40.461  29.638  30.606  1.00  0.00     0.049 A 
ATOM     40  N   UNL A   1      42.106  29.319  33.109  1.00  0.00    -0.248 NA
ATOM     41  C   UNL A   1      43.280  27.599  32.049  1.00  0.00     0.031 C 
ATOM     42  C   UNL A   1      39.628  29.834  29.421  1.00  0.00     0.029 A 
ATOM     43  N   UNL A   1      40.001  30.573  31.500  1.00  0.00    -0.354 N 
ATOM     44  C   UNL A   1      43.075  28.821  33.972  1.00  0.00     0.074 A 
ATOM     45  C   UNL A   1      43.746  27.742  33.281  1.00  0.00     0.031 C 
ATOM     46  C   UNL A   1      38.741  30.813  29.671  1.00  0.00     0.029 A 
ATOM     47  C   UNL A   1      38.930  31.299  31.038  1.00  0.00     0.049 A 
ATOM     48  H   UNL A   1      40.401  30.710  32.390  1.00  0.00     0.167 HD
ATOM     49  C   UNL A   1      43.384  29.231  35.225  1.00  0.00     0.037 A 
ATOM     50  C   UNL A   1      38.177  32.232  31.655  1.00  0.00     0.037 A 
ATOM     51  C   UNL A   1      42.712  30.297  35.917  1.00  0.00     0.049 A 
ATOM     52  C   UNL A   1      38.504  32.637  33.070  1.00  0.00     0.074 A 
ATOM     53  C   UNL A   1      42.976  30.806  37.177  1.00  0.00     0.029 A 
ATOM     54  N   UNL A   1      41.632  31.008  35.416  1.00  0.00    -0.354 N 
ATOM     55  N   UNL A   1      39.459  32.198  33.855  1.00  0.00    -0.248 NA
ATOM     56  C   UNL A   1      37.652  33.668  33.684  1.00  0.00     0.031 C 
ATOM     57  C   UNL A   1      42.026  31.795  37.456  1.00  0.00     0.029 A 
ATOM     58  C   UNL A   1      41.201  31.933  36.352  1.00  0.00     0.049 A 
ATOM     59  H   UNL A   1      41.232  30.875  34.527  1.00  0.00     0.167 HD
ATOM     60  C   UNL A   1      39.341  32.917  35.041  1.00  0.00     0.074 A 
ATOM     61  C   UNL A   1      38.224  33.822  34.871  1.00  0.00     0.031 C 
ATOM     62  C   UNL A   1      40.092  32.837  36.167  1.00  0.00     0.037 A 
BRANCH  49  63
ATOM     63  C   UNL A   1      44.490  28.503  35.930  1.00  0.00     0.058 A 
ATOM     64  C   UNL A   1      44.232  27.400  36.760  1.00  0.00     0.135 A 
ATOM     65  C   UNL A   1      45.824  28.911  35.773  1.00  0.00     0.135 A 
ATOM     66  F   UNL A   1      42.971  26.984  36.958  1.00  0.00    -0.206 F 
ATOM     67  C   UNL A   1      45.256  26.746  37.436  1.00  0.00     0.059 A 
ATOM     68  C   UNL A   1      46.867  28.257  36.422  1.00  0.00     0.059 A 
ATOM     69  F   UNL A   1      46.122  29.963  34.995  1.00  0.00    -0.206 F 
ATOM     70  C   UNL A   1      46.570  27.186  37.265  1.00  0.00     0.060 A 
BRANCH  70  71
ATOM     71  S   UNL A   1      47.887  26.344  38.165  1.00  0.00     0.124 S 
ATOM     72  O   UNL A   1      49.065  26.751  37.405  1.00  0.00    -0.237 OA
ATOM     73  O   UNL A   1      47.769  26.916  39.504  1.00  0.00    -0.237 OA
ATOM     74  O   UNL A   1      47.525  24.935  38.056  1.00  0.00    -0.744 OA
ENDBRANCH  70  71
ENDBRANCH  49  63
BRANCH  50  75
ATOM     75  C   UNL A   1      37.026  32.845  30.942  1.00  0.00     0.058 A 
ATOM     76  C   UNL A   1      35.709  32.447  31.215  1.00  0.00     0.135 A 
ATOM     77  C   UNL A   1      37.223  33.834  29.966  1.00  0.00     0.135 A 
ATOM     78  F   UNL A   1      35.472  31.496  32.130  1.00  0.00    -0.206 F 
ATOM     79  C   UNL A   1      34.627  33.000  30.537  1.00  0.00     0.059 A 
ATOM     80  C   UNL A   1      36.156  34.416  29.290  1.00  0.00     0.059 A 
ATOM     81  F   UNL A   1      38.464  34.255  29.677  1.00  0.00    -0.206 F 
ATOM     82  C   UNL A   1      34.861  33.984  29.576  1.00  0.00     0.060 A 
BRANCH  82  83
ATOM     83  S   UNL A   1      33.449  34.728  28.731  1.00  0.00     0.124 S 
ATOM     84  O   UNL A   1      33.088  33.679  27.784  1.00  0.00    -0.237 OA
ATOM     85  O   UNL A   1      32.514  34.948  29.829  1.00  0.00    -0.237 OA
ATOM     86  O   UNL A   1      34.013  35.941  28.145  1.00  0.00    -0.744 OA
ENDBRANCH  82  83
ENDBRANCH  50  75
BRANCH  62  87
ATOM     87  C   UNL A   1      39.761  33.769  37.299  1.00  0.00     0.058 A 
ATOM     88  C   UNL A   1      38.857  33.408  38.310  1.00  0.00     0.135 A 
ATOM     89  C   UNL A   1      40.417  35.005  37.417  1.00  0.00     0.135 A 
ATOM     90  F   UNL A   1      38.200  32.239  38.243  1.00  0.00    -0.206 F 
ATOM     91  C   UNL A   1      38.608  34.245  39.394  1.00  0.00     0.059 A 
ATOM     92  C   UNL A   1      40.199  35.847  38.502  1.00  0.00     0.059 A 
ATOM     93  F   UNL A   1      41.298  35.394  36.481  1.00  0.00    -0.206 F 
ATOM     94  C   UNL A   1      39.288  35.461  39.484  1.00  0.00     0.060 A 
BRANCH  94  95
ATOM     95  S   UNL A   1      38.999  36.514  40.923  1.00  0.00     0.124 S 
ATOM     96  O   UNL A   1      37.950  35.777  41.621  1.00  0.00    -0.237 OA
ATOM     97  O   UNL A   1      40.306  36.524  41.573  1.00  0.00    -0.237 OA
ATOM     98  O   UNL A   1      38.589  37.786  40.336  1.00  0.00    -0.744 OA
ENDBRANCH  94  95
ENDBRANCH  62  87
ENDBRANCH  36  37
ENDBRANCH  29  31
ENDBRANCH  28  29
ENDBRANCH  27  28
ENDBRANCH  26  27
ENDBRANCH   1  26
TORSDOF 20
ENDMDL
