MODEL 1
REMARK VINA RESULT:     -12.6      0.000      0.000
REMARK SMILES O=C(OCCOC(=O)c1ccc(N2C(=O)/C(=C\C3=Cc4ccccc4OC3)SC2=S)cc1)c1ccc(-c2c3nc(c(-c4c(F)cc(S(=O)(=O)[O-])cc4F)c4ccc([nH]4)c(-c4c(F)cc(S(=O)(=O)[O-])cc4F)c4nc(c(-c5c(F)cc(S(=O)(=O)[O-])cc5F)c5ccc2[nH]5)C=C4)C=C3)cc1
REMARK SMILES IDX 4 1 3 2 2 3 1 4 33 5 34 6 98 7 35 8 97 9 36 10 37 11 38 12
REMARK SMILES IDX 91 13 39 14 96 15 90 16 92 17 40 18 95 19 89 20 88 21 41 23
REMARK SMILES IDX 75 24 54 25 74 26 55 27 58 28 73 29 93 30 56 31 57 32 72 34
REMARK SMILES IDX 94 35 59 36 42 37 43 38 52 39 44 40 45 41 51 42 53 43 46 44
REMARK SMILES IDX 47 45 48 46 49 47 50 48 76 49 77 50 86 51 78 52 79 53 85 54
REMARK SMILES IDX 87 55 80 56 81 57 82 58 83 59 84 60 60 61 61 62 70 63 62 64
REMARK SMILES IDX 63 65 69 66 71 67 64 68 65 69 66 70 67 71 68 72 5 73 6 74
REMARK SMILES IDX 7 75 8 76 9 77 10 78 32 79 11 80 31 81 12 82 13 83 14 84
REMARK SMILES IDX 29 85 15 86 16 87 28 88 30 89 17 90 18 91 19 92 27 93 20 94
REMARK SMILES IDX 26 95 21 96 25 97 22 98 24 99 23 100
REMARK H PARENT 92 22 58 33
REMARK Flexibility Score: inf
ROOT
ATOM      1  C   UNL A   1      40.872  22.410  26.595  1.00  0.00     0.275 C 
ENDROOT
BRANCH   1   2
ATOM      2  O   UNL A   1      40.834  23.777  26.174  1.00  0.00    -0.458 OA
BRANCH   2   3
ATOM      3  C   UNL A   1      41.581  24.817  26.605  1.00  0.00     0.338 C 
ATOM      4  O   UNL A   1      42.719  24.930  26.148  1.00  0.00    -0.246 OA
BRANCH   3   5
ATOM      5  C   UNL A   1      41.140  25.817  27.639  1.00  0.00     0.060 A 
ATOM      6  C   UNL A   1      39.988  25.786  28.437  1.00  0.00     0.016 A 
ATOM      7  C   UNL A   1      42.022  26.883  27.850  1.00  0.00     0.016 A 
ATOM      8  C   UNL A   1      39.757  26.716  29.453  1.00  0.00     0.010 A 
ATOM      9  C   UNL A   1      41.788  27.813  28.862  1.00  0.00     0.010 A 
ATOM     10  C   UNL A   1      40.679  27.717  29.710  1.00  0.00    -0.014 A 
BRANCH  10  11
ATOM     11  C   UNL A   1      40.461  28.683  30.818  1.00  0.00     0.031 A 
ATOM     12  C   UNL A   1      41.293  28.538  32.059  1.00  0.00     0.074 A 
ATOM     13  C   UNL A   1      39.514  29.645  30.728  1.00  0.00     0.049 A 
ATOM     14  N   UNL A   1      41.275  29.248  33.155  1.00  0.00    -0.248 NA
ATOM     15  C   UNL A   1      42.265  27.431  32.079  1.00  0.00     0.031 C 
ATOM     16  C   UNL A   1      38.604  29.850  29.593  1.00  0.00     0.029 A 
ATOM     17  N   UNL A   1      39.134  30.622  31.617  1.00  0.00    -0.354 N 
ATOM     18  C   UNL A   1      42.226  28.667  33.984  1.00  0.00     0.074 A 
ATOM     19  C   UNL A   1      42.720  27.488  33.316  1.00  0.00     0.031 C 
ATOM     20  C   UNL A   1      37.786  30.884  29.853  1.00  0.00     0.029 A 
ATOM     21  C   UNL A   1      38.104  31.421  31.170  1.00  0.00     0.049 A 
ATOM     22  H   UNL A   1      39.559  30.738  32.498  1.00  0.00     0.167 HD
ATOM     23  C   UNL A   1      42.698  29.111  35.171  1.00  0.00     0.037 A 
ATOM     24  C   UNL A   1      37.501  32.477  31.755  1.00  0.00     0.037 A 
ATOM     25  C   UNL A   1      42.219  30.301  35.810  1.00  0.00     0.049 A 
ATOM     26  C   UNL A   1      38.017  32.937  33.097  1.00  0.00     0.074 A 
ATOM     27  C   UNL A   1      42.648  30.880  36.989  1.00  0.00     0.029 A 
ATOM     28  N   UNL A   1      41.192  31.094  35.316  1.00  0.00    -0.354 N 
ATOM     29  N   UNL A   1      38.986  32.429  33.824  1.00  0.00    -0.248 NA
ATOM     30  C   UNL A   1      37.383  34.123  33.686  1.00  0.00     0.031 C 
ATOM     31  C   UNL A   1      41.849  32.003  37.230  1.00  0.00     0.029 A 
ATOM     32  C   UNL A   1      40.960  32.152  36.174  1.00  0.00     0.049 A 
ATOM     33  H   UNL A   1      40.701  30.927  34.479  1.00  0.00     0.167 HD
ATOM     34  C   UNL A   1      39.112  33.265  34.928  1.00  0.00     0.074 A 
ATOM     35  C   UNL A   1      38.117  34.308  34.774  1.00  0.00     0.031 C 
ATOM     36  C   UNL A   1      39.975  33.185  35.973  1.00  0.00     0.037 A 
BRANCH  23  37
ATOM     37  C   UNL A   1      43.783  28.294  35.812  1.00  0.00     0.058 A 
ATOM     38  C   UNL A   1      43.491  27.297  36.760  1.00  0.00     0.135 A 
ATOM     39  C   UNL A   1      45.132  28.556  35.530  1.00  0.00     0.135 A 
ATOM     40  F   UNL A   1      42.218  27.027  37.088  1.00  0.00    -0.206 F 
ATOM     41  C   UNL A   1      44.499  26.633  37.450  1.00  0.00     0.059 A 
ATOM     42  C   UNL A   1      46.157  27.878  36.185  1.00  0.00     0.059 A 
ATOM     43  F   UNL A   1      45.466  29.501  34.639  1.00  0.00    -0.206 F 
ATOM     44  C   UNL A   1      45.829  26.936  37.161  1.00  0.00     0.060 A 
BRANCH  44  45
ATOM     45  S   UNL A   1      47.124  26.095  38.092  1.00  0.00     0.124 S 
ATOM     46  O   UNL A   1      47.632  25.153  37.098  1.00  0.00    -0.237 OA
ATOM     47  O   UNL A   1      48.021  27.193  38.440  1.00  0.00    -0.237 OA
ATOM     48  O   UNL A   1      46.404  25.498  39.212  1.00  0.00    -0.744 OA
ENDBRANCH  44  45
ENDBRANCH  23  37
BRANCH  24  49
ATOM     49  C   UNL A   1      36.407  33.221  31.064  1.00  0.00     0.058 A 
ATOM     50  C   UNL A   1      36.681  34.033  29.951  1.00  0.00     0.135 A 
ATOM     51  C   UNL A   1      35.075  33.157  31.504  1.00  0.00     0.135 A 
ATOM     52  F   UNL A   1      37.936  34.132  29.488  1.00  0.00    -0.206 F 
ATOM     53  C   UNL A   1      35.687  34.776  29.320  1.00  0.00     0.059 A 
ATOM     54  C   UNL A   1      34.057  33.875  30.876  1.00  0.00     0.059 A 
ATOM     55  F   UNL A   1      34.750  32.381  32.550  1.00  0.00    -0.206 F 
ATOM     56  C   UNL A   1      34.376  34.692  29.791  1.00  0.00     0.060 A 
BRANCH  56  57
ATOM     57  S   UNL A   1      33.095  35.646  28.943  1.00  0.00     0.124 S 
ATOM     58  O   UNL A   1      32.433  34.616  28.151  1.00  0.00    -0.237 OA
ATOM     59  O   UNL A   1      32.326  36.182  30.062  1.00  0.00    -0.237 OA
ATOM     60  O   UNL A   1      33.858  36.632  28.185  1.00  0.00    -0.744 OA
ENDBRANCH  56  57
ENDBRANCH  24  49
BRANCH  36  61
ATOM     61  C   UNL A   1      39.924  34.285  36.994  1.00  0.00     0.058 A 
ATOM     62  C   UNL A   1      40.648  35.475  36.836  1.00  0.00     0.135 A 
ATOM     63  C   UNL A   1      39.078  34.169  38.109  1.00  0.00     0.135 A 
ATOM     64  F   UNL A   1      41.474  35.631  35.789  1.00  0.00    -0.206 F 
ATOM     65  C   UNL A   1      40.551  36.508  37.762  1.00  0.00     0.059 A 
ATOM     66  C   UNL A   1      38.941  35.200  39.029  1.00  0.00     0.059 A 
ATOM     67  F   UNL A   1      38.353  33.054  38.295  1.00  0.00    -0.206 F 
ATOM     68  C   UNL A   1      39.691  36.362  38.853  1.00  0.00     0.060 A 
BRANCH  68  69
ATOM     69  S   UNL A   1      39.540  37.726  40.023  1.00  0.00     0.124 S 
ATOM     70  O   UNL A   1      40.806  38.425  39.823  1.00  0.00    -0.237 OA
ATOM     71  O   UNL A   1      38.349  38.419  39.544  1.00  0.00    -0.237 OA
ATOM     72  O   UNL A   1      39.390  37.054  41.310  1.00  0.00    -0.744 OA
ENDBRANCH  68  69
ENDBRANCH  36  61
ENDBRANCH  10  11
ENDBRANCH   3   5
ENDBRANCH   2   3
ENDBRANCH   1   2
BRANCH   1  73
ATOM     73  C   UNL A   1      39.611  21.614  26.216  1.00  0.00     0.275 C 
BRANCH  73  74
ATOM     74  O   UNL A   1      38.439  22.416  25.937  1.00  0.00    -0.458 OA
BRANCH  74  75
ATOM     75  C   UNL A   1      37.460  21.799  25.222  1.00  0.00     0.338 C 
ATOM     76  O   UNL A   1      37.607  20.788  24.547  1.00  0.00    -0.246 OA
BRANCH  75  77
ATOM     77  C   UNL A   1      36.131  22.452  25.396  1.00  0.00     0.060 A 
ATOM     78  C   UNL A   1      35.542  23.078  24.292  1.00  0.00     0.018 A 
ATOM     79  C   UNL A   1      35.486  22.537  26.628  1.00  0.00     0.018 A 
ATOM     80  C   UNL A   1      34.334  23.799  24.418  1.00  0.00     0.028 A 
ATOM     81  C   UNL A   1      34.283  23.270  26.747  1.00  0.00     0.028 A 
ATOM     82  C   UNL A   1      33.688  23.944  25.654  1.00  0.00     0.051 A 
BRANCH  82  83
ATOM     83  N   UNL A   1      32.446  24.687  25.808  1.00  0.00    -0.261 N 
ATOM     84  C   UNL A   1      32.410  26.085  25.948  1.00  0.00     0.270 C 
ATOM     85  C   UNL A   1      31.205  24.083  25.985  1.00  0.00     0.152 C 
ATOM     86  O   UNL A   1      33.283  26.806  26.419  1.00  0.00    -0.268 OA
ATOM     87  C   UNL A   1      31.018  26.603  25.688  1.00  0.00     0.081 C 
ATOM     88  S   UNL A   1      29.935  25.308  26.090  1.00  0.00    -0.054 SA
ATOM     89  S   UNL A   1      30.806  22.478  26.254  1.00  0.00    -0.051 S 
ATOM     90  C   UNL A   1      30.505  27.723  25.135  1.00  0.00     0.028 C 
BRANCH  90  91
ATOM     91  C   UNL A   1      31.071  28.842  24.354  1.00  0.00    -0.009 C 
ATOM     92  C   UNL A   1      32.350  28.970  23.941  1.00  0.00     0.019 C 
ATOM     93  C   UNL A   1      30.122  29.217  23.204  1.00  0.00     0.265 C 
ATOM     94  C   UNL A   1      32.543  28.011  22.823  1.00  0.00     0.017 A 
ATOM     95  O   UNL A   1      30.171  28.184  22.196  1.00  0.00    -0.488 OA
ATOM     96  C   UNL A   1      33.762  27.358  22.718  1.00  0.00     0.012 A 
ATOM     97  C   UNL A   1      31.407  27.578  22.094  1.00  0.00     0.127 A 
ATOM     98  C   UNL A   1      33.781  26.131  22.080  1.00  0.00     0.001 A 
ATOM     99  C   UNL A   1      31.449  26.376  21.419  1.00  0.00     0.047 A 
ATOM    100  C   UNL A   1      32.617  25.626  21.488  1.00  0.00     0.004 A 
ENDBRANCH  90  91
ENDBRANCH  82  83
ENDBRANCH  75  77
ENDBRANCH  74  75
ENDBRANCH  73  74
ENDBRANCH   1  73
TORSDOF 16
ENDMDL
MODEL 2
REMARK VINA RESULT:     -12.5      6.287     12.087
REMARK SMILES O=C(OCCOC(=O)c1ccc(N2C(=O)/C(=C\C3=Cc4ccccc4OC3)SC2=S)cc1)c1ccc(-c2c3nc(c(-c4c(F)cc(S(=O)(=O)[O-])cc4F)c4ccc([nH]4)c(-c4c(F)cc(S(=O)(=O)[O-])cc4F)c4nc(c(-c5c(F)cc(S(=O)(=O)[O-])cc5F)c5ccc2[nH]5)C=C4)C=C3)cc1
REMARK SMILES IDX 4 1 3 2 2 3 1 4 33 5 34 6 98 7 35 8 97 9 36 10 37 11 38 12
REMARK SMILES IDX 91 13 39 14 96 15 90 16 92 17 40 18 95 19 89 20 88 21 41 23
REMARK SMILES IDX 75 24 54 25 74 26 55 27 58 28 73 29 93 30 56 31 57 32 72 34
REMARK SMILES IDX 94 35 59 36 42 37 43 38 52 39 44 40 45 41 51 42 53 43 46 44
REMARK SMILES IDX 47 45 48 46 49 47 50 48 76 49 77 50 86 51 78 52 79 53 85 54
REMARK SMILES IDX 87 55 80 56 81 57 82 58 83 59 84 60 60 61 61 62 70 63 62 64
REMARK SMILES IDX 63 65 69 66 71 67 64 68 65 69 66 70 67 71 68 72 5 73 6 74
REMARK SMILES IDX 7 75 8 76 9 77 10 78 32 79 11 80 31 81 12 82 13 83 14 84
REMARK SMILES IDX 29 85 15 86 16 87 28 88 30 89 17 90 18 91 19 92 27 93 20 94
REMARK SMILES IDX 26 95 21 96 25 97 22 98 24 99 23 100
REMARK H PARENT 92 22 58 33
REMARK Flexibility Score: inf
ROOT
ATOM      1  C   UNL A   1      34.789  32.299  29.548  1.00  0.00     0.275 C 
ENDROOT
BRANCH   1   2
ATOM      2  O   UNL A   1      36.100  32.159  30.102  1.00  0.00    -0.458 OA
BRANCH   2   3
ATOM      3  C   UNL A   1      36.708  31.047  30.569  1.00  0.00     0.338 C 
ATOM      4  O   UNL A   1      36.251  30.534  31.591  1.00  0.00    -0.246 OA
BRANCH   3   5
ATOM      5  C   UNL A   1      37.931  30.419  29.958  1.00  0.00     0.060 A 
ATOM      6  C   UNL A   1      38.164  30.111  28.610  1.00  0.00     0.016 A 
ATOM      7  C   UNL A   1      38.975  30.156  30.852  1.00  0.00     0.016 A 
ATOM      8  C   UNL A   1      39.398  29.643  28.153  1.00  0.00     0.010 A 
ATOM      9  C   UNL A   1      40.205  29.685  30.395  1.00  0.00     0.010 A 
ATOM     10  C   UNL A   1      40.452  29.467  29.034  1.00  0.00    -0.014 A 
BRANCH  10  11
ATOM     11  C   UNL A   1      41.780  29.012  28.548  1.00  0.00     0.031 A 
ATOM     12  C   UNL A   1      42.878  30.029  28.428  1.00  0.00     0.074 A 
ATOM     13  C   UNL A   1      41.986  27.725  28.186  1.00  0.00     0.049 A 
ATOM     14  N   UNL A   1      44.109  29.874  28.019  1.00  0.00    -0.248 NA
ATOM     15  C   UNL A   1      42.542  31.414  28.802  1.00  0.00     0.031 C 
ATOM     16  C   UNL A   1      40.979  26.656  28.206  1.00  0.00     0.029 A 
ATOM     17  N   UNL A   1      43.107  27.092  27.704  1.00  0.00    -0.354 N 
ATOM     18  C   UNL A   1      44.679  31.138  28.085  1.00  0.00     0.074 A 
ATOM     19  C   UNL A   1      43.639  32.063  28.463  1.00  0.00     0.031 C 
ATOM     20  C   UNL A   1      41.528  25.511  27.766  1.00  0.00     0.029 A 
ATOM     21  C   UNL A   1      42.926  25.754  27.431  1.00  0.00     0.049 A 
ATOM     22  H   UNL A   1      43.965  27.557  27.564  1.00  0.00     0.167 HD
ATOM     23  C   UNL A   1      45.972  31.493  27.910  1.00  0.00     0.037 A 
ATOM     24  C   UNL A   1      43.798  24.829  26.977  1.00  0.00     0.037 A 
ATOM     25  C   UNL A   1      47.002  30.558  27.563  1.00  0.00     0.049 A 
ATOM     26  C   UNL A   1      45.230  25.251  26.755  1.00  0.00     0.074 A 
ATOM     27  C   UNL A   1      48.356  30.785  27.404  1.00  0.00     0.029 A 
ATOM     28  N   UNL A   1      46.783  29.210  27.317  1.00  0.00    -0.354 N 
ATOM     29  N   UNL A   1      45.773  26.436  26.915  1.00  0.00    -0.248 NA
ATOM     30  C   UNL A   1      46.171  24.213  26.317  1.00  0.00     0.031 C 
ATOM     31  C   UNL A   1      48.949  29.578  27.019  1.00  0.00     0.029 A 
ATOM     32  C   UNL A   1      47.974  28.591  26.991  1.00  0.00     0.049 A 
ATOM     33  H   UNL A   1      45.908  28.761  27.366  1.00  0.00     0.167 HD
ATOM     34  C   UNL A   1      47.128  26.273  26.650  1.00  0.00     0.074 A 
ATOM     35  C   UNL A   1      47.319  24.875  26.315  1.00  0.00     0.031 C 
ATOM     36  C   UNL A   1      48.128  27.190  26.687  1.00  0.00     0.037 A 
BRANCH  23  37
ATOM     37  C   UNL A   1      46.305  32.944  28.111  1.00  0.00     0.058 A 
ATOM     38  C   UNL A   1      46.699  33.442  29.366  1.00  0.00     0.135 A 
ATOM     39  C   UNL A   1      46.162  33.859  27.058  1.00  0.00     0.135 A 
ATOM     40  F   UNL A   1      46.822  32.612  30.415  1.00  0.00    -0.206 F 
ATOM     41  C   UNL A   1      46.879  34.802  29.585  1.00  0.00     0.059 A 
ATOM     42  C   UNL A   1      46.370  35.223  27.247  1.00  0.00     0.059 A 
ATOM     43  F   UNL A   1      45.782  33.439  25.842  1.00  0.00    -0.206 F 
ATOM     44  C   UNL A   1      46.704  35.686  28.520  1.00  0.00     0.060 A 
BRANCH  44  45
ATOM     45  S   UNL A   1      46.903  37.452  28.827  1.00  0.00     0.124 S 
ATOM     46  O   UNL A   1      47.255  37.942  27.498  1.00  0.00    -0.237 OA
ATOM     47  O   UNL A   1      45.580  37.835  29.313  1.00  0.00    -0.237 OA
ATOM     48  O   UNL A   1      47.971  37.506  29.820  1.00  0.00    -0.744 OA
ENDBRANCH  44  45
ENDBRANCH  23  37
BRANCH  24  49
ATOM     49  C   UNL A   1      43.382  23.410  26.777  1.00  0.00     0.058 A 
ATOM     50  C   UNL A   1      43.177  22.558  27.875  1.00  0.00     0.135 A 
ATOM     51  C   UNL A   1      43.198  22.866  25.495  1.00  0.00     0.135 A 
ATOM     52  F   UNL A   1      43.339  23.024  29.122  1.00  0.00    -0.206 F 
ATOM     53  C   UNL A   1      42.838  21.217  27.713  1.00  0.00     0.059 A 
ATOM     54  C   UNL A   1      42.837  21.532  25.306  1.00  0.00     0.059 A 
ATOM     55  F   UNL A   1      43.359  23.638  24.409  1.00  0.00    -0.206 F 
ATOM     56  C   UNL A   1      42.671  20.712  26.423  1.00  0.00     0.060 A 
BRANCH  56  57
ATOM     57  S   UNL A   1      42.207  18.975  26.233  1.00  0.00     0.124 S 
ATOM     58  O   UNL A   1      40.839  19.085  25.739  1.00  0.00    -0.237 OA
ATOM     59  O   UNL A   1      43.197  18.500  25.271  1.00  0.00    -0.237 OA
ATOM     60  O   UNL A   1      42.348  18.440  27.584  1.00  0.00    -0.744 OA
ENDBRANCH  56  57
ENDBRANCH  24  49
BRANCH  36  61
ATOM     61  C   UNL A   1      49.522  26.701  26.419  1.00  0.00     0.058 A 
ATOM     62  C   UNL A   1      50.279  26.047  27.402  1.00  0.00     0.135 A 
ATOM     63  C   UNL A   1      50.075  26.827  25.134  1.00  0.00     0.135 A 
ATOM     64  F   UNL A   1      49.794  25.906  28.646  1.00  0.00    -0.206 F 
ATOM     65  C   UNL A   1      51.548  25.551  27.126  1.00  0.00     0.059 A 
ATOM     66  C   UNL A   1      51.328  26.311  24.827  1.00  0.00     0.059 A 
ATOM     67  F   UNL A   1      49.383  27.433  24.156  1.00  0.00    -0.206 F 
ATOM     68  C   UNL A   1      52.061  25.684  25.833  1.00  0.00     0.060 A 
BRANCH  68  69
ATOM     69  S   UNL A   1      53.691  24.998  25.477  1.00  0.00     0.124 S 
ATOM     70  O   UNL A   1      54.005  25.636  24.203  1.00  0.00    -0.237 OA
ATOM     71  O   UNL A   1      54.476  25.445  26.623  1.00  0.00    -0.237 OA
ATOM     72  O   UNL A   1      53.447  23.560  25.417  1.00  0.00    -0.744 OA
ENDBRANCH  68  69
ENDBRANCH  36  61
ENDBRANCH  10  11
ENDBRANCH   3   5
ENDBRANCH   2   3
ENDBRANCH   1   2
BRANCH   1  73
ATOM     73  C   UNL A   1      34.686  31.831  28.086  1.00  0.00     0.275 C 
BRANCH  73  74
ATOM     74  O   UNL A   1      34.332  30.439  27.910  1.00  0.00    -0.458 OA
BRANCH  74  75
ATOM     75  C   UNL A   1      33.255  30.201  27.113  1.00  0.00     0.338 C 
ATOM     76  O   UNL A   1      32.284  30.937  26.999  1.00  0.00    -0.246 OA
BRANCH  75  77
ATOM     77  C   UNL A   1      33.403  28.951  26.315  1.00  0.00     0.060 A 
ATOM     78  C   UNL A   1      33.883  29.044  25.004  1.00  0.00     0.018 A 
ATOM     79  C   UNL A   1      33.010  27.701  26.788  1.00  0.00     0.018 A 
ATOM     80  C   UNL A   1      33.950  27.909  24.166  1.00  0.00     0.028 A 
ATOM     81  C   UNL A   1      33.069  26.572  25.939  1.00  0.00     0.028 A 
ATOM     82  C   UNL A   1      33.514  26.648  24.598  1.00  0.00     0.051 A 
BRANCH  82  83
ATOM     83  N   UNL A   1      33.568  25.466  23.750  1.00  0.00    -0.261 N 
ATOM     84  C   UNL A   1      34.426  24.384  24.011  1.00  0.00     0.270 C 
ATOM     85  C   UNL A   1      32.900  25.359  22.535  1.00  0.00     0.152 C 
ATOM     86  O   UNL A   1      35.503  24.416  24.596  1.00  0.00    -0.268 OA
ATOM     87  C   UNL A   1      33.992  23.169  23.230  1.00  0.00     0.081 C 
ATOM     88  S   UNL A   1      33.172  23.765  21.823  1.00  0.00    -0.054 SA
ATOM     89  S   UNL A   1      32.068  26.511  21.647  1.00  0.00    -0.051 S 
ATOM     90  C   UNL A   1      34.001  21.838  23.456  1.00  0.00     0.028 C 
BRANCH  90  91
ATOM     91  C   UNL A   1      34.248  20.992  24.642  1.00  0.00    -0.009 C 
ATOM     92  C   UNL A   1      34.442  21.418  25.908  1.00  0.00     0.019 C 
ATOM     93  C   UNL A   1      33.283  19.795  24.647  1.00  0.00     0.265 C 
ATOM     94  C   UNL A   1      33.122  21.864  26.424  1.00  0.00     0.017 A 
ATOM     95  O   UNL A   1      31.954  20.262  24.969  1.00  0.00    -0.488 OA
ATOM     96  C   UNL A   1      33.080  22.973  27.257  1.00  0.00     0.012 A 
ATOM     97  C   UNL A   1      31.947  21.344  25.826  1.00  0.00     0.127 A 
ATOM     98  C   UNL A   1      31.907  23.705  27.293  1.00  0.00     0.001 A 
ATOM     99  C   UNL A   1      30.769  22.056  25.908  1.00  0.00     0.047 A 
ATOM    100  C   UNL A   1      30.784  23.274  26.578  1.00  0.00     0.004 A 
ENDBRANCH  90  91
ENDBRANCH  82  83
ENDBRANCH  75  77
ENDBRANCH  74  75
ENDBRANCH  73  74
ENDBRANCH   1  73
TORSDOF 16
ENDMDL
MODEL 3
REMARK VINA RESULT:     -12.5      4.916      7.783
REMARK SMILES O=C(OCCOC(=O)c1ccc(N2C(=O)/C(=C\C3=Cc4ccccc4OC3)SC2=S)cc1)c1ccc(-c2c3nc(c(-c4c(F)cc(S(=O)(=O)[O-])cc4F)c4ccc([nH]4)c(-c4c(F)cc(S(=O)(=O)[O-])cc4F)c4nc(c(-c5c(F)cc(S(=O)(=O)[O-])cc5F)c5ccc2[nH]5)C=C4)C=C3)cc1
REMARK SMILES IDX 4 1 3 2 2 3 1 4 33 5 34 6 98 7 35 8 97 9 36 10 37 11 38 12
REMARK SMILES IDX 91 13 39 14 96 15 90 16 92 17 40 18 95 19 89 20 88 21 41 23
REMARK SMILES IDX 75 24 54 25 74 26 55 27 58 28 73 29 93 30 56 31 57 32 72 34
REMARK SMILES IDX 94 35 59 36 42 37 43 38 52 39 44 40 45 41 51 42 53 43 46 44
REMARK SMILES IDX 47 45 48 46 49 47 50 48 76 49 77 50 86 51 78 52 79 53 85 54
REMARK SMILES IDX 87 55 80 56 81 57 82 58 83 59 84 60 60 61 61 62 70 63 62 64
REMARK SMILES IDX 63 65 69 66 71 67 64 68 65 69 66 70 67 71 68 72 5 73 6 74
REMARK SMILES IDX 7 75 8 76 9 77 10 78 32 79 11 80 31 81 12 82 13 83 14 84
REMARK SMILES IDX 29 85 15 86 16 87 28 88 30 89 17 90 18 91 19 92 27 93 20 94
REMARK SMILES IDX 26 95 21 96 25 97 22 98 24 99 23 100
REMARK H PARENT 92 22 58 33
REMARK Flexibility Score: inf
ROOT
ATOM      1  C   UNL A   1      39.574  20.599  26.232  1.00  0.00     0.275 C 
ENDROOT
BRANCH   1   2
ATOM      2  O   UNL A   1      39.699  21.940  25.751  1.00  0.00    -0.458 OA
BRANCH   2   3
ATOM      3  C   UNL A   1      38.985  23.033  26.097  1.00  0.00     0.338 C 
ATOM      4  O   UNL A   1      37.796  23.062  25.778  1.00  0.00    -0.246 OA
BRANCH   3   5
ATOM      5  C   UNL A   1      39.549  24.238  26.800  1.00  0.00     0.060 A 
ATOM      6  C   UNL A   1      40.383  25.234  26.274  1.00  0.00     0.016 A 
ATOM      7  C   UNL A   1      39.147  24.394  28.131  1.00  0.00     0.016 A 
ATOM      8  C   UNL A   1      40.737  26.374  27.001  1.00  0.00     0.010 A 
ATOM      9  C   UNL A   1      39.503  25.529  28.857  1.00  0.00     0.010 A 
ATOM     10  C   UNL A   1      40.262  26.559  28.289  1.00  0.00    -0.014 A 
BRANCH  10  11
ATOM     11  C   UNL A   1      40.598  27.790  29.052  1.00  0.00     0.031 A 
ATOM     12  C   UNL A   1      41.933  27.859  29.734  1.00  0.00     0.074 A 
ATOM     13  C   UNL A   1      39.711  28.806  29.160  1.00  0.00     0.049 A 
ATOM     14  N   UNL A   1      42.441  28.817  30.462  1.00  0.00    -0.248 NA
ATOM     15  C   UNL A   1      42.809  26.683  29.595  1.00  0.00     0.031 C 
ATOM     16  C   UNL A   1      38.358  28.829  28.587  1.00  0.00     0.029 A 
ATOM     17  N   UNL A   1      39.797  30.012  29.814  1.00  0.00    -0.354 N 
ATOM     18  C   UNL A   1      43.686  28.351  30.863  1.00  0.00     0.074 A 
ATOM     19  C   UNL A   1      43.811  26.992  30.397  1.00  0.00     0.031 C 
ATOM     20  C   UNL A   1      37.754  29.986  28.907  1.00  0.00     0.029 A 
ATOM     21  C   UNL A   1      38.667  30.793  29.708  1.00  0.00     0.049 A 
ATOM     22  H   UNL A   1      40.597  30.292  30.316  1.00  0.00     0.167 HD
ATOM     23  C   UNL A   1      44.671  29.016  31.509  1.00  0.00     0.037 A 
ATOM     24  C   UNL A   1      38.408  32.026  30.192  1.00  0.00     0.037 A 
ATOM     25  C   UNL A   1      44.545  30.377  31.941  1.00  0.00     0.049 A 
ATOM     26  C   UNL A   1      39.508  32.740  30.940  1.00  0.00     0.074 A 
ATOM     27  C   UNL A   1      45.486  31.175  32.563  1.00  0.00     0.029 A 
ATOM     28  N   UNL A   1      43.394  31.139  31.797  1.00  0.00    -0.354 N 
ATOM     29  N   UNL A   1      40.717  32.317  31.228  1.00  0.00    -0.248 NA
ATOM     30  C   UNL A   1      39.222  34.103  31.405  1.00  0.00     0.031 C 
ATOM     31  C   UNL A   1      44.887  32.411  32.833  1.00  0.00     0.029 A 
ATOM     32  C   UNL A   1      43.593  32.398  32.331  1.00  0.00     0.049 A 
ATOM     33  H   UNL A   1      42.560  30.830  31.377  1.00  0.00     0.167 HD
ATOM     34  C   UNL A   1      41.353  33.379  31.860  1.00  0.00     0.074 A 
ATOM     35  C   UNL A   1      40.391  34.463  31.915  1.00  0.00     0.031 C 
ATOM     36  C   UNL A   1      42.618  33.459  32.345  1.00  0.00     0.037 A 
BRANCH  23  37
ATOM     37  C   UNL A   1      45.945  28.260  31.754  1.00  0.00     0.058 A 
ATOM     38  C   UNL A   1      46.975  28.224  30.797  1.00  0.00     0.135 A 
ATOM     39  C   UNL A   1      46.112  27.506  32.925  1.00  0.00     0.135 A 
ATOM     40  F   UNL A   1      46.853  28.904  29.645  1.00  0.00    -0.206 F 
ATOM     41  C   UNL A   1      48.096  27.420  30.965  1.00  0.00     0.059 A 
ATOM     42  C   UNL A   1      47.243  26.720  33.128  1.00  0.00     0.059 A 
ATOM     43  F   UNL A   1      45.157  27.500  33.867  1.00  0.00    -0.206 F 
ATOM     44  C   UNL A   1      48.217  26.665  32.131  1.00  0.00     0.060 A 
BRANCH  44  45
ATOM     45  S   UNL A   1      49.658  25.596  32.318  1.00  0.00     0.124 S 
ATOM     46  O   UNL A   1      50.651  26.533  32.833  1.00  0.00    -0.237 OA
ATOM     47  O   UNL A   1      49.182  24.594  33.267  1.00  0.00    -0.237 OA
ATOM     48  O   UNL A   1      49.897  25.109  30.964  1.00  0.00    -0.744 OA
ENDBRANCH  44  45
ENDBRANCH  23  37
BRANCH  24  49
ATOM     49  C   UNL A   1      37.104  32.700  29.927  1.00  0.00     0.058 A 
ATOM     50  C   UNL A   1      36.969  33.619  28.874  1.00  0.00     0.135 A 
ATOM     51  C   UNL A   1      35.973  32.463  30.725  1.00  0.00     0.135 A 
ATOM     52  F   UNL A   1      38.016  33.884  28.080  1.00  0.00    -0.206 F 
ATOM     53  C   UNL A   1      35.776  34.298  28.638  1.00  0.00     0.059 A 
ATOM     54  C   UNL A   1      34.761  33.114  30.496  1.00  0.00     0.059 A 
ATOM     55  F   UNL A   1      36.036  31.580  31.734  1.00  0.00    -0.206 F 
ATOM     56  C   UNL A   1      34.676  34.040  29.456  1.00  0.00     0.060 A 
BRANCH  56  57
ATOM     57  S   UNL A   1      33.130  34.915  29.120  1.00  0.00     0.124 S 
ATOM     58  O   UNL A   1      32.510  34.048  28.124  1.00  0.00    -0.237 OA
ATOM     59  O   UNL A   1      32.497  34.929  30.435  1.00  0.00    -0.237 OA
ATOM     60  O   UNL A   1      33.579  36.215  28.633  1.00  0.00    -0.744 OA
ENDBRANCH  56  57
ENDBRANCH  24  49
BRANCH  36  61
ATOM     61  C   UNL A   1      43.054  34.777  32.918  1.00  0.00     0.058 A 
ATOM     62  C   UNL A   1      43.575  35.799  32.112  1.00  0.00     0.135 A 
ATOM     63  C   UNL A   1      42.876  35.040  34.287  1.00  0.00     0.135 A 
ATOM     64  F   UNL A   1      43.768  35.593  30.799  1.00  0.00    -0.206 F 
ATOM     65  C   UNL A   1      43.925  37.033  32.647  1.00  0.00     0.059 A 
ATOM     66  C   UNL A   1      43.189  36.277  34.837  1.00  0.00     0.059 A 
ATOM     67  F   UNL A   1      42.368  34.098  35.097  1.00  0.00    -0.206 F 
ATOM     68  C   UNL A   1      43.724  37.264  34.010  1.00  0.00     0.060 A 
BRANCH  68  69
ATOM     69  S   UNL A   1      44.141  38.884  34.683  1.00  0.00     0.124 S 
ATOM     70  O   UNL A   1      43.066  39.711  34.145  1.00  0.00    -0.237 OA
ATOM     71  O   UNL A   1      44.101  38.645  36.122  1.00  0.00    -0.237 OA
ATOM     72  O   UNL A   1      45.470  39.146  34.136  1.00  0.00    -0.744 OA
ENDBRANCH  68  69
ENDBRANCH  36  61
ENDBRANCH  10  11
ENDBRANCH   3   5
ENDBRANCH   2   3
ENDBRANCH   1   2
BRANCH   1  73
ATOM     73  C   UNL A   1      40.924  19.920  26.521  1.00  0.00     0.275 C 
BRANCH  73  74
ATOM     74  O   UNL A   1      41.992  20.817  26.910  1.00  0.00    -0.458 OA
BRANCH  74  75
ATOM     75  C   UNL A   1      42.962  21.014  25.978  1.00  0.00     0.338 C 
ATOM     76  O   UNL A   1      43.311  20.198  25.135  1.00  0.00    -0.246 OA
BRANCH  75  77
ATOM     77  C   UNL A   1      43.537  22.388  26.039  1.00  0.00     0.060 A 
ATOM     78  C   UNL A   1      44.114  22.927  24.883  1.00  0.00     0.018 A 
ATOM     79  C   UNL A   1      43.598  23.131  27.216  1.00  0.00     0.018 A 
ATOM     80  C   UNL A   1      44.764  24.180  24.904  1.00  0.00     0.028 A 
ATOM     81  C   UNL A   1      44.261  24.380  27.231  1.00  0.00     0.028 A 
ATOM     82  C   UNL A   1      44.885  24.928  26.085  1.00  0.00     0.051 A 
BRANCH  82  83
ATOM     83  N   UNL A   1      45.554  26.219  26.132  1.00  0.00    -0.261 N 
ATOM     84  C   UNL A   1      44.886  27.430  25.883  1.00  0.00     0.270 C 
ATOM     85  C   UNL A   1      46.930  26.368  26.274  1.00  0.00     0.152 C 
ATOM     86  O   UNL A   1      43.897  27.600  25.177  1.00  0.00    -0.268 OA
ATOM     87  C   UNL A   1      45.703  28.594  26.384  1.00  0.00     0.081 C 
ATOM     88  S   UNL A   1      47.359  28.081  26.333  1.00  0.00    -0.054 SA
ATOM     89  S   UNL A   1      48.156  25.227  26.235  1.00  0.00    -0.051 S 
ATOM     90  C   UNL A   1      45.416  29.794  26.934  1.00  0.00     0.028 C 
BRANCH  90  91
ATOM     91  C   UNL A   1      44.191  30.414  27.478  1.00  0.00    -0.009 C 
ATOM     92  C   UNL A   1      44.109  31.232  28.549  1.00  0.00     0.019 C 
ATOM     93  C   UNL A   1      43.334  30.982  26.334  1.00  0.00     0.265 C 
ATOM     94  C   UNL A   1      44.665  32.546  28.135  1.00  0.00     0.017 A 
ATOM     95  O   UNL A   1      43.977  32.163  25.805  1.00  0.00    -0.488 OA
ATOM     96  C   UNL A   1      45.408  33.268  29.058  1.00  0.00     0.012 A 
ATOM     97  C   UNL A   1      44.678  32.876  26.757  1.00  0.00     0.127 A 
ATOM     98  C   UNL A   1      46.348  34.158  28.572  1.00  0.00     0.001 A 
ATOM     99  C   UNL A   1      45.586  33.801  26.286  1.00  0.00     0.047 A 
ATOM    100  C   UNL A   1      46.468  34.375  27.194  1.00  0.00     0.004 A 
ENDBRANCH  90  91
ENDBRANCH  82  83
ENDBRANCH  75  77
ENDBRANCH  74  75
ENDBRANCH  73  74
ENDBRANCH   1  73
TORSDOF 16
ENDMDL
