MODEL 1
REMARK VINA RESULT:     -11.8      0.000      0.000
REMARK SMILES Cc1cc(F)c([C@@H](C)[N@@H+]2C[C@H](C)[C@H](C(=O)OCCOC(=O)c3ccc(-c4c5nc(c(-c6c(F)cc(S(=O)(=O)[O-])cc6F)c6ccc([nH]6)c(-c6c(F)cc(S(=O)(=O)[O-])cc6F)c6nc(c(-c7c(F)cc(S(=O)(=O)[O-])cc7F)c7ccc4[nH]7)C=C6)C=C5)cc3)C2)cc1F
REMARK SMILES IDX 18 1 17 2 16 3 14 4 15 5 13 6 9 7 10 8 88 9 11 11 12 12 7 13
REMARK SMILES IDX 8 14 6 15 1 16 2 17 3 18 90 19 4 20 89 21 91 22 5 23 19 24
REMARK SMILES IDX 20 25 21 26 22 27 23 28 87 29 24 30 86 31 25 32 26 33 27 34
REMARK SMILES IDX 80 35 28 36 85 37 79 38 81 39 29 40 84 41 78 42 77 43 30 45
REMARK SMILES IDX 64 46 43 47 63 48 44 49 47 50 62 51 82 52 45 53 46 54 61 56
REMARK SMILES IDX 83 57 48 58 31 59 32 60 41 61 33 62 34 63 40 64 42 65 35 66
REMARK SMILES IDX 36 67 37 68 38 69 39 70 65 71 66 72 75 73 67 74 68 75 74 76
REMARK SMILES IDX 76 77 69 78 70 79 71 80 72 81 73 82 49 83 50 84 59 85 51 86
REMARK SMILES IDX 52 87 58 88 60 89 53 90 54 91 55 92 56 93 57 94
REMARK H PARENT 9 10 81 44 47 55
REMARK Flexibility Score: inf
ROOT
ATOM      1  C   UNL A   1      35.048  31.382  29.028  1.00  0.00     0.275 C 
ENDROOT
BRANCH   1   2
ATOM      2  C   UNL A   1      34.474  31.589  27.624  1.00  0.00     0.274 C 
BRANCH   2   3
ATOM      3  O   UNL A   1      33.056  31.338  27.600  1.00  0.00    -0.462 OA
BRANCH   3   4
ATOM      4  C   UNL A   1      32.597  30.526  26.620  1.00  0.00     0.315 C 
ATOM      5  O   UNL A   1      31.599  30.761  25.947  1.00  0.00    -0.252 OA
BRANCH   4   6
ATOM      6  C   UNL A   1      33.398  29.254  26.426  1.00  0.00     0.162 C 
ATOM      7  N   UNL A   1      33.717  27.671  24.652  1.00  0.00    -0.328 N 
ATOM      8  C   UNL A   1      33.549  26.924  25.895  1.00  0.00     0.267 C 
ATOM      9  C   UNL A   1      33.763  29.096  24.957  1.00  0.00     0.278 C 
ATOM     10  H   UNL A   1      34.623  27.411  24.263  1.00  0.00     0.348 HD
ATOM     11  C   UNL A   1      32.946  27.878  26.931  1.00  0.00     0.061 C 
ATOM     12  C   UNL A   1      31.463  27.616  27.152  1.00  0.00     0.015 C 
BRANCH   7  13
ATOM     13  C   UNL A   1      32.934  27.249  23.484  1.00  0.00     0.215 C 
ATOM     14  C   UNL A   1      33.645  27.616  22.171  1.00  0.00     0.081 C 
BRANCH  13  15
ATOM     15  C   UNL A   1      31.465  27.646  23.510  1.00  0.00     0.048 A 
ATOM     16  C   UNL A   1      27.312  28.775  23.011  1.00  0.00     0.047 C 
ATOM     17  C   UNL A   1      28.739  28.395  23.246  1.00  0.00    -0.012 A 
ATOM     18  C   UNL A   1      29.085  27.127  23.722  1.00  0.00     0.046 A 
ATOM     19  C   UNL A   1      29.764  29.299  22.964  1.00  0.00     0.126 A 
ATOM     20  C   UNL A   1      30.429  26.771  23.861  1.00  0.00     0.132 A 
ATOM     21  C   UNL A   1      31.104  28.940  23.091  1.00  0.00     0.052 A 
ATOM     22  F   UNL A   1      29.463  30.530  22.526  1.00  0.00    -0.207 F 
ATOM     23  F   UNL A   1      30.688  25.537  24.311  1.00  0.00    -0.206 F 
ENDBRANCH  13  15
ENDBRANCH   7  13
ENDBRANCH   4   6
ENDBRANCH   3   4
ENDBRANCH   2   3
ENDBRANCH   1   2
BRANCH   1  24
ATOM     24  O   UNL A   1      35.772  30.142  29.123  1.00  0.00    -0.458 OA
BRANCH  24  25
ATOM     25  C   UNL A   1      36.549  30.006  30.223  1.00  0.00     0.338 C 
ATOM     26  O   UNL A   1      36.190  29.978  31.387  1.00  0.00    -0.246 OA
BRANCH  25  27
ATOM     27  C   UNL A   1      37.933  29.748  29.810  1.00  0.00     0.060 A 
ATOM     28  C   UNL A   1      38.922  29.450  30.747  1.00  0.00     0.016 A 
ATOM     29  C   UNL A   1      38.218  29.730  28.444  1.00  0.00     0.016 A 
ATOM     30  C   UNL A   1      40.211  29.156  30.296  1.00  0.00     0.010 A 
ATOM     31  C   UNL A   1      39.497  29.431  27.995  1.00  0.00     0.010 A 
ATOM     32  C   UNL A   1      40.506  29.149  28.920  1.00  0.00    -0.014 A 
BRANCH  32  33
ATOM     33  C   UNL A   1      41.856  28.791  28.435  1.00  0.00     0.031 A 
ATOM     34  C   UNL A   1      42.944  29.823  28.379  1.00  0.00     0.074 A 
ATOM     35  C   UNL A   1      42.076  27.534  28.011  1.00  0.00     0.049 A 
ATOM     36  N   UNL A   1      44.204  29.669  28.067  1.00  0.00    -0.248 NA
ATOM     37  C   UNL A   1      42.567  31.212  28.693  1.00  0.00     0.031 C 
ATOM     38  C   UNL A   1      41.059  26.482  27.939  1.00  0.00     0.029 A 
ATOM     39  N   UNL A   1      43.219  26.923  27.570  1.00  0.00    -0.354 N 
ATOM     40  C   UNL A   1      44.776  30.932  28.168  1.00  0.00     0.074 A 
ATOM     41  C   UNL A   1      43.712  31.853  28.504  1.00  0.00     0.031 C 
ATOM     42  C   UNL A   1      41.635  25.342  27.526  1.00  0.00     0.029 A 
ATOM     43  C   UNL A   1      43.055  25.586  27.293  1.00  0.00     0.049 A 
ATOM     44  H   UNL A   1      44.076  27.395  27.461  1.00  0.00     0.167 HD
ATOM     45  C   UNL A   1      46.077  31.279  28.021  1.00  0.00     0.037 A 
ATOM     46  C   UNL A   1      43.957  24.659  26.920  1.00  0.00     0.037 A 
ATOM     47  C   UNL A   1      47.121  30.346  27.687  1.00  0.00     0.049 A 
ATOM     48  C   UNL A   1      45.398  25.064  26.785  1.00  0.00     0.074 A 
ATOM     49  C   UNL A   1      48.479  30.579  27.566  1.00  0.00     0.029 A 
ATOM     50  N   UNL A   1      46.920  28.999  27.417  1.00  0.00    -0.354 N 
ATOM     51  N   UNL A   1      45.941  26.243  26.972  1.00  0.00    -0.248 NA
ATOM     52  C   UNL A   1      46.350  24.014  26.402  1.00  0.00     0.031 C 
ATOM     53  C   UNL A   1      49.096  29.380  27.191  1.00  0.00     0.029 A 
ATOM     54  C   UNL A   1      48.126  28.391  27.115  1.00  0.00     0.049 A 
ATOM     55  H   UNL A   1      46.048  28.544  27.438  1.00  0.00     0.167 HD
ATOM     56  C   UNL A   1      47.301  26.076  26.741  1.00  0.00     0.074 A 
ATOM     57  C   UNL A   1      47.499  24.676  26.419  1.00  0.00     0.031 C 
ATOM     58  C   UNL A   1      48.296  26.996  26.791  1.00  0.00     0.037 A 
BRANCH  45  59
ATOM     59  C   UNL A   1      46.446  32.719  28.253  1.00  0.00     0.058 A 
ATOM     60  C   UNL A   1      46.863  33.167  29.517  1.00  0.00     0.135 A 
ATOM     61  C   UNL A   1      46.437  33.647  27.200  1.00  0.00     0.135 A 
ATOM     62  F   UNL A   1      46.879  32.324  30.562  1.00  0.00    -0.206 F 
ATOM     63  C   UNL A   1      47.239  34.488  29.734  1.00  0.00     0.059 A 
ATOM     64  C   UNL A   1      46.831  34.971  27.391  1.00  0.00     0.059 A 
ATOM     65  F   UNL A   1      46.048  33.274  25.972  1.00  0.00    -0.206 F 
ATOM     66  C   UNL A   1      47.220  35.383  28.664  1.00  0.00     0.060 A 
BRANCH  66  67
ATOM     67  S   UNL A   1      47.731  37.089  28.963  1.00  0.00     0.124 S 
ATOM     68  O   UNL A   1      46.480  37.810  28.751  1.00  0.00    -0.237 OA
ATOM     69  O   UNL A   1      48.204  37.037  30.343  1.00  0.00    -0.237 OA
ATOM     70  O   UNL A   1      48.765  37.317  27.957  1.00  0.00    -0.744 OA
ENDBRANCH  66  67
ENDBRANCH  45  59
BRANCH  46  71
ATOM     71  C   UNL A   1      43.524  23.252  26.727  1.00  0.00     0.058 A 
ATOM     72  C   UNL A   1      43.476  22.688  25.444  1.00  0.00     0.135 A 
ATOM     73  C   UNL A   1      43.206  22.429  27.817  1.00  0.00     0.135 A 
ATOM     74  F   UNL A   1      43.771  23.437  24.371  1.00  0.00    -0.206 F 
ATOM     75  C   UNL A   1      43.122  21.357  25.246  1.00  0.00     0.059 A 
ATOM     76  C   UNL A   1      42.869  21.089  27.647  1.00  0.00     0.059 A 
ATOM     77  F   UNL A   1      43.257  22.917  29.066  1.00  0.00    -0.206 F 
ATOM     78  C   UNL A   1      42.826  20.563  26.355  1.00  0.00     0.060 A 
BRANCH  78  79
ATOM     79  S   UNL A   1      42.437  18.820  26.090  1.00  0.00     0.124 S 
ATOM     80  O   UNL A   1      41.034  18.888  25.698  1.00  0.00    -0.237 OA
ATOM     81  O   UNL A   1      43.378  18.454  25.036  1.00  0.00    -0.237 OA
ATOM     82  O   UNL A   1      42.701  18.215  27.392  1.00  0.00    -0.744 OA
ENDBRANCH  78  79
ENDBRANCH  46  71
BRANCH  58  83
ATOM     83  C   UNL A   1      49.688  26.520  26.492  1.00  0.00     0.058 A 
ATOM     84  C   UNL A   1      50.512  25.997  27.500  1.00  0.00     0.135 A 
ATOM     85  C   UNL A   1      50.175  26.520  25.175  1.00  0.00     0.135 A 
ATOM     86  F   UNL A   1      50.094  25.982  28.776  1.00  0.00    -0.206 F 
ATOM     87  C   UNL A   1      51.779  25.502  27.214  1.00  0.00     0.059 A 
ATOM     88  C   UNL A   1      51.430  26.009  24.864  1.00  0.00     0.059 A 
ATOM     89  F   UNL A   1      49.420  27.002  24.176  1.00  0.00    -0.206 F 
ATOM     90  C   UNL A   1      52.228  25.508  25.893  1.00  0.00     0.060 A 
BRANCH  90  91
ATOM     91  S   UNL A   1      53.857  24.818  25.532  1.00  0.00     0.124 S 
ATOM     92  O   UNL A   1      54.532  24.972  26.816  1.00  0.00    -0.237 OA
ATOM     93  O   UNL A   1      53.537  23.448  25.143  1.00  0.00    -0.237 OA
ATOM     94  O   UNL A   1      54.354  25.668  24.455  1.00  0.00    -0.744 OA
ENDBRANCH  90  91
ENDBRANCH  58  83
ENDBRANCH  32  33
ENDBRANCH  25  27
ENDBRANCH  24  25
ENDBRANCH   1  24
TORSDOF 16
ENDMDL
MODEL 2
REMARK VINA RESULT:     -11.7      7.071     12.616
REMARK SMILES Cc1cc(F)c([C@@H](C)[N@@H+]2C[C@H](C)[C@H](C(=O)OCCOC(=O)c3ccc(-c4c5nc(c(-c6c(F)cc(S(=O)(=O)[O-])cc6F)c6ccc([nH]6)c(-c6c(F)cc(S(=O)(=O)[O-])cc6F)c6nc(c(-c7c(F)cc(S(=O)(=O)[O-])cc7F)c7ccc4[nH]7)C=C6)C=C5)cc3)C2)cc1F
REMARK SMILES IDX 18 1 17 2 16 3 14 4 15 5 13 6 9 7 10 8 88 9 11 11 12 12 7 13
REMARK SMILES IDX 8 14 6 15 1 16 2 17 3 18 90 19 4 20 89 21 91 22 5 23 19 24
REMARK SMILES IDX 20 25 21 26 22 27 23 28 87 29 24 30 86 31 25 32 26 33 27 34
REMARK SMILES IDX 80 35 28 36 85 37 79 38 81 39 29 40 84 41 78 42 77 43 30 45
REMARK SMILES IDX 64 46 43 47 63 48 44 49 47 50 62 51 82 52 45 53 46 54 61 56
REMARK SMILES IDX 83 57 48 58 31 59 32 60 41 61 33 62 34 63 40 64 42 65 35 66
REMARK SMILES IDX 36 67 37 68 38 69 39 70 65 71 66 72 75 73 67 74 68 75 74 76
REMARK SMILES IDX 76 77 69 78 70 79 71 80 72 81 73 82 49 83 50 84 59 85 51 86
REMARK SMILES IDX 52 87 58 88 60 89 53 90 54 91 55 92 56 93 57 94
REMARK H PARENT 9 10 81 44 47 55
REMARK Flexibility Score: inf
ROOT
ATOM      1  C   UNL A   1      40.793  22.701  26.289  1.00  0.00     0.275 C 
ENDROOT
BRANCH   1   2
ATOM      2  C   UNL A   1      39.270  22.653  26.435  1.00  0.00     0.274 C 
BRANCH   2   3
ATOM      3  O   UNL A   1      38.707  21.575  25.663  1.00  0.00    -0.462 OA
BRANCH   3   4
ATOM      4  C   UNL A   1      37.359  21.541  25.557  1.00  0.00     0.315 C 
ATOM      5  O   UNL A   1      36.714  20.516  25.360  1.00  0.00    -0.252 OA
BRANCH   4   6
ATOM      6  C   UNL A   1      36.681  22.892  25.664  1.00  0.00     0.162 C 
ATOM      7  N   UNL A   1      34.453  23.674  26.083  1.00  0.00    -0.328 N 
ATOM      8  C   UNL A   1      35.006  24.464  24.988  1.00  0.00     0.267 C 
ATOM      9  C   UNL A   1      35.492  22.797  26.608  1.00  0.00     0.278 C 
ATOM     10  H   UNL A   1      34.197  24.325  26.826  1.00  0.00     0.348 HD
ATOM     11  C   UNL A   1      36.232  23.717  24.451  1.00  0.00     0.061 C 
ATOM     12  C   UNL A   1      35.937  23.009  23.136  1.00  0.00     0.015 C 
BRANCH   7  13
ATOM     13  C   UNL A   1      33.107  23.113  25.916  1.00  0.00     0.215 C 
ATOM     14  C   UNL A   1      32.380  22.989  27.266  1.00  0.00     0.081 C 
BRANCH  13  15
ATOM     15  C   UNL A   1      33.030  21.852  25.068  1.00  0.00     0.048 A 
ATOM     16  C   UNL A   1      32.327  18.147  22.934  1.00  0.00     0.047 C 
ATOM     17  C   UNL A   1      32.627  19.430  23.643  1.00  0.00    -0.012 A 
ATOM     18  C   UNL A   1      32.501  20.663  22.998  1.00  0.00     0.046 A 
ATOM     19  C   UNL A   1      33.015  19.419  24.983  1.00  0.00     0.126 A 
ATOM     20  C   UNL A   1      32.713  21.851  23.704  1.00  0.00     0.132 A 
ATOM     21  C   UNL A   1      33.215  20.603  25.690  1.00  0.00     0.052 A 
ATOM     22  F   UNL A   1      33.166  18.251  25.624  1.00  0.00    -0.207 F 
ATOM     23  F   UNL A   1      32.564  22.996  23.027  1.00  0.00    -0.206 F 
ENDBRANCH  13  15
ENDBRANCH   7  13
ENDBRANCH   4   6
ENDBRANCH   3   4
ENDBRANCH   2   3
ENDBRANCH   1   2
BRANCH   1  24
ATOM     24  O   UNL A   1      41.374  23.693  27.155  1.00  0.00    -0.458 OA
BRANCH  24  25
ATOM     25  C   UNL A   1      41.399  24.952  26.660  1.00  0.00     0.338 C 
ATOM     26  O   UNL A   1      41.530  25.290  25.497  1.00  0.00    -0.246 OA
BRANCH  25  27
ATOM     27  C   UNL A   1      41.099  25.903  27.736  1.00  0.00     0.060 A 
ATOM     28  C   UNL A   1      39.932  25.795  28.490  1.00  0.00     0.016 A 
ATOM     29  C   UNL A   1      42.054  26.875  28.037  1.00  0.00     0.016 A 
ATOM     30  C   UNL A   1      39.722  26.692  29.541  1.00  0.00     0.010 A 
ATOM     31  C   UNL A   1      41.850  27.763  29.085  1.00  0.00     0.010 A 
ATOM     32  C   UNL A   1      40.677  27.682  29.840  1.00  0.00    -0.014 A 
BRANCH  32  33
ATOM     33  C   UNL A   1      40.483  28.602  30.981  1.00  0.00     0.031 A 
ATOM     34  C   UNL A   1      41.334  28.482  32.211  1.00  0.00     0.074 A 
ATOM     35  C   UNL A   1      39.504  29.522  30.907  1.00  0.00     0.049 A 
ATOM     36  N   UNL A   1      41.363  29.254  33.265  1.00  0.00    -0.248 NA
ATOM     37  C   UNL A   1      42.257  27.337  32.277  1.00  0.00     0.031 C 
ATOM     38  C   UNL A   1      38.563  29.659  29.792  1.00  0.00     0.029 A 
ATOM     39  N   UNL A   1      39.141  30.518  31.774  1.00  0.00    -0.354 N 
ATOM     40  C   UNL A   1      42.319  28.703  34.110  1.00  0.00     0.074 A 
ATOM     41  C   UNL A   1      42.800  27.495  33.476  1.00  0.00     0.031 C 
ATOM     42  C   UNL A   1      37.761  30.711  30.023  1.00  0.00     0.029 A 
ATOM     43  C   UNL A   1      38.123  31.312  31.302  1.00  0.00     0.049 A 
ATOM     44  H   UNL A   1      39.568  30.653  32.650  1.00  0.00     0.167 HD
ATOM     45  C   UNL A   1      42.773  29.185  35.293  1.00  0.00     0.037 A 
ATOM     46  C   UNL A   1      37.565  32.416  31.834  1.00  0.00     0.037 A 
ATOM     47  C   UNL A   1      42.282  30.391  35.906  1.00  0.00     0.049 A 
ATOM     48  C   UNL A   1      38.099  32.943  33.136  1.00  0.00     0.074 A 
ATOM     49  C   UNL A   1      42.706  30.998  37.074  1.00  0.00     0.029 A 
ATOM     50  N   UNL A   1      41.252  31.172  35.399  1.00  0.00    -0.354 N 
ATOM     51  N   UNL A   1      39.067  32.464  33.881  1.00  0.00    -0.248 NA
ATOM     52  C   UNL A   1      37.478  34.164  33.663  1.00  0.00     0.031 C 
ATOM     53  C   UNL A   1      41.911  32.130  37.291  1.00  0.00     0.029 A 
ATOM     54  C   UNL A   1      41.017  32.248  36.239  1.00  0.00     0.049 A 
ATOM     55  H   UNL A   1      40.762  30.988  34.567  1.00  0.00     0.167 HD
ATOM     56  C   UNL A   1      39.181  33.331  34.960  1.00  0.00     0.074 A 
ATOM     57  C   UNL A   1      38.194  34.375  34.761  1.00  0.00     0.031 C 
ATOM     58  C   UNL A   1      40.024  33.270  36.020  1.00  0.00     0.037 A 
BRANCH  45  59
ATOM     59  C   UNL A   1      43.873  28.424  35.981  1.00  0.00     0.058 A 
ATOM     60  C   UNL A   1      43.586  27.343  36.832  1.00  0.00     0.135 A 
ATOM     61  C   UNL A   1      45.222  28.736  35.753  1.00  0.00     0.135 A 
ATOM     62  F   UNL A   1      42.313  27.009  37.094  1.00  0.00    -0.206 F 
ATOM     63  C   UNL A   1      44.596  26.613  37.447  1.00  0.00     0.059 A 
ATOM     64  C   UNL A   1      46.251  28.003  36.341  1.00  0.00     0.059 A 
ATOM     65  F   UNL A   1      45.553  29.759  34.950  1.00  0.00    -0.206 F 
ATOM     66  C   UNL A   1      45.927  26.949  37.195  1.00  0.00     0.060 A 
BRANCH  66  67
ATOM     67  S   UNL A   1      47.224  25.975  37.988  1.00  0.00     0.124 S 
ATOM     68  O   UNL A   1      48.060  25.618  36.846  1.00  0.00    -0.237 OA
ATOM     69  O   UNL A   1      47.807  26.932  38.922  1.00  0.00    -0.237 OA
ATOM     70  O   UNL A   1      46.494  24.869  38.600  1.00  0.00    -0.744 OA
ENDBRANCH  66  67
ENDBRANCH  45  59
BRANCH  46  71
ATOM     71  C   UNL A   1      36.494  33.126  31.089  1.00  0.00     0.058 A 
ATOM     72  C   UNL A   1      35.163  33.071  31.525  1.00  0.00     0.135 A 
ATOM     73  C   UNL A   1      36.785  33.916  29.967  1.00  0.00     0.135 A 
ATOM     74  F   UNL A   1      34.837  32.329  32.593  1.00  0.00    -0.206 F 
ATOM     75  C   UNL A   1      34.153  33.771  30.871  1.00  0.00     0.059 A 
ATOM     76  C   UNL A   1      35.796  34.642  29.308  1.00  0.00     0.059 A 
ATOM     77  F   UNL A   1      38.048  34.016  29.524  1.00  0.00    -0.206 F 
ATOM     78  C   UNL A   1      34.481  34.559  29.766  1.00  0.00     0.060 A 
BRANCH  78  79
ATOM     79  S   UNL A   1      33.173  35.517  28.971  1.00  0.00     0.124 S 
ATOM     80  O   UNL A   1      33.946  36.475  28.189  1.00  0.00    -0.237 OA
ATOM     81  O   UNL A   1      32.465  34.494  28.208  1.00  0.00    -0.237 OA
ATOM     82  O   UNL A   1      32.431  36.073  30.098  1.00  0.00    -0.744 OA
ENDBRANCH  78  79
ENDBRANCH  46  71
BRANCH  58  83
ATOM     83  C   UNL A   1      39.917  34.361  37.046  1.00  0.00     0.058 A 
ATOM     84  C   UNL A   1      40.602  35.576  36.891  1.00  0.00     0.135 A 
ATOM     85  C   UNL A   1      39.069  34.219  38.155  1.00  0.00     0.135 A 
ATOM     86  F   UNL A   1      41.432  35.757  35.851  1.00  0.00    -0.206 F 
ATOM     87  C   UNL A   1      40.459  36.610  37.810  1.00  0.00     0.059 A 
ATOM     88  C   UNL A   1      38.893  35.249  39.073  1.00  0.00     0.059 A 
ATOM     89  F   UNL A   1      38.385  33.079  38.341  1.00  0.00    -0.206 F 
ATOM     90  C   UNL A   1      39.599  36.438  38.895  1.00  0.00     0.060 A 
BRANCH  90  91
ATOM     91  S   UNL A   1      39.389  37.807  40.053  1.00  0.00     0.124 S 
ATOM     92  O   UNL A   1      40.611  38.571  39.830  1.00  0.00    -0.237 OA
ATOM     93  O   UNL A   1      38.155  38.429  39.581  1.00  0.00    -0.237 OA
ATOM     94  O   UNL A   1      39.291  37.143  41.350  1.00  0.00    -0.744 OA
ENDBRANCH  90  91
ENDBRANCH  58  83
ENDBRANCH  32  33
ENDBRANCH  25  27
ENDBRANCH  24  25
ENDBRANCH   1  24
TORSDOF 16
ENDMDL
MODEL 3
REMARK VINA RESULT:     -11.6      6.644     14.044
REMARK SMILES Cc1cc(F)c([C@@H](C)[N@@H+]2C[C@H](C)[C@H](C(=O)OCCOC(=O)c3ccc(-c4c5nc(c(-c6c(F)cc(S(=O)(=O)[O-])cc6F)c6ccc([nH]6)c(-c6c(F)cc(S(=O)(=O)[O-])cc6F)c6nc(c(-c7c(F)cc(S(=O)(=O)[O-])cc7F)c7ccc4[nH]7)C=C6)C=C5)cc3)C2)cc1F
REMARK SMILES IDX 18 1 17 2 16 3 14 4 15 5 13 6 9 7 10 8 88 9 11 11 12 12 7 13
REMARK SMILES IDX 8 14 6 15 1 16 2 17 3 18 90 19 4 20 89 21 91 22 5 23 19 24
REMARK SMILES IDX 20 25 21 26 22 27 23 28 87 29 24 30 86 31 25 32 26 33 27 34
REMARK SMILES IDX 80 35 28 36 85 37 79 38 81 39 29 40 84 41 78 42 77 43 30 45
REMARK SMILES IDX 64 46 43 47 63 48 44 49 47 50 62 51 82 52 45 53 46 54 61 56
REMARK SMILES IDX 83 57 48 58 31 59 32 60 41 61 33 62 34 63 40 64 42 65 35 66
REMARK SMILES IDX 36 67 37 68 38 69 39 70 65 71 66 72 75 73 67 74 68 75 74 76
REMARK SMILES IDX 76 77 69 78 70 79 71 80 72 81 73 82 49 83 50 84 59 85 51 86
REMARK SMILES IDX 52 87 58 88 60 89 53 90 54 91 55 92 56 93 57 94
REMARK H PARENT 9 10 81 44 47 55
REMARK Flexibility Score: inf
ROOT
ATOM      1  C   UNL A   1      42.288  23.059  26.720  1.00  0.00     0.275 C 
ENDROOT
BRANCH   1   2
ATOM      2  C   UNL A   1      43.060  22.478  25.532  1.00  0.00     0.274 C 
BRANCH   2   3
ATOM      3  O   UNL A   1      44.470  22.405  25.815  1.00  0.00    -0.462 OA
BRANCH   3   4
ATOM      4  C   UNL A   1      45.274  23.249  25.128  1.00  0.00     0.315 C 
ATOM      5  O   UNL A   1      45.224  23.403  23.911  1.00  0.00    -0.252 OA
BRANCH   4   6
ATOM      6  C   UNL A   1      46.291  23.986  25.975  1.00  0.00     0.162 C 
ATOM      7  N   UNL A   1      46.301  25.039  28.130  1.00  0.00    -0.328 N 
ATOM      8  C   UNL A   1      47.006  25.915  27.201  1.00  0.00     0.267 C 
ATOM      9  C   UNL A   1      45.967  23.793  27.450  1.00  0.00     0.278 C 
ATOM     10  H   UNL A   1      46.951  24.812  28.884  1.00  0.00     0.348 HD
ATOM     11  C   UNL A   1      46.651  25.464  25.780  1.00  0.00     0.061 C 
ATOM     12  C   UNL A   1      45.643  26.396  25.121  1.00  0.00     0.015 C 
BRANCH   7  13
ATOM     13  C   UNL A   1      45.279  25.635  28.999  1.00  0.00     0.215 C 
ATOM     14  C   UNL A   1      45.391  27.168  29.024  1.00  0.00     0.081 C 
BRANCH  13  15
ATOM     15  C   UNL A   1      45.161  25.013  30.383  1.00  0.00     0.048 A 
ATOM     16  C   UNL A   1      44.595  23.739  34.486  1.00  0.00     0.047 C 
ATOM     17  C   UNL A   1      44.823  24.125  33.058  1.00  0.00    -0.012 A 
ATOM     18  C   UNL A   1      44.049  23.585  32.028  1.00  0.00     0.046 A 
ATOM     19  C   UNL A   1      45.804  25.061  32.730  1.00  0.00     0.126 A 
ATOM     20  C   UNL A   1      44.230  24.018  30.711  1.00  0.00     0.132 A 
ATOM     21  C   UNL A   1      45.976  25.502  31.420  1.00  0.00     0.052 A 
ATOM     22  F   UNL A   1      46.577  25.581  33.694  1.00  0.00    -0.207 F 
ATOM     23  F   UNL A   1      43.446  23.468  29.776  1.00  0.00    -0.206 F 
ENDBRANCH  13  15
ENDBRANCH   7  13
ENDBRANCH   4   6
ENDBRANCH   3   4
ENDBRANCH   2   3
ENDBRANCH   1   2
BRANCH   1  24
ATOM     24  O   UNL A   1      41.289  24.000  26.288  1.00  0.00    -0.458 OA
BRANCH  24  25
ATOM     25  C   UNL A   1      41.737  25.256  26.054  1.00  0.00     0.338 C 
ATOM     26  O   UNL A   1      42.244  25.685  25.033  1.00  0.00    -0.246 OA
BRANCH  25  27
ATOM     27  C   UNL A   1      41.396  26.114  27.195  1.00  0.00     0.060 A 
ATOM     28  C   UNL A   1      40.415  25.741  28.110  1.00  0.00     0.016 A 
ATOM     29  C   UNL A   1      42.139  27.280  27.383  1.00  0.00     0.016 A 
ATOM     30  C   UNL A   1      40.168  26.567  29.210  1.00  0.00     0.010 A 
ATOM     31  C   UNL A   1      41.900  28.098  28.478  1.00  0.00     0.010 A 
ATOM     32  C   UNL A   1      40.906  27.751  29.397  1.00  0.00    -0.014 A 
BRANCH  32  33
ATOM     33  C   UNL A   1      40.684  28.603  30.584  1.00  0.00     0.031 A 
ATOM     34  C   UNL A   1      41.533  28.439  31.810  1.00  0.00     0.074 A 
ATOM     35  C   UNL A   1      39.682  29.501  30.554  1.00  0.00     0.049 A 
ATOM     36  N   UNL A   1      41.538  29.153  32.905  1.00  0.00    -0.248 NA
ATOM     37  C   UNL A   1      42.485  27.315  31.820  1.00  0.00     0.031 C 
ATOM     38  C   UNL A   1      38.743  29.674  29.443  1.00  0.00     0.029 A 
ATOM     39  N   UNL A   1      39.291  30.439  31.471  1.00  0.00    -0.354 N 
ATOM     40  C   UNL A   1      42.505  28.583  33.725  1.00  0.00     0.074 A 
ATOM     41  C   UNL A   1      43.018  27.423  33.030  1.00  0.00     0.031 C 
ATOM     42  C   UNL A   1      37.913  30.691  29.725  1.00  0.00     0.029 A 
ATOM     43  C   UNL A   1      38.254  31.231  31.037  1.00  0.00     0.049 A 
ATOM     44  H   UNL A   1      39.711  30.538  32.356  1.00  0.00     0.167 HD
ATOM     45  C   UNL A   1      42.941  29.011  34.934  1.00  0.00     0.037 A 
ATOM     46  C   UNL A   1      37.666  32.291  31.624  1.00  0.00     0.037 A 
ATOM     47  C   UNL A   1      42.417  30.170  35.608  1.00  0.00     0.049 A 
ATOM     48  C   UNL A   1      38.182  32.760  32.955  1.00  0.00     0.074 A 
ATOM     49  C   UNL A   1      42.820  30.724  36.809  1.00  0.00     0.029 A 
ATOM     50  N   UNL A   1      41.369  30.951  35.138  1.00  0.00    -0.354 N 
ATOM     51  N   UNL A   1      39.158  32.267  33.679  1.00  0.00    -0.248 NA
ATOM     52  C   UNL A   1      37.527  33.936  33.544  1.00  0.00     0.031 C 
ATOM     53  C   UNL A   1      41.996  31.822  37.082  1.00  0.00     0.029 A 
ATOM     54  C   UNL A   1      41.103  31.974  36.032  1.00  0.00     0.049 A 
ATOM     55  H   UNL A   1      40.888  30.800  34.294  1.00  0.00     0.167 HD
ATOM     56  C   UNL A   1      39.245  33.077  34.804  1.00  0.00     0.074 A 
ATOM     57  C   UNL A   1      38.233  34.105  34.655  1.00  0.00     0.031 C 
ATOM     58  C   UNL A   1      40.085  32.981  35.864  1.00  0.00     0.037 A 
BRANCH  45  59
ATOM     59  C   UNL A   1      44.057  28.243  35.586  1.00  0.00     0.058 A 
ATOM     60  C   UNL A   1      43.790  27.169  36.452  1.00  0.00     0.135 A 
ATOM     61  C   UNL A   1      45.400  28.540  35.309  1.00  0.00     0.135 A 
ATOM     62  F   UNL A   1      42.523  26.849  36.762  1.00  0.00    -0.206 F 
ATOM     63  C   UNL A   1      44.814  26.431  37.035  1.00  0.00     0.059 A 
ATOM     64  C   UNL A   1      46.442  27.799  35.864  1.00  0.00     0.059 A 
ATOM     65  F   UNL A   1      45.713  29.555  34.489  1.00  0.00    -0.206 F 
ATOM     66  C   UNL A   1      46.138  26.753  36.734  1.00  0.00     0.060 A 
BRANCH  66  67
ATOM     67  S   UNL A   1      47.453  25.769  37.485  1.00  0.00     0.124 S 
ATOM     68  O   UNL A   1      48.199  26.789  38.217  1.00  0.00    -0.237 OA
ATOM     69  O   UNL A   1      46.705  24.823  38.306  1.00  0.00    -0.237 OA
ATOM     70  O   UNL A   1      48.144  25.190  36.337  1.00  0.00    -0.744 OA
ENDBRANCH  66  67
ENDBRANCH  45  59
BRANCH  46  71
ATOM     71  C   UNL A   1      36.581  33.012  30.912  1.00  0.00     0.058 A 
ATOM     72  C   UNL A   1      35.252  32.912  31.345  1.00  0.00     0.135 A 
ATOM     73  C   UNL A   1      36.855  33.858  29.827  1.00  0.00     0.135 A 
ATOM     74  F   UNL A   1      34.941  32.116  32.379  1.00  0.00    -0.206 F 
ATOM     75  C   UNL A   1      34.228  33.620  30.724  1.00  0.00     0.059 A 
ATOM     76  C   UNL A   1      35.851  34.593  29.202  1.00  0.00     0.059 A 
ATOM     77  F   UNL A   1      38.115  34.003  29.388  1.00  0.00    -0.206 F 
ATOM     78  C   UNL A   1      34.539  34.464  29.656  1.00  0.00     0.060 A 
BRANCH  78  79
ATOM     79  S   UNL A   1      33.211  35.431  28.905  1.00  0.00     0.124 S 
ATOM     80  O   UNL A   1      33.964  36.419  28.142  1.00  0.00    -0.237 OA
ATOM     81  O   UNL A   1      32.504  34.423  28.122  1.00  0.00    -0.237 OA
ATOM     82  O   UNL A   1      32.478  35.946  30.058  1.00  0.00    -0.744 OA
ENDBRANCH  78  79
ENDBRANCH  46  71
BRANCH  58  83
ATOM     83  C   UNL A   1      39.946  34.012  36.946  1.00  0.00     0.058 A 
ATOM     84  C   UNL A   1      40.646  35.228  36.887  1.00  0.00     0.135 A 
ATOM     85  C   UNL A   1      39.055  33.815  38.011  1.00  0.00     0.135 A 
ATOM     86  F   UNL A   1      41.516  35.460  35.892  1.00  0.00    -0.206 F 
ATOM     87  C   UNL A   1      40.474  36.208  37.858  1.00  0.00     0.059 A 
ATOM     88  C   UNL A   1      38.851  34.791  38.980  1.00  0.00     0.059 A 
ATOM     89  F   UNL A   1      38.356  32.673  38.105  1.00  0.00    -0.206 F 
ATOM     90  C   UNL A   1      39.572  35.983  38.898  1.00  0.00     0.060 A 
BRANCH  90  91
ATOM     91  S   UNL A   1      39.326  37.285  40.124  1.00  0.00     0.124 S 
ATOM     92  O   UNL A   1      40.694  37.740  40.347  1.00  0.00    -0.237 OA
ATOM     93  O   UNL A   1      38.453  38.218  39.418  1.00  0.00    -0.237 OA
ATOM     94  O   UNL A   1      38.707  36.584  41.245  1.00  0.00    -0.744 OA
ENDBRANCH  90  91
ENDBRANCH  58  83
ENDBRANCH  32  33
ENDBRANCH  25  27
ENDBRANCH  24  25
ENDBRANCH   1  24
TORSDOF 16
ENDMDL
