MODEL 1
REMARK VINA RESULT:     -10.9      0.000      0.000
REMARK SMILES CCn1nc(-c2cccnc2)c2cc(C(=O)OCCOC(=O)c3ccc(-c4c5nc(c(-c6c(F)cc(S(=O)(=O)[O-])cc6F)c6ccc([nH]6)c(-c6c(F)cc(S(=O)(=O)[O-])cc6F)c6nc(c(-c7c(F)cc(S(=O)(=O)[O-])cc7F)c7ccc4[nH]7)C=C6)C=C5)cc3)sc21
REMARK SMILES IDX 19 1 18 2 17 3 15 4 16 5 14 6 3 7 4 8 90 9 5 10 12 11 89 12
REMARK SMILES IDX 13 13 2 14 1 15 6 16 7 17 11 18 8 19 10 20 9 21 20 22 21 23
REMARK SMILES IDX 22 24 23 25 24 26 88 27 25 28 87 29 26 30 27 31 28 32 81 33
REMARK SMILES IDX 29 34 86 35 80 36 82 37 30 38 85 39 79 40 78 41 31 43 65 44
REMARK SMILES IDX 44 45 64 46 45 47 48 48 63 49 83 50 46 51 47 52 62 54 84 55
REMARK SMILES IDX 49 56 32 57 33 58 42 59 34 60 35 61 41 62 43 63 36 64 37 65
REMARK SMILES IDX 38 66 39 67 40 68 66 69 67 70 76 71 68 72 69 73 75 74 77 75
REMARK SMILES IDX 70 76 71 77 72 78 73 79 74 80 50 81 51 82 60 83 52 84 53 85
REMARK SMILES IDX 59 86 61 87 54 88 55 89 56 90 57 91 58 92
REMARK H PARENT 82 42 48 53
REMARK Flexibility Score: inf
ROOT
ATOM      1  C   UNL A   1      40.721  20.270  26.504  1.00  0.00     0.275 C 
ENDROOT
BRANCH   1   2
ATOM      2  C   UNL A   1      42.144  20.016  26.032  1.00  0.00     0.275 C 
BRANCH   2   3
ATOM      3  O   UNL A   1      43.008  21.076  26.452  1.00  0.00    -0.458 OA
BRANCH   3   4
ATOM      4  C   UNL A   1      43.880  21.596  25.528  1.00  0.00     0.348 C 
ATOM      5  O   UNL A   1      44.066  21.133  24.419  1.00  0.00    -0.245 OA
BRANCH   4   6
ATOM      6  C   UNL A   1      44.522  22.788  26.067  1.00  0.00     0.115 A 
ATOM      7  N   UNL A   1      45.975  26.211  26.429  1.00  0.00    -0.254 N 
ATOM      8  N   UNL A   1      46.064  26.517  27.755  1.00  0.00    -0.171 NA
ATOM      9  C   UNL A   1      45.526  24.957  26.245  1.00  0.00     0.122 A 
ATOM     10  C   UNL A   1      45.691  25.376  28.398  1.00  0.00     0.103 A 
ATOM     11  C   UNL A   1      45.298  24.429  27.447  1.00  0.00     0.040 A 
ATOM     12  S   UNL A   1      45.180  23.973  24.968  1.00  0.00    -0.109 S 
ATOM     13  C   UNL A   1      44.729  23.152  27.409  1.00  0.00     0.040 A 
BRANCH   7  14
ATOM     14  C   UNL A   1      46.307  27.181  25.407  1.00  0.00     0.142 C 
ATOM     15  C   UNL A   1      47.514  26.787  24.564  1.00  0.00     0.029 C 
ENDBRANCH   7  14
BRANCH  10  16
ATOM     16  C   UNL A   1      45.740  25.301  29.846  1.00  0.00     0.021 A 
ATOM     17  C   UNL A   1      44.592  25.031  30.596  1.00  0.00     0.013 A 
ATOM     18  C   UNL A   1      46.910  25.580  30.543  1.00  0.00     0.121 A 
ATOM     19  C   UNL A   1      44.657  25.042  31.988  1.00  0.00     0.021 A 
ATOM     20  N   UNL A   1      47.002  25.595  31.897  1.00  0.00    -0.264 NA
ATOM     21  C   UNL A   1      45.873  25.331  32.587  1.00  0.00     0.111 A 
ENDBRANCH  10  16
ENDBRANCH   4   6
ENDBRANCH   3   4
ENDBRANCH   2   3
ENDBRANCH   1   2
BRANCH   1  22
ATOM     22  O   UNL A   1      40.627  21.518  27.188  1.00  0.00    -0.458 OA
BRANCH  22  23
ATOM     23  C   UNL A   1      39.738  22.399  26.676  1.00  0.00     0.338 C 
ATOM     24  O   UNL A   1      38.833  22.165  25.893  1.00  0.00    -0.246 OA
BRANCH  23  25
ATOM     25  C   UNL A   1      40.140  23.749  27.073  1.00  0.00     0.060 A 
ATOM     26  C   UNL A   1      41.312  23.911  27.814  1.00  0.00     0.016 A 
ATOM     27  C   UNL A   1      39.232  24.801  26.885  1.00  0.00     0.016 A 
ATOM     28  C   UNL A   1      41.514  25.113  28.466  1.00  0.00     0.010 A 
ATOM     29  C   UNL A   1      39.432  25.991  27.540  1.00  0.00     0.010 A 
ATOM     30  C   UNL A   1      40.540  26.118  28.371  1.00  0.00    -0.014 A 
BRANCH  30  31
ATOM     31  C   UNL A   1      40.789  27.404  28.997  1.00  0.00     0.031 A 
ATOM     32  C   UNL A   1      41.960  28.088  28.395  1.00  0.00     0.074 A 
ATOM     33  C   UNL A   1      39.956  27.957  29.904  1.00  0.00     0.049 A 
ATOM     34  N   UNL A   1      43.097  28.323  28.956  1.00  0.00    -0.248 NA
ATOM     35  C   UNL A   1      41.949  28.353  26.944  1.00  0.00     0.031 C 
ATOM     36  C   UNL A   1      38.660  27.443  30.362  1.00  0.00     0.029 A 
ATOM     37  N   UNL A   1      40.051  29.151  30.556  1.00  0.00    -0.354 N 
ATOM     38  C   UNL A   1      43.848  29.006  28.004  1.00  0.00     0.074 A 
ATOM     39  C   UNL A   1      43.187  28.808  26.745  1.00  0.00     0.031 C 
ATOM     40  C   UNL A   1      37.998  28.414  31.033  1.00  0.00     0.029 A 
ATOM     41  C   UNL A   1      38.875  29.563  31.182  1.00  0.00     0.049 A 
ATOM     42  H   UNL A   1      40.881  29.680  30.582  1.00  0.00     0.167 HD
ATOM     43  C   UNL A   1      44.769  29.928  28.396  1.00  0.00     0.037 A 
ATOM     44  C   UNL A   1      38.640  30.764  31.773  1.00  0.00     0.037 A 
ATOM     45  C   UNL A   1      45.092  29.756  29.792  1.00  0.00     0.049 A 
ATOM     46  C   UNL A   1      39.964  31.331  32.118  1.00  0.00     0.074 A 
ATOM     47  C   UNL A   1      45.752  28.809  30.543  1.00  0.00     0.029 A 
ATOM     48  N   UNL A   1      44.292  30.473  30.645  1.00  0.00    -0.354 N 
ATOM     49  N   UNL A   1      40.760  30.800  33.005  1.00  0.00    -0.248 NA
ATOM     50  C   UNL A   1      40.596  32.264  31.196  1.00  0.00     0.031 C 
ATOM     51  C   UNL A   1      45.117  28.816  31.821  1.00  0.00     0.029 A 
ATOM     52  C   UNL A   1      44.133  29.806  31.830  1.00  0.00     0.049 A 
ATOM     53  H   UNL A   1      43.890  31.346  30.435  1.00  0.00     0.167 HD
ATOM     54  C   UNL A   1      42.028  30.976  32.484  1.00  0.00     0.074 A 
ATOM     55  C   UNL A   1      41.880  32.018  31.473  1.00  0.00     0.031 C 
ATOM     56  C   UNL A   1      43.005  30.047  32.707  1.00  0.00     0.037 A 
BRANCH  43  57
ATOM     57  C   UNL A   1      44.985  31.250  27.689  1.00  0.00     0.058 A 
ATOM     58  C   UNL A   1      46.197  31.475  27.004  1.00  0.00     0.135 A 
ATOM     59  C   UNL A   1      44.190  32.400  27.904  1.00  0.00     0.135 A 
ATOM     60  F   UNL A   1      47.046  30.462  26.766  1.00  0.00    -0.206 F 
ATOM     61  C   UNL A   1      46.608  32.751  26.608  1.00  0.00     0.059 A 
ATOM     62  C   UNL A   1      44.557  33.669  27.475  1.00  0.00     0.059 A 
ATOM     63  F   UNL A   1      43.067  32.372  28.630  1.00  0.00    -0.206 F 
ATOM     64  C   UNL A   1      45.782  33.843  26.855  1.00  0.00     0.060 A 
BRANCH  64  65
ATOM     65  S   UNL A   1      46.330  35.499  26.403  1.00  0.00     0.124 S 
ATOM     66  O   UNL A   1      47.275  35.212  25.330  1.00  0.00    -0.237 OA
ATOM     67  O   UNL A   1      45.078  36.131  26.004  1.00  0.00    -0.237 OA
ATOM     68  O   UNL A   1      46.915  36.008  27.639  1.00  0.00    -0.744 OA
ENDBRANCH  64  65
ENDBRANCH  43  57
BRANCH  44  69
ATOM     69  C   UNL A   1      37.391  31.573  31.816  1.00  0.00     0.058 A 
ATOM     70  C   UNL A   1      36.750  31.895  33.027  1.00  0.00     0.135 A 
ATOM     71  C   UNL A   1      36.967  32.296  30.684  1.00  0.00     0.135 A 
ATOM     72  F   UNL A   1      37.106  31.276  34.163  1.00  0.00    -0.206 F 
ATOM     73  C   UNL A   1      35.780  32.904  33.120  1.00  0.00     0.059 A 
ATOM     74  C   UNL A   1      36.002  33.304  30.751  1.00  0.00     0.059 A 
ATOM     75  F   UNL A   1      37.550  32.106  29.491  1.00  0.00    -0.206 F 
ATOM     76  C   UNL A   1      35.427  33.619  31.976  1.00  0.00     0.060 A 
BRANCH  76  77
ATOM     77  S   UNL A   1      34.296  35.028  32.113  1.00  0.00     0.124 S 
ATOM     78  O   UNL A   1      34.061  35.366  30.714  1.00  0.00    -0.237 OA
ATOM     79  O   UNL A   1      33.162  34.448  32.826  1.00  0.00    -0.237 OA
ATOM     80  O   UNL A   1      35.066  36.010  32.871  1.00  0.00    -0.744 OA
ENDBRANCH  76  77
ENDBRANCH  44  69
BRANCH  56  81
ATOM     81  C   UNL A   1      42.817  29.116  33.875  1.00  0.00     0.058 A 
ATOM     82  C   UNL A   1      43.006  29.462  35.225  1.00  0.00     0.135 A 
ATOM     83  C   UNL A   1      42.334  27.827  33.607  1.00  0.00     0.135 A 
ATOM     84  F   UNL A   1      43.382  30.699  35.576  1.00  0.00    -0.206 F 
ATOM     85  C   UNL A   1      42.765  28.550  36.258  1.00  0.00     0.059 A 
ATOM     86  C   UNL A   1      42.058  26.914  34.619  1.00  0.00     0.059 A 
ATOM     87  F   UNL A   1      42.084  27.455  32.341  1.00  0.00    -0.206 F 
ATOM     88  C   UNL A   1      42.292  27.276  35.943  1.00  0.00     0.060 A 
BRANCH  88  89
ATOM     89  S   UNL A   1      41.931  26.111  37.275  1.00  0.00     0.124 S 
ATOM     90  O   UNL A   1      42.993  26.398  38.232  1.00  0.00    -0.237 OA
ATOM     91  O   UNL A   1      40.585  26.503  37.684  1.00  0.00    -0.237 OA
ATOM     92  O   UNL A   1      42.017  24.808  36.620  1.00  0.00    -0.744 OA
ENDBRANCH  88  89
ENDBRANCH  56  81
ENDBRANCH  30  31
ENDBRANCH  23  25
ENDBRANCH  22  23
ENDBRANCH   1  22
TORSDOF 16
ENDMDL
MODEL 2
REMARK VINA RESULT:     -10.6      3.439      6.108
REMARK SMILES CCn1nc(-c2cccnc2)c2cc(C(=O)OCCOC(=O)c3ccc(-c4c5nc(c(-c6c(F)cc(S(=O)(=O)[O-])cc6F)c6ccc([nH]6)c(-c6c(F)cc(S(=O)(=O)[O-])cc6F)c6nc(c(-c7c(F)cc(S(=O)(=O)[O-])cc7F)c7ccc4[nH]7)C=C6)C=C5)cc3)sc21
REMARK SMILES IDX 19 1 18 2 17 3 15 4 16 5 14 6 3 7 4 8 90 9 5 10 12 11 89 12
REMARK SMILES IDX 13 13 2 14 1 15 6 16 7 17 11 18 8 19 10 20 9 21 20 22 21 23
REMARK SMILES IDX 22 24 23 25 24 26 88 27 25 28 87 29 26 30 27 31 28 32 81 33
REMARK SMILES IDX 29 34 86 35 80 36 82 37 30 38 85 39 79 40 78 41 31 43 65 44
REMARK SMILES IDX 44 45 64 46 45 47 48 48 63 49 83 50 46 51 47 52 62 54 84 55
REMARK SMILES IDX 49 56 32 57 33 58 42 59 34 60 35 61 41 62 43 63 36 64 37 65
REMARK SMILES IDX 38 66 39 67 40 68 66 69 67 70 76 71 68 72 69 73 75 74 77 75
REMARK SMILES IDX 70 76 71 77 72 78 73 79 74 80 50 81 51 82 60 83 52 84 53 85
REMARK SMILES IDX 59 86 61 87 54 88 55 89 56 90 57 91 58 92
REMARK H PARENT 82 42 48 53
REMARK Flexibility Score: inf
ROOT
ATOM      1  C   UNL A   1      37.543  21.701  25.850  1.00  0.00     0.275 C 
ENDROOT
BRANCH   1   2
ATOM      2  C   UNL A   1      36.579  21.945  24.701  1.00  0.00     0.275 C 
BRANCH   2   3
ATOM      3  O   UNL A   1      35.750  23.080  24.974  1.00  0.00    -0.458 OA
BRANCH   3   4
ATOM      4  C   UNL A   1      35.169  23.721  23.910  1.00  0.00     0.348 C 
ATOM      5  O   UNL A   1      35.412  23.479  22.743  1.00  0.00    -0.245 OA
BRANCH   4   6
ATOM      6  C   UNL A   1      34.209  24.707  24.387  1.00  0.00     0.115 A 
ATOM      7  N   UNL A   1      31.064  26.382  25.510  1.00  0.00    -0.254 N 
ATOM      8  N   UNL A   1      31.386  27.510  26.206  1.00  0.00    -0.171 NA
ATOM      9  C   UNL A   1      32.161  25.780  25.019  1.00  0.00     0.122 A 
ATOM     10  C   UNL A   1      32.739  27.612  26.090  1.00  0.00     0.103 A 
ATOM     11  C   UNL A   1      33.219  26.494  25.400  1.00  0.00     0.040 A 
ATOM     12  S   UNL A   1      32.505  24.433  24.133  1.00  0.00    -0.109 S 
ATOM     13  C   UNL A   1      34.446  25.928  25.042  1.00  0.00     0.040 A 
BRANCH   7  14
ATOM     14  C   UNL A   1      29.691  25.936  25.391  1.00  0.00     0.142 C 
ATOM     15  C   UNL A   1      29.033  26.342  24.078  1.00  0.00     0.029 C 
ENDBRANCH   7  14
BRANCH  10  16
ATOM     16  C   UNL A   1      33.438  28.754  26.648  1.00  0.00     0.021 A 
ATOM     17  C   UNL A   1      34.752  28.642  27.110  1.00  0.00     0.013 A 
ATOM     18  C   UNL A   1      32.799  29.977  26.821  1.00  0.00     0.121 A 
ATOM     19  C   UNL A   1      35.369  29.738  27.710  1.00  0.00     0.021 A 
ATOM     20  N   UNL A   1      33.376  31.059  27.401  1.00  0.00    -0.264 NA
ATOM     21  C   UNL A   1      34.645  30.913  27.836  1.00  0.00     0.111 A 
ENDBRANCH  10  16
ENDBRANCH   4   6
ENDBRANCH   3   4
ENDBRANCH   2   3
ENDBRANCH   1   2
BRANCH   1  22
ATOM     22  O   UNL A   1      38.767  22.404  25.647  1.00  0.00    -0.458 OA
BRANCH  22  23
ATOM     23  C   UNL A   1      39.683  22.279  26.633  1.00  0.00     0.338 C 
ATOM     24  O   UNL A   1      40.008  21.257  27.215  1.00  0.00    -0.246 OA
BRANCH  23  25
ATOM     25  C   UNL A   1      40.119  23.617  27.036  1.00  0.00     0.060 A 
ATOM     26  C   UNL A   1      41.251  23.740  27.844  1.00  0.00     0.016 A 
ATOM     27  C   UNL A   1      39.270  24.704  26.781  1.00  0.00     0.016 A 
ATOM     28  C   UNL A   1      41.465  24.942  28.492  1.00  0.00     0.010 A 
ATOM     29  C   UNL A   1      39.482  25.893  27.432  1.00  0.00     0.010 A 
ATOM     30  C   UNL A   1      40.543  25.986  28.326  1.00  0.00    -0.014 A 
BRANCH  30  31
ATOM     31  C   UNL A   1      40.810  27.270  28.951  1.00  0.00     0.031 A 
ATOM     32  C   UNL A   1      41.990  27.936  28.347  1.00  0.00     0.074 A 
ATOM     33  C   UNL A   1      39.984  27.835  29.857  1.00  0.00     0.049 A 
ATOM     34  N   UNL A   1      43.130  28.157  28.907  1.00  0.00    -0.248 NA
ATOM     35  C   UNL A   1      41.982  28.199  26.896  1.00  0.00     0.031 C 
ATOM     36  C   UNL A   1      38.681  27.339  30.316  1.00  0.00     0.029 A 
ATOM     37  N   UNL A   1      40.095  29.029  30.506  1.00  0.00    -0.354 N 
ATOM     38  C   UNL A   1      43.890  28.828  27.955  1.00  0.00     0.074 A 
ATOM     39  C   UNL A   1      43.226  28.637  26.696  1.00  0.00     0.031 C 
ATOM     40  C   UNL A   1      38.033  28.320  30.986  1.00  0.00     0.029 A 
ATOM     41  C   UNL A   1      38.926  29.457  31.133  1.00  0.00     0.049 A 
ATOM     42  H   UNL A   1      40.932  29.546  30.532  1.00  0.00     0.167 HD
ATOM     43  C   UNL A   1      44.823  29.738  28.345  1.00  0.00     0.037 A 
ATOM     44  C   UNL A   1      38.707  30.663  31.722  1.00  0.00     0.037 A 
ATOM     45  C   UNL A   1      45.144  29.564  29.741  1.00  0.00     0.049 A 
ATOM     46  C   UNL A   1      40.038  31.212  32.065  1.00  0.00     0.074 A 
ATOM     47  C   UNL A   1      45.792  28.609  30.494  1.00  0.00     0.029 A 
ATOM     48  N   UNL A   1      44.354  30.293  30.593  1.00  0.00    -0.354 N 
ATOM     49  N   UNL A   1      40.827  30.672  32.953  1.00  0.00    -0.248 NA
ATOM     50  C   UNL A   1      40.683  32.135  31.142  1.00  0.00     0.031 C 
ATOM     51  C   UNL A   1      45.157  28.627  31.771  1.00  0.00     0.029 A 
ATOM     52  C   UNL A   1      44.187  29.630  31.779  1.00  0.00     0.049 A 
ATOM     53  H   UNL A   1      43.964  31.172  30.382  1.00  0.00     0.167 HD
ATOM     54  C   UNL A   1      42.098  30.829  32.431  1.00  0.00     0.074 A 
ATOM     55  C   UNL A   1      41.964  31.872  31.419  1.00  0.00     0.031 C 
ATOM     56  C   UNL A   1      43.061  29.888  32.656  1.00  0.00     0.037 A 
BRANCH  43  57
ATOM     57  C   UNL A   1      45.057  31.056  27.636  1.00  0.00     0.058 A 
ATOM     58  C   UNL A   1      46.295  31.287  27.003  1.00  0.00     0.135 A 
ATOM     59  C   UNL A   1      44.242  32.199  27.806  1.00  0.00     0.135 A 
ATOM     60  F   UNL A   1      47.164  30.281  26.811  1.00  0.00    -0.206 F 
ATOM     61  C   UNL A   1      46.711  32.564  26.613  1.00  0.00     0.059 A 
ATOM     62  C   UNL A   1      44.615  33.469  27.381  1.00  0.00     0.059 A 
ATOM     63  F   UNL A   1      43.088  32.167  28.481  1.00  0.00    -0.206 F 
ATOM     64  C   UNL A   1      45.864  33.650  26.814  1.00  0.00     0.060 A 
BRANCH  64  65
ATOM     65  S   UNL A   1      46.416  35.306  26.370  1.00  0.00     0.124 S 
ATOM     66  O   UNL A   1      47.393  35.581  27.416  1.00  0.00    -0.237 OA
ATOM     67  O   UNL A   1      46.952  35.095  25.030  1.00  0.00    -0.237 OA
ATOM     68  O   UNL A   1      45.189  36.095  26.429  1.00  0.00    -0.744 OA
ENDBRANCH  64  65
ENDBRANCH  43  57
BRANCH  44  69
ATOM     69  C   UNL A   1      37.468  31.488  31.763  1.00  0.00     0.058 A 
ATOM     70  C   UNL A   1      36.823  31.806  32.973  1.00  0.00     0.135 A 
ATOM     71  C   UNL A   1      37.064  32.229  30.636  1.00  0.00     0.135 A 
ATOM     72  F   UNL A   1      37.161  31.171  34.105  1.00  0.00    -0.206 F 
ATOM     73  C   UNL A   1      35.867  32.828  33.069  1.00  0.00     0.059 A 
ATOM     74  C   UNL A   1      36.113  33.250  30.707  1.00  0.00     0.059 A 
ATOM     75  F   UNL A   1      37.654  32.044  29.445  1.00  0.00    -0.206 F 
ATOM     76  C   UNL A   1      35.532  33.560  31.931  1.00  0.00     0.060 A 
BRANCH  76  77
ATOM     77  S   UNL A   1      34.420  34.983  32.074  1.00  0.00     0.124 S 
ATOM     78  O   UNL A   1      35.227  35.923  32.842  1.00  0.00    -0.237 OA
ATOM     79  O   UNL A   1      34.186  35.337  30.677  1.00  0.00    -0.237 OA
ATOM     80  O   UNL A   1      33.261  34.438  32.776  1.00  0.00    -0.744 OA
ENDBRANCH  76  77
ENDBRANCH  44  69
BRANCH  56  81
ATOM     81  C   UNL A   1      42.861  28.961  33.826  1.00  0.00     0.058 A 
ATOM     82  C   UNL A   1      43.072  29.301  35.174  1.00  0.00     0.135 A 
ATOM     83  C   UNL A   1      42.343  27.685  33.562  1.00  0.00     0.135 A 
ATOM     84  F   UNL A   1      43.483  30.528  35.521  1.00  0.00    -0.206 F 
ATOM     85  C   UNL A   1      42.818  28.395  36.208  1.00  0.00     0.059 A 
ATOM     86  C   UNL A   1      42.054  26.779  34.576  1.00  0.00     0.059 A 
ATOM     87  F   UNL A   1      42.072  27.320  32.298  1.00  0.00    -0.206 F 
ATOM     88  C   UNL A   1      42.310  27.134  35.898  1.00  0.00     0.060 A 
BRANCH  88  89
ATOM     89  S   UNL A   1      41.932  25.978  37.233  1.00  0.00     0.124 S 
ATOM     90  O   UNL A   1      42.907  26.353  38.250  1.00  0.00    -0.237 OA
ATOM     91  O   UNL A   1      40.540  26.292  37.542  1.00  0.00    -0.237 OA
ATOM     92  O   UNL A   1      42.143  24.669  36.620  1.00  0.00    -0.744 OA
ENDBRANCH  88  89
ENDBRANCH  56  81
ENDBRANCH  30  31
ENDBRANCH  23  25
ENDBRANCH  22  23
ENDBRANCH   1  22
TORSDOF 16
ENDMDL
MODEL 3
REMARK VINA RESULT:     -10.3      3.947     10.765
REMARK SMILES CCn1nc(-c2cccnc2)c2cc(C(=O)OCCOC(=O)c3ccc(-c4c5nc(c(-c6c(F)cc(S(=O)(=O)[O-])cc6F)c6ccc([nH]6)c(-c6c(F)cc(S(=O)(=O)[O-])cc6F)c6nc(c(-c7c(F)cc(S(=O)(=O)[O-])cc7F)c7ccc4[nH]7)C=C6)C=C5)cc3)sc21
REMARK SMILES IDX 19 1 18 2 17 3 15 4 16 5 14 6 3 7 4 8 90 9 5 10 12 11 89 12
REMARK SMILES IDX 13 13 2 14 1 15 6 16 7 17 11 18 8 19 10 20 9 21 20 22 21 23
REMARK SMILES IDX 22 24 23 25 24 26 88 27 25 28 87 29 26 30 27 31 28 32 81 33
REMARK SMILES IDX 29 34 86 35 80 36 82 37 30 38 85 39 79 40 78 41 31 43 65 44
REMARK SMILES IDX 44 45 64 46 45 47 48 48 63 49 83 50 46 51 47 52 62 54 84 55
REMARK SMILES IDX 49 56 32 57 33 58 42 59 34 60 35 61 41 62 43 63 36 64 37 65
REMARK SMILES IDX 38 66 39 67 40 68 66 69 67 70 76 71 68 72 69 73 75 74 77 75
REMARK SMILES IDX 70 76 71 77 72 78 73 79 74 80 50 81 51 82 60 83 52 84 53 85
REMARK SMILES IDX 59 86 61 87 54 88 55 89 56 90 57 91 58 92
REMARK H PARENT 82 42 48 53
REMARK Flexibility Score: inf
ROOT
ATOM      1  C   UNL A   1      33.042  30.238  26.995  1.00  0.00     0.275 C 
ENDROOT
BRANCH   1   2
ATOM      2  C   UNL A   1      32.824  28.757  27.261  1.00  0.00     0.275 C 
BRANCH   2   3
ATOM      3  O   UNL A   1      33.369  27.971  26.197  1.00  0.00    -0.458 OA
BRANCH   3   4
ATOM      4  C   UNL A   1      32.503  27.207  25.456  1.00  0.00     0.348 C 
ATOM      5  O   UNL A   1      31.483  27.624  24.941  1.00  0.00    -0.245 OA
BRANCH   4   6
ATOM      6  C   UNL A   1      33.001  25.840  25.363  1.00  0.00     0.115 A 
ATOM      7  N   UNL A   1      33.370  22.221  24.514  1.00  0.00    -0.254 N 
ATOM      8  N   UNL A   1      34.666  21.848  24.717  1.00  0.00    -0.171 NA
ATOM      9  C   UNL A   1      33.166  23.499  24.876  1.00  0.00     0.122 A 
ATOM     10  C   UNL A   1      35.258  22.943  25.267  1.00  0.00     0.103 A 
ATOM     11  C   UNL A   1      34.329  23.988  25.305  1.00  0.00     0.040 A 
ATOM     12  S   UNL A   1      31.908  24.564  24.894  1.00  0.00    -0.109 S 
ATOM     13  C   UNL A   1      34.291  25.349  25.625  1.00  0.00     0.040 A 
BRANCH   7  14
ATOM     14  C   UNL A   1      32.403  21.307  23.943  1.00  0.00     0.142 C 
ATOM     15  C   UNL A   1      32.064  21.612  22.489  1.00  0.00     0.029 C 
ENDBRANCH   7  14
BRANCH  10  16
ATOM     16  C   UNL A   1      36.643  22.890  25.696  1.00  0.00     0.021 A 
ATOM     17  C   UNL A   1      37.284  24.019  26.212  1.00  0.00     0.013 A 
ATOM     18  C   UNL A   1      37.406  21.739  25.530  1.00  0.00     0.121 A 
ATOM     19  C   UNL A   1      38.636  23.956  26.544  1.00  0.00     0.021 A 
ATOM     20  N   UNL A   1      38.723  21.650  25.846  1.00  0.00    -0.264 NA
ATOM     21  C   UNL A   1      39.307  22.761  26.340  1.00  0.00     0.111 A 
ENDBRANCH  10  16
ENDBRANCH   4   6
ENDBRANCH   3   4
ENDBRANCH   2   3
ENDBRANCH   1   2
BRANCH   1  22
ATOM     22  O   UNL A   1      34.432  30.556  26.991  1.00  0.00    -0.458 OA
BRANCH  22  23
ATOM     23  C   UNL A   1      34.860  31.317  28.023  1.00  0.00     0.338 C 
ATOM     24  O   UNL A   1      34.393  32.378  28.403  1.00  0.00    -0.246 OA
BRANCH  23  25
ATOM     25  C   UNL A   1      36.114  30.755  28.527  1.00  0.00     0.060 A 
ATOM     26  C   UNL A   1      37.098  31.625  29.001  1.00  0.00     0.016 A 
ATOM     27  C   UNL A   1      36.371  29.393  28.317  1.00  0.00     0.016 A 
ATOM     28  C   UNL A   1      38.382  31.140  29.158  1.00  0.00     0.010 A 
ATOM     29  C   UNL A   1      37.649  28.915  28.466  1.00  0.00     0.010 A 
ATOM     30  C   UNL A   1      38.656  29.804  28.829  1.00  0.00    -0.014 A 
BRANCH  30  31
ATOM     31  C   UNL A   1      39.989  29.278  29.063  1.00  0.00     0.031 A 
ATOM     32  C   UNL A   1      40.295  29.188  30.512  1.00  0.00     0.074 A 
ATOM     33  C   UNL A   1      40.775  28.794  28.078  1.00  0.00     0.049 A 
ATOM     34  N   UNL A   1      41.157  29.885  31.170  1.00  0.00    -0.248 NA
ATOM     35  C   UNL A   1      39.401  28.388  31.369  1.00  0.00     0.031 C 
ATOM     36  C   UNL A   1      40.437  28.632  26.659  1.00  0.00     0.029 A 
ATOM     37  N   UNL A   1      42.027  28.259  28.149  1.00  0.00    -0.354 N 
ATOM     38  C   UNL A   1      41.095  29.416  32.479  1.00  0.00     0.074 A 
ATOM     39  C   UNL A   1      39.875  28.667  32.585  1.00  0.00     0.031 C 
ATOM     40  C   UNL A   1      41.360  27.846  26.059  1.00  0.00     0.029 A 
ATOM     41  C   UNL A   1      42.428  27.569  27.006  1.00  0.00     0.049 A 
ATOM     42  H   UNL A   1      42.602  28.352  28.943  1.00  0.00     0.167 HD
ATOM     43  C   UNL A   1      42.208  29.430  33.261  1.00  0.00     0.037 A 
ATOM     44  C   UNL A   1      43.552  26.820  26.854  1.00  0.00     0.037 A 
ATOM     45  C   UNL A   1      43.204  30.313  32.705  1.00  0.00     0.049 A 
ATOM     46  C   UNL A   1      44.515  27.293  27.873  1.00  0.00     0.074 A 
ATOM     47  C   UNL A   1      43.333  31.674  32.538  1.00  0.00     0.029 A 
ATOM     48  N   UNL A   1      44.063  29.707  31.824  1.00  0.00    -0.354 N 
ATOM     49  N   UNL A   1      45.041  28.486  27.861  1.00  0.00    -0.248 NA
ATOM     50  C   UNL A   1      44.600  26.590  29.146  1.00  0.00     0.031 C 
ATOM     51  C   UNL A   1      44.098  31.847  31.346  1.00  0.00     0.029 A 
ATOM     52  C   UNL A   1      44.465  30.591  30.859  1.00  0.00     0.049 A 
ATOM     53  H   UNL A   1      44.352  28.768  31.879  1.00  0.00     0.167 HD
ATOM     54  C   UNL A   1      45.112  28.850  29.193  1.00  0.00     0.074 A 
ATOM     55  C   UNL A   1      44.992  27.598  29.932  1.00  0.00     0.031 C 
ATOM     56  C   UNL A   1      44.952  30.154  29.566  1.00  0.00     0.037 A 
BRANCH  43  57
ATOM     57  C   UNL A   1      42.583  28.305  34.204  1.00  0.00     0.058 A 
ATOM     58  C   UNL A   1      42.725  28.578  35.580  1.00  0.00     0.135 A 
ATOM     59  C   UNL A   1      43.093  27.056  33.780  1.00  0.00     0.135 A 
ATOM     60  F   UNL A   1      42.301  29.745  36.092  1.00  0.00    -0.206 F 
ATOM     61  C   UNL A   1      43.369  27.699  36.456  1.00  0.00     0.059 A 
ATOM     62  C   UNL A   1      43.692  26.146  34.644  1.00  0.00     0.059 A 
ATOM     63  F   UNL A   1      43.132  26.693  32.493  1.00  0.00    -0.206 F 
ATOM     64  C   UNL A   1      43.855  26.487  35.975  1.00  0.00     0.060 A 
BRANCH  64  65
ATOM     65  S   UNL A   1      44.738  25.376  37.084  1.00  0.00     0.124 S 
ATOM     66  O   UNL A   1      44.402  24.073  36.523  1.00  0.00    -0.237 OA
ATOM     67  O   UNL A   1      46.119  25.813  36.910  1.00  0.00    -0.237 OA
ATOM     68  O   UNL A   1      44.154  25.670  38.389  1.00  0.00    -0.744 OA
ENDBRANCH  64  65
ENDBRANCH  43  57
BRANCH  44  69
ATOM     69  C   UNL A   1      43.756  25.561  26.086  1.00  0.00     0.058 A 
ATOM     70  C   UNL A   1      44.894  25.351  25.284  1.00  0.00     0.135 A 
ATOM     71  C   UNL A   1      42.979  24.419  26.363  1.00  0.00     0.135 A 
ATOM     72  F   UNL A   1      45.709  26.375  24.989  1.00  0.00    -0.206 F 
ATOM     73  C   UNL A   1      45.265  24.080  24.822  1.00  0.00     0.059 A 
ATOM     74  C   UNL A   1      43.327  23.143  25.913  1.00  0.00     0.059 A 
ATOM     75  F   UNL A   1      41.905  24.498  27.163  1.00  0.00    -0.206 F 
ATOM     76  C   UNL A   1      44.483  22.975  25.160  1.00  0.00     0.060 A 
BRANCH  76  77
ATOM     77  S   UNL A   1      45.037  21.312  24.705  1.00  0.00     0.124 S 
ATOM     78  O   UNL A   1      46.478  21.405  24.906  1.00  0.00    -0.237 OA
ATOM     79  O   UNL A   1      44.315  20.472  25.655  1.00  0.00    -0.237 OA
ATOM     80  O   UNL A   1      44.610  21.180  23.315  1.00  0.00    -0.744 OA
ENDBRANCH  76  77
ENDBRANCH  44  69
BRANCH  56  81
ATOM     81  C   UNL A   1      45.168  31.205  28.509  1.00  0.00     0.058 A 
ATOM     82  C   UNL A   1      44.206  31.624  27.574  1.00  0.00     0.135 A 
ATOM     83  C   UNL A   1      46.397  31.881  28.508  1.00  0.00     0.135 A 
ATOM     84  F   UNL A   1      42.977  31.090  27.562  1.00  0.00    -0.206 F 
ATOM     85  C   UNL A   1      44.471  32.641  26.652  1.00  0.00     0.059 A 
ATOM     86  C   UNL A   1      46.672  32.917  27.623  1.00  0.00     0.059 A 
ATOM     87  F   UNL A   1      47.339  31.562  29.412  1.00  0.00    -0.206 F 
ATOM     88  C   UNL A   1      45.710  33.281  26.684  1.00  0.00     0.060 A 
BRANCH  88  89
ATOM     89  S   UNL A   1      46.039  34.630  25.530  1.00  0.00     0.124 S 
ATOM     90  O   UNL A   1      47.473  34.497  25.301  1.00  0.00    -0.237 OA
ATOM     91  O   UNL A   1      45.182  34.297  24.396  1.00  0.00    -0.237 OA
ATOM     92  O   UNL A   1      45.635  35.821  26.274  1.00  0.00    -0.744 OA
ENDBRANCH  88  89
ENDBRANCH  56  81
ENDBRANCH  30  31
ENDBRANCH  23  25
ENDBRANCH  22  23
ENDBRANCH   1  22
TORSDOF 16
ENDMDL
