MODEL 1
REMARK VINA RESULT:     -10.4      0.000      0.000
REMARK SMILES C[C@@H]1OCC[C@@H]1C#CC(=O)OCCOC(=O)c1ccc(-c2c3nc(c(-c4c(F)cc(S(=O)(=O)[O-])cc4F)c4ccc([nH]4)c(-c4c(F)cc(S(=O)(=O)[O-])cc4F)c4nc(c(-c5c(F)cc(S(=O)(=O)[O-])cc5F)c5ccc2[nH]5)C=C4)C=C3)cc1
REMARK SMILES IDX 13 1 12 2 11 3 9 4 10 5 8 6 7 7 6 8 1 9 2 10 3 11 4 12 5 13
REMARK SMILES IDX 14 14 15 15 16 16 17 17 18 18 82 19 19 20 81 21 20 22 21 23
REMARK SMILES IDX 22 24 75 25 23 26 80 27 74 28 76 29 24 30 79 31 73 32 72 33
REMARK SMILES IDX 25 35 59 36 38 37 58 38 39 39 42 40 57 41 77 42 40 43 41 44
REMARK SMILES IDX 56 46 78 47 43 48 26 49 27 50 36 51 28 52 29 53 35 54 37 55
REMARK SMILES IDX 30 56 31 57 32 58 33 59 34 60 60 61 61 62 70 63 62 64 63 65
REMARK SMILES IDX 69 66 71 67 64 68 65 69 66 70 67 71 68 72 44 73 45 74 54 75
REMARK SMILES IDX 46 76 47 77 53 78 55 79 48 80 49 81 50 82 51 83 52 84
REMARK H PARENT 76 34 42 45
REMARK Flexibility Score: inf
ROOT
ATOM      1  C   UNL A   1      34.501  30.761  27.562  1.00  0.00     0.275 C 
ENDROOT
BRANCH   1   2
ATOM      2  C   UNL A   1      33.197  29.991  27.324  1.00  0.00     0.275 C 
BRANCH   2   3
ATOM      3  O   UNL A   1      32.746  30.168  25.973  1.00  0.00    -0.452 OA
BRANCH   3   4
ATOM      4  C   UNL A   1      32.019  29.138  25.475  1.00  0.00     0.384 C 
ATOM      5  O   UNL A   1      32.104  27.963  25.798  1.00  0.00    -0.236 OA
BRANCH   4   6
ATOM      6  C   UNL A   1      30.993  29.566  24.560  1.00  0.00     0.017 C 
ATOM      7  C   UNL A   1      30.187  29.805  23.701  1.00  0.00    -0.085 C 
BRANCH   7   8
ATOM      8  C   UNL A   1      29.290  30.049  22.554  1.00  0.00     0.096 C 
ATOM      9  C   UNL A   1      28.912  32.438  23.488  1.00  0.00     0.040 C 
ATOM     10  C   UNL A   1      28.329  31.216  22.796  1.00  0.00     0.130 C 
ATOM     11  O   UNL A   1      27.223  30.679  23.556  1.00  0.00    -0.377 OA
ATOM     12  C   UNL A   1      27.257  29.247  23.434  1.00  0.00     0.162 C 
ATOM     13  C   UNL A   1      28.303  28.913  22.388  1.00  0.00     0.048 C 
ENDBRANCH   7   8
ENDBRANCH   4   6
ENDBRANCH   3   4
ENDBRANCH   2   3
ENDBRANCH   1   2
BRANCH   1  14
ATOM     14  O   UNL A   1      35.519  29.934  28.161  1.00  0.00    -0.458 OA
BRANCH  14  15
ATOM     15  C   UNL A   1      36.273  30.530  29.116  1.00  0.00     0.338 C 
ATOM     16  O   UNL A   1      35.875  31.211  30.047  1.00  0.00    -0.246 OA
BRANCH  15  17
ATOM     17  C   UNL A   1      37.685  30.152  28.945  1.00  0.00     0.060 A 
ATOM     18  C   UNL A   1      38.120  29.738  27.683  1.00  0.00     0.016 A 
ATOM     19  C   UNL A   1      38.560  30.137  30.032  1.00  0.00     0.016 A 
ATOM     20  C   UNL A   1      39.431  29.307  27.500  1.00  0.00     0.010 A 
ATOM     21  C   UNL A   1      39.882  29.719  29.843  1.00  0.00     0.010 A 
ATOM     22  C   UNL A   1      40.327  29.300  28.577  1.00  0.00    -0.014 A 
BRANCH  22  23
ATOM     23  C   UNL A   1      41.734  28.875  28.367  1.00  0.00     0.031 A 
ATOM     24  C   UNL A   1      42.848  29.880  28.394  1.00  0.00     0.074 A 
ATOM     25  C   UNL A   1      42.000  27.572  28.144  1.00  0.00     0.049 A 
ATOM     26  N   UNL A   1      44.124  29.704  28.167  1.00  0.00    -0.248 NA
ATOM     27  C   UNL A   1      42.480  31.268  28.716  1.00  0.00     0.031 C 
ATOM     28  C   UNL A   1      41.000  26.503  28.116  1.00  0.00     0.029 A 
ATOM     29  N   UNL A   1      43.184  26.928  27.888  1.00  0.00    -0.354 N 
ATOM     30  C   UNL A   1      44.713  30.956  28.303  1.00  0.00     0.074 A 
ATOM     31  C   UNL A   1      43.648  31.888  28.609  1.00  0.00     0.031 C 
ATOM     32  C   UNL A   1      41.611  25.338  27.853  1.00  0.00     0.029 A 
ATOM     33  C   UNL A   1      43.035  25.584  27.642  1.00  0.00     0.049 A 
ATOM     34  H   UNL A   1      44.056  27.385  27.881  1.00  0.00     0.167 HD
ATOM     35  C   UNL A   1      46.021  31.290  28.186  1.00  0.00     0.037 A 
ATOM     36  C   UNL A   1      43.936  24.659  27.255  1.00  0.00     0.037 A 
ATOM     37  C   UNL A   1      47.070  30.349  27.881  1.00  0.00     0.049 A 
ATOM     38  C   UNL A   1      45.371  25.070  27.065  1.00  0.00     0.074 A 
ATOM     39  C   UNL A   1      48.431  30.583  27.781  1.00  0.00     0.029 A 
ATOM     40  N   UNL A   1      46.878  29.001  27.611  1.00  0.00    -0.354 N 
ATOM     41  N   UNL A   1      45.921  26.248  27.242  1.00  0.00    -0.248 NA
ATOM     42  C   UNL A   1      46.308  24.031  26.618  1.00  0.00     0.031 C 
ATOM     43  C   UNL A   1      49.052  29.395  27.383  1.00  0.00     0.029 A 
ATOM     44  C   UNL A   1      48.089  28.401  27.301  1.00  0.00     0.049 A 
ATOM     45  H   UNL A   1      46.009  28.539  27.635  1.00  0.00     0.167 HD
ATOM     46  C   UNL A   1      47.270  26.086  26.946  1.00  0.00     0.074 A 
ATOM     47  C   UNL A   1      47.457  24.692  26.602  1.00  0.00     0.031 C 
ATOM     48  C   UNL A   1      48.263  27.011  26.955  1.00  0.00     0.037 A 
BRANCH  35  49
ATOM     49  C   UNL A   1      46.397  32.739  28.358  1.00  0.00     0.058 A 
ATOM     50  C   UNL A   1      46.806  33.260  29.595  1.00  0.00     0.135 A 
ATOM     51  C   UNL A   1      46.404  33.605  27.251  1.00  0.00     0.135 A 
ATOM     52  F   UNL A   1      46.810  32.482  30.690  1.00  0.00    -0.206 F 
ATOM     53  C   UNL A   1      47.184  34.593  29.735  1.00  0.00     0.059 A 
ATOM     54  C   UNL A   1      46.806  34.934  27.361  1.00  0.00     0.059 A 
ATOM     55  F   UNL A   1      46.023  33.161  26.043  1.00  0.00    -0.206 F 
ATOM     56  C   UNL A   1      47.183  35.421  28.611  1.00  0.00     0.060 A 
BRANCH  56  57
ATOM     57  S   UNL A   1      47.686  37.143  28.810  1.00  0.00     0.124 S 
ATOM     58  O   UNL A   1      49.058  37.106  28.312  1.00  0.00    -0.237 OA
ATOM     59  O   UNL A   1      46.725  37.846  27.968  1.00  0.00    -0.237 OA
ATOM     60  O   UNL A   1      47.548  37.376  30.245  1.00  0.00    -0.744 OA
ENDBRANCH  56  57
ENDBRANCH  35  49
BRANCH  36  61
ATOM     61  C   UNL A   1      43.498  23.260  26.993  1.00  0.00     0.058 A 
ATOM     62  C   UNL A   1      43.371  22.771  25.685  1.00  0.00     0.135 A 
ATOM     63  C   UNL A   1      43.206  22.381  28.050  1.00  0.00     0.135 A 
ATOM     64  F   UNL A   1      43.627  23.574  24.641  1.00  0.00    -0.206 F 
ATOM     65  C   UNL A   1      42.954  21.468  25.432  1.00  0.00     0.059 A 
ATOM     66  C   UNL A   1      42.820  21.065  27.822  1.00  0.00     0.059 A 
ATOM     67  F   UNL A   1      43.321  22.795  29.322  1.00  0.00    -0.206 F 
ATOM     68  C   UNL A   1      42.686  20.620  26.508  1.00  0.00     0.060 A 
BRANCH  68  69
ATOM     69  S   UNL A   1      42.190  18.919  26.168  1.00  0.00     0.124 S 
ATOM     70  O   UNL A   1      40.791  19.090  25.794  1.00  0.00    -0.237 OA
ATOM     71  O   UNL A   1      43.098  18.547  25.087  1.00  0.00    -0.237 OA
ATOM     72  O   UNL A   1      42.424  18.238  27.438  1.00  0.00    -0.744 OA
ENDBRANCH  68  69
ENDBRANCH  36  61
BRANCH  48  73
ATOM     73  C   UNL A   1      49.648  26.545  26.593  1.00  0.00     0.058 A 
ATOM     74  C   UNL A   1      50.515  25.994  27.550  1.00  0.00     0.135 A 
ATOM     75  C   UNL A   1      50.094  26.599  25.262  1.00  0.00     0.135 A 
ATOM     76  F   UNL A   1      50.145  25.928  28.839  1.00  0.00    -0.206 F 
ATOM     77  C   UNL A   1      51.780  25.529  27.205  1.00  0.00     0.059 A 
ATOM     78  C   UNL A   1      51.342  26.109  24.888  1.00  0.00     0.059 A 
ATOM     79  F   UNL A   1      49.306  27.109  24.304  1.00  0.00    -0.206 F 
ATOM     80  C   UNL A   1      52.183  25.585  25.869  1.00  0.00     0.060 A 
BRANCH  80  81
ATOM     81  S   UNL A   1      53.808  24.933  25.431  1.00  0.00     0.124 S 
ATOM     82  O   UNL A   1      53.495  23.544  25.116  1.00  0.00    -0.237 OA
ATOM     83  O   UNL A   1      54.184  25.772  24.298  1.00  0.00    -0.237 OA
ATOM     84  O   UNL A   1      54.595  25.139  26.644  1.00  0.00    -0.744 OA
ENDBRANCH  80  81
ENDBRANCH  48  73
ENDBRANCH  22  23
ENDBRANCH  15  17
ENDBRANCH  14  15
ENDBRANCH   1  14
TORSDOF 15
ENDMDL
MODEL 2
REMARK VINA RESULT:     -10.3      7.643     13.000
REMARK SMILES C[C@@H]1OCC[C@@H]1C#CC(=O)OCCOC(=O)c1ccc(-c2c3nc(c(-c4c(F)cc(S(=O)(=O)[O-])cc4F)c4ccc([nH]4)c(-c4c(F)cc(S(=O)(=O)[O-])cc4F)c4nc(c(-c5c(F)cc(S(=O)(=O)[O-])cc5F)c5ccc2[nH]5)C=C4)C=C3)cc1
REMARK SMILES IDX 13 1 12 2 11 3 9 4 10 5 8 6 7 7 6 8 1 9 2 10 3 11 4 12 5 13
REMARK SMILES IDX 14 14 15 15 16 16 17 17 18 18 82 19 19 20 81 21 20 22 21 23
REMARK SMILES IDX 22 24 75 25 23 26 80 27 74 28 76 29 24 30 79 31 73 32 72 33
REMARK SMILES IDX 25 35 59 36 38 37 58 38 39 39 42 40 57 41 77 42 40 43 41 44
REMARK SMILES IDX 56 46 78 47 43 48 26 49 27 50 36 51 28 52 29 53 35 54 37 55
REMARK SMILES IDX 30 56 31 57 32 58 33 59 34 60 60 61 61 62 70 63 62 64 63 65
REMARK SMILES IDX 69 66 71 67 64 68 65 69 66 70 67 71 68 72 44 73 45 74 54 75
REMARK SMILES IDX 46 76 47 77 53 78 55 79 48 80 49 81 50 82 51 83 52 84
REMARK H PARENT 76 34 42 45
REMARK Flexibility Score: inf
ROOT
ATOM      1  C   UNL A   1      38.887  22.907  26.474  1.00  0.00     0.275 C 
ENDROOT
BRANCH   1   2
ATOM      2  C   UNL A   1      37.599  22.494  25.756  1.00  0.00     0.275 C 
BRANCH   2   3
ATOM      3  O   UNL A   1      37.222  23.483  24.784  1.00  0.00    -0.452 OA
BRANCH   3   4
ATOM      4  C   UNL A   1      36.402  23.034  23.803  1.00  0.00     0.384 C 
ATOM      5  O   UNL A   1      36.673  22.933  22.616  1.00  0.00    -0.236 OA
BRANCH   4   6
ATOM      6  C   UNL A   1      35.143  22.547  24.303  1.00  0.00     0.017 C 
ATOM      7  C   UNL A   1      34.060  22.098  24.569  1.00  0.00    -0.085 C 
BRANCH   7   8
ATOM      8  C   UNL A   1      32.693  21.579  24.768  1.00  0.00     0.096 C 
ATOM      9  C   UNL A   1      33.688  19.189  24.628  1.00  0.00     0.040 C 
ATOM     10  C   UNL A   1      32.539  20.129  24.301  1.00  0.00     0.130 C 
ATOM     11  O   UNL A   1      32.317  20.185  22.874  1.00  0.00    -0.377 OA
ATOM     12  C   UNL A   1      31.933  21.530  22.539  1.00  0.00     0.162 C 
ATOM     13  C   UNL A   1      31.712  22.269  23.845  1.00  0.00     0.048 C 
ENDBRANCH   7   8
ENDBRANCH   4   6
ENDBRANCH   3   4
ENDBRANCH   2   3
ENDBRANCH   1   2
BRANCH   1  14
ATOM     14  O   UNL A   1      39.181  24.308  26.301  1.00  0.00    -0.458 OA
BRANCH  14  15
ATOM     15  C   UNL A   1      40.434  24.691  26.648  1.00  0.00     0.338 C 
ATOM     16  O   UNL A   1      41.482  24.323  26.143  1.00  0.00    -0.246 OA
BRANCH  15  17
ATOM     17  C   UNL A   1      40.367  25.734  27.685  1.00  0.00     0.060 A 
ATOM     18  C   UNL A   1      41.290  26.783  27.641  1.00  0.00     0.016 A 
ATOM     19  C   UNL A   1      39.450  25.645  28.732  1.00  0.00     0.016 A 
ATOM     20  C   UNL A   1      41.300  27.749  28.643  1.00  0.00     0.010 A 
ATOM     21  C   UNL A   1      39.451  26.625  29.731  1.00  0.00     0.010 A 
ATOM     22  C   UNL A   1      40.376  27.684  29.695  1.00  0.00    -0.014 A 
BRANCH  22  23
ATOM     23  C   UNL A   1      40.368  28.737  30.741  1.00  0.00     0.031 A 
ATOM     24  C   UNL A   1      41.292  28.648  31.921  1.00  0.00     0.074 A 
ATOM     25  C   UNL A   1      39.514  29.773  30.623  1.00  0.00     0.049 A 
ATOM     26  N   UNL A   1      41.379  29.435  32.962  1.00  0.00    -0.248 NA
ATOM     27  C   UNL A   1      42.243  27.525  31.936  1.00  0.00     0.031 C 
ATOM     28  C   UNL A   1      38.584  29.974  29.510  1.00  0.00     0.029 A 
ATOM     29  N   UNL A   1      39.280  30.842  31.451  1.00  0.00    -0.354 N 
ATOM     30  C   UNL A   1      42.380  28.900  33.763  1.00  0.00     0.074 A 
ATOM     31  C   UNL A   1      42.855  27.705  33.098  1.00  0.00     0.031 C 
ATOM     32  C   UNL A   1      37.878  31.094  29.726  1.00  0.00     0.029 A 
ATOM     33  C   UNL A   1      38.266  31.662  31.014  1.00  0.00     0.049 A 
ATOM     34  H   UNL A   1      39.788  31.006  32.277  1.00  0.00     0.167 HD
ATOM     35  C   UNL A   1      42.858  29.369  34.942  1.00  0.00     0.037 A 
ATOM     36  C   UNL A   1      37.687  32.729  31.601  1.00  0.00     0.037 A 
ATOM     37  C   UNL A   1      42.375  30.562  35.591  1.00  0.00     0.049 A 
ATOM     38  C   UNL A   1      38.190  33.188  32.942  1.00  0.00     0.074 A 
ATOM     39  C   UNL A   1      42.822  31.141  36.767  1.00  0.00     0.029 A 
ATOM     40  N   UNL A   1      41.328  31.350  35.134  1.00  0.00    -0.354 N 
ATOM     41  N   UNL A   1      39.169  32.699  33.667  1.00  0.00    -0.248 NA
ATOM     42  C   UNL A   1      37.510  34.339  33.550  1.00  0.00     0.031 C 
ATOM     43  C   UNL A   1      42.002  32.237  37.056  1.00  0.00     0.029 A 
ATOM     44  C   UNL A   1      41.087  32.384  36.026  1.00  0.00     0.049 A 
ATOM     45  H   UNL A   1      40.830  31.198  34.299  1.00  0.00     0.167 HD
ATOM     46  C   UNL A   1      39.233  33.493  34.806  1.00  0.00     0.074 A 
ATOM     47  C   UNL A   1      38.210  34.509  34.664  1.00  0.00     0.031 C 
ATOM     48  C   UNL A   1      40.061  33.389  35.875  1.00  0.00     0.037 A 
BRANCH  35  49
ATOM     49  C   UNL A   1      43.941  28.578  35.628  1.00  0.00     0.058 A 
ATOM     50  C   UNL A   1      45.303  28.811  35.381  1.00  0.00     0.135 A 
ATOM     51  C   UNL A   1      43.609  27.611  36.593  1.00  0.00     0.135 A 
ATOM     52  F   UNL A   1      45.680  29.714  34.463  1.00  0.00    -0.206 F 
ATOM     53  C   UNL A   1      46.296  28.096  36.047  1.00  0.00     0.059 A 
ATOM     54  C   UNL A   1      44.585  26.906  37.292  1.00  0.00     0.059 A 
ATOM     55  F   UNL A   1      42.322  27.347  36.870  1.00  0.00    -0.206 F 
ATOM     56  C   UNL A   1      45.927  27.149  37.003  1.00  0.00     0.060 A 
BRANCH  56  57
ATOM     57  S   UNL A   1      47.229  26.240  37.862  1.00  0.00     0.124 S 
ATOM     58  O   UNL A   1      47.374  25.063  37.011  1.00  0.00    -0.237 OA
ATOM     59  O   UNL A   1      48.340  27.185  37.830  1.00  0.00    -0.237 OA
ATOM     60  O   UNL A   1      46.658  25.991  39.183  1.00  0.00    -0.744 OA
ENDBRANCH  56  57
ENDBRANCH  35  49
BRANCH  36  61
ATOM     61  C   UNL A   1      36.547  33.415  30.933  1.00  0.00     0.058 A 
ATOM     62  C   UNL A   1      35.241  33.304  31.429  1.00  0.00     0.135 A 
ATOM     63  C   UNL A   1      36.746  34.205  29.788  1.00  0.00     0.135 A 
ATOM     64  F   UNL A   1      34.997  32.553  32.514  1.00  0.00    -0.206 F 
ATOM     65  C   UNL A   1      34.169  33.936  30.806  1.00  0.00     0.059 A 
ATOM     66  C   UNL A   1      35.696  34.873  29.168  1.00  0.00     0.059 A 
ATOM     67  F   UNL A   1      37.979  34.354  29.278  1.00  0.00    -0.206 F 
ATOM     68  C   UNL A   1      34.408  34.723  29.678  1.00  0.00     0.060 A 
BRANCH  68  69
ATOM     69  S   UNL A   1      33.016  35.574  28.906  1.00  0.00     0.124 S 
ATOM     70  O   UNL A   1      32.201  35.917  30.066  1.00  0.00    -0.237 OA
ATOM     71  O   UNL A   1      33.676  36.692  28.237  1.00  0.00    -0.237 OA
ATOM     72  O   UNL A   1      32.453  34.563  28.016  1.00  0.00    -0.744 OA
ENDBRANCH  68  69
ENDBRANCH  36  61
BRANCH  48  73
ATOM     73  C   UNL A   1      39.908  34.406  36.975  1.00  0.00     0.058 A 
ATOM     74  C   UNL A   1      40.518  35.668  36.903  1.00  0.00     0.135 A 
ATOM     75  C   UNL A   1      39.095  34.136  38.088  1.00  0.00     0.135 A 
ATOM     76  F   UNL A   1      41.315  35.976  35.867  1.00  0.00    -0.206 F 
ATOM     77  C   UNL A   1      40.343  36.620  37.902  1.00  0.00     0.059 A 
ATOM     78  C   UNL A   1      38.879  35.085  39.083  1.00  0.00     0.059 A 
ATOM     79  F   UNL A   1      38.481  32.949  38.207  1.00  0.00    -0.206 F 
ATOM     80  C   UNL A   1      39.515  36.321  38.987  1.00  0.00     0.060 A 
BRANCH  80  81
ATOM     81  S   UNL A   1      39.261  37.585  40.251  1.00  0.00     0.124 S 
ATOM     82  O   UNL A   1      38.203  38.393  39.652  1.00  0.00    -0.237 OA
ATOM     83  O   UNL A   1      38.872  36.790  41.411  1.00  0.00    -0.237 OA
ATOM     84  O   UNL A   1      40.565  38.233  40.351  1.00  0.00    -0.744 OA
ENDBRANCH  80  81
ENDBRANCH  48  73
ENDBRANCH  22  23
ENDBRANCH  15  17
ENDBRANCH  14  15
ENDBRANCH   1  14
TORSDOF 15
ENDMDL
MODEL 3
REMARK VINA RESULT:     -10.3      3.353      5.162
REMARK SMILES C[C@@H]1OCC[C@@H]1C#CC(=O)OCCOC(=O)c1ccc(-c2c3nc(c(-c4c(F)cc(S(=O)(=O)[O-])cc4F)c4ccc([nH]4)c(-c4c(F)cc(S(=O)(=O)[O-])cc4F)c4nc(c(-c5c(F)cc(S(=O)(=O)[O-])cc5F)c5ccc2[nH]5)C=C4)C=C3)cc1
REMARK SMILES IDX 13 1 12 2 11 3 9 4 10 5 8 6 7 7 6 8 1 9 2 10 3 11 4 12 5 13
REMARK SMILES IDX 14 14 15 15 16 16 17 17 18 18 82 19 19 20 81 21 20 22 21 23
REMARK SMILES IDX 22 24 75 25 23 26 80 27 74 28 76 29 24 30 79 31 73 32 72 33
REMARK SMILES IDX 25 35 59 36 38 37 58 38 39 39 42 40 57 41 77 42 40 43 41 44
REMARK SMILES IDX 56 46 78 47 43 48 26 49 27 50 36 51 28 52 29 53 35 54 37 55
REMARK SMILES IDX 30 56 31 57 32 58 33 59 34 60 60 61 61 62 70 63 62 64 63 65
REMARK SMILES IDX 69 66 71 67 64 68 65 69 66 70 67 71 68 72 44 73 45 74 54 75
REMARK SMILES IDX 46 76 47 77 53 78 55 79 48 80 49 81 50 82 51 83 52 84
REMARK H PARENT 76 34 42 45
REMARK Flexibility Score: inf
ROOT
ATOM      1  C   UNL A   1      33.418  32.285  27.727  1.00  0.00     0.275 C 
ENDROOT
BRANCH   1   2
ATOM      2  C   UNL A   1      33.705  33.764  27.999  1.00  0.00     0.275 C 
BRANCH   2   3
ATOM      3  O   UNL A   1      32.598  34.378  28.678  1.00  0.00    -0.452 OA
BRANCH   3   4
ATOM      4  C   UNL A   1      32.941  35.292  29.618  1.00  0.00     0.384 C 
ATOM      5  O   UNL A   1      32.408  36.374  29.811  1.00  0.00    -0.236 OA
BRANCH   4   6
ATOM      6  C   UNL A   1      33.974  34.823  30.505  1.00  0.00     0.017 C 
ATOM      7  C   UNL A   1      34.925  34.551  31.187  1.00  0.00    -0.085 C 
BRANCH   7   8
ATOM      8  C   UNL A   1      36.173  34.269  31.924  1.00  0.00     0.096 C 
ATOM      9  C   UNL A   1      37.076  33.154  29.765  1.00  0.00     0.040 C 
ATOM     10  C   UNL A   1      36.995  33.147  31.283  1.00  0.00     0.130 C 
ATOM     11  O   UNL A   1      36.427  31.907  31.758  1.00  0.00    -0.377 OA
ATOM     12  C   UNL A   1      35.620  32.203  32.911  1.00  0.00     0.162 C 
ATOM     13  C   UNL A   1      35.877  33.653  33.274  1.00  0.00     0.048 C 
ENDBRANCH   7   8
ENDBRANCH   4   6
ENDBRANCH   3   4
ENDBRANCH   2   3
ENDBRANCH   1   2
BRANCH   1  14
ATOM     14  O   UNL A   1      34.206  31.414  28.563  1.00  0.00    -0.458 OA
BRANCH  14  15
ATOM     15  C   UNL A   1      34.469  30.188  28.051  1.00  0.00     0.338 C 
ATOM     16  O   UNL A   1      33.704  29.475  27.422  1.00  0.00    -0.246 OA
BRANCH  15  17
ATOM     17  C   UNL A   1      35.886  29.851  28.264  1.00  0.00     0.060 A 
ATOM     18  C   UNL A   1      36.287  29.414  29.530  1.00  0.00     0.016 A 
ATOM     19  C   UNL A   1      36.827  30.031  27.249  1.00  0.00     0.016 A 
ATOM     20  C   UNL A   1      37.630  29.153  29.787  1.00  0.00     0.010 A 
ATOM     21  C   UNL A   1      38.174  29.753  27.505  1.00  0.00     0.010 A 
ATOM     22  C   UNL A   1      38.586  29.313  28.776  1.00  0.00    -0.014 A 
BRANCH  22  23
ATOM     23  C   UNL A   1      40.011  28.998  29.046  1.00  0.00     0.031 A 
ATOM     24  C   UNL A   1      40.935  30.046  29.596  1.00  0.00     0.074 A 
ATOM     25  C   UNL A   1      40.472  27.758  28.784  1.00  0.00     0.049 A 
ATOM     26  N   UNL A   1      42.219  29.974  29.832  1.00  0.00    -0.248 NA
ATOM     27  C   UNL A   1      40.336  31.351  29.923  1.00  0.00     0.031 C 
ATOM     28  C   UNL A   1      39.662  26.654  28.265  1.00  0.00     0.029 A 
ATOM     29  N   UNL A   1      41.729  27.223  28.904  1.00  0.00    -0.354 N 
ATOM     30  C   UNL A   1      42.589  31.221  30.320  1.00  0.00     0.074 A 
ATOM     31  C   UNL A   1      41.396  32.040  30.324  1.00  0.00     0.031 C 
ATOM     32  C   UNL A   1      40.443  25.574  28.109  1.00  0.00     0.029 A 
ATOM     33  C   UNL A   1      41.816  25.923  28.463  1.00  0.00     0.049 A 
ATOM     34  H   UNL A   1      42.495  27.721  29.269  1.00  0.00     0.167 HD
ATOM     35  C   UNL A   1      43.812  31.637  30.729  1.00  0.00     0.037 A 
ATOM     36  C   UNL A   1      42.885  25.114  28.326  1.00  0.00     0.037 A 
ATOM     37  C   UNL A   1      44.992  30.808  30.720  1.00  0.00     0.049 A 
ATOM     38  C   UNL A   1      44.244  25.624  28.723  1.00  0.00     0.074 A 
ATOM     39  C   UNL A   1      46.268  31.126  31.153  1.00  0.00     0.029 A 
ATOM     40  N   UNL A   1      45.048  29.507  30.241  1.00  0.00    -0.354 N 
ATOM     41  N   UNL A   1      44.571  26.791  29.227  1.00  0.00    -0.248 NA
ATOM     42  C   UNL A   1      45.380  24.713  28.530  1.00  0.00     0.031 C 
ATOM     43  C   UNL A   1      47.109  30.044  30.872  1.00  0.00     0.029 A 
ATOM     44  C   UNL A   1      46.344  29.024  30.327  1.00  0.00     0.049 A 
ATOM     45  H   UNL A   1      44.279  29.000  29.892  1.00  0.00     0.167 HD
ATOM     46  C   UNL A   1      45.947  26.746  29.427  1.00  0.00     0.074 A 
ATOM     47  C   UNL A   1      46.386  25.430  29.013  1.00  0.00     0.031 C 
ATOM     48  C   UNL A   1      46.771  27.711  29.907  1.00  0.00     0.037 A 
BRANCH  35  49
ATOM     49  C   UNL A   1      43.952  33.063  31.196  1.00  0.00     0.058 A 
ATOM     50  C   UNL A   1      44.290  34.104  30.318  1.00  0.00     0.135 A 
ATOM     51  C   UNL A   1      43.686  33.399  32.535  1.00  0.00     0.135 A 
ATOM     52  F   UNL A   1      44.566  33.842  29.030  1.00  0.00    -0.206 F 
ATOM     53  C   UNL A   1      44.384  35.423  30.754  1.00  0.00     0.059 A 
ATOM     54  C   UNL A   1      43.745  34.715  32.987  1.00  0.00     0.059 A 
ATOM     55  F   UNL A   1      43.358  32.445  33.419  1.00  0.00    -0.206 F 
ATOM     56  C   UNL A   1      44.106  35.719  32.090  1.00  0.00     0.060 A 
BRANCH  56  57
ATOM     57  S   UNL A   1      44.223  37.436  32.634  1.00  0.00     0.124 S 
ATOM     58  O   UNL A   1      45.605  37.501  33.101  1.00  0.00    -0.237 OA
ATOM     59  O   UNL A   1      43.935  38.171  31.407  1.00  0.00    -0.237 OA
ATOM     60  O   UNL A   1      43.205  37.535  33.676  1.00  0.00    -0.744 OA
ENDBRANCH  56  57
ENDBRANCH  35  49
BRANCH  36  61
ATOM     61  C   UNL A   1      42.715  23.748  27.759  1.00  0.00     0.058 A 
ATOM     62  C   UNL A   1      42.705  23.532  26.374  1.00  0.00     0.135 A 
ATOM     63  C   UNL A   1      42.567  22.629  28.595  1.00  0.00     0.135 A 
ATOM     64  F   UNL A   1      42.831  24.569  25.533  1.00  0.00    -0.206 F 
ATOM     65  C   UNL A   1      42.538  22.260  25.837  1.00  0.00     0.059 A 
ATOM     66  C   UNL A   1      42.432  21.344  28.082  1.00  0.00     0.059 A 
ATOM     67  F   UNL A   1      42.580  22.778  29.929  1.00  0.00    -0.206 F 
ATOM     68  C   UNL A   1      42.407  21.170  26.699  1.00  0.00     0.060 A 
BRANCH  68  69
ATOM     69  S   UNL A   1      42.236  19.519  25.990  1.00  0.00     0.124 S 
ATOM     70  O   UNL A   1      40.809  19.474  25.693  1.00  0.00    -0.237 OA
ATOM     71  O   UNL A   1      43.127  19.590  24.836  1.00  0.00    -0.237 OA
ATOM     72  O   UNL A   1      42.684  18.641  27.067  1.00  0.00    -0.744 OA
ENDBRANCH  68  69
ENDBRANCH  36  61
BRANCH  48  73
ATOM     73  C   UNL A   1      48.235  27.377  30.024  1.00  0.00     0.058 A 
ATOM     74  C   UNL A   1      49.154  27.725  29.021  1.00  0.00     0.135 A 
ATOM     75  C   UNL A   1      48.735  26.753  31.179  1.00  0.00     0.135 A 
ATOM     76  F   UNL A   1      48.730  28.313  27.890  1.00  0.00    -0.206 F 
ATOM     77  C   UNL A   1      50.511  27.450  29.150  1.00  0.00     0.059 A 
ATOM     78  C   UNL A   1      50.093  26.499  31.344  1.00  0.00     0.059 A 
ATOM     79  F   UNL A   1      47.904  26.405  32.174  1.00  0.00    -0.206 F 
ATOM     80  C   UNL A   1      50.973  26.842  30.319  1.00  0.00     0.060 A 
BRANCH  80  81
ATOM     81  S   UNL A   1      52.744  26.536  30.489  1.00  0.00     0.124 S 
ATOM     82  O   UNL A   1      52.764  25.443  31.456  1.00  0.00    -0.237 OA
ATOM     83  O   UNL A   1      53.131  26.184  29.127  1.00  0.00    -0.237 OA
ATOM     84  O   UNL A   1      53.265  27.811  30.974  1.00  0.00    -0.744 OA
ENDBRANCH  80  81
ENDBRANCH  48  73
ENDBRANCH  22  23
ENDBRANCH  15  17
ENDBRANCH  14  15
ENDBRANCH   1  14
TORSDOF 15
ENDMDL
