MODEL 1
REMARK VINA RESULT:     -12.6      0.000      0.000
REMARK SMILES O=C(OCCOC(=O)[C@@H]1[C@H](C(=O)Nc2ccc(Cn3cncn3)cc2)[C@@H]2C=C[C@H]1CC2)c1ccc(-c2c3nc(c(-c4c(F)cc(S(=O)(=O)[O-])cc4F)c4ccc([nH]4)c(-c4c(F)cc(S(=O)(=O)[O-])cc4F)c4nc(c(-c5c(F)cc(S(=O)(=O)[O-])cc5F)c5ccc2[nH]5)C=C4)C=C3)cc1
REMARK SMILES IDX 5 1 4 2 3 3 2 4 1 5 32 6 33 7 97 8 34 9 96 10 35 11 36 12
REMARK SMILES IDX 37 13 90 14 38 15 95 16 89 17 91 18 39 19 94 20 88 21 87 22
REMARK SMILES IDX 40 24 74 25 53 26 73 27 54 28 57 29 72 30 92 31 55 32 56 33
REMARK SMILES IDX 71 35 93 36 58 37 41 38 42 39 51 40 43 41 44 42 50 43 52 44
REMARK SMILES IDX 45 45 46 46 47 47 48 48 49 49 75 50 76 51 85 52 77 53 78 54
REMARK SMILES IDX 84 55 86 56 79 57 80 58 81 59 82 60 83 61 59 62 60 63 69 64
REMARK SMILES IDX 61 65 62 66 68 67 70 68 63 69 64 70 65 71 66 72 67 73 6 74
REMARK SMILES IDX 7 75 8 76 9 77 10 78 29 79 26 80 28 81 30 82 27 83 31 84
REMARK SMILES IDX 11 85 12 86 13 87 14 89 15 90 25 91 16 92 24 93 17 94 18 95
REMARK SMILES IDX 19 96 20 97 23 98 21 99 22 100
REMARK H PARENT 91 23 57 34 13 88
REMARK Flexibility Score: inf
ROOT
ATOM      1  C   UNL A   1      37.069  23.001  23.955  1.00  0.00     0.274 C 
ENDROOT
BRANCH   1   2
ATOM      2  C   UNL A   1      37.567  22.031  25.026  1.00  0.00     0.275 C 
BRANCH   2   3
ATOM      3  O   UNL A   1      37.981  22.622  26.274  1.00  0.00    -0.458 OA
BRANCH   3   4
ATOM      4  C   UNL A   1      39.298  22.579  26.563  1.00  0.00     0.338 C 
ATOM      5  O   UNL A   1      40.016  21.603  26.378  1.00  0.00    -0.246 OA
BRANCH   4   6
ATOM      6  C   UNL A   1      39.782  23.869  27.100  1.00  0.00     0.060 A 
ATOM      7  C   UNL A   1      41.030  23.993  27.731  1.00  0.00     0.016 A 
ATOM      8  C   UNL A   1      38.950  24.984  26.947  1.00  0.00     0.016 A 
ATOM      9  C   UNL A   1      41.400  25.205  28.294  1.00  0.00     0.010 A 
ATOM     10  C   UNL A   1      39.319  26.193  27.512  1.00  0.00     0.010 A 
ATOM     11  C   UNL A   1      40.516  26.282  28.228  1.00  0.00    -0.014 A 
BRANCH  11  12
ATOM     12  C   UNL A   1      40.861  27.507  28.934  1.00  0.00     0.031 A 
ATOM     13  C   UNL A   1      41.972  28.317  28.346  1.00  0.00     0.074 A 
ATOM     14  C   UNL A   1      40.094  27.939  29.957  1.00  0.00     0.049 A 
ATOM     15  N   UNL A   1      43.107  28.655  28.870  1.00  0.00    -0.248 NA
ATOM     16  C   UNL A   1      41.842  28.714  26.936  1.00  0.00     0.031 C 
ATOM     17  C   UNL A   1      38.816  27.394  30.431  1.00  0.00     0.029 A 
ATOM     18  N   UNL A   1      40.250  29.043  30.730  1.00  0.00    -0.354 N 
ATOM     19  C   UNL A   1      43.741  29.485  27.939  1.00  0.00     0.074 A 
ATOM     20  C   UNL A   1      42.992  29.354  26.719  1.00  0.00     0.031 C 
ATOM     21  C   UNL A   1      38.210  28.300  31.231  1.00  0.00     0.029 A 
ATOM     22  C   UNL A   1      39.115  29.414  31.442  1.00  0.00     0.049 A 
ATOM     23  H   UNL A   1      41.099  29.541  30.783  1.00  0.00     0.167 HD
ATOM     24  C   UNL A   1      44.721  30.367  28.299  1.00  0.00     0.037 A 
ATOM     25  C   UNL A   1      38.926  30.601  32.074  1.00  0.00     0.037 A 
ATOM     26  C   UNL A   1      45.276  30.024  29.582  1.00  0.00     0.049 A 
ATOM     27  C   UNL A   1      40.278  31.188  32.291  1.00  0.00     0.074 A 
ATOM     28  C   UNL A   1      45.953  28.931  30.086  1.00  0.00     0.029 A 
ATOM     29  N   UNL A   1      44.849  30.730  30.681  1.00  0.00    -0.354 N 
ATOM     30  N   UNL A   1      41.183  30.642  33.062  1.00  0.00    -0.248 NA
ATOM     31  C   UNL A   1      40.793  32.084  31.264  1.00  0.00     0.031 C 
ATOM     32  C   UNL A   1      45.427  28.757  31.399  1.00  0.00     0.029 A 
ATOM     33  C   UNL A   1      44.531  29.801  31.638  1.00  0.00     0.049 A 
ATOM     34  H   UNL A   1      44.784  31.709  30.765  1.00  0.00     0.167 HD
ATOM     35  C   UNL A   1      42.383  30.802  32.383  1.00  0.00     0.074 A 
ATOM     36  C   UNL A   1      42.083  31.739  31.299  1.00  0.00     0.031 C 
ATOM     37  C   UNL A   1      43.437  29.953  32.570  1.00  0.00     0.037 A 
BRANCH  24  38
ATOM     38  C   UNL A   1      44.953  31.733  27.677  1.00  0.00     0.058 A 
ATOM     39  C   UNL A   1      46.113  31.945  26.895  1.00  0.00     0.135 A 
ATOM     40  C   UNL A   1      44.267  32.905  28.060  1.00  0.00     0.135 A 
ATOM     41  F   UNL A   1      46.835  30.907  26.442  1.00  0.00    -0.206 F 
ATOM     42  C   UNL A   1      46.615  33.219  26.622  1.00  0.00     0.059 A 
ATOM     43  C   UNL A   1      44.726  34.185  27.758  1.00  0.00     0.059 A 
ATOM     44  F   UNL A   1      43.167  32.877  28.820  1.00  0.00    -0.206 F 
ATOM     45  C   UNL A   1      45.927  34.334  27.084  1.00  0.00     0.060 A 
BRANCH  45  46
ATOM     46  S   UNL A   1      46.644  35.971  26.858  1.00  0.00     0.124 S 
ATOM     47  O   UNL A   1      47.595  35.725  25.781  1.00  0.00    -0.237 OA
ATOM     48  O   UNL A   1      45.473  36.767  26.509  1.00  0.00    -0.237 OA
ATOM     49  O   UNL A   1      47.228  36.264  28.164  1.00  0.00    -0.744 OA
ENDBRANCH  45  46
ENDBRANCH  24  38
BRANCH  25  50
ATOM     50  C   UNL A   1      37.672  31.407  32.066  1.00  0.00     0.058 A 
ATOM     51  C   UNL A   1      37.003  31.758  33.252  1.00  0.00     0.135 A 
ATOM     52  C   UNL A   1      37.242  32.068  30.896  1.00  0.00     0.135 A 
ATOM     53  F   UNL A   1      37.369  31.206  34.419  1.00  0.00    -0.206 F 
ATOM     54  C   UNL A   1      35.984  32.723  33.278  1.00  0.00     0.059 A 
ATOM     55  C   UNL A   1      36.226  33.022  30.895  1.00  0.00     0.059 A 
ATOM     56  F   UNL A   1      37.860  31.867  29.722  1.00  0.00    -0.206 F 
ATOM     57  C   UNL A   1      35.612  33.361  32.094  1.00  0.00     0.060 A 
BRANCH  57  58
ATOM     58  S   UNL A   1      34.402  34.705  32.137  1.00  0.00     0.124 S 
ATOM     59  O   UNL A   1      35.140  35.755  32.830  1.00  0.00    -0.237 OA
ATOM     60  O   UNL A   1      34.146  34.936  30.719  1.00  0.00    -0.237 OA
ATOM     61  O   UNL A   1      33.285  34.133  32.884  1.00  0.00    -0.744 OA
ENDBRANCH  57  58
ENDBRANCH  25  50
BRANCH  37  62
ATOM     62  C   UNL A   1      43.369  28.932  33.675  1.00  0.00     0.058 A 
ATOM     63  C   UNL A   1      43.712  29.199  35.013  1.00  0.00     0.135 A 
ATOM     64  C   UNL A   1      42.718  27.719  33.413  1.00  0.00     0.135 A 
ATOM     65  F   UNL A   1      44.240  30.378  35.366  1.00  0.00    -0.206 F 
ATOM     66  C   UNL A   1      43.440  28.291  36.039  1.00  0.00     0.059 A 
ATOM     67  C   UNL A   1      42.409  26.812  34.422  1.00  0.00     0.059 A 
ATOM     68  F   UNL A   1      42.302  27.438  32.166  1.00  0.00    -0.206 F 
ATOM     69  C   UNL A   1      42.779  27.101  35.734  1.00  0.00     0.060 A 
BRANCH  69  70
ATOM     70  S   UNL A   1      42.331  25.974  37.072  1.00  0.00     0.124 S 
ATOM     71  O   UNL A   1      42.755  24.683  36.539  1.00  0.00    -0.237 OA
ATOM     72  O   UNL A   1      43.113  26.484  38.195  1.00  0.00    -0.237 OA
ATOM     73  O   UNL A   1      40.886  26.153  37.200  1.00  0.00    -0.744 OA
ENDBRANCH  69  70
ENDBRANCH  37  62
ENDBRANCH  11  12
ENDBRANCH   4   6
ENDBRANCH   3   4
ENDBRANCH   2   3
ENDBRANCH   1   2
BRANCH   1  74
ATOM     74  O   UNL A   1      35.886  22.441  23.339  1.00  0.00    -0.462 OA
BRANCH  74  75
ATOM     75  C   UNL A   1      34.753  23.154  23.458  1.00  0.00     0.310 C 
ATOM     76  O   UNL A   1      34.357  23.947  22.611  1.00  0.00    -0.252 OA
BRANCH  75  77
ATOM     77  C   UNL A   1      34.056  23.011  24.802  1.00  0.00     0.119 C 
ATOM     78  C   UNL A   1      32.635  22.429  24.643  1.00  0.00     0.100 C 
ATOM     79  C   UNL A   1      34.054  24.061  25.965  1.00  0.00     0.026 C 
ATOM     80  C   UNL A   1      31.788  22.756  25.903  1.00  0.00     0.025 C 
ATOM     81  C   UNL A   1      32.800  24.915  26.048  1.00  0.00    -0.027 C 
ATOM     82  C   UNL A   1      33.904  23.226  27.273  1.00  0.00     0.009 C 
ATOM     83  C   UNL A   1      31.635  24.245  26.026  1.00  0.00    -0.027 C 
ATOM     84  C   UNL A   1      32.608  22.357  27.172  1.00  0.00     0.009 C 
BRANCH  78  85
ATOM     85  C   UNL A   1      31.913  22.530  23.277  1.00  0.00     0.228 C 
ATOM     86  O   UNL A   1      31.878  21.505  22.575  1.00  0.00    -0.274 OA
ATOM     87  N   UNL A   1      31.183  23.569  22.783  1.00  0.00    -0.326 N 
ATOM     88  H   UNL A   1      30.583  23.285  22.057  1.00  0.00     0.169 HD
BRANCH  87  89
ATOM     89  C   UNL A   1      31.075  24.942  23.047  1.00  0.00     0.041 A 
ATOM     90  C   UNL A   1      29.939  25.424  23.693  1.00  0.00     0.026 A 
ATOM     91  C   UNL A   1      32.017  25.871  22.654  1.00  0.00     0.026 A 
ATOM     92  C   UNL A   1      29.886  26.762  24.124  1.00  0.00     0.008 A 
ATOM     93  C   UNL A   1      31.955  27.213  23.011  1.00  0.00     0.008 A 
ATOM     94  C   UNL A   1      30.933  27.651  23.838  1.00  0.00    -0.026 A 
BRANCH  94  95
ATOM     95  C   UNL A   1      31.028  29.037  24.416  1.00  0.00     0.181 C 
BRANCH  95  96
ATOM     96  N   UNL A   1      31.951  29.082  25.526  1.00  0.00    -0.249 N 
ATOM     97  C   UNL A   1      33.192  29.633  25.543  1.00  0.00     0.220 A 
ATOM     98  N   UNL A   1      31.628  28.580  26.731  1.00  0.00    -0.160 NA
ATOM     99  N   UNL A   1      33.708  29.521  26.744  1.00  0.00    -0.224 NA
ATOM    100  C   UNL A   1      32.714  28.887  27.442  1.00  0.00     0.246 A 
ENDBRANCH  95  96
ENDBRANCH  94  95
ENDBRANCH  87  89
ENDBRANCH  78  85
ENDBRANCH  75  77
ENDBRANCH  74  75
ENDBRANCH   1  74
TORSDOF 18
ENDMDL
MODEL 2
REMARK VINA RESULT:     -12.5      4.858     11.520
REMARK SMILES O=C(OCCOC(=O)[C@@H]1[C@H](C(=O)Nc2ccc(Cn3cncn3)cc2)[C@@H]2C=C[C@H]1CC2)c1ccc(-c2c3nc(c(-c4c(F)cc(S(=O)(=O)[O-])cc4F)c4ccc([nH]4)c(-c4c(F)cc(S(=O)(=O)[O-])cc4F)c4nc(c(-c5c(F)cc(S(=O)(=O)[O-])cc5F)c5ccc2[nH]5)C=C4)C=C3)cc1
REMARK SMILES IDX 5 1 4 2 3 3 2 4 1 5 32 6 33 7 97 8 34 9 96 10 35 11 36 12
REMARK SMILES IDX 37 13 90 14 38 15 95 16 89 17 91 18 39 19 94 20 88 21 87 22
REMARK SMILES IDX 40 24 74 25 53 26 73 27 54 28 57 29 72 30 92 31 55 32 56 33
REMARK SMILES IDX 71 35 93 36 58 37 41 38 42 39 51 40 43 41 44 42 50 43 52 44
REMARK SMILES IDX 45 45 46 46 47 47 48 48 49 49 75 50 76 51 85 52 77 53 78 54
REMARK SMILES IDX 84 55 86 56 79 57 80 58 81 59 82 60 83 61 59 62 60 63 69 64
REMARK SMILES IDX 61 65 62 66 68 67 70 68 63 69 64 70 65 71 66 72 67 73 6 74
REMARK SMILES IDX 7 75 8 76 9 77 10 78 29 79 26 80 28 81 30 82 27 83 31 84
REMARK SMILES IDX 11 85 12 86 13 87 14 89 15 90 25 91 16 92 24 93 17 94 18 95
REMARK SMILES IDX 19 96 20 97 23 98 21 99 22 100
REMARK H PARENT 91 23 57 34 13 88
REMARK Flexibility Score: inf
ROOT
ATOM      1  C   UNL A   1      34.437  33.808  30.017  1.00  0.00     0.274 C 
ENDROOT
BRANCH   1   2
ATOM      2  C   UNL A   1      33.745  33.220  28.787  1.00  0.00     0.275 C 
BRANCH   2   3
ATOM      3  O   UNL A   1      34.599  32.539  27.846  1.00  0.00    -0.458 OA
BRANCH   3   4
ATOM      4  C   UNL A   1      34.657  31.194  27.935  1.00  0.00     0.338 C 
ATOM      5  O   UNL A   1      33.682  30.454  27.870  1.00  0.00    -0.246 OA
BRANCH   4   6
ATOM      6  C   UNL A   1      36.047  30.715  28.086  1.00  0.00     0.060 A 
ATOM      7  C   UNL A   1      36.387  29.358  27.967  1.00  0.00     0.016 A 
ATOM      8  C   UNL A   1      37.034  31.674  28.344  1.00  0.00     0.016 A 
ATOM      9  C   UNL A   1      37.690  28.951  28.204  1.00  0.00     0.010 A 
ATOM     10  C   UNL A   1      38.336  31.266  28.584  1.00  0.00     0.010 A 
ATOM     11  C   UNL A   1      38.644  29.903  28.565  1.00  0.00    -0.014 A 
BRANCH  11  12
ATOM     12  C   UNL A   1      39.975  29.444  28.936  1.00  0.00     0.031 A 
ATOM     13  C   UNL A   1      40.220  29.242  30.397  1.00  0.00     0.074 A 
ATOM     14  C   UNL A   1      40.854  29.074  27.981  1.00  0.00     0.049 A 
ATOM     15  N   UNL A   1      41.085  29.815  31.171  1.00  0.00    -0.248 NA
ATOM     16  C   UNL A   1      39.296  28.353  31.117  1.00  0.00     0.031 C 
ATOM     17  C   UNL A   1      40.631  28.944  26.536  1.00  0.00     0.029 A 
ATOM     18  N   UNL A   1      42.127  28.625  28.126  1.00  0.00    -0.354 N 
ATOM     19  C   UNL A   1      40.961  29.206  32.424  1.00  0.00     0.074 A 
ATOM     20  C   UNL A   1      39.748  28.436  32.369  1.00  0.00     0.031 C 
ATOM     21  C   UNL A   1      41.638  28.228  25.989  1.00  0.00     0.029 A 
ATOM     22  C   UNL A   1      42.641  27.980  27.007  1.00  0.00     0.049 A 
ATOM     23  H   UNL A   1      42.644  28.746  28.956  1.00  0.00     0.167 HD
ATOM     24  C   UNL A   1      41.968  29.227  33.348  1.00  0.00     0.037 A 
ATOM     25  C   UNL A   1      43.769  27.225  26.973  1.00  0.00     0.037 A 
ATOM     26  C   UNL A   1      42.918  30.265  33.047  1.00  0.00     0.049 A 
ATOM     27  C   UNL A   1      44.582  27.620  28.158  1.00  0.00     0.074 A 
ATOM     28  C   UNL A   1      42.856  31.642  32.954  1.00  0.00     0.029 A 
ATOM     29  N   UNL A   1      44.091  29.908  32.426  1.00  0.00    -0.354 N 
ATOM     30  N   UNL A   1      45.092  28.815  28.313  1.00  0.00    -0.248 NA
ATOM     31  C   UNL A   1      44.392  26.860  29.386  1.00  0.00     0.031 C 
ATOM     32  C   UNL A   1      43.680  31.964  31.836  1.00  0.00     0.029 A 
ATOM     33  C   UNL A   1      44.253  30.777  31.377  1.00  0.00     0.049 A 
ATOM     34  H   UNL A   1      44.696  29.175  32.683  1.00  0.00     0.167 HD
ATOM     35  C   UNL A   1      44.918  29.112  29.657  1.00  0.00     0.074 A 
ATOM     36  C   UNL A   1      44.519  27.847  30.276  1.00  0.00     0.031 C 
ATOM     37  C   UNL A   1      44.828  30.399  30.106  1.00  0.00     0.037 A 
BRANCH  24  38
ATOM     38  C   UNL A   1      42.299  28.110  34.321  1.00  0.00     0.058 A 
ATOM     39  C   UNL A   1      42.295  28.383  35.709  1.00  0.00     0.135 A 
ATOM     40  C   UNL A   1      42.910  26.892  33.952  1.00  0.00     0.135 A 
ATOM     41  F   UNL A   1      41.716  29.496  36.189  1.00  0.00    -0.206 F 
ATOM     42  C   UNL A   1      42.952  27.574  36.638  1.00  0.00     0.059 A 
ATOM     43  C   UNL A   1      43.530  26.047  34.870  1.00  0.00     0.059 A 
ATOM     44  F   UNL A   1      43.015  26.500  32.679  1.00  0.00    -0.206 F 
ATOM     45  C   UNL A   1      43.592  26.420  36.202  1.00  0.00     0.060 A 
BRANCH  45  46
ATOM     46  S   UNL A   1      44.560  25.450  37.372  1.00  0.00     0.124 S 
ATOM     47  O   UNL A   1      45.849  26.127  37.314  1.00  0.00    -0.237 OA
ATOM     48  O   UNL A   1      43.801  25.623  38.606  1.00  0.00    -0.237 OA
ATOM     49  O   UNL A   1      44.524  24.106  36.803  1.00  0.00    -0.744 OA
ENDBRANCH  45  46
ENDBRANCH  24  38
BRANCH  25  50
ATOM     50  C   UNL A   1      43.932  25.925  26.262  1.00  0.00     0.058 A 
ATOM     51  C   UNL A   1      45.009  25.679  25.393  1.00  0.00     0.135 A 
ATOM     52  C   UNL A   1      43.161  24.799  26.625  1.00  0.00     0.135 A 
ATOM     53  F   UNL A   1      45.817  26.684  25.023  1.00  0.00    -0.206 F 
ATOM     54  C   UNL A   1      45.315  24.390  24.928  1.00  0.00     0.059 A 
ATOM     55  C   UNL A   1      43.440  23.512  26.168  1.00  0.00     0.059 A 
ATOM     56  F   UNL A   1      42.157  24.904  27.508  1.00  0.00    -0.206 F 
ATOM     57  C   UNL A   1      44.531  23.309  25.334  1.00  0.00     0.060 A 
BRANCH  57  58
ATOM     58  S   UNL A   1      45.000  21.627  24.858  1.00  0.00     0.124 S 
ATOM     59  O   UNL A   1      44.704  21.623  23.430  1.00  0.00    -0.237 OA
ATOM     60  O   UNL A   1      46.414  21.588  25.216  1.00  0.00    -0.237 OA
ATOM     61  O   UNL A   1      44.129  20.788  25.677  1.00  0.00    -0.744 OA
ENDBRANCH  57  58
ENDBRANCH  25  50
BRANCH  37  62
ATOM     62  C   UNL A   1      45.113  31.530  29.153  1.00  0.00     0.058 A 
ATOM     63  C   UNL A   1      46.408  31.941  28.785  1.00  0.00     0.135 A 
ATOM     64  C   UNL A   1      44.043  32.056  28.416  1.00  0.00     0.135 A 
ATOM     65  F   UNL A   1      47.489  31.407  29.366  1.00  0.00    -0.206 F 
ATOM     66  C   UNL A   1      46.626  32.849  27.747  1.00  0.00     0.059 A 
ATOM     67  C   UNL A   1      44.237  32.939  27.358  1.00  0.00     0.059 A 
ATOM     68  F   UNL A   1      42.789  31.648  28.672  1.00  0.00    -0.206 F 
ATOM     69  C   UNL A   1      45.532  33.338  27.032  1.00  0.00     0.060 A 
BRANCH  69  70
ATOM     70  S   UNL A   1      45.817  34.429  25.622  1.00  0.00     0.124 S 
ATOM     71  O   UNL A   1      47.249  34.265  25.392  1.00  0.00    -0.237 OA
ATOM     72  O   UNL A   1      44.942  33.864  24.599  1.00  0.00    -0.237 OA
ATOM     73  O   UNL A   1      45.412  35.742  26.119  1.00  0.00    -0.744 OA
ENDBRANCH  69  70
ENDBRANCH  37  62
ENDBRANCH  11  12
ENDBRANCH   4   6
ENDBRANCH   3   4
ENDBRANCH   2   3
ENDBRANCH   1   2
BRANCH   1  74
ATOM     74  O   UNL A   1      34.525  32.781  31.031  1.00  0.00    -0.462 OA
BRANCH  74  75
ATOM     75  C   UNL A   1      35.345  33.029  32.067  1.00  0.00     0.310 C 
ATOM     76  O   UNL A   1      34.959  33.164  33.223  1.00  0.00    -0.252 OA
BRANCH  75  77
ATOM     77  C   UNL A   1      36.795  33.276  31.679  1.00  0.00     0.119 C 
ATOM     78  C   UNL A   1      37.669  32.030  31.934  1.00  0.00     0.100 C 
ATOM     79  C   UNL A   1      37.634  34.563  31.985  1.00  0.00     0.026 C 
ATOM     80  C   UNL A   1      39.163  32.442  32.015  1.00  0.00     0.025 C 
ATOM     81  C   UNL A   1      38.569  34.443  33.176  1.00  0.00    -0.027 C 
ATOM     82  C   UNL A   1      38.674  34.661  30.828  1.00  0.00     0.009 C 
ATOM     83  C   UNL A   1      39.362  33.358  33.188  1.00  0.00    -0.027 C 
ATOM     84  C   UNL A   1      39.502  33.336  30.778  1.00  0.00     0.009 C 
BRANCH  78  85
ATOM     85  C   UNL A   1      37.191  30.951  32.937  1.00  0.00     0.228 C 
ATOM     86  O   UNL A   1      36.622  29.950  32.468  1.00  0.00    -0.274 OA
ATOM     87  N   UNL A   1      37.427  30.881  34.277  1.00  0.00    -0.326 N 
ATOM     88  H   UNL A   1      37.294  29.971  34.627  1.00  0.00     0.169 HD
BRANCH  87  89
ATOM     89  C   UNL A   1      37.810  31.780  35.282  1.00  0.00     0.041 A 
ATOM     90  C   UNL A   1      39.022  31.592  35.940  1.00  0.00     0.026 A 
ATOM     91  C   UNL A   1      37.021  32.832  35.705  1.00  0.00     0.026 A 
ATOM     92  C   UNL A   1      39.506  32.573  36.824  1.00  0.00     0.008 A 
ATOM     93  C   UNL A   1      37.451  33.781  36.626  1.00  0.00     0.008 A 
ATOM     94  C   UNL A   1      38.743  33.712  37.121  1.00  0.00    -0.026 A 
BRANCH  94  95
ATOM     95  C   UNL A   1      39.266  34.882  37.909  1.00  0.00     0.181 C 
BRANCH  95  96
ATOM     96  N   UNL A   1      40.236  35.636  37.151  1.00  0.00    -0.249 N 
ATOM     97  C   UNL A   1      41.565  35.757  37.402  1.00  0.00     0.220 A 
ATOM     98  N   UNL A   1      39.892  36.305  36.035  1.00  0.00    -0.160 NA
ATOM     99  N   UNL A   1      42.126  36.485  36.467  1.00  0.00    -0.224 NA
ATOM    100  C   UNL A   1      41.073  36.786  35.644  1.00  0.00     0.246 A 
ENDBRANCH  95  96
ENDBRANCH  94  95
ENDBRANCH  87  89
ENDBRANCH  78  85
ENDBRANCH  75  77
ENDBRANCH  74  75
ENDBRANCH   1  74
TORSDOF 18
ENDMDL
MODEL 3
REMARK VINA RESULT:     -12.3      3.034      9.121
REMARK SMILES O=C(OCCOC(=O)[C@@H]1[C@H](C(=O)Nc2ccc(Cn3cncn3)cc2)[C@@H]2C=C[C@H]1CC2)c1ccc(-c2c3nc(c(-c4c(F)cc(S(=O)(=O)[O-])cc4F)c4ccc([nH]4)c(-c4c(F)cc(S(=O)(=O)[O-])cc4F)c4nc(c(-c5c(F)cc(S(=O)(=O)[O-])cc5F)c5ccc2[nH]5)C=C4)C=C3)cc1
REMARK SMILES IDX 5 1 4 2 3 3 2 4 1 5 32 6 33 7 97 8 34 9 96 10 35 11 36 12
REMARK SMILES IDX 37 13 90 14 38 15 95 16 89 17 91 18 39 19 94 20 88 21 87 22
REMARK SMILES IDX 40 24 74 25 53 26 73 27 54 28 57 29 72 30 92 31 55 32 56 33
REMARK SMILES IDX 71 35 93 36 58 37 41 38 42 39 51 40 43 41 44 42 50 43 52 44
REMARK SMILES IDX 45 45 46 46 47 47 48 48 49 49 75 50 76 51 85 52 77 53 78 54
REMARK SMILES IDX 84 55 86 56 79 57 80 58 81 59 82 60 83 61 59 62 60 63 69 64
REMARK SMILES IDX 61 65 62 66 68 67 70 68 63 69 64 70 65 71 66 72 67 73 6 74
REMARK SMILES IDX 7 75 8 76 9 77 10 78 29 79 26 80 28 81 30 82 27 83 31 84
REMARK SMILES IDX 11 85 12 86 13 87 14 89 15 90 25 91 16 92 24 93 17 94 18 95
REMARK SMILES IDX 19 96 20 97 23 98 21 99 22 100
REMARK H PARENT 91 23 57 34 13 88
REMARK Flexibility Score: inf
ROOT
ATOM      1  C   UNL A   1      31.786  29.836  26.345  1.00  0.00     0.274 C 
ENDROOT
BRANCH   1   2
ATOM      2  C   UNL A   1      33.227  30.311  26.538  1.00  0.00     0.275 C 
BRANCH   2   3
ATOM      3  O   UNL A   1      33.663  30.470  27.903  1.00  0.00    -0.458 OA
BRANCH   3   4
ATOM      4  C   UNL A   1      34.516  31.484  28.158  1.00  0.00     0.338 C 
ATOM      5  O   UNL A   1      34.178  32.655  28.294  1.00  0.00    -0.246 OA
BRANCH   4   6
ATOM      6  C   UNL A   1      35.909  31.008  28.289  1.00  0.00     0.060 A 
ATOM      7  C   UNL A   1      36.288  29.702  27.939  1.00  0.00     0.016 A 
ATOM      8  C   UNL A   1      36.858  31.917  28.771  1.00  0.00     0.016 A 
ATOM      9  C   UNL A   1      37.588  29.278  28.163  1.00  0.00     0.010 A 
ATOM     10  C   UNL A   1      38.156  31.492  28.997  1.00  0.00     0.010 A 
ATOM     11  C   UNL A   1      38.499  30.162  28.742  1.00  0.00    -0.014 A 
BRANCH  11  12
ATOM     12  C   UNL A   1      39.823  29.663  29.090  1.00  0.00     0.031 A 
ATOM     13  C   UNL A   1      40.092  29.468  30.548  1.00  0.00     0.074 A 
ATOM     14  C   UNL A   1      40.669  29.254  28.122  1.00  0.00     0.049 A 
ATOM     15  N   UNL A   1      40.991  30.019  31.298  1.00  0.00    -0.248 NA
ATOM     16  C   UNL A   1      39.154  28.617  31.297  1.00  0.00     0.031 C 
ATOM     17  C   UNL A   1      40.410  29.117  26.683  1.00  0.00     0.029 A 
ATOM     18  N   UNL A   1      41.928  28.765  28.245  1.00  0.00    -0.354 N 
ATOM     19  C   UNL A   1      40.874  29.427  32.560  1.00  0.00     0.074 A 
ATOM     20  C   UNL A   1      39.635  28.697  32.539  1.00  0.00     0.031 C 
ATOM     21  C   UNL A   1      41.382  28.363  26.122  1.00  0.00     0.029 A 
ATOM     22  C   UNL A   1      42.397  28.092  27.122  1.00  0.00     0.049 A 
ATOM     23  H   UNL A   1      42.467  28.877  29.063  1.00  0.00     0.167 HD
ATOM     24  C   UNL A   1      41.901  29.425  33.462  1.00  0.00     0.037 A 
ATOM     25  C   UNL A   1      43.499  27.300  27.072  1.00  0.00     0.037 A 
ATOM     26  C   UNL A   1      42.878  30.427  33.130  1.00  0.00     0.049 A 
ATOM     27  C   UNL A   1      44.350  27.680  28.236  1.00  0.00     0.074 A 
ATOM     28  C   UNL A   1      42.859  31.804  33.024  1.00  0.00     0.029 A 
ATOM     29  N   UNL A   1      44.025  30.026  32.488  1.00  0.00    -0.354 N 
ATOM     30  N   UNL A   1      44.901  28.859  28.367  1.00  0.00    -0.248 NA
ATOM     31  C   UNL A   1      44.160  26.939  29.476  1.00  0.00     0.031 C 
ATOM     32  C   UNL A   1      43.669  32.088  31.886  1.00  0.00     0.029 A 
ATOM     33  C   UNL A   1      44.193  30.878  31.427  1.00  0.00     0.049 A 
ATOM     34  H   UNL A   1      44.610  29.275  32.740  1.00  0.00     0.167 HD
ATOM     35  C   UNL A   1      44.766  29.174  29.712  1.00  0.00     0.074 A 
ATOM     36  C   UNL A   1      44.339  27.930  30.353  1.00  0.00     0.031 C 
ATOM     37  C   UNL A   1      44.728  30.469  30.149  1.00  0.00     0.037 A 
BRANCH  24  38
ATOM     38  C   UNL A   1      42.216  28.307  34.440  1.00  0.00     0.058 A 
ATOM     39  C   UNL A   1      42.156  28.570  35.829  1.00  0.00     0.135 A 
ATOM     40  C   UNL A   1      42.860  27.102  34.087  1.00  0.00     0.135 A 
ATOM     41  F   UNL A   1      41.541  29.670  36.293  1.00  0.00    -0.206 F 
ATOM     42  C   UNL A   1      42.793  27.767  36.776  1.00  0.00     0.059 A 
ATOM     43  C   UNL A   1      43.461  26.262  35.021  1.00  0.00     0.059 A 
ATOM     44  F   UNL A   1      43.019  26.720  32.816  1.00  0.00    -0.206 F 
ATOM     45  C   UNL A   1      43.469  26.627  36.357  1.00  0.00     0.060 A 
BRANCH  45  46
ATOM     46  S   UNL A   1      44.409  25.666  37.556  1.00  0.00     0.124 S 
ATOM     47  O   UNL A   1      43.870  26.165  38.815  1.00  0.00    -0.237 OA
ATOM     48  O   UNL A   1      44.045  24.300  37.199  1.00  0.00    -0.237 OA
ATOM     49  O   UNL A   1      45.792  26.036  37.269  1.00  0.00    -0.744 OA
ENDBRANCH  45  46
ENDBRANCH  24  38
BRANCH  25  50
ATOM     50  C   UNL A   1      43.604  25.988  26.373  1.00  0.00     0.058 A 
ATOM     51  C   UNL A   1      44.586  25.738  25.398  1.00  0.00     0.135 A 
ATOM     52  C   UNL A   1      42.892  24.861  26.835  1.00  0.00     0.135 A 
ATOM     53  F   UNL A   1      45.336  26.745  24.926  1.00  0.00    -0.206 F 
ATOM     54  C   UNL A   1      44.860  24.445  24.927  1.00  0.00     0.059 A 
ATOM     55  C   UNL A   1      43.139  23.568  26.376  1.00  0.00     0.059 A 
ATOM     56  F   UNL A   1      41.986  24.971  27.819  1.00  0.00    -0.206 F 
ATOM     57  C   UNL A   1      44.139  23.362  25.434  1.00  0.00     0.060 A 
BRANCH  57  58
ATOM     58  S   UNL A   1      44.578  21.677  24.942  1.00  0.00     0.124 S 
ATOM     59  O   UNL A   1      45.885  21.510  25.569  1.00  0.00    -0.237 OA
ATOM     60  O   UNL A   1      43.490  20.894  25.516  1.00  0.00    -0.237 OA
ATOM     61  O   UNL A   1      44.593  21.743  23.482  1.00  0.00    -0.744 OA
ENDBRANCH  57  58
ENDBRANCH  25  50
BRANCH  37  62
ATOM     62  C   UNL A   1      45.030  31.580  29.177  1.00  0.00     0.058 A 
ATOM     63  C   UNL A   1      46.330  31.961  28.797  1.00  0.00     0.135 A 
ATOM     64  C   UNL A   1      43.966  32.116  28.438  1.00  0.00     0.135 A 
ATOM     65  F   UNL A   1      47.404  31.414  29.381  1.00  0.00    -0.206 F 
ATOM     66  C   UNL A   1      46.560  32.849  27.746  1.00  0.00     0.059 A 
ATOM     67  C   UNL A   1      44.171  32.980  27.367  1.00  0.00     0.059 A 
ATOM     68  F   UNL A   1      42.705  31.736  28.706  1.00  0.00    -0.206 F 
ATOM     69  C   UNL A   1      45.472  33.348  27.029  1.00  0.00     0.060 A 
BRANCH  69  70
ATOM     70  S   UNL A   1      45.771  34.414  25.601  1.00  0.00     0.124 S 
ATOM     71  O   UNL A   1      45.365  35.721  26.105  1.00  0.00    -0.237 OA
ATOM     72  O   UNL A   1      47.202  34.241  25.368  1.00  0.00    -0.237 OA
ATOM     73  O   UNL A   1      44.908  33.848  24.567  1.00  0.00    -0.744 OA
ENDBRANCH  69  70
ENDBRANCH  37  62
ENDBRANCH  11  12
ENDBRANCH   4   6
ENDBRANCH   3   4
ENDBRANCH   2   3
ENDBRANCH   1   2
BRANCH   1  74
ATOM     74  O   UNL A   1      31.584  28.644  27.138  1.00  0.00    -0.462 OA
BRANCH  74  75
ATOM     75  C   UNL A   1      31.440  27.491  26.462  1.00  0.00     0.310 C 
ATOM     76  O   UNL A   1      30.880  26.501  26.919  1.00  0.00    -0.252 OA
BRANCH  75  77
ATOM     77  C   UNL A   1      32.156  27.453  25.121  1.00  0.00     0.119 C 
ATOM     78  C   UNL A   1      31.275  26.812  24.027  1.00  0.00     0.100 C 
ATOM     79  C   UNL A   1      33.651  27.054  24.875  1.00  0.00     0.026 C 
ATOM     80  C   UNL A   1      32.164  26.334  22.848  1.00  0.00     0.025 C 
ATOM     81  C   UNL A   1      33.856  25.632  24.381  1.00  0.00    -0.027 C 
ATOM     82  C   UNL A   1      34.087  27.851  23.608  1.00  0.00     0.009 C 
ATOM     83  C   UNL A   1      33.099  25.264  23.334  1.00  0.00    -0.027 C 
ATOM     84  C   UNL A   1      33.115  27.503  22.434  1.00  0.00     0.009 C 
BRANCH  78  85
ATOM     85  C   UNL A   1      30.103  25.885  24.433  1.00  0.00     0.228 C 
ATOM     86  O   UNL A   1      28.950  26.319  24.266  1.00  0.00    -0.274 OA
ATOM     87  N   UNL A   1      30.156  24.584  24.834  1.00  0.00    -0.326 N 
ATOM     88  H   UNL A   1      29.287  24.132  24.735  1.00  0.00     0.169 HD
BRANCH  87  89
ATOM     89  C   UNL A   1      31.137  23.727  25.354  1.00  0.00     0.041 A 
ATOM     90  C   UNL A   1      31.600  22.669  24.577  1.00  0.00     0.026 A 
ATOM     91  C   UNL A   1      31.645  23.838  26.633  1.00  0.00     0.026 A 
ATOM     92  C   UNL A   1      32.702  21.907  25.005  1.00  0.00     0.008 A 
ATOM     93  C   UNL A   1      32.691  23.053  27.105  1.00  0.00     0.008 A 
ATOM     94  C   UNL A   1      33.297  22.143  26.254  1.00  0.00    -0.026 A 
BRANCH  94  95
ATOM     95  C   UNL A   1      34.579  21.495  26.700  1.00  0.00     0.181 C 
BRANCH  95  96
ATOM     96  N   UNL A   1      35.713  22.017  25.974  1.00  0.00    -0.249 N 
ATOM     97  C   UNL A   1      36.502  21.353  25.091  1.00  0.00     0.220 A 
ATOM     98  N   UNL A   1      36.093  23.302  26.092  1.00  0.00    -0.160 NA
ATOM     99  N   UNL A   1      37.402  22.173  24.600  1.00  0.00    -0.224 NA
ATOM    100  C   UNL A   1      37.107  23.356  25.226  1.00  0.00     0.246 A 
ENDBRANCH  95  96
ENDBRANCH  94  95
ENDBRANCH  87  89
ENDBRANCH  78  85
ENDBRANCH  75  77
ENDBRANCH  74  75
ENDBRANCH   1  74
TORSDOF 18
ENDMDL
