MODEL 1
REMARK VINA RESULT:     -11.5      0.000      0.000
REMARK SMILES COC(=O)c1ccc(Cl)c(-c2ccc(C(=O)OCCOC(=O)c3ccc(-c4c5nc(c(-c6c(F)cc(S(=O)(=O)[O-])cc6F)c6ccc([nH]6)c(-c6c(F)cc(S(=O)(=O)[O-])cc6F)c6nc(c(-c7c(F)cc(S(=O)(=O)[O-])cc7F)c7ccc4[nH]7)C=C6)C=C5)cc3)c(F)c2)c1
REMARK SMILES IDX 18 1 17 2 15 3 16 4 14 5 11 6 12 7 91 8 13 9 89 10 90 11
REMARK SMILES IDX 10 12 5 13 6 14 92 15 7 16 8 17 9 18 3 19 4 20 2 21 1 22
REMARK SMILES IDX 19 23 20 24 21 25 22 26 23 27 24 28 88 29 25 30 87 31 26 32
REMARK SMILES IDX 27 33 28 34 81 35 29 36 86 37 80 38 82 39 30 40 85 41 79 42
REMARK SMILES IDX 78 43 31 45 65 46 44 47 64 48 45 49 48 50 63 51 83 52 46 53
REMARK SMILES IDX 47 54 62 56 84 57 49 58 32 59 33 60 42 61 34 62 35 63 41 64
REMARK SMILES IDX 43 65 36 66 37 67 38 68 39 69 40 70 66 71 67 72 76 73 68 74
REMARK SMILES IDX 69 75 75 76 77 77 70 78 71 79 72 80 73 81 74 82 50 83 51 84
REMARK SMILES IDX 60 85 52 86 53 87 59 88 61 89 54 90 55 91 56 92 57 93 58 94
REMARK H PARENT 82 44 48 55
REMARK Flexibility Score: inf
ROOT
ATOM      1  C   UNL A   1      34.894  33.298  30.255  1.00  0.00     0.275 C 
ENDROOT
BRANCH   1   2
ATOM      2  O   UNL A   1      34.049  32.668  29.271  1.00  0.00    -0.458 OA
BRANCH   2   3
ATOM      3  C   UNL A   1      34.644  32.367  28.092  1.00  0.00     0.341 C 
ATOM      4  O   UNL A   1      35.540  32.999  27.553  1.00  0.00    -0.246 OA
BRANCH   3   5
ATOM      5  C   UNL A   1      34.169  31.077  27.555  1.00  0.00     0.095 A 
ATOM      6  C   UNL A   1      33.409  28.577  26.495  1.00  0.00    -0.014 A 
ATOM      7  C   UNL A   1      34.689  28.765  27.030  1.00  0.00     0.010 A 
ATOM      8  C   UNL A   1      32.515  29.660  26.497  1.00  0.00     0.049 A 
ATOM      9  C   UNL A   1      35.074  30.008  27.522  1.00  0.00     0.019 A 
ATOM     10  C   UNL A   1      32.893  30.896  27.033  1.00  0.00     0.138 A 
ATOM     11  F   UNL A   1      32.022  31.913  26.960  1.00  0.00    -0.206 F 
BRANCH   6  12
ATOM     12  C   UNL A   1      33.095  27.307  25.830  1.00  0.00     0.001 A 
ATOM     13  C   UNL A   1      32.149  25.064  26.046  1.00  0.00     0.060 A 
ATOM     14  C   UNL A   1      32.243  24.877  24.665  1.00  0.00     0.017 A 
ATOM     15  C   UNL A   1      32.561  26.271  26.618  1.00  0.00     0.026 A 
ATOM     16  C   UNL A   1      32.773  25.894  23.866  1.00  0.00     0.022 A 
ATOM     17  C   UNL A   1      33.205  27.096  24.443  1.00  0.00     0.048 A 
ATOM     18  Cl  UNL A   1      33.871  28.295  23.391  1.00  0.00    -0.084 Cl
BRANCH  13  19
ATOM     19  C   UNL A   1      31.616  24.025  26.958  1.00  0.00     0.337 C 
ATOM     20  O   UNL A   1      32.306  23.183  27.499  1.00  0.00    -0.246 OA
BRANCH  19  21
ATOM     21  O   UNL A   1      30.262  24.097  26.981  1.00  0.00    -0.465 OA
ATOM     22  C   UNL A   1      29.625  22.820  26.957  1.00  0.00     0.282 C 
ENDBRANCH  19  21
ENDBRANCH  13  19
ENDBRANCH   6  12
ENDBRANCH   3   5
ENDBRANCH   2   3
ENDBRANCH   1   2
BRANCH   1  23
ATOM     23  C   UNL A   1      35.337  32.296  31.320  1.00  0.00     0.275 C 
BRANCH  23  24
ATOM     24  O   UNL A   1      36.686  31.861  31.076  1.00  0.00    -0.458 OA
BRANCH  24  25
ATOM     25  C   UNL A   1      37.002  30.646  31.582  1.00  0.00     0.338 C 
ATOM     26  O   UNL A   1      36.439  30.050  32.483  1.00  0.00    -0.246 OA
BRANCH  25  27
ATOM     27  C   UNL A   1      38.129  30.066  30.837  1.00  0.00     0.060 A 
ATOM     28  C   UNL A   1      39.072  29.328  31.544  1.00  0.00     0.016 A 
ATOM     29  C   UNL A   1      38.359  30.395  29.504  1.00  0.00     0.016 A 
ATOM     30  C   UNL A   1      40.299  29.016  30.964  1.00  0.00     0.010 A 
ATOM     31  C   UNL A   1      39.548  29.983  28.888  1.00  0.00     0.010 A 
ATOM     32  C   UNL A   1      40.557  29.329  29.621  1.00  0.00    -0.014 A 
BRANCH  32  33
ATOM     33  C   UNL A   1      41.888  29.024  29.008  1.00  0.00     0.031 A 
ATOM     34  C   UNL A   1      42.177  27.642  28.466  1.00  0.00     0.074 A 
ATOM     35  C   UNL A   1      42.833  29.982  28.893  1.00  0.00     0.049 A 
ATOM     36  N   UNL A   1      43.314  27.128  28.071  1.00  0.00    -0.248 NA
ATOM     37  C   UNL A   1      41.039  26.714  28.364  1.00  0.00     0.031 C 
ATOM     38  C   UNL A   1      42.684  31.379  29.306  1.00  0.00     0.029 A 
ATOM     39  N   UNL A   1      44.108  29.932  28.377  1.00  0.00    -0.354 N 
ATOM     40  C   UNL A   1      43.039  25.810  27.721  1.00  0.00     0.074 A 
ATOM     41  C   UNL A   1      41.630  25.596  27.962  1.00  0.00     0.031 C 
ATOM     42  C   UNL A   1      43.790  32.062  28.974  1.00  0.00     0.029 A 
ATOM     43  C   UNL A   1      44.772  31.137  28.421  1.00  0.00     0.049 A 
ATOM     44  H   UNL A   1      44.507  29.110  28.011  1.00  0.00     0.167 HD
ATOM     45  C   UNL A   1      43.883  24.867  27.234  1.00  0.00     0.037 A 
ATOM     46  C   UNL A   1      46.039  31.462  28.095  1.00  0.00     0.037 A 
ATOM     47  C   UNL A   1      45.274  25.099  26.938  1.00  0.00     0.049 A 
ATOM     48  C   UNL A   1      46.974  30.383  27.620  1.00  0.00     0.074 A 
ATOM     49  C   UNL A   1      46.216  24.200  26.467  1.00  0.00     0.029 A 
ATOM     50  N   UNL A   1      45.917  26.323  27.053  1.00  0.00    -0.354 N 
ATOM     51  N   UNL A   1      46.723  29.116  27.395  1.00  0.00    -0.248 NA
ATOM     52  C   UNL A   1      48.371  30.772  27.381  1.00  0.00     0.031 C 
ATOM     53  C   UNL A   1      47.432  24.872  26.321  1.00  0.00     0.029 A 
ATOM     54  C   UNL A   1      47.240  26.201  26.662  1.00  0.00     0.049 A 
ATOM     55  H   UNL A   1      45.495  27.155  27.366  1.00  0.00     0.167 HD
ATOM     56  C   UNL A   1      47.925  28.562  26.972  1.00  0.00     0.074 A 
ATOM     57  C   UNL A   1      48.900  29.632  26.957  1.00  0.00     0.031 C 
ATOM     58  C   UNL A   1      48.196  27.277  26.634  1.00  0.00     0.037 A 
BRANCH  45  59
ATOM     59  C   UNL A   1      43.340  23.484  26.989  1.00  0.00     0.058 A 
ATOM     60  C   UNL A   1      43.191  22.580  28.055  1.00  0.00     0.135 A 
ATOM     61  C   UNL A   1      43.048  23.022  25.695  1.00  0.00     0.135 A 
ATOM     62  F   UNL A   1      43.452  22.968  29.312  1.00  0.00    -0.206 F 
ATOM     63  C   UNL A   1      42.795  21.263  27.844  1.00  0.00     0.059 A 
ATOM     64  C   UNL A   1      42.626  21.715  25.464  1.00  0.00     0.059 A 
ATOM     65  F   UNL A   1      43.154  23.850  24.645  1.00  0.00    -0.206 F 
ATOM     66  C   UNL A   1      42.518  20.838  26.544  1.00  0.00     0.060 A 
BRANCH  66  67
ATOM     67  S   UNL A   1      41.992  19.129  26.290  1.00  0.00     0.124 S 
ATOM     68  O   UNL A   1      42.214  18.546  27.608  1.00  0.00    -0.237 OA
ATOM     69  O   UNL A   1      40.596  19.295  25.894  1.00  0.00    -0.237 OA
ATOM     70  O   UNL A   1      42.881  18.655  25.234  1.00  0.00    -0.744 OA
ENDBRANCH  66  67
ENDBRANCH  45  59
BRANCH  46  71
ATOM     71  C   UNL A   1      46.512  32.867  28.237  1.00  0.00     0.058 A 
ATOM     72  C   UNL A   1      46.419  33.782  27.177  1.00  0.00     0.135 A 
ATOM     73  C   UNL A   1      47.077  33.318  29.440  1.00  0.00     0.135 A 
ATOM     74  F   UNL A   1      45.889  33.404  26.004  1.00  0.00    -0.206 F 
ATOM     75  C   UNL A   1      46.894  35.083  27.293  1.00  0.00     0.059 A 
ATOM     76  C   UNL A   1      47.531  34.625  29.592  1.00  0.00     0.059 A 
ATOM     77  F   UNL A   1      47.169  32.485  30.489  1.00  0.00    -0.206 F 
ATOM     78  C   UNL A   1      47.451  35.495  28.504  1.00  0.00     0.060 A 
BRANCH  78  79
ATOM     79  S   UNL A   1      48.050  37.193  28.640  1.00  0.00     0.124 S 
ATOM     80  O   UNL A   1      47.236  37.870  27.637  1.00  0.00    -0.237 OA
ATOM     81  O   UNL A   1      47.745  37.516  30.029  1.00  0.00    -0.237 OA
ATOM     82  O   UNL A   1      49.470  37.075  28.323  1.00  0.00    -0.744 OA
ENDBRANCH  78  79
ENDBRANCH  46  71
BRANCH  58  83
ATOM     83  C   UNL A   1      49.592  26.958  26.178  1.00  0.00     0.058 A 
ATOM     84  C   UNL A   1      49.922  27.008  24.814  1.00  0.00     0.135 A 
ATOM     85  C   UNL A   1      50.582  26.535  27.078  1.00  0.00     0.135 A 
ATOM     86  F   UNL A   1      49.010  27.404  23.911  1.00  0.00    -0.206 F 
ATOM     87  C   UNL A   1      51.181  26.634  24.356  1.00  0.00     0.059 A 
ATOM     88  C   UNL A   1      51.856  26.179  26.645  1.00  0.00     0.059 A 
ATOM     89  F   UNL A   1      50.319  26.482  28.393  1.00  0.00    -0.206 F 
ATOM     90  C   UNL A   1      52.140  26.216  25.280  1.00  0.00     0.060 A 
BRANCH  90  91
ATOM     91  S   UNL A   1      53.772  25.743  24.669  1.00  0.00     0.124 S 
ATOM     92  O   UNL A   1      54.652  26.418  25.616  1.00  0.00    -0.237 OA
ATOM     93  O   UNL A   1      53.729  24.287  24.767  1.00  0.00    -0.237 OA
ATOM     94  O   UNL A   1      53.791  26.271  23.307  1.00  0.00    -0.744 OA
ENDBRANCH  90  91
ENDBRANCH  58  83
ENDBRANCH  32  33
ENDBRANCH  25  27
ENDBRANCH  24  25
ENDBRANCH  23  24
ENDBRANCH   1  23
TORSDOF 17
ENDMDL
MODEL 2
REMARK VINA RESULT:     -11.5      6.363     12.414
REMARK SMILES COC(=O)c1ccc(Cl)c(-c2ccc(C(=O)OCCOC(=O)c3ccc(-c4c5nc(c(-c6c(F)cc(S(=O)(=O)[O-])cc6F)c6ccc([nH]6)c(-c6c(F)cc(S(=O)(=O)[O-])cc6F)c6nc(c(-c7c(F)cc(S(=O)(=O)[O-])cc7F)c7ccc4[nH]7)C=C6)C=C5)cc3)c(F)c2)c1
REMARK SMILES IDX 18 1 17 2 15 3 16 4 14 5 11 6 12 7 91 8 13 9 89 10 90 11
REMARK SMILES IDX 10 12 5 13 6 14 92 15 7 16 8 17 9 18 3 19 4 20 2 21 1 22
REMARK SMILES IDX 19 23 20 24 21 25 22 26 23 27 24 28 88 29 25 30 87 31 26 32
REMARK SMILES IDX 27 33 28 34 81 35 29 36 86 37 80 38 82 39 30 40 85 41 79 42
REMARK SMILES IDX 78 43 31 45 65 46 44 47 64 48 45 49 48 50 63 51 83 52 46 53
REMARK SMILES IDX 47 54 62 56 84 57 49 58 32 59 33 60 42 61 34 62 35 63 41 64
REMARK SMILES IDX 43 65 36 66 37 67 38 68 39 69 40 70 66 71 67 72 76 73 68 74
REMARK SMILES IDX 69 75 75 76 77 77 70 78 71 79 72 80 73 81 74 82 50 83 51 84
REMARK SMILES IDX 60 85 52 86 53 87 59 88 61 89 54 90 55 91 56 92 57 93 58 94
REMARK H PARENT 82 44 48 55
REMARK Flexibility Score: inf
ROOT
ATOM      1  C   UNL A   1      42.636  21.585  26.014  1.00  0.00     0.275 C 
ENDROOT
BRANCH   1   2
ATOM      2  O   UNL A   1      41.278  21.853  25.610  1.00  0.00    -0.458 OA
BRANCH   2   3
ATOM      3  C   UNL A   1      40.322  21.536  26.515  1.00  0.00     0.341 C 
ATOM      4  O   UNL A   1      40.493  20.947  27.571  1.00  0.00    -0.246 OA
BRANCH   3   5
ATOM      5  C   UNL A   1      39.011  22.104  26.145  1.00  0.00     0.095 A 
ATOM      6  C   UNL A   1      36.518  23.285  25.559  1.00  0.00    -0.014 A 
ATOM      7  C   UNL A   1      37.508  24.008  26.236  1.00  0.00     0.010 A 
ATOM      8  C   UNL A   1      36.794  21.960  25.180  1.00  0.00     0.049 A 
ATOM      9  C   UNL A   1      38.724  23.413  26.554  1.00  0.00     0.019 A 
ATOM     10  C   UNL A   1      38.036  21.382  25.465  1.00  0.00     0.138 A 
ATOM     11  F   UNL A   1      38.230  20.097  25.131  1.00  0.00    -0.206 F 
BRANCH   6  12
ATOM     12  C   UNL A   1      35.189  23.883  25.392  1.00  0.00     0.001 A 
ATOM     13  C   UNL A   1      33.717  25.239  23.989  1.00  0.00     0.060 A 
ATOM     14  C   UNL A   1      32.631  24.938  24.814  1.00  0.00     0.017 A 
ATOM     15  C   UNL A   1      34.978  24.707  24.271  1.00  0.00     0.026 A 
ATOM     16  C   UNL A   1      32.821  24.123  25.934  1.00  0.00     0.022 A 
ATOM     17  C   UNL A   1      34.090  23.607  26.226  1.00  0.00     0.048 A 
ATOM     18  Cl  UNL A   1      34.248  22.627  27.642  1.00  0.00    -0.084 Cl
BRANCH  13  19
ATOM     19  C   UNL A   1      33.596  26.111  22.796  1.00  0.00     0.337 C 
ATOM     20  O   UNL A   1      33.575  25.695  21.655  1.00  0.00    -0.246 OA
BRANCH  19  21
ATOM     21  O   UNL A   1      33.640  27.411  23.183  1.00  0.00    -0.465 OA
ATOM     22  C   UNL A   1      32.570  28.195  22.659  1.00  0.00     0.282 C 
ENDBRANCH  19  21
ENDBRANCH  13  19
ENDBRANCH   6  12
ENDBRANCH   3   5
ENDBRANCH   2   3
ENDBRANCH   1   2
BRANCH   1  23
ATOM     23  C   UNL A   1      43.443  22.879  26.117  1.00  0.00     0.275 C 
BRANCH  23  24
ATOM     24  O   UNL A   1      42.746  23.848  26.922  1.00  0.00    -0.458 OA
BRANCH  24  25
ATOM     25  C   UNL A   1      42.560  25.055  26.340  1.00  0.00     0.338 C 
ATOM     26  O   UNL A   1      42.735  25.349  25.170  1.00  0.00    -0.246 OA
BRANCH  25  27
ATOM     27  C   UNL A   1      42.032  26.014  27.323  1.00  0.00     0.060 A 
ATOM     28  C   UNL A   1      42.695  27.226  27.477  1.00  0.00     0.016 A 
ATOM     29  C   UNL A   1      41.019  25.655  28.208  1.00  0.00     0.016 A 
ATOM     30  C   UNL A   1      42.436  28.033  28.582  1.00  0.00     0.010 A 
ATOM     31  C   UNL A   1      40.683  26.522  29.256  1.00  0.00     0.010 A 
ATOM     32  C   UNL A   1      41.417  27.701  29.488  1.00  0.00    -0.014 A 
BRANCH  32  33
ATOM     33  C   UNL A   1      41.160  28.551  30.693  1.00  0.00     0.031 A 
ATOM     34  C   UNL A   1      40.020  29.544  30.694  1.00  0.00     0.074 A 
ATOM     35  C   UNL A   1      41.912  28.418  31.807  1.00  0.00     0.049 A 
ATOM     36  N   UNL A   1      39.748  30.493  31.555  1.00  0.00    -0.248 NA
ATOM     37  C   UNL A   1      39.065  29.466  29.576  1.00  0.00     0.031 C 
ATOM     38  C   UNL A   1      43.006  27.460  31.986  1.00  0.00     0.029 A 
ATOM     39  N   UNL A   1      41.864  29.082  33.011  1.00  0.00    -0.354 N 
ATOM     40  C   UNL A   1      38.626  31.151  31.060  1.00  0.00     0.074 A 
ATOM     41  C   UNL A   1      38.274  30.504  29.816  1.00  0.00     0.031 C 
ATOM     42  C   UNL A   1      43.478  27.554  33.238  1.00  0.00     0.029 A 
ATOM     43  C   UNL A   1      42.800  28.648  33.922  1.00  0.00     0.049 A 
ATOM     44  H   UNL A   1      41.218  29.800  33.203  1.00  0.00     0.167 HD
ATOM     45  C   UNL A   1      37.947  32.194  31.598  1.00  0.00     0.037 A 
ATOM     46  C   UNL A   1      43.113  29.101  35.153  1.00  0.00     0.037 A 
ATOM     47  C   UNL A   1      38.264  32.799  32.867  1.00  0.00     0.049 A 
ATOM     48  C   UNL A   1      42.389  30.301  35.700  1.00  0.00     0.074 A 
ATOM     49  C   UNL A   1      37.651  33.876  33.484  1.00  0.00     0.029 A 
ATOM     50  N   UNL A   1      39.259  32.361  33.729  1.00  0.00    -0.354 N 
ATOM     51  N   UNL A   1      41.399  30.978  35.170  1.00  0.00    -0.248 NA
ATOM     52  C   UNL A   1      42.843  30.816  36.999  1.00  0.00     0.031 C 
ATOM     53  C   UNL A   1      38.291  34.107  34.705  1.00  0.00     0.029 A 
ATOM     54  C   UNL A   1      39.277  33.147  34.870  1.00  0.00     0.049 A 
ATOM     55  H   UNL A   1      39.865  31.605  33.555  1.00  0.00     0.167 HD
ATOM     56  C   UNL A   1      41.101  31.986  36.078  1.00  0.00     0.074 A 
ATOM     57  C   UNL A   1      42.004  31.824  37.198  1.00  0.00     0.031 C 
ATOM     58  C   UNL A   1      40.168  32.964  35.986  1.00  0.00     0.037 A 
BRANCH  45  59
ATOM     59  C   UNL A   1      36.789  32.765  30.824  1.00  0.00     0.058 A 
ATOM     60  C   UNL A   1      37.011  33.708  29.806  1.00  0.00     0.135 A 
ATOM     61  C   UNL A   1      35.459  32.448  31.142  1.00  0.00     0.135 A 
ATOM     62  F   UNL A   1      38.262  34.046  29.458  1.00  0.00    -0.206 F 
ATOM     63  C   UNL A   1      35.957  34.333  29.147  1.00  0.00     0.059 A 
ATOM     64  C   UNL A   1      34.388  33.043  30.478  1.00  0.00     0.059 A 
ATOM     65  F   UNL A   1      35.191  31.539  32.091  1.00  0.00    -0.206 F 
ATOM     66  C   UNL A   1      34.648  33.997  29.493  1.00  0.00     0.060 A 
BRANCH  66  67
ATOM     67  S   UNL A   1      33.291  34.807  28.619  1.00  0.00     0.124 S 
ATOM     68  O   UNL A   1      32.410  35.188  29.718  1.00  0.00    -0.237 OA
ATOM     69  O   UNL A   1      33.975  35.905  27.942  1.00  0.00    -0.237 OA
ATOM     70  O   UNL A   1      32.782  33.759  27.738  1.00  0.00    -0.744 OA
ENDBRANCH  66  67
ENDBRANCH  45  59
BRANCH  46  71
ATOM     71  C   UNL A   1      44.186  28.437  35.944  1.00  0.00     0.058 A 
ATOM     72  C   UNL A   1      43.897  27.406  36.851  1.00  0.00     0.135 A 
ATOM     73  C   UNL A   1      45.527  28.832  35.811  1.00  0.00     0.135 A 
ATOM     74  F   UNL A   1      42.632  26.990  37.018  1.00  0.00    -0.206 F 
ATOM     75  C   UNL A   1      44.891  26.811  37.619  1.00  0.00     0.059 A 
ATOM     76  C   UNL A   1      46.544  28.229  36.545  1.00  0.00     0.059 A 
ATOM     77  F   UNL A   1      45.856  29.800  34.942  1.00  0.00    -0.206 F 
ATOM     78  C   UNL A   1      46.212  27.230  37.461  1.00  0.00     0.060 A 
BRANCH  78  79
ATOM     79  S   UNL A   1      47.490  26.435  38.458  1.00  0.00     0.124 S 
ATOM     80  O   UNL A   1      48.660  26.579  37.600  1.00  0.00    -0.237 OA
ATOM     81  O   UNL A   1      47.485  27.250  39.668  1.00  0.00    -0.237 OA
ATOM     82  O   UNL A   1      46.992  25.073  38.621  1.00  0.00    -0.744 OA
ENDBRANCH  78  79
ENDBRANCH  46  71
BRANCH  58  83
ATOM     83  C   UNL A   1      40.039  33.915  37.143  1.00  0.00     0.058 A 
ATOM     84  C   UNL A   1      39.157  33.634  38.198  1.00  0.00     0.135 A 
ATOM     85  C   UNL A   1      40.733  35.134  37.174  1.00  0.00     0.135 A 
ATOM     86  F   UNL A   1      38.467  32.482  38.215  1.00  0.00    -0.206 F 
ATOM     87  C   UNL A   1      38.955  34.536  39.237  1.00  0.00     0.059 A 
ATOM     88  C   UNL A   1      40.565  36.042  38.216  1.00  0.00     0.059 A 
ATOM     89  F   UNL A   1      41.597  35.443  36.194  1.00  0.00    -0.206 F 
ATOM     90  C   UNL A   1      39.660  35.740  39.234  1.00  0.00     0.060 A 
BRANCH  90  91
ATOM     91  S   UNL A   1      39.393  36.896  40.595  1.00  0.00     0.124 S 
ATOM     92  O   UNL A   1      40.758  37.154  41.041  1.00  0.00    -0.237 OA
ATOM     93  O   UNL A   1      38.721  38.008  39.930  1.00  0.00    -0.237 OA
ATOM     94  O   UNL A   1      38.561  36.138  41.526  1.00  0.00    -0.744 OA
ENDBRANCH  90  91
ENDBRANCH  58  83
ENDBRANCH  32  33
ENDBRANCH  25  27
ENDBRANCH  24  25
ENDBRANCH  23  24
ENDBRANCH   1  23
TORSDOF 17
ENDMDL
MODEL 3
REMARK VINA RESULT:     -11.3      0.700      8.325
REMARK SMILES COC(=O)c1ccc(Cl)c(-c2ccc(C(=O)OCCOC(=O)c3ccc(-c4c5nc(c(-c6c(F)cc(S(=O)(=O)[O-])cc6F)c6ccc([nH]6)c(-c6c(F)cc(S(=O)(=O)[O-])cc6F)c6nc(c(-c7c(F)cc(S(=O)(=O)[O-])cc7F)c7ccc4[nH]7)C=C6)C=C5)cc3)c(F)c2)c1
REMARK SMILES IDX 18 1 17 2 15 3 16 4 14 5 11 6 12 7 91 8 13 9 89 10 90 11
REMARK SMILES IDX 10 12 5 13 6 14 92 15 7 16 8 17 9 18 3 19 4 20 2 21 1 22
REMARK SMILES IDX 19 23 20 24 21 25 22 26 23 27 24 28 88 29 25 30 87 31 26 32
REMARK SMILES IDX 27 33 28 34 81 35 29 36 86 37 80 38 82 39 30 40 85 41 79 42
REMARK SMILES IDX 78 43 31 45 65 46 44 47 64 48 45 49 48 50 63 51 83 52 46 53
REMARK SMILES IDX 47 54 62 56 84 57 49 58 32 59 33 60 42 61 34 62 35 63 41 64
REMARK SMILES IDX 43 65 36 66 37 67 38 68 39 69 40 70 66 71 67 72 76 73 68 74
REMARK SMILES IDX 69 75 75 76 77 77 70 78 71 79 72 80 73 81 74 82 50 83 51 84
REMARK SMILES IDX 60 85 52 86 53 87 59 88 61 89 54 90 55 91 56 92 57 93 58 94
REMARK H PARENT 82 44 48 55
REMARK Flexibility Score: inf
ROOT
ATOM      1  C   UNL A   1      34.352  33.439  29.909  1.00  0.00     0.275 C 
ENDROOT
BRANCH   1   2
ATOM      2  O   UNL A   1      34.508  32.879  28.590  1.00  0.00    -0.458 OA
BRANCH   2   3
ATOM      3  C   UNL A   1      33.362  32.683  27.895  1.00  0.00     0.341 C 
ATOM      4  O   UNL A   1      32.520  33.530  27.636  1.00  0.00    -0.246 OA
BRANCH   3   5
ATOM      5  C   UNL A   1      33.281  31.314  27.350  1.00  0.00     0.095 A 
ATOM      6  C   UNL A   1      33.280  28.697  26.300  1.00  0.00    -0.014 A 
ATOM      7  C   UNL A   1      34.385  29.179  27.012  1.00  0.00     0.010 A 
ATOM      8  C   UNL A   1      32.174  29.546  26.120  1.00  0.00     0.049 A 
ATOM      9  C   UNL A   1      34.398  30.482  27.500  1.00  0.00     0.019 A 
ATOM     10  C   UNL A   1      32.176  30.840  26.652  1.00  0.00     0.138 A 
ATOM     11  F   UNL A   1      31.119  31.629  26.405  1.00  0.00    -0.206 F 
BRANCH   6  12
ATOM     12  C   UNL A   1      33.368  27.383  25.652  1.00  0.00     0.001 A 
ATOM     13  C   UNL A   1      32.938  24.983  25.826  1.00  0.00     0.060 A 
ATOM     14  C   UNL A   1      33.279  24.812  24.482  1.00  0.00     0.017 A 
ATOM     15  C   UNL A   1      32.973  26.258  26.399  1.00  0.00     0.026 A 
ATOM     16  C   UNL A   1      33.676  25.917  23.725  1.00  0.00     0.022 A 
ATOM     17  C   UNL A   1      33.730  27.191  24.306  1.00  0.00     0.048 A 
ATOM     18  Cl  UNL A   1      34.254  28.503  23.310  1.00  0.00    -0.084 Cl
BRANCH  13  19
ATOM     19  C   UNL A   1      32.527  23.856  26.696  1.00  0.00     0.337 C 
ATOM     20  O   UNL A   1      33.141  22.812  26.784  1.00  0.00    -0.246 OA
BRANCH  19  21
ATOM     21  O   UNL A   1      31.323  24.136  27.256  1.00  0.00    -0.465 OA
ATOM     22  C   UNL A   1      30.275  23.280  26.805  1.00  0.00     0.282 C 
ENDBRANCH  19  21
ENDBRANCH  13  19
ENDBRANCH   6  12
ENDBRANCH   3   5
ENDBRANCH   2   3
ENDBRANCH   1   2
BRANCH   1  23
ATOM     23  C   UNL A   1      35.634  33.282  30.726  1.00  0.00     0.275 C 
BRANCH  23  24
ATOM     24  O   UNL A   1      36.521  32.338  30.100  1.00  0.00    -0.458 OA
BRANCH  24  25
ATOM     25  C   UNL A   1      36.653  31.155  30.744  1.00  0.00     0.338 C 
ATOM     26  O   UNL A   1      35.914  30.686  31.592  1.00  0.00    -0.246 OA
BRANCH  25  27
ATOM     27  C   UNL A   1      37.824  30.428  30.230  1.00  0.00     0.060 A 
ATOM     28  C   UNL A   1      38.712  29.884  31.150  1.00  0.00     0.016 A 
ATOM     29  C   UNL A   1      38.143  30.441  28.875  1.00  0.00     0.016 A 
ATOM     30  C   UNL A   1      39.974  29.457  30.741  1.00  0.00     0.010 A 
ATOM     31  C   UNL A   1      39.368  29.909  28.451  1.00  0.00     0.010 A 
ATOM     32  C   UNL A   1      40.322  29.452  29.382  1.00  0.00    -0.014 A 
BRANCH  32  33
ATOM     33  C   UNL A   1      41.688  29.025  28.944  1.00  0.00     0.031 A 
ATOM     34  C   UNL A   1      42.844  29.998  29.000  1.00  0.00     0.074 A 
ATOM     35  C   UNL A   1      41.919  27.760  28.532  1.00  0.00     0.049 A 
ATOM     36  N   UNL A   1      44.048  29.885  28.498  1.00  0.00    -0.248 NA
ATOM     37  C   UNL A   1      42.612  31.271  29.704  1.00  0.00     0.031 C 
ATOM     38  C   UNL A   1      40.924  26.686  28.484  1.00  0.00     0.029 A 
ATOM     39  N   UNL A   1      43.071  27.153  28.087  1.00  0.00    -0.354 N 
ATOM     40  C   UNL A   1      44.698  31.082  28.783  1.00  0.00     0.074 A 
ATOM     41  C   UNL A   1      43.751  31.916  29.490  1.00  0.00     0.031 C 
ATOM     42  C   UNL A   1      41.518  25.546  28.098  1.00  0.00     0.029 A 
ATOM     43  C   UNL A   1      42.910  25.824  27.767  1.00  0.00     0.049 A 
ATOM     44  H   UNL A   1      43.930  27.626  28.006  1.00  0.00     0.167 HD
ATOM     45  C   UNL A   1      45.970  31.449  28.490  1.00  0.00     0.037 A 
ATOM     46  C   UNL A   1      43.768  24.933  27.230  1.00  0.00     0.037 A 
ATOM     47  C   UNL A   1      46.930  30.594  27.838  1.00  0.00     0.049 A 
ATOM     48  C   UNL A   1      45.153  25.383  26.853  1.00  0.00     0.074 A 
ATOM     49  C   UNL A   1      48.234  30.885  27.475  1.00  0.00     0.029 A 
ATOM     50  N   UNL A   1      46.703  29.273  27.481  1.00  0.00    -0.354 N 
ATOM     51  N   UNL A   1      45.717  26.553  27.034  1.00  0.00    -0.248 NA
ATOM     52  C   UNL A   1      46.009  24.401  26.173  1.00  0.00     0.031 C 
ATOM     53  C   UNL A   1      48.787  29.750  26.876  1.00  0.00     0.029 A 
ATOM     54  C   UNL A   1      47.842  28.737  26.902  1.00  0.00     0.049 A 
ATOM     55  H   UNL A   1      45.858  28.788  27.618  1.00  0.00     0.167 HD
ATOM     56  C   UNL A   1      46.998  26.442  26.506  1.00  0.00     0.074 A 
ATOM     57  C   UNL A   1      47.133  25.087  26.013  1.00  0.00     0.031 C 
ATOM     58  C   UNL A   1      47.971  27.382  26.432  1.00  0.00     0.037 A 
BRANCH  45  59
ATOM     59  C   UNL A   1      46.414  32.839  28.862  1.00  0.00     0.058 A 
ATOM     60  C   UNL A   1      46.254  33.902  27.956  1.00  0.00     0.135 A 
ATOM     61  C   UNL A   1      47.071  33.106  30.073  1.00  0.00     0.135 A 
ATOM     62  F   UNL A   1      45.630  33.704  26.785  1.00  0.00    -0.206 F 
ATOM     63  C   UNL A   1      46.752  35.172  28.227  1.00  0.00     0.059 A 
ATOM     64  C   UNL A   1      47.555  34.376  30.376  1.00  0.00     0.059 A 
ATOM     65  F   UNL A   1      47.231  32.132  30.982  1.00  0.00    -0.206 F 
ATOM     66  C   UNL A   1      47.404  35.399  29.439  1.00  0.00     0.060 A 
BRANCH  66  67
ATOM     67  S   UNL A   1      48.032  37.058  29.782  1.00  0.00     0.124 S 
ATOM     68  O   UNL A   1      46.895  37.677  30.456  1.00  0.00    -0.237 OA
ATOM     69  O   UNL A   1      49.194  36.779  30.620  1.00  0.00    -0.237 OA
ATOM     70  O   UNL A   1      48.339  37.584  28.455  1.00  0.00    -0.744 OA
ENDBRANCH  66  67
ENDBRANCH  45  59
BRANCH  46  71
ATOM     71  C   UNL A   1      43.334  23.530  26.984  1.00  0.00     0.058 A 
ATOM     72  C   UNL A   1      43.219  22.604  28.032  1.00  0.00     0.135 A 
ATOM     73  C   UNL A   1      43.031  23.088  25.686  1.00  0.00     0.135 A 
ATOM     74  F   UNL A   1      43.498  22.973  29.291  1.00  0.00    -0.206 F 
ATOM     75  C   UNL A   1      42.852  21.284  27.800  1.00  0.00     0.059 A 
ATOM     76  C   UNL A   1      42.630  21.779  25.433  1.00  0.00     0.059 A 
ATOM     77  F   UNL A   1      43.106  23.942  24.654  1.00  0.00    -0.206 F 
ATOM     78  C   UNL A   1      42.560  20.879  26.497  1.00  0.00     0.060 A 
BRANCH  78  79
ATOM     79  S   UNL A   1      42.071  19.164  26.220  1.00  0.00     0.124 S 
ATOM     80  O   UNL A   1      42.312  18.577  27.533  1.00  0.00    -0.237 OA
ATOM     81  O   UNL A   1      40.671  19.303  25.834  1.00  0.00    -0.237 OA
ATOM     82  O   UNL A   1      42.971  18.724  25.158  1.00  0.00    -0.744 OA
ENDBRANCH  78  79
ENDBRANCH  46  71
BRANCH  58  83
ATOM     83  C   UNL A   1      49.287  26.976  25.832  1.00  0.00     0.058 A 
ATOM     84  C   UNL A   1      50.314  26.475  26.648  1.00  0.00     0.135 A 
ATOM     85  C   UNL A   1      49.558  27.146  24.466  1.00  0.00     0.135 A 
ATOM     86  F   UNL A   1      50.108  26.295  27.962  1.00  0.00    -0.206 F 
ATOM     87  C   UNL A   1      51.570  26.172  26.132  1.00  0.00     0.059 A 
ATOM     88  C   UNL A   1      50.800  26.827  23.923  1.00  0.00     0.059 A 
ATOM     89  F   UNL A   1      48.604  27.610  23.642  1.00  0.00    -0.206 F 
ATOM     90  C   UNL A   1      51.804  26.357  24.769  1.00  0.00     0.060 A 
BRANCH  90  91
ATOM     91  S   UNL A   1      53.438  25.950  24.115  1.00  0.00     0.124 S 
ATOM     92  O   UNL A   1      53.642  24.604  24.638  1.00  0.00    -0.237 OA
ATOM     93  O   UNL A   1      53.226  26.047  22.674  1.00  0.00    -0.237 OA
ATOM     94  O   UNL A   1      54.298  26.984  24.685  1.00  0.00    -0.744 OA
ENDBRANCH  90  91
ENDBRANCH  58  83
ENDBRANCH  32  33
ENDBRANCH  25  27
ENDBRANCH  24  25
ENDBRANCH  23  24
ENDBRANCH   1  23
TORSDOF 17
ENDMDL
