MODEL 1
REMARK VINA RESULT:     -11.0      0.000      0.000
REMARK SMILES C[NH2+][C@]1(C(=O)OCCOC(=O)c2ccc(-c3c4nc(c(-c5c(F)cc(S(=O)(=O)[O-])cc5F)c5ccc([nH]5)c(-c5c(F)cc(S(=O)(=O)[O-])cc5F)c5nc(c(-c6c(F)cc(S(=O)(=O)[O-])cc6F)c6ccc3[nH]6)C=C5)C=C4)cc2)CCC[C@@H](OCC2CCCCC2)C1
REMARK SMILES IDX 7 1 6 2 4 3 5 4 3 5 78 6 90 7 79 8 81 9 80 10 2 11 1 12
REMARK SMILES IDX 82 15 83 16 84 17 85 18 89 19 86 20 88 21 87 22 8 23 9 24
REMARK SMILES IDX 10 25 11 26 12 27 13 28 77 29 14 30 76 31 15 32 16 33 17 34
REMARK SMILES IDX 70 35 18 36 75 37 69 38 71 39 19 40 74 41 68 42 67 43 20 45
REMARK SMILES IDX 54 46 33 47 53 48 34 49 37 50 52 51 72 52 35 53 36 54 51 56
REMARK SMILES IDX 73 57 38 58 21 59 22 60 31 61 23 62 24 63 30 64 32 65 25 66
REMARK SMILES IDX 26 67 27 68 28 69 29 70 55 71 56 72 65 73 57 74 58 75 64 76
REMARK SMILES IDX 66 77 59 78 60 79 61 80 62 81 63 82 39 83 40 84 49 85 41 86
REMARK SMILES IDX 42 87 48 88 50 89 43 90 44 91 45 92 46 93 47 94
REMARK H PARENT 2 13 2 14 71 44 37 55
REMARK Flexibility Score: inf
ROOT
ATOM      1  C   UNL A   1      38.094  22.246  25.686  1.00  0.00     0.274 C 
ENDROOT
BRANCH   1   2
ATOM      2  O   UNL A   1      37.050  23.219  25.496  1.00  0.00    -0.457 OA
BRANCH   2   3
ATOM      3  C   UNL A   1      36.205  23.008  24.445  1.00  0.00     0.368 C 
ATOM      4  O   UNL A   1      36.597  22.834  23.295  1.00  0.00    -0.245 OA
BRANCH   3   5
ATOM      5  C   UNL A   1      34.698  23.130  24.858  1.00  0.00     0.196 C 
ATOM      6  C   UNL A   1      33.805  23.340  23.617  1.00  0.00     0.081 C 
ATOM      7  C   UNL A   1      34.259  21.764  25.435  1.00  0.00     0.113 C 
ATOM      8  C   UNL A   1      32.341  23.591  23.965  1.00  0.00     0.010 C 
ATOM      9  C   UNL A   1      32.727  21.574  25.592  1.00  0.00     0.125 C 
ATOM     10  C   UNL A   1      31.812  22.713  25.098  1.00  0.00     0.032 C 
BRANCH   5  11
ATOM     11  N   UNL A   1      34.423  24.258  25.796  1.00  0.00    -0.334 N 
ATOM     12  C   UNL A   1      34.444  25.618  25.281  1.00  0.00     0.331 C 
ATOM     13  H   UNL A   1      33.496  24.101  26.190  1.00  0.00     0.347 HD
ATOM     14  H   UNL A   1      35.204  24.231  26.451  1.00  0.00     0.347 HD
ENDBRANCH   5  11
BRANCH   9  15
ATOM     15  O   UNL A   1      32.124  20.302  25.286  1.00  0.00    -0.378 OA
BRANCH  15  16
ATOM     16  C   UNL A   1      32.291  19.666  24.030  1.00  0.00     0.164 C 
BRANCH  16  17
ATOM     17  C   UNL A   1      32.499  18.131  24.066  1.00  0.00     0.015 C 
ATOM     18  C   UNL A   1      33.729  17.675  23.283  1.00  0.00     0.006 C 
ATOM     19  C   UNL A   1      32.562  17.690  25.541  1.00  0.00     0.006 C 
ATOM     20  C   UNL A   1      34.198  16.251  23.546  1.00  0.00     0.000 C 
ATOM     21  C   UNL A   1      33.000  16.241  25.728  1.00  0.00     0.000 C 
ATOM     22  C   UNL A   1      34.329  15.981  25.036  1.00  0.00     0.000 C 
ENDBRANCH  16  17
ENDBRANCH  15  16
ENDBRANCH   9  15
ENDBRANCH   3   5
ENDBRANCH   2   3
ENDBRANCH   1   2
BRANCH   1  23
ATOM     23  C   UNL A   1      39.200  22.808  26.580  1.00  0.00     0.275 C 
BRANCH  23  24
ATOM     24  O   UNL A   1      39.115  24.241  26.683  1.00  0.00    -0.458 OA
BRANCH  24  25
ATOM     25  C   UNL A   1      40.305  24.886  26.643  1.00  0.00     0.338 C 
ATOM     26  O   UNL A   1      41.159  24.797  25.767  1.00  0.00    -0.246 OA
BRANCH  25  27
ATOM     27  C   UNL A   1      40.409  25.824  27.771  1.00  0.00     0.060 A 
ATOM     28  C   UNL A   1      39.392  25.829  28.727  1.00  0.00     0.016 A 
ATOM     29  C   UNL A   1      41.455  26.743  27.860  1.00  0.00     0.016 A 
ATOM     30  C   UNL A   1      39.410  26.722  29.785  1.00  0.00     0.010 A 
ATOM     31  C   UNL A   1      41.462  27.671  28.908  1.00  0.00     0.010 A 
ATOM     32  C   UNL A   1      40.435  27.663  29.866  1.00  0.00    -0.014 A 
BRANCH  32  33
ATOM     33  C   UNL A   1      40.344  28.690  30.918  1.00  0.00     0.031 A 
ATOM     34  C   UNL A   1      41.267  28.604  32.095  1.00  0.00     0.074 A 
ATOM     35  C   UNL A   1      39.511  29.731  30.759  1.00  0.00     0.049 A 
ATOM     36  N   UNL A   1      41.341  29.380  33.142  1.00  0.00    -0.248 NA
ATOM     37  C   UNL A   1      42.251  27.508  32.081  1.00  0.00     0.031 C 
ATOM     38  C   UNL A   1      38.659  29.957  29.591  1.00  0.00     0.029 A 
ATOM     39  N   UNL A   1      39.247  30.795  31.581  1.00  0.00    -0.354 N 
ATOM     40  C   UNL A   1      42.376  28.868  33.915  1.00  0.00     0.074 A 
ATOM     41  C   UNL A   1      42.894  27.708  33.222  1.00  0.00     0.031 C 
ATOM     42  C   UNL A   1      37.946  31.079  29.784  1.00  0.00     0.029 A 
ATOM     43  C   UNL A   1      38.263  31.624  31.102  1.00  0.00     0.049 A 
ATOM     44  H   UNL A   1      39.719  30.950  32.431  1.00  0.00     0.167 HD
ATOM     45  C   UNL A   1      42.844  29.329  35.099  1.00  0.00     0.037 A 
ATOM     46  C   UNL A   1      37.663  32.678  31.686  1.00  0.00     0.037 A 
ATOM     47  C   UNL A   1      42.294  30.470  35.782  1.00  0.00     0.049 A 
ATOM     48  C   UNL A   1      38.118  33.098  33.059  1.00  0.00     0.074 A 
ATOM     49  C   UNL A   1      42.660  31.002  37.005  1.00  0.00     0.029 A 
ATOM     50  N   UNL A   1      41.251  31.251  35.302  1.00  0.00    -0.354 N 
ATOM     51  N   UNL A   1      39.078  32.593  33.800  1.00  0.00    -0.248 NA
ATOM     52  C   UNL A   1      37.410  34.226  33.678  1.00  0.00     0.031 C 
ATOM     53  C   UNL A   1      41.805  32.072  37.288  1.00  0.00     0.029 A 
ATOM     54  C   UNL A   1      40.941  32.243  36.216  1.00  0.00     0.049 A 
ATOM     55  H   UNL A   1      40.797  31.118  34.439  1.00  0.00     0.167 HD
ATOM     56  C   UNL A   1      39.105  33.356  34.962  1.00  0.00     0.074 A 
ATOM     57  C   UNL A   1      38.072  34.364  34.818  1.00  0.00     0.031 C 
ATOM     58  C   UNL A   1      39.911  33.239  36.046  1.00  0.00     0.037 A 
BRANCH  45  59
ATOM     59  C   UNL A   1      43.959  28.560  35.747  1.00  0.00     0.058 A 
ATOM     60  C   UNL A   1      43.713  27.503  36.637  1.00  0.00     0.135 A 
ATOM     61  C   UNL A   1      45.296  28.887  35.470  1.00  0.00     0.135 A 
ATOM     62  F   UNL A   1      42.454  27.166  36.955  1.00  0.00    -0.206 F 
ATOM     63  C   UNL A   1      44.754  26.811  37.247  1.00  0.00     0.059 A 
ATOM     64  C   UNL A   1      46.353  28.192  36.050  1.00  0.00     0.059 A 
ATOM     65  F   UNL A   1      45.587  29.895  34.634  1.00  0.00    -0.206 F 
ATOM     66  C   UNL A   1      46.072  27.165  36.949  1.00  0.00     0.060 A 
BRANCH  66  67
ATOM     67  S   UNL A   1      47.414  26.264  37.755  1.00  0.00     0.124 S 
ATOM     68  O   UNL A   1      46.777  24.980  38.033  1.00  0.00    -0.237 OA
ATOM     69  O   UNL A   1      48.445  26.249  36.723  1.00  0.00    -0.237 OA
ATOM     70  O   UNL A   1      47.715  27.080  38.927  1.00  0.00    -0.744 OA
ENDBRANCH  66  67
ENDBRANCH  45  59
BRANCH  46  71
ATOM     71  C   UNL A   1      36.544  33.373  30.997  1.00  0.00     0.058 A 
ATOM     72  C   UNL A   1      36.772  34.203  29.890  1.00  0.00     0.135 A 
ATOM     73  C   UNL A   1      35.220  33.219  31.436  1.00  0.00     0.135 A 
ATOM     74  F   UNL A   1      38.021  34.390  29.438  1.00  0.00    -0.206 F 
ATOM     75  C   UNL A   1      35.729  34.867  29.251  1.00  0.00     0.059 A 
ATOM     76  C   UNL A   1      34.157  33.851  30.797  1.00  0.00     0.059 A 
ATOM     77  F   UNL A   1      34.945  32.428  32.485  1.00  0.00    -0.206 F 
ATOM     78  C   UNL A   1      34.424  34.682  29.712  1.00  0.00     0.060 A 
BRANCH  78  79
ATOM     79  S   UNL A   1      33.073  35.518  28.853  1.00  0.00     0.124 S 
ATOM     80  O   UNL A   1      33.797  36.500  28.053  1.00  0.00    -0.237 OA
ATOM     81  O   UNL A   1      32.454  34.422  28.115  1.00  0.00    -0.237 OA
ATOM     82  O   UNL A   1      32.268  36.062  29.944  1.00  0.00    -0.744 OA
ENDBRANCH  78  79
ENDBRANCH  46  71
BRANCH  58  83
ATOM     83  C   UNL A   1      39.732  34.244  37.150  1.00  0.00     0.058 A 
ATOM     84  C   UNL A   1      38.896  33.992  38.249  1.00  0.00     0.135 A 
ATOM     85  C   UNL A   1      40.454  35.448  37.135  1.00  0.00     0.135 A 
ATOM     86  F   UNL A   1      38.178  32.860  38.308  1.00  0.00    -0.206 F 
ATOM     87  C   UNL A   1      38.767  34.911  39.286  1.00  0.00     0.059 A 
ATOM     88  C   UNL A   1      40.362  36.367  38.175  1.00  0.00     0.059 A 
ATOM     89  F   UNL A   1      41.276  35.731  36.112  1.00  0.00    -0.206 F 
ATOM     90  C   UNL A   1      39.506  36.094  39.241  1.00  0.00     0.060 A 
BRANCH  90  91
ATOM     91  S   UNL A   1      39.362  37.259  40.613  1.00  0.00     0.124 S 
ATOM     92  O   UNL A   1      38.344  38.177  40.112  1.00  0.00    -0.237 OA
ATOM     93  O   UNL A   1      38.949  36.395  41.714  1.00  0.00    -0.237 OA
ATOM     94  O   UNL A   1      40.706  37.814  40.730  1.00  0.00    -0.744 OA
ENDBRANCH  90  91
ENDBRANCH  58  83
ENDBRANCH  32  33
ENDBRANCH  25  27
ENDBRANCH  24  25
ENDBRANCH  23  24
ENDBRANCH   1  23
TORSDOF 18
ENDMDL
MODEL 2
REMARK VINA RESULT:     -10.9      7.392     12.803
REMARK SMILES C[NH2+][C@]1(C(=O)OCCOC(=O)c2ccc(-c3c4nc(c(-c5c(F)cc(S(=O)(=O)[O-])cc5F)c5ccc([nH]5)c(-c5c(F)cc(S(=O)(=O)[O-])cc5F)c5nc(c(-c6c(F)cc(S(=O)(=O)[O-])cc6F)c6ccc3[nH]6)C=C5)C=C4)cc2)CCC[C@@H](OCC2CCCCC2)C1
REMARK SMILES IDX 7 1 6 2 4 3 5 4 3 5 78 6 90 7 79 8 81 9 80 10 2 11 1 12
REMARK SMILES IDX 82 15 83 16 84 17 85 18 89 19 86 20 88 21 87 22 8 23 9 24
REMARK SMILES IDX 10 25 11 26 12 27 13 28 77 29 14 30 76 31 15 32 16 33 17 34
REMARK SMILES IDX 70 35 18 36 75 37 69 38 71 39 19 40 74 41 68 42 67 43 20 45
REMARK SMILES IDX 54 46 33 47 53 48 34 49 37 50 52 51 72 52 35 53 36 54 51 56
REMARK SMILES IDX 73 57 38 58 21 59 22 60 31 61 23 62 24 63 30 64 32 65 25 66
REMARK SMILES IDX 26 67 27 68 28 69 29 70 55 71 56 72 65 73 57 74 58 75 64 76
REMARK SMILES IDX 66 77 59 78 60 79 61 80 62 81 63 82 39 83 40 84 49 85 41 86
REMARK SMILES IDX 42 87 48 88 50 89 43 90 44 91 45 92 46 93 47 94
REMARK H PARENT 2 13 2 14 71 44 37 55
REMARK Flexibility Score: inf
ROOT
ATOM      1  C   UNL A   1      34.144  29.499  27.239  1.00  0.00     0.274 C 
ENDROOT
BRANCH   1   2
ATOM      2  O   UNL A   1      32.951  29.504  26.433  1.00  0.00    -0.457 OA
BRANCH   2   3
ATOM      3  C   UNL A   1      32.025  28.540  26.710  1.00  0.00     0.368 C 
ATOM      4  O   UNL A   1      31.508  28.405  27.815  1.00  0.00    -0.245 OA
BRANCH   3   5
ATOM      5  C   UNL A   1      31.795  27.570  25.500  1.00  0.00     0.196 C 
ATOM      6  C   UNL A   1      30.531  26.712  25.717  1.00  0.00     0.081 C 
ATOM      7  C   UNL A   1      31.476  28.438  24.260  1.00  0.00     0.113 C 
ATOM      8  C   UNL A   1      30.324  25.660  24.633  1.00  0.00     0.010 C 
ATOM      9  C   UNL A   1      30.893  27.666  23.046  1.00  0.00     0.125 C 
ATOM     10  C   UNL A   1      30.627  26.157  23.220  1.00  0.00     0.032 C 
BRANCH   5  11
ATOM     11  N   UNL A   1      32.931  26.632  25.260  1.00  0.00    -0.334 N 
ATOM     12  C   UNL A   1      34.007  27.048  24.375  1.00  0.00     0.331 C 
ATOM     13  H   UNL A   1      33.350  26.430  26.167  1.00  0.00     0.347 HD
ATOM     14  H   UNL A   1      32.503  25.845  24.774  1.00  0.00     0.347 HD
ENDBRANCH   5  11
BRANCH   9  15
ATOM     15  O   UNL A   1      29.842  28.255  22.256  1.00  0.00    -0.378 OA
BRANCH  15  16
ATOM     16  C   UNL A   1      28.540  28.479  22.772  1.00  0.00     0.164 C 
BRANCH  16  17
ATOM     17  C   UNL A   1      28.006  29.930  22.667  1.00  0.00     0.015 C 
ATOM     18  C   UNL A   1      28.645  30.878  23.680  1.00  0.00     0.006 C 
ATOM     19  C   UNL A   1      28.213  30.413  21.218  1.00  0.00     0.006 C 
ATOM     20  C   UNL A   1      28.440  32.364  23.425  1.00  0.00     0.000 C 
ATOM     21  C   UNL A   1      27.952  31.903  21.028  1.00  0.00     0.000 C 
ATOM     22  C   UNL A   1      28.790  32.730  21.991  1.00  0.00     0.000 C 
ENDBRANCH  16  17
ENDBRANCH  15  16
ENDBRANCH   9  15
ENDBRANCH   3   5
ENDBRANCH   2   3
ENDBRANCH   1   2
BRANCH   1  23
ATOM     23  C   UNL A   1      34.355  30.862  27.900  1.00  0.00     0.275 C 
BRANCH  23  24
ATOM     24  O   UNL A   1      35.754  31.186  27.999  1.00  0.00    -0.458 OA
BRANCH  24  25
ATOM     25  C   UNL A   1      36.351  30.785  29.146  1.00  0.00     0.338 C 
ATOM     26  O   UNL A   1      35.873  30.826  30.275  1.00  0.00    -0.246 OA
BRANCH  25  27
ATOM     27  C   UNL A   1      37.657  30.176  28.850  1.00  0.00     0.060 A 
ATOM     28  C   UNL A   1      38.552  29.980  29.903  1.00  0.00     0.016 A 
ATOM     29  C   UNL A   1      38.035  29.863  27.544  1.00  0.00     0.016 A 
ATOM     30  C   UNL A   1      39.813  29.456  29.679  1.00  0.00     0.010 A 
ATOM     31  C   UNL A   1      39.321  29.364  27.307  1.00  0.00     0.010 A 
ATOM     32  C   UNL A   1      40.212  29.167  28.376  1.00  0.00    -0.014 A 
BRANCH  32  33
ATOM     33  C   UNL A   1      41.608  28.751  28.158  1.00  0.00     0.031 A 
ATOM     34  C   UNL A   1      42.692  29.782  28.241  1.00  0.00     0.074 A 
ATOM     35  C   UNL A   1      41.893  27.450  27.986  1.00  0.00     0.049 A 
ATOM     36  N   UNL A   1      43.977  29.642  28.058  1.00  0.00    -0.248 NA
ATOM     37  C   UNL A   1      42.274  31.148  28.597  1.00  0.00     0.031 C 
ATOM     38  C   UNL A   1      40.913  26.363  28.005  1.00  0.00     0.029 A 
ATOM     39  N   UNL A   1      43.090  26.823  27.764  1.00  0.00    -0.354 N 
ATOM     40  C   UNL A   1      44.524  30.901  28.274  1.00  0.00     0.074 A 
ATOM     41  C   UNL A   1      43.431  31.794  28.590  1.00  0.00     0.031 C 
ATOM     42  C   UNL A   1      41.549  25.201  27.777  1.00  0.00     0.029 A 
ATOM     43  C   UNL A   1      42.968  25.471  27.558  1.00  0.00     0.049 A 
ATOM     44  H   UNL A   1      43.954  27.295  27.756  1.00  0.00     0.167 HD
ATOM     45  C   UNL A   1      45.824  31.270  28.207  1.00  0.00     0.037 A 
ATOM     46  C   UNL A   1      43.897  24.566  27.193  1.00  0.00     0.037 A 
ATOM     47  C   UNL A   1      46.892  30.369  27.864  1.00  0.00     0.049 A 
ATOM     48  C   UNL A   1      45.318  25.025  27.005  1.00  0.00     0.074 A 
ATOM     49  C   UNL A   1      48.241  30.642  27.726  1.00  0.00     0.029 A 
ATOM     50  N   UNL A   1      46.728  29.016  27.594  1.00  0.00    -0.354 N 
ATOM     51  N   UNL A   1      45.827  26.224  27.181  1.00  0.00    -0.248 NA
ATOM     52  C   UNL A   1      46.291  24.017  26.567  1.00  0.00     0.031 C 
ATOM     53  C   UNL A   1      48.884  29.466  27.323  1.00  0.00     0.029 A 
ATOM     54  C   UNL A   1      47.945  28.447  27.264  1.00  0.00     0.049 A 
ATOM     55  H   UNL A   1      45.870  28.534  27.632  1.00  0.00     0.167 HD
ATOM     56  C   UNL A   1      47.183  26.107  26.899  1.00  0.00     0.074 A 
ATOM     57  C   UNL A   1      47.416  24.719  26.552  1.00  0.00     0.031 C 
ATOM     58  C   UNL A   1      48.150  27.059  26.927  1.00  0.00     0.037 A 
BRANCH  45  59
ATOM     59  C   UNL A   1      46.145  32.717  28.452  1.00  0.00     0.058 A 
ATOM     60  C   UNL A   1      46.104  33.671  27.423  1.00  0.00     0.135 A 
ATOM     61  C   UNL A   1      46.495  33.155  29.739  1.00  0.00     0.135 A 
ATOM     62  F   UNL A   1      45.798  33.301  26.169  1.00  0.00    -0.206 F 
ATOM     63  C   UNL A   1      46.422  35.005  27.656  1.00  0.00     0.059 A 
ATOM     64  C   UNL A   1      46.794  34.489  30.000  1.00  0.00     0.059 A 
ATOM     65  F   UNL A   1      46.559  32.283  30.756  1.00  0.00    -0.206 F 
ATOM     66  C   UNL A   1      46.769  35.404  28.949  1.00  0.00     0.060 A 
BRANCH  66  67
ATOM     67  S   UNL A   1      47.187  37.137  29.237  1.00  0.00     0.124 S 
ATOM     68  O   UNL A   1      48.646  37.082  29.277  1.00  0.00    -0.237 OA
ATOM     69  O   UNL A   1      46.611  37.796  28.069  1.00  0.00    -0.237 OA
ATOM     70  O   UNL A   1      46.536  37.438  30.508  1.00  0.00    -0.744 OA
ENDBRANCH  66  67
ENDBRANCH  45  59
BRANCH  46  71
ATOM     71  C   UNL A   1      43.501  23.155  26.939  1.00  0.00     0.058 A 
ATOM     72  C   UNL A   1      43.207  22.279  27.993  1.00  0.00     0.135 A 
ATOM     73  C   UNL A   1      43.409  22.657  25.630  1.00  0.00     0.135 A 
ATOM     74  F   UNL A   1      43.289  22.705  29.262  1.00  0.00    -0.206 F 
ATOM     75  C   UNL A   1      42.851  20.954  27.760  1.00  0.00     0.059 A 
ATOM     76  C   UNL A   1      43.029  21.343  25.370  1.00  0.00     0.059 A 
ATOM     77  F   UNL A   1      43.671  23.456  24.584  1.00  0.00    -0.206 F 
ATOM     78  C   UNL A   1      42.763  20.497  26.444  1.00  0.00     0.060 A 
BRANCH  78  79
ATOM     79  S   UNL A   1      42.263  18.786  26.150  1.00  0.00     0.124 S 
ATOM     80  O   UNL A   1      43.219  18.372  25.130  1.00  0.00    -0.237 OA
ATOM     81  O   UNL A   1      42.435  18.186  27.470  1.00  0.00    -0.237 OA
ATOM     82  O   UNL A   1      40.878  18.913  25.704  1.00  0.00    -0.744 OA
ENDBRANCH  78  79
ENDBRANCH  46  71
BRANCH  58  83
ATOM     83  C   UNL A   1      49.553  26.625  26.606  1.00  0.00     0.058 A 
ATOM     84  C   UNL A   1      50.069  26.699  25.302  1.00  0.00     0.135 A 
ATOM     85  C   UNL A   1      50.411  26.187  27.628  1.00  0.00     0.135 A 
ATOM     86  F   UNL A   1      49.288  27.104  24.289  1.00  0.00    -0.206 F 
ATOM     87  C   UNL A   1      51.381  26.334  25.021  1.00  0.00     0.059 A 
ATOM     88  C   UNL A   1      51.734  25.844  27.373  1.00  0.00     0.059 A 
ATOM     89  F   UNL A   1      49.969  26.109  28.894  1.00  0.00    -0.206 F 
ATOM     90  C   UNL A   1      52.207  25.910  26.064  1.00  0.00     0.060 A 
BRANCH  90  91
ATOM     91  S   UNL A   1      53.919  25.479  25.692  1.00  0.00     0.124 S 
ATOM     92  O   UNL A   1      54.467  25.271  27.028  1.00  0.00    -0.237 OA
ATOM     93  O   UNL A   1      53.770  24.278  24.876  1.00  0.00    -0.237 OA
ATOM     94  O   UNL A   1      54.419  26.652  24.982  1.00  0.00    -0.744 OA
ENDBRANCH  90  91
ENDBRANCH  58  83
ENDBRANCH  32  33
ENDBRANCH  25  27
ENDBRANCH  24  25
ENDBRANCH  23  24
ENDBRANCH   1  23
TORSDOF 18
ENDMDL
MODEL 3
REMARK VINA RESULT:     -10.9      1.465      3.795
REMARK SMILES C[NH2+][C@]1(C(=O)OCCOC(=O)c2ccc(-c3c4nc(c(-c5c(F)cc(S(=O)(=O)[O-])cc5F)c5ccc([nH]5)c(-c5c(F)cc(S(=O)(=O)[O-])cc5F)c5nc(c(-c6c(F)cc(S(=O)(=O)[O-])cc6F)c6ccc3[nH]6)C=C5)C=C4)cc2)CCC[C@@H](OCC2CCCCC2)C1
REMARK SMILES IDX 7 1 6 2 4 3 5 4 3 5 78 6 90 7 79 8 81 9 80 10 2 11 1 12
REMARK SMILES IDX 82 15 83 16 84 17 85 18 89 19 86 20 88 21 87 22 8 23 9 24
REMARK SMILES IDX 10 25 11 26 12 27 13 28 77 29 14 30 76 31 15 32 16 33 17 34
REMARK SMILES IDX 70 35 18 36 75 37 69 38 71 39 19 40 74 41 68 42 67 43 20 45
REMARK SMILES IDX 54 46 33 47 53 48 34 49 37 50 52 51 72 52 35 53 36 54 51 56
REMARK SMILES IDX 73 57 38 58 21 59 22 60 31 61 23 62 24 63 30 64 32 65 25 66
REMARK SMILES IDX 26 67 27 68 28 69 29 70 55 71 56 72 65 73 57 74 58 75 64 76
REMARK SMILES IDX 66 77 59 78 60 79 61 80 62 81 63 82 39 83 40 84 49 85 41 86
REMARK SMILES IDX 42 87 48 88 50 89 43 90 44 91 45 92 46 93 47 94
REMARK H PARENT 2 13 2 14 71 44 37 55
REMARK Flexibility Score: inf
ROOT
ATOM      1  C   UNL A   1      37.222  22.880  25.325  1.00  0.00     0.274 C 
ENDROOT
BRANCH   1   2
ATOM      2  O   UNL A   1      36.250  23.883  25.671  1.00  0.00    -0.457 OA
BRANCH   2   3
ATOM      3  C   UNL A   1      35.029  23.433  26.081  1.00  0.00     0.368 C 
ATOM      4  O   UNL A   1      34.838  22.921  27.180  1.00  0.00    -0.245 OA
BRANCH   3   5
ATOM      5  C   UNL A   1      33.944  23.541  24.955  1.00  0.00     0.196 C 
ATOM      6  C   UNL A   1      32.532  23.670  25.563  1.00  0.00     0.081 C 
ATOM      7  C   UNL A   1      34.176  24.876  24.209  1.00  0.00     0.113 C 
ATOM      8  C   UNL A   1      31.422  23.652  24.517  1.00  0.00     0.010 C 
ATOM      9  C   UNL A   1      33.015  25.327  23.283  1.00  0.00     0.125 C 
ATOM     10  C   UNL A   1      31.743  24.455  23.258  1.00  0.00     0.032 C 
BRANCH   5  11
ATOM     11  N   UNL A   1      33.922  22.370  24.030  1.00  0.00    -0.334 N 
ATOM     12  C   UNL A   1      33.771  21.037  24.592  1.00  0.00     0.331 C 
ATOM     13  H   UNL A   1      33.146  22.512  23.385  1.00  0.00     0.347 HD
ATOM     14  H   UNL A   1      34.856  22.360  23.620  1.00  0.00     0.347 HD
ENDBRANCH   5  11
BRANCH   9  15
ATOM     15  O   UNL A   1      32.649  26.718  23.212  1.00  0.00    -0.378 OA
BRANCH  15  16
ATOM     16  C   UNL A   1      31.324  27.167  23.444  1.00  0.00     0.164 C 
BRANCH  16  17
ATOM     17  C   UNL A   1      31.103  28.000  24.731  1.00  0.00     0.015 C 
ATOM     18  C   UNL A   1      31.265  27.182  26.010  1.00  0.00     0.006 C 
ATOM     19  C   UNL A   1      32.064  29.204  24.694  1.00  0.00     0.006 C 
ATOM     20  C   UNL A   1      31.404  27.978  27.300  1.00  0.00     0.000 C 
ATOM     21  C   UNL A   1      32.124  29.979  26.006  1.00  0.00     0.000 C 
ATOM     22  C   UNL A   1      32.465  29.058  27.167  1.00  0.00     0.000 C 
ENDBRANCH  16  17
ENDBRANCH  15  16
ENDBRANCH   9  15
ENDBRANCH   3   5
ENDBRANCH   2   3
ENDBRANCH   1   2
BRANCH   1  23
ATOM     23  C   UNL A   1      38.468  23.009  26.201  1.00  0.00     0.275 C 
BRANCH  23  24
ATOM     24  O   UNL A   1      38.736  24.383  26.534  1.00  0.00    -0.458 OA
BRANCH  24  25
ATOM     25  C   UNL A   1      40.045  24.679  26.715  1.00  0.00     0.338 C 
ATOM     26  O   UNL A   1      40.987  24.297  26.028  1.00  0.00    -0.246 OA
BRANCH  25  27
ATOM     27  C   UNL A   1      40.198  25.638  27.820  1.00  0.00     0.060 A 
ATOM     28  C   UNL A   1      39.209  25.680  28.805  1.00  0.00     0.016 A 
ATOM     29  C   UNL A   1      41.261  26.542  27.859  1.00  0.00     0.016 A 
ATOM     30  C   UNL A   1      39.273  26.593  29.842  1.00  0.00     0.010 A 
ATOM     31  C   UNL A   1      41.313  27.490  28.887  1.00  0.00     0.010 A 
ATOM     32  C   UNL A   1      40.314  27.518  29.875  1.00  0.00    -0.014 A 
BRANCH  32  33
ATOM     33  C   UNL A   1      40.271  28.568  30.907  1.00  0.00     0.031 A 
ATOM     34  C   UNL A   1      41.223  28.488  32.062  1.00  0.00     0.074 A 
ATOM     35  C   UNL A   1      39.454  29.622  30.748  1.00  0.00     0.049 A 
ATOM     36  N   UNL A   1      41.339  29.283  33.090  1.00  0.00    -0.248 NA
ATOM     37  C   UNL A   1      42.184  27.372  32.045  1.00  0.00     0.031 C 
ATOM     38  C   UNL A   1      38.576  29.841  29.598  1.00  0.00     0.029 A 
ATOM     39  N   UNL A   1      39.233  30.707  31.554  1.00  0.00    -0.354 N 
ATOM     40  C   UNL A   1      42.384  28.767  33.846  1.00  0.00     0.074 A 
ATOM     41  C   UNL A   1      42.861  27.583  33.164  1.00  0.00     0.031 C 
ATOM     42  C   UNL A   1      37.890  30.981  29.786  1.00  0.00     0.029 A 
ATOM     43  C   UNL A   1      38.252  31.545  31.084  1.00  0.00     0.049 A 
ATOM     44  H   UNL A   1      39.730  30.870  32.388  1.00  0.00     0.167 HD
ATOM     45  C   UNL A   1      42.891  29.242  35.007  1.00  0.00     0.037 A 
ATOM     46  C   UNL A   1      37.688  32.623  31.662  1.00  0.00     0.037 A 
ATOM     47  C   UNL A   1      42.382  30.407  35.681  1.00  0.00     0.049 A 
ATOM     48  C   UNL A   1      38.186  33.061  33.013  1.00  0.00     0.074 A 
ATOM     49  C   UNL A   1      42.790  30.956  36.883  1.00  0.00     0.029 A 
ATOM     50  N   UNL A   1      41.341  31.198  35.213  1.00  0.00    -0.354 N 
ATOM     51  N   UNL A   1      39.156  32.552  33.739  1.00  0.00    -0.248 NA
ATOM     52  C   UNL A   1      37.518  34.215  33.627  1.00  0.00     0.031 C 
ATOM     53  C   UNL A   1      41.963  32.049  37.166  1.00  0.00     0.029 A 
ATOM     54  C   UNL A   1      41.075  32.215  36.113  1.00  0.00     0.049 A 
ATOM     55  H   UNL A   1      40.863  31.057  34.364  1.00  0.00     0.167 HD
ATOM     56  C   UNL A   1      39.228  33.338  34.884  1.00  0.00     0.074 A 
ATOM     57  C   UNL A   1      38.212  34.363  34.747  1.00  0.00     0.031 C 
ATOM     58  C   UNL A   1      40.060  33.227  35.949  1.00  0.00     0.037 A 
BRANCH  45  59
ATOM     59  C   UNL A   1      44.009  28.464  35.643  1.00  0.00     0.058 A 
ATOM     60  C   UNL A   1      45.355  28.726  35.348  1.00  0.00     0.135 A 
ATOM     61  C   UNL A   1      43.724  27.443  36.563  1.00  0.00     0.135 A 
ATOM     62  F   UNL A   1      45.681  29.674  34.456  1.00  0.00    -0.206 F 
ATOM     63  C   UNL A   1      46.382  27.986  35.927  1.00  0.00     0.059 A 
ATOM     64  C   UNL A   1      44.736  26.707  37.173  1.00  0.00     0.059 A 
ATOM     65  F   UNL A   1      42.453  27.147  36.873  1.00  0.00    -0.206 F 
ATOM     66  C   UNL A   1      46.061  26.976  36.837  1.00  0.00     0.060 A 
BRANCH  66  67
ATOM     67  S   UNL A   1      47.402  26.018  37.575  1.00  0.00     0.124 S 
ATOM     68  O   UNL A   1      46.668  24.921  38.199  1.00  0.00    -0.237 OA
ATOM     69  O   UNL A   1      48.207  25.660  36.412  1.00  0.00    -0.237 OA
ATOM     70  O   UNL A   1      48.025  26.960  38.499  1.00  0.00    -0.744 OA
ENDBRANCH  66  67
ENDBRANCH  45  59
BRANCH  46  71
ATOM     71  C   UNL A   1      36.565  33.326  30.987  1.00  0.00     0.058 A 
ATOM     72  C   UNL A   1      35.235  33.122  31.380  1.00  0.00     0.135 A 
ATOM     73  C   UNL A   1      36.804  34.220  29.931  1.00  0.00     0.135 A 
ATOM     74  F   UNL A   1      34.954  32.271  32.378  1.00  0.00    -0.206 F 
ATOM     75  C   UNL A   1      34.180  33.767  30.741  1.00  0.00     0.059 A 
ATOM     76  C   UNL A   1      35.769  34.896  29.294  1.00  0.00     0.059 A 
ATOM     77  F   UNL A   1      38.060  34.458  29.521  1.00  0.00    -0.206 F 
ATOM     78  C   UNL A   1      34.459  34.654  29.700  1.00  0.00     0.060 A 
BRANCH  78  79
ATOM     79  S   UNL A   1      33.086  35.514  28.902  1.00  0.00     0.124 S 
ATOM     80  O   UNL A   1      32.391  34.413  28.245  1.00  0.00    -0.237 OA
ATOM     81  O   UNL A   1      32.398  36.116  30.040  1.00  0.00    -0.237 OA
ATOM     82  O   UNL A   1      33.754  36.460  28.012  1.00  0.00    -0.744 OA
ENDBRANCH  78  79
ENDBRANCH  46  71
BRANCH  58  83
ATOM     83  C   UNL A   1      39.930  34.257  37.037  1.00  0.00     0.058 A 
ATOM     84  C   UNL A   1      40.570  35.504  36.954  1.00  0.00     0.135 A 
ATOM     85  C   UNL A   1      39.104  34.015  38.147  1.00  0.00     0.135 A 
ATOM     86  F   UNL A   1      41.375  35.782  35.917  1.00  0.00    -0.206 F 
ATOM     87  C   UNL A   1      40.412  36.466  37.945  1.00  0.00     0.059 A 
ATOM     88  C   UNL A   1      38.910  34.974  39.135  1.00  0.00     0.059 A 
ATOM     89  F   UNL A   1      38.461  32.843  38.267  1.00  0.00    -0.206 F 
ATOM     90  C   UNL A   1      39.577  36.193  39.031  1.00  0.00     0.060 A 
BRANCH  90  91
ATOM     91  S   UNL A   1      39.348  37.467  40.289  1.00  0.00     0.124 S 
ATOM     92  O   UNL A   1      38.556  38.455  39.565  1.00  0.00    -0.237 OA
ATOM     93  O   UNL A   1      38.646  36.742  41.343  1.00  0.00    -0.237 OA
ATOM     94  O   UNL A   1      40.711  37.870  40.616  1.00  0.00    -0.744 OA
ENDBRANCH  90  91
ENDBRANCH  58  83
ENDBRANCH  32  33
ENDBRANCH  25  27
ENDBRANCH  24  25
ENDBRANCH  23  24
ENDBRANCH   1  23
TORSDOF 18
ENDMDL
