MODEL 1
REMARK VINA RESULT:      -9.6      0.000      0.000
REMARK SMILES O=C(OCCOC(=O)c1cc(Br)cn(Cc2cccc(F)c2)c1=O)c1ccc(-c2c3nc(c(-c4c(F)cc(S(=O)(=O)[O-])cc4F)c4ccc([nH]4)c(-c4c(F)cc(S(=O)(=O)[O-])cc4F)c4nc(c(-c5c(F)cc(S(=O)(=O)[O-])cc5F)c5ccc2[nH]5)C=C4)C=C3)cc1
REMARK SMILES IDX 4 1 3 2 2 3 1 4 25 5 26 6 90 7 27 8 89 9 28 10 29 11 30 12
REMARK SMILES IDX 83 13 31 14 88 15 82 16 84 17 32 18 87 19 81 20 80 21 33 23
REMARK SMILES IDX 67 24 46 25 66 26 47 27 50 28 65 29 85 30 48 31 49 32 64 34
REMARK SMILES IDX 86 35 51 36 34 37 35 38 44 39 36 40 37 41 43 42 45 43 38 44
REMARK SMILES IDX 39 45 40 46 41 47 42 48 68 49 69 50 78 51 70 52 71 53 77 54
REMARK SMILES IDX 79 55 72 56 73 57 74 58 75 59 76 60 52 61 53 62 62 63 54 64
REMARK SMILES IDX 55 65 61 66 63 67 56 68 57 69 58 70 59 71 60 72 5 73 6 74
REMARK SMILES IDX 7 75 8 76 9 77 10 78 23 79 11 80 14 81 24 82 12 83 13 84
REMARK SMILES IDX 15 85 16 86 17 87 22 88 18 89 20 90 19 91 21 92
REMARK H PARENT 84 22 50 33
REMARK Flexibility Score: inf
ROOT
ATOM      1  C   UNL A   1      40.704  21.209  26.915  1.00  0.00     0.275 C 
ENDROOT
BRANCH   1   2
ATOM      2  O   UNL A   1      39.987  22.093  26.036  1.00  0.00    -0.458 OA
BRANCH   2   3
ATOM      3  C   UNL A   1      39.193  23.145  26.357  1.00  0.00     0.338 C 
ATOM      4  O   UNL A   1      37.994  23.093  26.093  1.00  0.00    -0.246 OA
BRANCH   3   5
ATOM      5  C   UNL A   1      39.748  24.447  26.833  1.00  0.00     0.060 A 
ATOM      6  C   UNL A   1      39.649  24.694  28.212  1.00  0.00     0.016 A 
ATOM      7  C   UNL A   1      40.390  25.401  26.040  1.00  0.00     0.016 A 
ATOM      8  C   UNL A   1      40.075  25.907  28.759  1.00  0.00     0.010 A 
ATOM      9  C   UNL A   1      40.830  26.615  26.588  1.00  0.00     0.010 A 
ATOM     10  C   UNL A   1      40.660  26.888  27.948  1.00  0.00    -0.014 A 
BRANCH  10  11
ATOM     11  C   UNL A   1      41.246  28.105  28.562  1.00  0.00     0.031 A 
ATOM     12  C   UNL A   1      42.725  28.289  28.740  1.00  0.00     0.074 A 
ATOM     13  C   UNL A   1      40.403  29.074  28.966  1.00  0.00     0.049 A 
ATOM     14  N   UNL A   1      43.375  29.398  28.987  1.00  0.00    -0.248 NA
ATOM     15  C   UNL A   1      43.592  27.114  28.590  1.00  0.00     0.031 C 
ATOM     16  C   UNL A   1      38.940  28.991  28.917  1.00  0.00     0.029 A 
ATOM     17  N   UNL A   1      40.649  30.303  29.516  1.00  0.00    -0.354 N 
ATOM     18  C   UNL A   1      44.724  29.082  28.885  1.00  0.00     0.074 A 
ATOM     19  C   UNL A   1      44.804  27.655  28.672  1.00  0.00     0.031 C 
ATOM     20  C   UNL A   1      38.421  30.111  29.441  1.00  0.00     0.029 A 
ATOM     21  C   UNL A   1      39.510  30.980  29.874  1.00  0.00     0.049 A 
ATOM     22  H   UNL A   1      41.556  30.666  29.643  1.00  0.00     0.167 HD
ATOM     23  C   UNL A   1      45.778  29.930  28.899  1.00  0.00     0.037 A 
ATOM     24  C   UNL A   1      39.358  32.159  30.504  1.00  0.00     0.037 A 
ATOM     25  C   UNL A   1      45.689  31.313  29.288  1.00  0.00     0.049 A 
ATOM     26  C   UNL A   1      40.575  32.976  30.820  1.00  0.00     0.074 A 
ATOM     27  C   UNL A   1      46.689  32.267  29.332  1.00  0.00     0.029 A 
ATOM     28  N   UNL A   1      44.542  31.910  29.787  1.00  0.00    -0.354 N 
ATOM     29  N   UNL A   1      41.823  32.744  30.490  1.00  0.00    -0.248 NA
ATOM     30  C   UNL A   1      40.371  34.210  31.587  1.00  0.00     0.031 C 
ATOM     31  C   UNL A   1      46.163  33.418  29.935  1.00  0.00     0.029 A 
ATOM     32  C   UNL A   1      44.829  33.188  30.231  1.00  0.00     0.049 A 
ATOM     33  H   UNL A   1      43.654  31.486  29.820  1.00  0.00     0.167 HD
ATOM     34  C   UNL A   1      42.554  33.812  30.994  1.00  0.00     0.074 A 
ATOM     35  C   UNL A   1      41.605  34.694  31.647  1.00  0.00     0.031 C 
ATOM     36  C   UNL A   1      43.888  34.044  30.910  1.00  0.00     0.037 A 
BRANCH  23  37
ATOM     37  C   UNL A   1      47.106  29.419  28.426  1.00  0.00     0.058 A 
ATOM     38  C   UNL A   1      47.870  28.601  29.274  1.00  0.00     0.135 A 
ATOM     39  C   UNL A   1      47.576  29.634  27.126  1.00  0.00     0.135 A 
ATOM     40  F   UNL A   1      47.437  28.339  30.517  1.00  0.00    -0.206 F 
ATOM     41  C   UNL A   1      49.063  28.021  28.856  1.00  0.00     0.059 A 
ATOM     42  C   UNL A   1      48.766  29.060  26.681  1.00  0.00     0.059 A 
ATOM     43  F   UNL A   1      46.876  30.400  26.274  1.00  0.00    -0.206 F 
ATOM     44  C   UNL A   1      49.506  28.260  27.555  1.00  0.00     0.060 A 
BRANCH  44  45
ATOM     45  S   UNL A   1      51.032  27.470  26.996  1.00  0.00     0.124 S 
ATOM     46  O   UNL A   1      50.758  26.066  27.285  1.00  0.00    -0.237 OA
ATOM     47  O   UNL A   1      51.082  27.830  25.583  1.00  0.00    -0.237 OA
ATOM     48  O   UNL A   1      52.056  28.092  27.830  1.00  0.00    -0.744 OA
ENDBRANCH  44  45
ENDBRANCH  23  37
BRANCH  24  49
ATOM     49  C   UNL A   1      37.994  32.596  30.890  1.00  0.00     0.058 A 
ATOM     50  C   UNL A   1      37.477  32.337  32.165  1.00  0.00     0.135 A 
ATOM     51  C   UNL A   1      37.215  33.359  30.004  1.00  0.00     0.135 A 
ATOM     52  F   UNL A   1      38.183  31.609  33.041  1.00  0.00    -0.206 F 
ATOM     53  C   UNL A   1      36.236  32.832  32.556  1.00  0.00     0.059 A 
ATOM     54  C   UNL A   1      35.983  33.883  30.379  1.00  0.00     0.059 A 
ATOM     55  F   UNL A   1      37.676  33.643  28.776  1.00  0.00    -0.206 F 
ATOM     56  C   UNL A   1      35.503  33.614  31.659  1.00  0.00     0.060 A 
BRANCH  56  57
ATOM     57  S   UNL A   1      33.938  34.328  32.210  1.00  0.00     0.124 S 
ATOM     58  O   UNL A   1      34.393  35.496  32.952  1.00  0.00    -0.237 OA
ATOM     59  O   UNL A   1      33.264  34.596  30.943  1.00  0.00    -0.237 OA
ATOM     60  O   UNL A   1      33.346  33.260  33.012  1.00  0.00    -0.744 OA
ENDBRANCH  56  57
ENDBRANCH  24  49
BRANCH  36  61
ATOM     61  C   UNL A   1      44.412  35.284  31.570  1.00  0.00     0.058 A 
ATOM     62  C   UNL A   1      44.379  36.522  30.913  1.00  0.00     0.135 A 
ATOM     63  C   UNL A   1      44.908  35.247  32.883  1.00  0.00     0.135 A 
ATOM     64  F   UNL A   1      43.924  36.606  29.653  1.00  0.00    -0.206 F 
ATOM     65  C   UNL A   1      44.837  37.681  31.527  1.00  0.00     0.059 A 
ATOM     66  C   UNL A   1      45.346  36.399  33.527  1.00  0.00     0.059 A 
ATOM     67  F   UNL A   1      44.952  34.087  33.558  1.00  0.00    -0.206 F 
ATOM     68  C   UNL A   1      45.318  37.610  32.836  1.00  0.00     0.060 A 
BRANCH  68  69
ATOM     69  S   UNL A   1      45.880  39.128  33.633  1.00  0.00     0.124 S 
ATOM     70  O   UNL A   1      45.462  40.138  32.666  1.00  0.00    -0.237 OA
ATOM     71  O   UNL A   1      45.145  39.112  34.892  1.00  0.00    -0.237 OA
ATOM     72  O   UNL A   1      47.322  38.934  33.753  1.00  0.00    -0.744 OA
ENDBRANCH  68  69
ENDBRANCH  36  61
ENDBRANCH  10  11
ENDBRANCH   3   5
ENDBRANCH   2   3
ENDBRANCH   1   2
BRANCH   1  73
ATOM     73  C   UNL A   1      41.723  20.306  26.220  1.00  0.00     0.275 C 
BRANCH  73  74
ATOM     74  O   UNL A   1      43.071  20.755  26.407  1.00  0.00    -0.458 OA
BRANCH  74  75
ATOM     75  C   UNL A   1      43.416  21.870  25.710  1.00  0.00     0.343 C 
ATOM     76  O   UNL A   1      42.962  22.203  24.622  1.00  0.00    -0.246 OA
BRANCH  75  77
ATOM     77  C   UNL A   1      44.279  22.737  26.526  1.00  0.00     0.126 A 
ATOM     78  C   UNL A   1      43.882  22.954  27.793  1.00  0.00     0.038 A 
ATOM     79  C   UNL A   1      45.567  23.305  26.033  1.00  0.00     0.265 A 
ATOM     80  C   UNL A   1      44.715  23.685  28.716  1.00  0.00     0.035 A 
ATOM     81  N   UNL A   1      46.308  24.028  26.978  1.00  0.00    -0.309 N 
ATOM     82  O   UNL A   1      45.913  23.135  24.868  1.00  0.00    -0.268 OA
ATOM     83  Br  UNL A   1      44.152  23.837  30.484  1.00  0.00    -0.049 Br
ATOM     84  C   UNL A   1      45.884  24.180  28.291  1.00  0.00     0.105 A 
BRANCH  81  85
ATOM     85  C   UNL A   1      47.567  24.654  26.569  1.00  0.00     0.161 C 
BRANCH  85  86
ATOM     86  C   UNL A   1      47.371  25.751  25.555  1.00  0.00    -0.025 A 
ATOM     87  C   UNL A   1      46.224  26.559  25.580  1.00  0.00     0.006 A 
ATOM     88  C   UNL A   1      48.353  25.986  24.583  1.00  0.00     0.044 A 
ATOM     89  C   UNL A   1      46.063  27.588  24.651  1.00  0.00     0.003 A 
ATOM     90  C   UNL A   1      48.182  27.017  23.668  1.00  0.00     0.123 A 
ATOM     91  C   UNL A   1      47.048  27.819  23.694  1.00  0.00     0.039 A 
ATOM     92  F   UNL A   1      49.124  27.239  22.743  1.00  0.00    -0.207 F 
ENDBRANCH  85  86
ENDBRANCH  81  85
ENDBRANCH  75  77
ENDBRANCH  74  75
ENDBRANCH  73  74
ENDBRANCH   1  73
TORSDOF 16
ENDMDL
MODEL 2
REMARK VINA RESULT:      -9.6      5.452     11.409
REMARK SMILES O=C(OCCOC(=O)c1cc(Br)cn(Cc2cccc(F)c2)c1=O)c1ccc(-c2c3nc(c(-c4c(F)cc(S(=O)(=O)[O-])cc4F)c4ccc([nH]4)c(-c4c(F)cc(S(=O)(=O)[O-])cc4F)c4nc(c(-c5c(F)cc(S(=O)(=O)[O-])cc5F)c5ccc2[nH]5)C=C4)C=C3)cc1
REMARK SMILES IDX 4 1 3 2 2 3 1 4 25 5 26 6 90 7 27 8 89 9 28 10 29 11 30 12
REMARK SMILES IDX 83 13 31 14 88 15 82 16 84 17 32 18 87 19 81 20 80 21 33 23
REMARK SMILES IDX 67 24 46 25 66 26 47 27 50 28 65 29 85 30 48 31 49 32 64 34
REMARK SMILES IDX 86 35 51 36 34 37 35 38 44 39 36 40 37 41 43 42 45 43 38 44
REMARK SMILES IDX 39 45 40 46 41 47 42 48 68 49 69 50 78 51 70 52 71 53 77 54
REMARK SMILES IDX 79 55 72 56 73 57 74 58 75 59 76 60 52 61 53 62 62 63 54 64
REMARK SMILES IDX 55 65 61 66 63 67 56 68 57 69 58 70 59 71 60 72 5 73 6 74
REMARK SMILES IDX 7 75 8 76 9 77 10 78 23 79 11 80 14 81 24 82 12 83 13 84
REMARK SMILES IDX 15 85 16 86 17 87 22 88 18 89 20 90 19 91 21 92
REMARK H PARENT 84 22 50 33
REMARK Flexibility Score: inf
ROOT
ATOM      1  C   UNL A   1      33.181  28.447  26.032  1.00  0.00     0.275 C 
ENDROOT
BRANCH   1   2
ATOM      2  O   UNL A   1      33.854  29.714  26.146  1.00  0.00    -0.458 OA
BRANCH   2   3
ATOM      3  C   UNL A   1      34.249  30.363  27.269  1.00  0.00     0.338 C 
ATOM      4  O   UNL A   1      33.631  31.360  27.634  1.00  0.00    -0.246 OA
BRANCH   3   5
ATOM      5  C   UNL A   1      35.527  30.038  27.970  1.00  0.00     0.060 A 
ATOM      6  C   UNL A   1      36.696  30.126  27.196  1.00  0.00     0.016 A 
ATOM      7  C   UNL A   1      35.658  29.707  29.321  1.00  0.00     0.016 A 
ATOM      8  C   UNL A   1      37.941  29.781  27.729  1.00  0.00     0.010 A 
ATOM      9  C   UNL A   1      36.908  29.373  29.863  1.00  0.00     0.010 A 
ATOM     10  C   UNL A   1      38.058  29.387  29.069  1.00  0.00    -0.014 A 
BRANCH  10  11
ATOM     11  C   UNL A   1      39.400  29.172  29.663  1.00  0.00     0.031 A 
ATOM     12  C   UNL A   1      39.984  30.093  30.695  1.00  0.00     0.074 A 
ATOM     13  C   UNL A   1      40.106  28.102  29.252  1.00  0.00     0.049 A 
ATOM     14  N   UNL A   1      40.997  29.869  31.494  1.00  0.00    -0.248 NA
ATOM     15  C   UNL A   1      39.350  31.402  30.894  1.00  0.00     0.031 C 
ATOM     16  C   UNL A   1      39.685  27.169  28.203  1.00  0.00     0.029 A 
ATOM     17  N   UNL A   1      41.330  27.632  29.646  1.00  0.00    -0.354 N 
ATOM     18  C   UNL A   1      41.033  30.941  32.376  1.00  0.00     0.074 A 
ATOM     19  C   UNL A   1      40.019  31.874  31.943  1.00  0.00     0.031 C 
ATOM     20  C   UNL A   1      40.649  26.255  28.020  1.00  0.00     0.029 A 
ATOM     21  C   UNL A   1      41.756  26.544  28.924  1.00  0.00     0.049 A 
ATOM     22  H   UNL A   1      41.854  28.035  30.376  1.00  0.00     0.167 HD
ATOM     23  C   UNL A   1      41.802  31.081  33.481  1.00  0.00     0.037 A 
ATOM     24  C   UNL A   1      42.919  25.870  28.969  1.00  0.00     0.037 A 
ATOM     25  C   UNL A   1      42.920  30.231  33.792  1.00  0.00     0.049 A 
ATOM     26  C   UNL A   1      43.934  26.240  30.008  1.00  0.00     0.074 A 
ATOM     27  C   UNL A   1      43.764  30.274  34.887  1.00  0.00     0.029 A 
ATOM     28  N   UNL A   1      43.403  29.239  32.952  1.00  0.00    -0.354 N 
ATOM     29  N   UNL A   1      43.826  27.113  30.981  1.00  0.00    -0.248 NA
ATOM     30  C   UNL A   1      45.223  25.541  29.962  1.00  0.00     0.031 C 
ATOM     31  C   UNL A   1      44.805  29.360  34.668  1.00  0.00     0.029 A 
ATOM     32  C   UNL A   1      44.586  28.726  33.455  1.00  0.00     0.049 A 
ATOM     33  H   UNL A   1      42.967  28.942  32.121  1.00  0.00     0.167 HD
ATOM     34  C   UNL A   1      45.027  27.056  31.677  1.00  0.00     0.074 A 
ATOM     35  C   UNL A   1      45.844  26.058  31.014  1.00  0.00     0.031 C 
ATOM     36  C   UNL A   1      45.408  27.760  32.772  1.00  0.00     0.037 A 
BRANCH  23  37
ATOM     37  C   UNL A   1      41.433  32.144  34.472  1.00  0.00     0.058 A 
ATOM     38  C   UNL A   1      42.043  33.406  34.385  1.00  0.00     0.135 A 
ATOM     39  C   UNL A   1      40.421  31.970  35.423  1.00  0.00     0.135 A 
ATOM     40  F   UNL A   1      42.993  33.627  33.462  1.00  0.00    -0.206 F 
ATOM     41  C   UNL A   1      41.673  34.459  35.215  1.00  0.00     0.059 A 
ATOM     42  C   UNL A   1      40.029  33.012  36.262  1.00  0.00     0.059 A 
ATOM     43  F   UNL A   1      39.801  30.785  35.537  1.00  0.00    -0.206 F 
ATOM     44  C   UNL A   1      40.665  34.250  36.156  1.00  0.00     0.060 A 
BRANCH  44  45
ATOM     45  S   UNL A   1      40.152  35.631  37.203  1.00  0.00     0.124 S 
ATOM     46  O   UNL A   1      41.380  35.910  37.943  1.00  0.00    -0.237 OA
ATOM     47  O   UNL A   1      39.754  36.643  36.230  1.00  0.00    -0.237 OA
ATOM     48  O   UNL A   1      39.061  35.067  37.992  1.00  0.00    -0.744 OA
ENDBRANCH  44  45
ENDBRANCH  23  37
BRANCH  24  49
ATOM     49  C   UNL A   1      43.168  24.803  27.970  1.00  0.00     0.058 A 
ATOM     50  C   UNL A   1      43.772  25.080  26.738  1.00  0.00     0.135 A 
ATOM     51  C   UNL A   1      42.876  23.462  28.273  1.00  0.00     0.135 A 
ATOM     52  F   UNL A   1      44.064  26.345  26.404  1.00  0.00    -0.206 F 
ATOM     53  C   UNL A   1      44.093  24.063  25.844  1.00  0.00     0.059 A 
ATOM     54  C   UNL A   1      43.206  22.426  27.407  1.00  0.00     0.059 A 
ATOM     55  F   UNL A   1      42.308  23.147  29.449  1.00  0.00    -0.206 F 
ATOM     56  C   UNL A   1      43.816  22.738  26.193  1.00  0.00     0.060 A 
BRANCH  56  57
ATOM     57  S   UNL A   1      44.320  21.421  25.066  1.00  0.00     0.124 S 
ATOM     58  O   UNL A   1      43.316  20.401  25.339  1.00  0.00    -0.237 OA
ATOM     59  O   UNL A   1      44.226  22.080  23.767  1.00  0.00    -0.237 OA
ATOM     60  O   UNL A   1      45.677  21.106  25.504  1.00  0.00    -0.744 OA
ENDBRANCH  56  57
ENDBRANCH  24  49
BRANCH  36  61
ATOM     61  C   UNL A   1      46.786  27.504  33.307  1.00  0.00     0.058 A 
ATOM     62  C   UNL A   1      47.030  26.452  34.202  1.00  0.00     0.135 A 
ATOM     63  C   UNL A   1      47.877  28.282  32.890  1.00  0.00     0.135 A 
ATOM     64  F   UNL A   1      46.017  25.687  34.638  1.00  0.00    -0.206 F 
ATOM     65  C   UNL A   1      48.307  26.190  34.681  1.00  0.00     0.059 A 
ATOM     66  C   UNL A   1      49.168  28.022  33.336  1.00  0.00     0.059 A 
ATOM     67  F   UNL A   1      47.696  29.295  32.028  1.00  0.00    -0.206 F 
ATOM     68  C   UNL A   1      49.372  26.980  34.241  1.00  0.00     0.060 A 
BRANCH  68  69
ATOM     69  S   UNL A   1      51.030  26.609  34.848  1.00  0.00     0.124 S 
ATOM     70  O   UNL A   1      51.862  27.208  33.809  1.00  0.00    -0.237 OA
ATOM     71  O   UNL A   1      51.048  27.283  36.142  1.00  0.00    -0.237 OA
ATOM     72  O   UNL A   1      51.052  25.151  34.906  1.00  0.00    -0.744 OA
ENDBRANCH  68  69
ENDBRANCH  36  61
ENDBRANCH  10  11
ENDBRANCH   3   5
ENDBRANCH   2   3
ENDBRANCH   1   2
BRANCH   1  73
ATOM     73  C   UNL A   1      33.451  27.697  24.727  1.00  0.00     0.275 C 
BRANCH  73  74
ATOM     74  O   UNL A   1      32.677  26.497  24.614  1.00  0.00    -0.458 OA
BRANCH  74  75
ATOM     75  C   UNL A   1      33.022  25.675  23.588  1.00  0.00     0.343 C 
ATOM     76  O   UNL A   1      33.137  26.006  22.415  1.00  0.00    -0.246 OA
BRANCH  75  77
ATOM     77  C   UNL A   1      33.428  24.358  24.101  1.00  0.00     0.126 A 
ATOM     78  C   UNL A   1      34.739  24.193  24.356  1.00  0.00     0.038 A 
ATOM     79  C   UNL A   1      32.460  23.265  24.403  1.00  0.00     0.265 A 
ATOM     80  C   UNL A   1      35.227  22.987  24.978  1.00  0.00     0.035 A 
ATOM     81  N   UNL A   1      33.011  22.112  24.978  1.00  0.00    -0.309 N 
ATOM     82  O   UNL A   1      31.268  23.403  24.139  1.00  0.00    -0.268 OA
ATOM     83  Br  UNL A   1      37.035  22.885  25.410  1.00  0.00    -0.049 Br
ATOM     84  C   UNL A   1      34.363  22.007  25.273  1.00  0.00     0.105 A 
BRANCH  81  85
ATOM     85  C   UNL A   1      32.138  20.973  25.270  1.00  0.00     0.161 C 
BRANCH  85  86
ATOM     86  C   UNL A   1      32.502  19.741  24.482  1.00  0.00    -0.025 A 
ATOM     87  C   UNL A   1      33.097  18.635  25.108  1.00  0.00     0.006 A 
ATOM     88  C   UNL A   1      32.228  19.685  23.109  1.00  0.00     0.044 A 
ATOM     89  C   UNL A   1      33.409  17.490  24.373  1.00  0.00     0.003 A 
ATOM     90  C   UNL A   1      32.539  18.537  22.391  1.00  0.00     0.123 A 
ATOM     91  C   UNL A   1      33.125  17.441  23.010  1.00  0.00     0.039 A 
ATOM     92  F   UNL A   1      32.273  18.489  21.079  1.00  0.00    -0.207 F 
ENDBRANCH  85  86
ENDBRANCH  81  85
ENDBRANCH  75  77
ENDBRANCH  74  75
ENDBRANCH  73  74
ENDBRANCH   1  73
TORSDOF 16
ENDMDL
MODEL 3
REMARK VINA RESULT:      -9.5      5.177     11.151
REMARK SMILES O=C(OCCOC(=O)c1cc(Br)cn(Cc2cccc(F)c2)c1=O)c1ccc(-c2c3nc(c(-c4c(F)cc(S(=O)(=O)[O-])cc4F)c4ccc([nH]4)c(-c4c(F)cc(S(=O)(=O)[O-])cc4F)c4nc(c(-c5c(F)cc(S(=O)(=O)[O-])cc5F)c5ccc2[nH]5)C=C4)C=C3)cc1
REMARK SMILES IDX 4 1 3 2 2 3 1 4 25 5 26 6 90 7 27 8 89 9 28 10 29 11 30 12
REMARK SMILES IDX 83 13 31 14 88 15 82 16 84 17 32 18 87 19 81 20 80 21 33 23
REMARK SMILES IDX 67 24 46 25 66 26 47 27 50 28 65 29 85 30 48 31 49 32 64 34
REMARK SMILES IDX 86 35 51 36 34 37 35 38 44 39 36 40 37 41 43 42 45 43 38 44
REMARK SMILES IDX 39 45 40 46 41 47 42 48 68 49 69 50 78 51 70 52 71 53 77 54
REMARK SMILES IDX 79 55 72 56 73 57 74 58 75 59 76 60 52 61 53 62 62 63 54 64
REMARK SMILES IDX 55 65 61 66 63 67 56 68 57 69 58 70 59 71 60 72 5 73 6 74
REMARK SMILES IDX 7 75 8 76 9 77 10 78 23 79 11 80 14 81 24 82 12 83 13 84
REMARK SMILES IDX 15 85 16 86 17 87 22 88 18 89 20 90 19 91 21 92
REMARK H PARENT 84 22 50 33
REMARK Flexibility Score: inf
ROOT
ATOM      1  C   UNL A   1      33.328  28.137  26.486  1.00  0.00     0.275 C 
ENDROOT
BRANCH   1   2
ATOM      2  O   UNL A   1      33.666  29.530  26.362  1.00  0.00    -0.458 OA
BRANCH   2   3
ATOM      3  C   UNL A   1      34.220  30.351  27.288  1.00  0.00     0.338 C 
ATOM      4  O   UNL A   1      33.768  31.485  27.431  1.00  0.00    -0.246 OA
BRANCH   3   5
ATOM      5  C   UNL A   1      35.487  30.010  28.001  1.00  0.00     0.060 A 
ATOM      6  C   UNL A   1      36.664  30.083  27.238  1.00  0.00     0.016 A 
ATOM      7  C   UNL A   1      35.601  29.676  29.353  1.00  0.00     0.016 A 
ATOM      8  C   UNL A   1      37.899  29.722  27.783  1.00  0.00     0.010 A 
ATOM      9  C   UNL A   1      36.840  29.326  29.906  1.00  0.00     0.010 A 
ATOM     10  C   UNL A   1      37.998  29.326  29.123  1.00  0.00    -0.014 A 
BRANCH  10  11
ATOM     11  C   UNL A   1      39.332  29.093  29.731  1.00  0.00     0.031 A 
ATOM     12  C   UNL A   1      39.911  29.996  30.781  1.00  0.00     0.074 A 
ATOM     13  C   UNL A   1      40.034  28.023  29.314  1.00  0.00     0.049 A 
ATOM     14  N   UNL A   1      40.912  29.755  31.589  1.00  0.00    -0.248 NA
ATOM     15  C   UNL A   1      39.283  31.307  30.989  1.00  0.00     0.031 C 
ATOM     16  C   UNL A   1      39.619  27.107  28.248  1.00  0.00     0.029 A 
ATOM     17  N   UNL A   1      41.250  27.539  29.716  1.00  0.00    -0.354 N 
ATOM     18  C   UNL A   1      40.946  30.815  32.484  1.00  0.00     0.074 A 
ATOM     19  C   UNL A   1      39.944  31.762  32.051  1.00  0.00     0.031 C 
ATOM     20  C   UNL A   1      40.578  26.187  28.064  1.00  0.00     0.029 A 
ATOM     21  C   UNL A   1      41.676  26.457  28.986  1.00  0.00     0.049 A 
ATOM     22  H   UNL A   1      41.769  27.929  30.457  1.00  0.00     0.167 HD
ATOM     23  C   UNL A   1      41.703  30.936  33.600  1.00  0.00     0.037 A 
ATOM     24  C   UNL A   1      42.834  25.774  29.035  1.00  0.00     0.037 A 
ATOM     25  C   UNL A   1      42.811  30.073  33.913  1.00  0.00     0.049 A 
ATOM     26  C   UNL A   1      43.840  26.123  30.090  1.00  0.00     0.074 A 
ATOM     27  C   UNL A   1      43.643  30.096  35.018  1.00  0.00     0.029 A 
ATOM     28  N   UNL A   1      43.296  29.088  33.066  1.00  0.00    -0.354 N 
ATOM     29  N   UNL A   1      43.727  26.984  31.073  1.00  0.00    -0.248 NA
ATOM     30  C   UNL A   1      45.124  25.414  30.051  1.00  0.00     0.031 C 
ATOM     31  C   UNL A   1      44.679  29.177  34.799  1.00  0.00     0.029 A 
ATOM     32  C   UNL A   1      44.469  28.561  33.576  1.00  0.00     0.049 A 
ATOM     33  H   UNL A   1      42.868  28.806  32.226  1.00  0.00     0.167 HD
ATOM     34  C   UNL A   1      44.919  26.910  31.782  1.00  0.00     0.074 A 
ATOM     35  C   UNL A   1      45.737  25.914  31.116  1.00  0.00     0.031 C 
ATOM     36  C   UNL A   1      45.293  27.597  32.891  1.00  0.00     0.037 A 
BRANCH  23  37
ATOM     37  C   UNL A   1      41.330  31.989  34.600  1.00  0.00     0.058 A 
ATOM     38  C   UNL A   1      41.915  33.263  34.506  1.00  0.00     0.135 A 
ATOM     39  C   UNL A   1      40.338  31.792  35.567  1.00  0.00     0.135 A 
ATOM     40  F   UNL A   1      42.844  33.504  33.568  1.00  0.00    -0.206 F 
ATOM     41  C   UNL A   1      41.538  34.306  35.346  1.00  0.00     0.059 A 
ATOM     42  C   UNL A   1      39.940  32.824  36.416  1.00  0.00     0.059 A 
ATOM     43  F   UNL A   1      39.743  30.596  35.688  1.00  0.00    -0.206 F 
ATOM     44  C   UNL A   1      40.550  34.075  36.302  1.00  0.00     0.060 A 
BRANCH  44  45
ATOM     45  S   UNL A   1      40.029  35.444  37.362  1.00  0.00     0.124 S 
ATOM     46  O   UNL A   1      39.671  36.459  36.376  1.00  0.00    -0.237 OA
ATOM     47  O   UNL A   1      38.917  34.865  38.110  1.00  0.00    -0.237 OA
ATOM     48  O   UNL A   1      41.223  35.731  38.150  1.00  0.00    -0.744 OA
ENDBRANCH  44  45
ENDBRANCH  23  37
BRANCH  24  49
ATOM     49  C   UNL A   1      43.087  24.717  28.025  1.00  0.00     0.058 A 
ATOM     50  C   UNL A   1      43.668  25.013  26.787  1.00  0.00     0.135 A 
ATOM     51  C   UNL A   1      42.823  23.370  28.325  1.00  0.00     0.135 A 
ATOM     52  F   UNL A   1      43.933  26.285  26.456  1.00  0.00    -0.206 F 
ATOM     53  C   UNL A   1      43.993  24.008  25.881  1.00  0.00     0.059 A 
ATOM     54  C   UNL A   1      43.158  22.346  27.446  1.00  0.00     0.059 A 
ATOM     55  F   UNL A   1      42.278  23.038  29.506  1.00  0.00    -0.206 F 
ATOM     56  C   UNL A   1      43.744  22.676  26.226  1.00  0.00     0.060 A 
BRANCH  56  57
ATOM     57  S   UNL A   1      44.254  21.375  25.083  1.00  0.00     0.124 S 
ATOM     58  O   UNL A   1      43.252  20.348  25.340  1.00  0.00    -0.237 OA
ATOM     59  O   UNL A   1      44.163  22.051  23.792  1.00  0.00    -0.237 OA
ATOM     60  O   UNL A   1      45.612  21.057  25.520  1.00  0.00    -0.744 OA
ENDBRANCH  56  57
ENDBRANCH  24  49
BRANCH  36  61
ATOM     61  C   UNL A   1      46.662  27.324  33.438  1.00  0.00     0.058 A 
ATOM     62  C   UNL A   1      46.875  26.305  34.379  1.00  0.00     0.135 A 
ATOM     63  C   UNL A   1      47.776  28.050  32.989  1.00  0.00     0.135 A 
ATOM     64  F   UNL A   1      45.839  25.590  34.846  1.00  0.00    -0.206 F 
ATOM     65  C   UNL A   1      48.144  26.027  34.871  1.00  0.00     0.059 A 
ATOM     66  C   UNL A   1      49.059  27.771  33.447  1.00  0.00     0.059 A 
ATOM     67  F   UNL A   1      47.625  29.029  32.083  1.00  0.00    -0.206 F 
ATOM     68  C   UNL A   1      49.231  26.765  34.398  1.00  0.00     0.060 A 
BRANCH  68  69
ATOM     69  S   UNL A   1      50.878  26.372  35.022  1.00  0.00     0.124 S 
ATOM     70  O   UNL A   1      51.724  27.148  34.123  1.00  0.00    -0.237 OA
ATOM     71  O   UNL A   1      50.812  26.849  36.400  1.00  0.00    -0.237 OA
ATOM     72  O   UNL A   1      50.962  24.923  34.870  1.00  0.00    -0.744 OA
ENDBRANCH  68  69
ENDBRANCH  36  61
ENDBRANCH  10  11
ENDBRANCH   3   5
ENDBRANCH   2   3
ENDBRANCH   1   2
BRANCH   1  73
ATOM     73  C   UNL A   1      31.840  27.858  26.695  1.00  0.00     0.275 C 
BRANCH  73  74
ATOM     74  O   UNL A   1      31.592  26.532  27.176  1.00  0.00    -0.458 OA
BRANCH  74  75
ATOM     75  C   UNL A   1      30.794  25.764  26.388  1.00  0.00     0.343 C 
ATOM     76  O   UNL A   1      29.580  25.874  26.277  1.00  0.00    -0.246 OA
BRANCH  75  77
ATOM     77  C   UNL A   1      31.610  24.892  25.529  1.00  0.00     0.126 A 
ATOM     78  C   UNL A   1      31.764  25.286  24.252  1.00  0.00     0.038 A 
ATOM     79  C   UNL A   1      32.302  23.669  26.029  1.00  0.00     0.265 A 
ATOM     80  C   UNL A   1      32.645  24.573  23.358  1.00  0.00     0.035 A 
ATOM     81  N   UNL A   1      33.116  23.013  25.096  1.00  0.00    -0.309 N 
ATOM     82  O   UNL A   1      32.134  23.292  27.185  1.00  0.00    -0.268 OA
ATOM     83  Br  UNL A   1      32.900  25.251  21.643  1.00  0.00    -0.049 Br
ATOM     84  C   UNL A   1      33.288  23.486  23.803  1.00  0.00     0.105 A 
BRANCH  81  85
ATOM     85  C   UNL A   1      33.802  21.781  25.490  1.00  0.00     0.161 C 
BRANCH  85  86
ATOM     86  C   UNL A   1      35.302  21.929  25.508  1.00  0.00    -0.025 A 
ATOM     87  C   UNL A   1      36.132  20.918  25.003  1.00  0.00     0.006 A 
ATOM     88  C   UNL A   1      35.881  23.100  26.017  1.00  0.00     0.044 A 
ATOM     89  C   UNL A   1      37.520  21.075  25.003  1.00  0.00     0.003 A 
ATOM     90  C   UNL A   1      37.263  23.245  26.006  1.00  0.00     0.123 A 
ATOM     91  C   UNL A   1      38.085  22.245  25.503  1.00  0.00     0.039 A 
ATOM     92  F   UNL A   1      37.811  24.367  26.491  1.00  0.00    -0.207 F 
ENDBRANCH  85  86
ENDBRANCH  81  85
ENDBRANCH  75  77
ENDBRANCH  74  75
ENDBRANCH  73  74
ENDBRANCH   1  73
TORSDOF 16
ENDMDL
