MODEL 1
REMARK VINA RESULT:     -11.4      0.000      0.000
REMARK SMILES Cc1cc(S(=O)(=O)Nc2ccc(F)c(F)c2)sc1C(=O)OCCOC(=O)c1ccc(-c2c3nc(c(-c4c(F)cc(S(=O)(=O)[O-])cc4F)c4ccc([nH]4)c(-c4c(F)cc(S(=O)(=O)[O-])cc4F)c4nc(c(-c5c(F)cc(S(=O)(=O)[O-])cc5F)c5ccc2[nH]5)C=C4)C=C3)cc1
REMARK SMILES IDX 22 1 21 2 19 3 20 4 18 5 1 6 2 7 3 8 4 9 17 10 5 11 6 12
REMARK SMILES IDX 7 13 8 14 9 16 10 17 16 18 11 19 14 20 12 21 15 22 13 23
REMARK SMILES IDX 23 24 24 25 25 26 26 27 27 28 28 29 92 30 29 31 91 32 30 33
REMARK SMILES IDX 31 34 32 35 85 36 33 37 90 38 84 39 86 40 34 41 89 42 83 43
REMARK SMILES IDX 82 44 35 46 69 47 48 48 68 49 49 50 52 51 67 52 87 53 50 54
REMARK SMILES IDX 51 55 66 57 88 58 53 59 36 60 37 61 46 62 38 63 39 64 45 65
REMARK SMILES IDX 47 66 40 67 41 68 42 69 43 70 44 71 70 72 71 73 80 74 72 75
REMARK SMILES IDX 73 76 79 77 81 78 74 79 75 80 76 81 77 82 78 83 54 84 55 85
REMARK SMILES IDX 64 86 56 87 57 88 63 89 65 90 58 91 59 92 60 93 61 94 62 95
REMARK H PARENT 8 15 86 45 52 56
REMARK Flexibility Score: inf
ROOT
ATOM      1  C   UNL A   1      38.187  22.111  25.530  1.00  0.00     0.275 C 
ENDROOT
BRANCH   1   2
ATOM      2  O   UNL A   1      36.972  21.845  24.803  1.00  0.00    -0.458 OA
BRANCH   2   3
ATOM      3  C   UNL A   1      36.360  20.640  24.990  1.00  0.00     0.348 C 
ATOM      4  O   UNL A   1      36.950  19.569  24.989  1.00  0.00    -0.245 OA
BRANCH   3   5
ATOM      5  C   UNL A   1      34.931  20.834  25.220  1.00  0.00     0.116 A 
ATOM      6  C   UNL A   1      33.847  18.639  24.355  1.00  0.00     0.046 C 
ATOM      7  C   UNL A   1      33.842  20.020  24.923  1.00  0.00    -0.024 A 
ATOM      8  C   UNL A   1      32.611  20.674  25.253  1.00  0.00     0.038 A 
ATOM      9  C   UNL A   1      32.771  21.922  25.815  1.00  0.00     0.141 A 
ATOM     10  S   UNL A   1      34.419  22.283  26.015  1.00  0.00    -0.115 S 
BRANCH   9  11
ATOM     11  S   UNL A   1      31.506  23.074  26.304  1.00  0.00     0.271 S 
ATOM     12  O   UNL A   1      30.266  22.387  26.013  1.00  0.00    -0.200 OA
ATOM     13  O   UNL A   1      31.844  23.384  27.680  1.00  0.00    -0.200 OA
BRANCH  11  14
ATOM     14  N   UNL A   1      31.501  24.540  25.499  1.00  0.00    -0.279 N 
ATOM     15  H   UNL A   1      31.030  24.596  24.637  1.00  0.00     0.180 HD
BRANCH  14  16
ATOM     16  C   UNL A   1      32.142  25.710  25.995  1.00  0.00     0.052 A 
ATOM     17  C   UNL A   1      33.453  26.085  25.689  1.00  0.00     0.030 A 
ATOM     18  C   UNL A   1      31.316  26.574  26.718  1.00  0.00     0.069 A 
ATOM     19  C   UNL A   1      33.954  27.295  26.170  1.00  0.00     0.044 A 
ATOM     20  C   UNL A   1      31.818  27.777  27.187  1.00  0.00     0.160 A 
ATOM     21  C   UNL A   1      33.122  28.136  26.901  1.00  0.00     0.158 A 
ATOM     22  F   UNL A   1      31.031  28.581  27.912  1.00  0.00    -0.204 F 
ATOM     23  F   UNL A   1      33.587  29.312  27.317  1.00  0.00    -0.204 F 
ENDBRANCH  14  16
ENDBRANCH  11  14
ENDBRANCH   9  11
ENDBRANCH   3   5
ENDBRANCH   2   3
ENDBRANCH   1   2
BRANCH   1  24
ATOM     24  C   UNL A   1      38.255  23.578  25.951  1.00  0.00     0.275 C 
BRANCH  24  25
ATOM     25  O   UNL A   1      39.487  23.838  26.645  1.00  0.00    -0.458 OA
BRANCH  25  26
ATOM     26  C   UNL A   1      40.106  24.995  26.318  1.00  0.00     0.338 C 
ATOM     27  O   UNL A   1      40.400  25.391  25.203  1.00  0.00    -0.246 OA
BRANCH  26  28
ATOM     28  C   UNL A   1      40.291  25.792  27.537  1.00  0.00     0.060 A 
ATOM     29  C   UNL A   1      39.414  25.578  28.594  1.00  0.00     0.016 A 
ATOM     30  C   UNL A   1      41.239  26.814  27.601  1.00  0.00     0.016 A 
ATOM     31  C   UNL A   1      39.437  26.436  29.689  1.00  0.00     0.010 A 
ATOM     32  C   UNL A   1      41.296  27.636  28.739  1.00  0.00     0.010 A 
ATOM     33  C   UNL A   1      40.364  27.490  29.783  1.00  0.00    -0.014 A 
BRANCH  33  34
ATOM     34  C   UNL A   1      40.243  28.485  30.903  1.00  0.00     0.031 A 
ATOM     35  C   UNL A   1      41.349  28.613  31.935  1.00  0.00     0.074 A 
ATOM     36  C   UNL A   1      39.272  29.427  30.896  1.00  0.00     0.049 A 
ATOM     37  N   UNL A   1      41.436  29.413  32.970  1.00  0.00    -0.248 NA
ATOM     38  C   UNL A   1      42.524  27.740  31.770  1.00  0.00     0.031 C 
ATOM     39  C   UNL A   1      38.231  29.558  29.877  1.00  0.00     0.029 A 
ATOM     40  N   UNL A   1      39.083  30.533  31.697  1.00  0.00    -0.354 N 
ATOM     41  C   UNL A   1      42.630  29.096  33.610  1.00  0.00     0.074 A 
ATOM     42  C   UNL A   1      43.249  28.042  32.838  1.00  0.00     0.031 C 
ATOM     43  C   UNL A   1      37.624  30.745  30.020  1.00  0.00     0.029 A 
ATOM     44  C   UNL A   1      38.120  31.400  31.229  1.00  0.00     0.049 A 
ATOM     45  H   UNL A   1      39.589  30.688  32.527  1.00  0.00     0.167 HD
ATOM     46  C   UNL A   1      43.159  29.623  34.741  1.00  0.00     0.037 A 
ATOM     47  C   UNL A   1      37.660  32.572  31.718  1.00  0.00     0.037 A 
ATOM     48  C   UNL A   1      42.597  30.735  35.467  1.00  0.00     0.049 A 
ATOM     49  C   UNL A   1      38.216  33.104  33.013  1.00  0.00     0.074 A 
ATOM     50  C   UNL A   1      43.034  31.292  36.659  1.00  0.00     0.029 A 
ATOM     51  N   UNL A   1      41.500  31.481  35.062  1.00  0.00    -0.354 N 
ATOM     52  N   UNL A   1      39.245  32.682  33.707  1.00  0.00    -0.248 NA
ATOM     53  C   UNL A   1      37.514  34.246  33.619  1.00  0.00     0.031 C 
ATOM     54  C   UNL A   1      42.166  32.334  37.005  1.00  0.00     0.029 A 
ATOM     55  C   UNL A   1      41.228  32.470  35.996  1.00  0.00     0.049 A 
ATOM     56  H   UNL A   1      40.991  31.330  34.233  1.00  0.00     0.167 HD
ATOM     57  C   UNL A   1      39.306  33.498  34.833  1.00  0.00     0.074 A 
ATOM     58  C   UNL A   1      38.239  34.466  34.708  1.00  0.00     0.031 C 
ATOM     59  C   UNL A   1      40.160  33.432  35.885  1.00  0.00     0.037 A 
BRANCH  46  60
ATOM     60  C   UNL A   1      44.362  28.941  35.340  1.00  0.00     0.058 A 
ATOM     61  C   UNL A   1      44.274  27.802  36.153  1.00  0.00     0.135 A 
ATOM     62  C   UNL A   1      45.645  29.429  35.036  1.00  0.00     0.135 A 
ATOM     63  F   UNL A   1      43.075  27.304  36.493  1.00  0.00    -0.206 F 
ATOM     64  C   UNL A   1      45.415  27.182  36.659  1.00  0.00     0.059 A 
ATOM     65  C   UNL A   1      46.798  28.808  35.503  1.00  0.00     0.059 A 
ATOM     66  F   UNL A   1      45.788  30.517  34.262  1.00  0.00    -0.206 F 
ATOM     67  C   UNL A   1      46.673  27.692  36.326  1.00  0.00     0.060 A 
BRANCH  67  68
ATOM     68  S   UNL A   1      48.144  26.880  36.984  1.00  0.00     0.124 S 
ATOM     69  O   UNL A   1      48.836  26.492  35.759  1.00  0.00    -0.237 OA
ATOM     70  O   UNL A   1      48.772  27.948  37.755  1.00  0.00    -0.237 OA
ATOM     71  O   UNL A   1      47.602  25.777  37.772  1.00  0.00    -0.744 OA
ENDBRANCH  67  68
ENDBRANCH  46  60
BRANCH  47  72
ATOM     72  C   UNL A   1      36.536  33.279  31.033  1.00  0.00     0.058 A 
ATOM     73  C   UNL A   1      35.204  33.149  31.456  1.00  0.00     0.135 A 
ATOM     74  C   UNL A   1      36.779  34.094  29.914  1.00  0.00     0.135 A 
ATOM     75  F   UNL A   1      34.901  32.355  32.495  1.00  0.00    -0.206 F 
ATOM     76  C   UNL A   1      34.159  33.800  30.799  1.00  0.00     0.059 A 
ATOM     77  C   UNL A   1      35.763  34.790  29.272  1.00  0.00     0.059 A 
ATOM     78  F   UNL A   1      38.028  34.243  29.447  1.00  0.00    -0.206 F 
ATOM     79  C   UNL A   1      34.453  34.628  29.713  1.00  0.00     0.060 A 
BRANCH  79  80
ATOM     80  S   UNL A   1      33.114  35.521  28.898  1.00  0.00     0.124 S 
ATOM     81  O   UNL A   1      33.851  36.494  28.100  1.00  0.00    -0.237 OA
ATOM     82  O   UNL A   1      32.440  34.462  28.153  1.00  0.00    -0.237 OA
ATOM     83  O   UNL A   1      32.350  36.071  30.015  1.00  0.00    -0.744 OA
ENDBRANCH  79  80
ENDBRANCH  47  72
BRANCH  59  84
ATOM     84  C   UNL A   1      39.984  34.432  36.998  1.00  0.00     0.058 A 
ATOM     85  C   UNL A   1      40.548  35.718  36.929  1.00  0.00     0.135 A 
ATOM     86  C   UNL A   1      39.201  34.127  38.124  1.00  0.00     0.135 A 
ATOM     87  F   UNL A   1      41.306  36.068  35.878  1.00  0.00    -0.206 F 
ATOM     88  C   UNL A   1      40.368  36.650  37.946  1.00  0.00     0.059 A 
ATOM     89  C   UNL A   1      38.982  35.054  39.140  1.00  0.00     0.059 A 
ATOM     90  F   UNL A   1      38.625  32.920  38.239  1.00  0.00    -0.206 F 
ATOM     91  C   UNL A   1      39.581  36.310  39.048  1.00  0.00     0.060 A 
BRANCH  91  92
ATOM     92  S   UNL A   1      39.338  37.538  40.350  1.00  0.00     0.124 S 
ATOM     93  O   UNL A   1      38.466  38.502  39.688  1.00  0.00    -0.237 OA
ATOM     94  O   UNL A   1      38.720  36.750  41.412  1.00  0.00    -0.237 OA
ATOM     95  O   UNL A   1      40.691  38.008  40.632  1.00  0.00    -0.744 OA
ENDBRANCH  91  92
ENDBRANCH  59  84
ENDBRANCH  33  34
ENDBRANCH  26  28
ENDBRANCH  25  26
ENDBRANCH  24  25
ENDBRANCH   1  24
TORSDOF 17
ENDMDL
MODEL 2
REMARK VINA RESULT:     -11.3      6.698     12.006
REMARK SMILES Cc1cc(S(=O)(=O)Nc2ccc(F)c(F)c2)sc1C(=O)OCCOC(=O)c1ccc(-c2c3nc(c(-c4c(F)cc(S(=O)(=O)[O-])cc4F)c4ccc([nH]4)c(-c4c(F)cc(S(=O)(=O)[O-])cc4F)c4nc(c(-c5c(F)cc(S(=O)(=O)[O-])cc5F)c5ccc2[nH]5)C=C4)C=C3)cc1
REMARK SMILES IDX 22 1 21 2 19 3 20 4 18 5 1 6 2 7 3 8 4 9 17 10 5 11 6 12
REMARK SMILES IDX 7 13 8 14 9 16 10 17 16 18 11 19 14 20 12 21 15 22 13 23
REMARK SMILES IDX 23 24 24 25 25 26 26 27 27 28 28 29 92 30 29 31 91 32 30 33
REMARK SMILES IDX 31 34 32 35 85 36 33 37 90 38 84 39 86 40 34 41 89 42 83 43
REMARK SMILES IDX 82 44 35 46 69 47 48 48 68 49 49 50 52 51 67 52 87 53 50 54
REMARK SMILES IDX 51 55 66 57 88 58 53 59 36 60 37 61 46 62 38 63 39 64 45 65
REMARK SMILES IDX 47 66 40 67 41 68 42 69 43 70 44 71 70 72 71 73 80 74 72 75
REMARK SMILES IDX 73 76 79 77 81 78 74 79 75 80 76 81 77 82 78 83 54 84 55 85
REMARK SMILES IDX 64 86 56 87 57 88 63 89 65 90 58 91 59 92 60 93 61 94 62 95
REMARK H PARENT 8 15 86 45 52 56
REMARK Flexibility Score: inf
ROOT
ATOM      1  C   UNL A   1      34.560  31.735  27.712  1.00  0.00     0.275 C 
ENDROOT
BRANCH   1   2
ATOM      2  O   UNL A   1      33.700  30.590  27.556  1.00  0.00    -0.458 OA
BRANCH   2   3
ATOM      3  C   UNL A   1      34.245  29.435  27.076  1.00  0.00     0.348 C 
ATOM      4  O   UNL A   1      35.389  29.071  27.312  1.00  0.00    -0.245 OA
BRANCH   3   5
ATOM      5  C   UNL A   1      33.258  28.706  26.284  1.00  0.00     0.116 A 
ATOM      6  C   UNL A   1      31.419  28.066  28.001  1.00  0.00     0.046 C 
ATOM      7  C   UNL A   1      32.072  28.081  26.659  1.00  0.00    -0.024 A 
ATOM      8  C   UNL A   1      31.475  27.409  25.544  1.00  0.00     0.038 A 
ATOM      9  C   UNL A   1      32.170  27.555  24.362  1.00  0.00     0.141 A 
ATOM     10  S   UNL A   1      33.513  28.572  24.578  1.00  0.00    -0.115 S 
BRANCH   9  11
ATOM     11  S   UNL A   1      31.800  26.834  22.778  1.00  0.00     0.271 S 
ATOM     12  O   UNL A   1      33.085  26.735  22.121  1.00  0.00    -0.200 OA
ATOM     13  O   UNL A   1      31.076  25.623  23.117  1.00  0.00    -0.200 OA
BRANCH  11  14
ATOM     14  N   UNL A   1      30.771  27.715  21.797  1.00  0.00    -0.279 N 
ATOM     15  H   UNL A   1      30.790  27.542  20.828  1.00  0.00     0.180 HD
BRANCH  14  16
ATOM     16  C   UNL A   1      29.870  28.701  22.288  1.00  0.00     0.052 A 
ATOM     17  C   UNL A   1      30.080  30.080  22.202  1.00  0.00     0.030 A 
ATOM     18  C   UNL A   1      28.649  28.206  22.753  1.00  0.00     0.069 A 
ATOM     19  C   UNL A   1      29.091  30.957  22.647  1.00  0.00     0.044 A 
ATOM     20  C   UNL A   1      27.669  29.083  23.188  1.00  0.00     0.160 A 
ATOM     21  C   UNL A   1      27.888  30.446  23.121  1.00  0.00     0.158 A 
ATOM     22  F   UNL A   1      26.518  28.598  23.668  1.00  0.00    -0.204 F 
ATOM     23  F   UNL A   1      26.927  31.286  23.500  1.00  0.00    -0.204 F 
ENDBRANCH  14  16
ENDBRANCH  11  14
ENDBRANCH   9  11
ENDBRANCH   3   5
ENDBRANCH   2   3
ENDBRANCH   1   2
BRANCH   1  24
ATOM     24  C   UNL A   1      34.747  32.074  29.190  1.00  0.00     0.275 C 
BRANCH  24  25
ATOM     25  O   UNL A   1      35.508  31.044  29.843  1.00  0.00    -0.458 OA
BRANCH  25  26
ATOM     26  C   UNL A   1      36.618  31.463  30.491  1.00  0.00     0.338 C 
ATOM     27  O   UNL A   1      36.682  32.235  31.433  1.00  0.00    -0.246 OA
BRANCH  26  28
ATOM     28  C   UNL A   1      37.780  30.748  29.949  1.00  0.00     0.060 A 
ATOM     29  C   UNL A   1      38.766  30.339  30.839  1.00  0.00     0.016 A 
ATOM     30  C   UNL A   1      37.957  30.583  28.574  1.00  0.00     0.016 A 
ATOM     31  C   UNL A   1      39.964  29.828  30.350  1.00  0.00     0.010 A 
ATOM     32  C   UNL A   1      39.145  30.008  28.093  1.00  0.00     0.010 A 
ATOM     33  C   UNL A   1      40.189  29.663  28.971  1.00  0.00    -0.014 A 
BRANCH  33  34
ATOM     34  C   UNL A   1      41.554  29.264  28.485  1.00  0.00     0.031 A 
ATOM     35  C   UNL A   1      42.750  30.161  28.746  1.00  0.00     0.074 A 
ATOM     36  C   UNL A   1      41.788  28.019  28.010  1.00  0.00     0.049 A 
ATOM     37  N   UNL A   1      44.008  29.992  28.416  1.00  0.00    -0.248 NA
ATOM     38  C   UNL A   1      42.506  31.404  29.498  1.00  0.00     0.031 C 
ATOM     39  C   UNL A   1      40.779  26.970  27.860  1.00  0.00     0.029 A 
ATOM     40  N   UNL A   1      42.969  27.383  27.692  1.00  0.00    -0.354 N 
ATOM     41  C   UNL A   1      44.684  31.126  28.855  1.00  0.00     0.074 A 
ATOM     42  C   UNL A   1      43.702  31.973  29.495  1.00  0.00     0.031 C 
ATOM     43  C   UNL A   1      41.396  25.800  27.638  1.00  0.00     0.029 A 
ATOM     44  C   UNL A   1      42.830  26.030  27.475  1.00  0.00     0.049 A 
ATOM     45  H   UNL A   1      43.831  27.853  27.625  1.00  0.00     0.167 HD
ATOM     46  C   UNL A   1      45.996  31.441  28.728  1.00  0.00     0.037 A 
ATOM     47  C   UNL A   1      43.733  25.079  27.155  1.00  0.00     0.037 A 
ATOM     48  C   UNL A   1      46.999  30.565  28.174  1.00  0.00     0.049 A 
ATOM     49  C   UNL A   1      45.175  25.465  26.953  1.00  0.00     0.074 A 
ATOM     50  C   UNL A   1      48.341  30.829  27.950  1.00  0.00     0.029 A 
ATOM     51  N   UNL A   1      46.785  29.251  27.786  1.00  0.00    -0.354 N 
ATOM     52  N   UNL A   1      45.770  26.606  27.207  1.00  0.00    -0.248 NA
ATOM     53  C   UNL A   1      46.062  24.446  26.372  1.00  0.00     0.031 C 
ATOM     54  C   UNL A   1      48.924  29.696  27.370  1.00  0.00     0.029 A 
ATOM     55  C   UNL A   1      47.962  28.704  27.295  1.00  0.00     0.049 A 
ATOM     56  H   UNL A   1      45.925  28.777  27.850  1.00  0.00     0.167 HD
ATOM     57  C   UNL A   1      47.093  26.443  26.807  1.00  0.00     0.074 A 
ATOM     58  C   UNL A   1      47.225  25.083  26.335  1.00  0.00     0.031 C 
ATOM     59  C   UNL A   1      48.100  27.353  26.813  1.00  0.00     0.037 A 
BRANCH  46  60
ATOM     60  C   UNL A   1      46.424  32.837  29.100  1.00  0.00     0.058 A 
ATOM     61  C   UNL A   1      46.966  33.168  30.350  1.00  0.00     0.135 A 
ATOM     62  C   UNL A   1      46.327  33.859  28.139  1.00  0.00     0.135 A 
ATOM     63  F   UNL A   1      47.063  32.238  31.313  1.00  0.00    -0.206 F 
ATOM     64  C   UNL A   1      47.380  34.467  30.640  1.00  0.00     0.059 A 
ATOM     65  C   UNL A   1      46.764  35.154  28.396  1.00  0.00     0.059 A 
ATOM     66  F   UNL A   1      45.815  33.599  26.925  1.00  0.00    -0.206 F 
ATOM     67  C   UNL A   1      47.277  35.452  29.655  1.00  0.00     0.060 A 
BRANCH  67  68
ATOM     68  S   UNL A   1      47.819  37.130  30.041  1.00  0.00     0.124 S 
ATOM     69  O   UNL A   1      46.784  37.563  30.975  1.00  0.00    -0.237 OA
ATOM     70  O   UNL A   1      49.140  36.906  30.620  1.00  0.00    -0.237 OA
ATOM     71  O   UNL A   1      47.811  37.799  28.744  1.00  0.00    -0.744 OA
ENDBRANCH  67  68
ENDBRANCH  46  60
BRANCH  47  72
ATOM     72  C   UNL A   1      43.286  23.675  26.901  1.00  0.00     0.058 A 
ATOM     73  C   UNL A   1      43.082  23.180  25.604  1.00  0.00     0.135 A 
ATOM     74  C   UNL A   1      43.034  22.800  27.971  1.00  0.00     0.135 A 
ATOM     75  F   UNL A   1      43.269  23.977  24.540  1.00  0.00    -0.206 F 
ATOM     76  C   UNL A   1      42.648  21.873  25.378  1.00  0.00     0.059 A 
ATOM     77  C   UNL A   1      42.647  21.481  27.772  1.00  0.00     0.059 A 
ATOM     78  F   UNL A   1      43.191  23.219  29.237  1.00  0.00    -0.206 F 
ATOM     79  C   UNL A   1      42.444  21.029  26.472  1.00  0.00     0.060 A 
BRANCH  79  80
ATOM     80  S   UNL A   1      41.942  19.319  26.184  1.00  0.00     0.124 S 
ATOM     81  O   UNL A   1      42.345  18.679  27.431  1.00  0.00    -0.237 OA
ATOM     82  O   UNL A   1      40.504  19.448  25.967  1.00  0.00    -0.237 OA
ATOM     83  O   UNL A   1      42.712  18.939  25.002  1.00  0.00    -0.744 OA
ENDBRANCH  79  80
ENDBRANCH  47  72
BRANCH  59  84
ATOM     84  C   UNL A   1      49.444  26.916  26.291  1.00  0.00     0.058 A 
ATOM     85  C   UNL A   1      50.381  26.271  27.117  1.00  0.00     0.135 A 
ATOM     86  C   UNL A   1      49.785  27.095  24.939  1.00  0.00     0.135 A 
ATOM     87  F   UNL A   1      50.112  26.073  28.417  1.00  0.00    -0.206 F 
ATOM     88  C   UNL A   1      51.615  25.849  26.631  1.00  0.00     0.059 A 
ATOM     89  C   UNL A   1      51.002  26.653  24.424  1.00  0.00     0.059 A 
ATOM     90  F   UNL A   1      48.926  27.692  24.098  1.00  0.00    -0.206 F 
ATOM     91  C   UNL A   1      51.916  26.042  25.281  1.00  0.00     0.060 A 
BRANCH  91  92
ATOM     92  S   UNL A   1      53.512  25.468  24.660  1.00  0.00     0.124 S 
ATOM     93  O   UNL A   1      54.442  26.238  25.478  1.00  0.00    -0.237 OA
ATOM     94  O   UNL A   1      53.458  24.036  24.939  1.00  0.00    -0.237 OA
ATOM     95  O   UNL A   1      53.476  25.826  23.245  1.00  0.00    -0.744 OA
ENDBRANCH  91  92
ENDBRANCH  59  84
ENDBRANCH  33  34
ENDBRANCH  26  28
ENDBRANCH  25  26
ENDBRANCH  24  25
ENDBRANCH   1  24
TORSDOF 17
ENDMDL
MODEL 3
REMARK VINA RESULT:     -11.3      1.704      2.252
REMARK SMILES Cc1cc(S(=O)(=O)Nc2ccc(F)c(F)c2)sc1C(=O)OCCOC(=O)c1ccc(-c2c3nc(c(-c4c(F)cc(S(=O)(=O)[O-])cc4F)c4ccc([nH]4)c(-c4c(F)cc(S(=O)(=O)[O-])cc4F)c4nc(c(-c5c(F)cc(S(=O)(=O)[O-])cc5F)c5ccc2[nH]5)C=C4)C=C3)cc1
REMARK SMILES IDX 22 1 21 2 19 3 20 4 18 5 1 6 2 7 3 8 4 9 17 10 5 11 6 12
REMARK SMILES IDX 7 13 8 14 9 16 10 17 16 18 11 19 14 20 12 21 15 22 13 23
REMARK SMILES IDX 23 24 24 25 25 26 26 27 27 28 28 29 92 30 29 31 91 32 30 33
REMARK SMILES IDX 31 34 32 35 85 36 33 37 90 38 84 39 86 40 34 41 89 42 83 43
REMARK SMILES IDX 82 44 35 46 69 47 48 48 68 49 49 50 52 51 67 52 87 53 50 54
REMARK SMILES IDX 51 55 66 57 88 58 53 59 36 60 37 61 46 62 38 63 39 64 45 65
REMARK SMILES IDX 47 66 40 67 41 68 42 69 43 70 44 71 70 72 71 73 80 74 72 75
REMARK SMILES IDX 73 76 79 77 81 78 74 79 75 80 76 81 77 82 78 83 54 84 55 85
REMARK SMILES IDX 64 86 56 87 57 88 63 89 65 90 58 91 59 92 60 93 61 94 62 95
REMARK H PARENT 8 15 86 45 52 56
REMARK Flexibility Score: inf
ROOT
ATOM      1  C   UNL A   1      39.716  21.300  26.410  1.00  0.00     0.275 C 
ENDROOT
BRANCH   1   2
ATOM      2  O   UNL A   1      38.541  21.804  25.747  1.00  0.00    -0.458 OA
BRANCH   2   3
ATOM      3  C   UNL A   1      37.737  20.915  25.095  1.00  0.00     0.348 C 
ATOM      4  O   UNL A   1      38.069  19.771  24.820  1.00  0.00    -0.245 OA
BRANCH   3   5
ATOM      5  C   UNL A   1      36.438  21.523  24.819  1.00  0.00     0.116 A 
ATOM      6  C   UNL A   1      34.778  19.529  24.892  1.00  0.00     0.046 C 
ATOM      7  C   UNL A   1      35.176  20.953  24.687  1.00  0.00    -0.024 A 
ATOM      8  C   UNL A   1      34.206  21.941  24.321  1.00  0.00     0.038 A 
ATOM      9  C   UNL A   1      34.715  23.218  24.218  1.00  0.00     0.141 A 
ATOM     10  S   UNL A   1      36.360  23.243  24.638  1.00  0.00    -0.115 S 
BRANCH   9  11
ATOM     11  S   UNL A   1      33.862  24.701  23.732  1.00  0.00     0.271 S 
ATOM     12  O   UNL A   1      34.250  25.680  24.725  1.00  0.00    -0.200 OA
ATOM     13  O   UNL A   1      34.267  24.888  22.351  1.00  0.00    -0.200 OA
BRANCH  11  14
ATOM     14  N   UNL A   1      32.192  24.609  23.704  1.00  0.00    -0.279 N 
ATOM     15  H   UNL A   1      31.773  23.725  23.810  1.00  0.00     0.180 HD
BRANCH  14  16
ATOM     16  C   UNL A   1      31.346  25.741  23.533  1.00  0.00     0.052 A 
ATOM     17  C   UNL A   1      31.690  26.887  22.811  1.00  0.00     0.030 A 
ATOM     18  C   UNL A   1      30.047  25.585  24.025  1.00  0.00     0.069 A 
ATOM     19  C   UNL A   1      30.751  27.904  22.644  1.00  0.00     0.044 A 
ATOM     20  C   UNL A   1      29.118  26.597  23.849  1.00  0.00     0.160 A 
ATOM     21  C   UNL A   1      29.467  27.739  23.153  1.00  0.00     0.158 A 
ATOM     22  F   UNL A   1      27.887  26.456  24.357  1.00  0.00    -0.204 F 
ATOM     23  F   UNL A   1      28.558  28.690  22.950  1.00  0.00    -0.204 F 
ENDBRANCH  14  16
ENDBRANCH  11  14
ENDBRANCH   9  11
ENDBRANCH   3   5
ENDBRANCH   2   3
ENDBRANCH   1   2
BRANCH   1  24
ATOM     24  C   UNL A   1      40.847  22.327  26.364  1.00  0.00     0.275 C 
BRANCH  24  25
ATOM     25  O   UNL A   1      40.313  23.657  26.468  1.00  0.00    -0.458 OA
BRANCH  25  26
ATOM     26  C   UNL A   1      41.229  24.652  26.491  1.00  0.00     0.338 C 
ATOM     27  O   UNL A   1      42.216  24.769  25.785  1.00  0.00    -0.246 OA
BRANCH  26  28
ATOM     28  C   UNL A   1      40.797  25.670  27.457  1.00  0.00     0.060 A 
ATOM     29  C   UNL A   1      41.545  26.838  27.549  1.00  0.00     0.016 A 
ATOM     30  C   UNL A   1      39.743  25.435  28.340  1.00  0.00     0.016 A 
ATOM     31  C   UNL A   1      41.284  27.741  28.574  1.00  0.00     0.010 A 
ATOM     32  C   UNL A   1      39.446  26.383  29.333  1.00  0.00     0.010 A 
ATOM     33  C   UNL A   1      40.242  27.532  29.496  1.00  0.00    -0.014 A 
BRANCH  33  34
ATOM     34  C   UNL A   1      40.104  28.449  30.678  1.00  0.00     0.031 A 
ATOM     35  C   UNL A   1      41.182  28.485  31.747  1.00  0.00     0.074 A 
ATOM     36  C   UNL A   1      39.149  29.407  30.710  1.00  0.00     0.049 A 
ATOM     37  N   UNL A   1      41.252  29.210  32.837  1.00  0.00    -0.248 NA
ATOM     38  C   UNL A   1      42.348  27.606  31.554  1.00  0.00     0.031 C 
ATOM     39  C   UNL A   1      38.140  29.626  29.674  1.00  0.00     0.029 A 
ATOM     40  N   UNL A   1      38.954  30.457  31.581  1.00  0.00    -0.354 N 
ATOM     41  C   UNL A   1      42.422  28.828  33.487  1.00  0.00     0.074 A 
ATOM     42  C   UNL A   1      43.046  27.819  32.660  1.00  0.00     0.031 C 
ATOM     43  C   UNL A   1      37.548  30.811  29.884  1.00  0.00     0.029 A 
ATOM     44  C   UNL A   1      38.019  31.372  31.148  1.00  0.00     0.049 A 
ATOM     45  H   UNL A   1      39.439  30.545  32.434  1.00  0.00     0.167 HD
ATOM     46  C   UNL A   1      42.926  29.267  34.666  1.00  0.00     0.037 A 
ATOM     47  C   UNL A   1      37.564  32.515  31.704  1.00  0.00     0.037 A 
ATOM     48  C   UNL A   1      42.361  30.336  35.452  1.00  0.00     0.049 A 
ATOM     49  C   UNL A   1      38.090  32.946  33.048  1.00  0.00     0.074 A 
ATOM     50  C   UNL A   1      42.772  30.801  36.691  1.00  0.00     0.029 A 
ATOM     51  N   UNL A   1      41.288  31.127  35.069  1.00  0.00    -0.354 N 
ATOM     52  N   UNL A   1      39.093  32.459  33.740  1.00  0.00    -0.248 NA
ATOM     53  C   UNL A   1      37.390  34.055  33.714  1.00  0.00     0.031 C 
ATOM     54  C   UNL A   1      41.911  31.831  37.085  1.00  0.00     0.029 A 
ATOM     55  C   UNL A   1      41.005  32.054  36.062  1.00  0.00     0.049 A 
ATOM     56  H   UNL A   1      40.801  31.043  34.218  1.00  0.00     0.167 HD
ATOM     57  C   UNL A   1      39.134  33.194  34.921  1.00  0.00     0.074 A 
ATOM     58  C   UNL A   1      38.086  34.186  34.835  1.00  0.00     0.031 C 
ATOM     59  C   UNL A   1      39.956  33.040  35.989  1.00  0.00     0.037 A 
BRANCH  46  60
ATOM     60  C   UNL A   1      44.100  28.524  35.248  1.00  0.00     0.058 A 
ATOM     61  C   UNL A   1      43.966  27.374  36.040  1.00  0.00     0.135 A 
ATOM     62  C   UNL A   1      45.402  28.962  34.949  1.00  0.00     0.135 A 
ATOM     63  F   UNL A   1      42.748  26.922  36.375  1.00  0.00    -0.206 F 
ATOM     64  C   UNL A   1      45.081  26.698  36.532  1.00  0.00     0.059 A 
ATOM     65  C   UNL A   1      46.529  28.284  35.402  1.00  0.00     0.059 A 
ATOM     66  F   UNL A   1      45.590  30.057  34.196  1.00  0.00    -0.206 F 
ATOM     67  C   UNL A   1      46.359  27.160  36.205  1.00  0.00     0.060 A 
BRANCH  67  68
ATOM     68  S   UNL A   1      47.796  26.274  36.844  1.00  0.00     0.124 S 
ATOM     69  O   UNL A   1      48.596  27.368  37.385  1.00  0.00    -0.237 OA
ATOM     70  O   UNL A   1      47.197  25.380  37.830  1.00  0.00    -0.237 OA
ATOM     71  O   UNL A   1      48.348  25.620  35.662  1.00  0.00    -0.744 OA
ENDBRANCH  67  68
ENDBRANCH  46  60
BRANCH  47  72
ATOM     72  C   UNL A   1      36.471  33.288  31.040  1.00  0.00     0.058 A 
ATOM     73  C   UNL A   1      36.716  34.144  29.954  1.00  0.00     0.135 A 
ATOM     74  C   UNL A   1      35.147  33.197  31.501  1.00  0.00     0.135 A 
ATOM     75  F   UNL A   1      37.965  34.304  29.491  1.00  0.00    -0.206 F 
ATOM     76  C   UNL A   1      35.691  34.875  29.352  1.00  0.00     0.059 A 
ATOM     77  C   UNL A   1      34.103  33.877  30.890  1.00  0.00     0.059 A 
ATOM     78  F   UNL A   1      34.850  32.412  32.550  1.00  0.00    -0.206 F 
ATOM     79  C   UNL A   1      34.385  34.724  29.823  1.00  0.00     0.060 A 
BRANCH  79  80
ATOM     80  S   UNL A   1      33.046  35.620  29.009  1.00  0.00     0.124 S 
ATOM     81  O   UNL A   1      32.302  36.140  30.150  1.00  0.00    -0.237 OA
ATOM     82  O   UNL A   1      33.770  36.608  28.213  1.00  0.00    -0.237 OA
ATOM     83  O   UNL A   1      32.371  34.581  28.235  1.00  0.00    -0.744 OA
ENDBRANCH  79  80
ENDBRANCH  47  72
BRANCH  59  84
ATOM     84  C   UNL A   1      39.763  33.963  37.164  1.00  0.00     0.058 A 
ATOM     85  C   UNL A   1      40.332  35.249  37.191  1.00  0.00     0.135 A 
ATOM     86  C   UNL A   1      38.961  33.586  38.254  1.00  0.00     0.135 A 
ATOM     87  F   UNL A   1      41.109  35.666  36.179  1.00  0.00    -0.206 F 
ATOM     88  C   UNL A   1      40.137  36.111  38.266  1.00  0.00     0.059 A 
ATOM     89  C   UNL A   1      38.728  34.443  39.326  1.00  0.00     0.059 A 
ATOM     90  F   UNL A   1      38.380  32.375  38.278  1.00  0.00    -0.206 F 
ATOM     91  C   UNL A   1      39.331  35.700  39.329  1.00  0.00     0.060 A 
BRANCH  91  92
ATOM     92  S   UNL A   1      39.069  36.839  40.706  1.00  0.00     0.124 S 
ATOM     93  O   UNL A   1      40.439  37.135  41.109  1.00  0.00    -0.237 OA
ATOM     94  O   UNL A   1      38.344  37.935  40.071  1.00  0.00    -0.237 OA
ATOM     95  O   UNL A   1      38.292  36.050  41.659  1.00  0.00    -0.744 OA
ENDBRANCH  91  92
ENDBRANCH  59  84
ENDBRANCH  33  34
ENDBRANCH  26  28
ENDBRANCH  25  26
ENDBRANCH  24  25
ENDBRANCH   1  24
TORSDOF 17
ENDMDL
