MODEL 1
REMARK VINA RESULT:     -11.3      0.000      0.000
REMARK SMILES O=C(Cc1ccccc1[N+](=O)[O-])N[C@@H]1C=C[C@H](C(=O)OCCOC(=O)c2ccc(-c3c4nc(c(-c5c(F)cc(S(=O)(=O)[O-])cc5F)c5ccc([nH]5)c(-c5c(F)cc(S(=O)(=O)[O-])cc5F)c5nc(c(-c6c(F)cc(S(=O)(=O)[O-])cc6F)c6ccc3[nH]6)C=C5)C=C4)cc2)C1
REMARK SMILES IDX 21 1 20 2 18 3 19 4 17 5 14 6 15 7 92 8 16 9 13 10 1 11 2 12
REMARK SMILES IDX 3 14 4 15 5 16 9 17 6 18 8 19 7 20 10 21 11 22 12 23 22 24
REMARK SMILES IDX 23 25 24 26 25 27 26 28 27 29 91 30 28 31 90 32 29 33 30 34
REMARK SMILES IDX 31 35 84 36 32 37 89 38 83 39 85 40 33 41 88 42 82 43 81 44
REMARK SMILES IDX 34 46 68 47 47 48 67 49 48 50 51 51 66 52 86 53 49 54 50 55
REMARK SMILES IDX 65 57 87 58 52 59 35 60 36 61 45 62 37 63 38 64 44 65 46 66
REMARK SMILES IDX 39 67 40 68 41 69 42 70 43 71 69 72 70 73 79 74 71 75 72 76
REMARK SMILES IDX 78 77 80 78 73 79 74 80 75 81 76 82 77 83 53 84 54 85 63 86
REMARK SMILES IDX 55 87 56 88 62 89 64 90 57 91 58 92 59 93 60 94 61 95
REMARK H PARENT 13 13 85 45 51 56
REMARK Flexibility Score: inf
ROOT
ATOM      1  C   UNL A   1      33.167  29.619  27.007  1.00  0.00     0.274 C 
ENDROOT
BRANCH   1   2
ATOM      2  O   UNL A   1      33.255  29.576  25.568  1.00  0.00    -0.462 OA
BRANCH   2   3
ATOM      3  C   UNL A   1      32.867  28.408  24.983  1.00  0.00     0.312 C 
ATOM      4  O   UNL A   1      33.545  27.786  24.172  1.00  0.00    -0.252 OA
BRANCH   3   5
ATOM      5  C   UNL A   1      31.444  28.011  25.373  1.00  0.00     0.124 C 
ATOM      6  C   UNL A   1      30.489  25.780  24.845  1.00  0.00     0.106 C 
ATOM      7  C   UNL A   1      30.039  26.828  23.885  1.00  0.00    -0.006 C 
ATOM      8  C   UNL A   1      31.264  26.581  25.908  1.00  0.00     0.048 C 
ATOM      9  C   UNL A   1      30.537  28.034  24.177  1.00  0.00    -0.014 C 
BRANCH   6  10
ATOM     10  N   UNL A   1      31.280  24.797  24.140  1.00  0.00    -0.350 N 
ATOM     11  O   UNL A   1      30.652  23.090  25.533  1.00  0.00    -0.275 OA
ATOM     12  C   UNL A   1      31.223  23.472  24.514  1.00  0.00     0.225 C 
ATOM     13  H   UNL A   1      31.859  25.073  23.393  1.00  0.00     0.164 HD
BRANCH  12  14
ATOM     14  C   UNL A   1      31.911  22.496  23.585  1.00  0.00     0.142 C 
BRANCH  14  15
ATOM     15  C   UNL A   1      33.120  21.748  24.114  1.00  0.00     0.039 A 
ATOM     16  C   UNL A   1      32.926  20.387  24.435  1.00  0.00     0.011 A 
ATOM     17  C   UNL A   1      34.437  22.233  24.221  1.00  0.00     0.273 A 
ATOM     18  C   UNL A   1      33.981  19.577  24.871  1.00  0.00     0.001 A 
ATOM     19  C   UNL A   1      35.499  21.430  24.675  1.00  0.00     0.086 A 
ATOM     20  C   UNL A   1      35.264  20.098  25.001  1.00  0.00     0.007 A 
BRANCH  17  21
ATOM     21  N   UNL A   1      34.802  23.579  23.830  1.00  0.00     0.063 N 
ATOM     22  O   UNL A   1      34.542  24.483  24.636  1.00  0.00    -0.258 OA
ATOM     23  O   UNL A   1      35.394  23.708  22.751  1.00  0.00    -0.258 OA
ENDBRANCH  17  21
ENDBRANCH  14  15
ENDBRANCH  12  14
ENDBRANCH   6  10
ENDBRANCH   3   5
ENDBRANCH   2   3
ENDBRANCH   1   2
BRANCH   1  24
ATOM     24  C   UNL A   1      34.255  30.526  27.577  1.00  0.00     0.275 C 
BRANCH  24  25
ATOM     25  O   UNL A   1      35.254  29.720  28.220  1.00  0.00    -0.458 OA
BRANCH  25  26
ATOM     26  C   UNL A   1      36.047  30.359  29.110  1.00  0.00     0.338 C 
ATOM     27  O   UNL A   1      35.694  31.141  29.977  1.00  0.00    -0.246 OA
BRANCH  26  28
ATOM     28  C   UNL A   1      37.461  29.978  28.893  1.00  0.00     0.060 A 
ATOM     29  C   UNL A   1      37.973  29.796  27.607  1.00  0.00     0.016 A 
ATOM     30  C   UNL A   1      38.273  29.731  30.002  1.00  0.00     0.016 A 
ATOM     31  C   UNL A   1      39.277  29.329  27.427  1.00  0.00     0.010 A 
ATOM     32  C   UNL A   1      39.603  29.340  29.818  1.00  0.00     0.010 A 
ATOM     33  C   UNL A   1      40.118  29.120  28.528  1.00  0.00    -0.014 A 
BRANCH  33  34
ATOM     34  C   UNL A   1      41.530  28.685  28.344  1.00  0.00     0.031 A 
ATOM     35  C   UNL A   1      42.653  29.686  28.430  1.00  0.00     0.074 A 
ATOM     36  C   UNL A   1      41.812  27.394  28.070  1.00  0.00     0.049 A 
ATOM     37  N   UNL A   1      43.915  29.540  28.117  1.00  0.00    -0.248 NA
ATOM     38  C   UNL A   1      42.308  31.031  28.918  1.00  0.00     0.031 C 
ATOM     39  C   UNL A   1      40.831  26.312  27.977  1.00  0.00     0.029 A 
ATOM     40  N   UNL A   1      43.011  26.774  27.814  1.00  0.00    -0.354 N 
ATOM     41  C   UNL A   1      44.506  30.781  28.324  1.00  0.00     0.074 A 
ATOM     42  C   UNL A   1      43.463  31.671  28.789  1.00  0.00     0.031 C 
ATOM     43  C   UNL A   1      41.467  25.160  27.712  1.00  0.00     0.029 A 
ATOM     44  C   UNL A   1      42.889  25.431  27.542  1.00  0.00     0.049 A 
ATOM     45  H   UNL A   1      43.875  27.246  27.823  1.00  0.00     0.167 HD
ATOM     46  C   UNL A   1      45.800  31.144  28.143  1.00  0.00     0.037 A 
ATOM     47  C   UNL A   1      43.809  24.522  27.162  1.00  0.00     0.037 A 
ATOM     48  C   UNL A   1      46.847  30.250  27.723  1.00  0.00     0.049 A 
ATOM     49  C   UNL A   1      45.234  24.953  26.957  1.00  0.00     0.074 A 
ATOM     50  C   UNL A   1      48.188  30.529  27.522  1.00  0.00     0.029 A 
ATOM     51  N   UNL A   1      46.678  28.900  27.457  1.00  0.00    -0.354 N 
ATOM     52  N   UNL A   1      45.763  26.142  27.109  1.00  0.00    -0.248 NA
ATOM     53  C   UNL A   1      46.182  23.921  26.513  1.00  0.00     0.031 C 
ATOM     54  C   UNL A   1      48.826  29.352  27.113  1.00  0.00     0.029 A 
ATOM     55  C   UNL A   1      47.889  28.334  27.089  1.00  0.00     0.049 A 
ATOM     56  H   UNL A   1      45.824  28.415  27.521  1.00  0.00     0.167 HD
ATOM     57  C   UNL A   1      47.106  26.003  26.782  1.00  0.00     0.074 A 
ATOM     58  C   UNL A   1      47.314  24.609  26.446  1.00  0.00     0.031 C 
ATOM     59  C   UNL A   1      48.080  26.946  26.756  1.00  0.00     0.037 A 
BRANCH  46  60
ATOM     60  C   UNL A   1      46.154  32.586  28.373  1.00  0.00     0.058 A 
ATOM     61  C   UNL A   1      46.033  33.547  27.358  1.00  0.00     0.135 A 
ATOM     62  C   UNL A   1      46.583  33.017  29.639  1.00  0.00     0.135 A 
ATOM     63  F   UNL A   1      45.644  33.185  26.126  1.00  0.00    -0.206 F 
ATOM     64  C   UNL A   1      46.351  34.883  27.583  1.00  0.00     0.059 A 
ATOM     65  C   UNL A   1      46.886  34.351  29.893  1.00  0.00     0.059 A 
ATOM     66  F   UNL A   1      46.716  32.136  30.643  1.00  0.00    -0.206 F 
ATOM     67  C   UNL A   1      46.782  35.273  28.853  1.00  0.00     0.060 A 
BRANCH  67  68
ATOM     68  S   UNL A   1      47.213  37.005  29.124  1.00  0.00     0.124 S 
ATOM     69  O   UNL A   1      47.888  36.930  30.417  1.00  0.00    -0.237 OA
ATOM     70  O   UNL A   1      48.068  37.299  27.979  1.00  0.00    -0.237 OA
ATOM     71  O   UNL A   1      45.920  37.680  29.128  1.00  0.00    -0.744 OA
ENDBRANCH  67  68
ENDBRANCH  46  60
BRANCH  47  72
ATOM     72  C   UNL A   1      43.399  23.116  26.913  1.00  0.00     0.058 A 
ATOM     73  C   UNL A   1      43.333  22.604  25.609  1.00  0.00     0.135 A 
ATOM     74  C   UNL A   1      43.082  22.252  27.974  1.00  0.00     0.135 A 
ATOM     75  F   UNL A   1      43.616  23.396  24.564  1.00  0.00    -0.206 F 
ATOM     76  C   UNL A   1      42.963  21.286  25.363  1.00  0.00     0.059 A 
ATOM     77  C   UNL A   1      42.733  20.924  27.754  1.00  0.00     0.059 A 
ATOM     78  F   UNL A   1      43.141  22.693  29.240  1.00  0.00    -0.206 F 
ATOM     79  C   UNL A   1      42.667  20.453  26.443  1.00  0.00     0.060 A 
BRANCH  79  80
ATOM     80  S   UNL A   1      42.249  18.725  26.126  1.00  0.00     0.124 S 
ATOM     81  O   UNL A   1      40.844  18.828  25.751  1.00  0.00    -0.237 OA
ATOM     82  O   UNL A   1      43.173  18.372  25.052  1.00  0.00    -0.237 OA
ATOM     83  O   UNL A   1      42.518  18.079  27.408  1.00  0.00    -0.744 OA
ENDBRANCH  79  80
ENDBRANCH  47  72
BRANCH  59  84
ATOM     84  C   UNL A   1      49.458  26.496  26.367  1.00  0.00     0.058 A 
ATOM     85  C   UNL A   1      49.907  26.578  25.040  1.00  0.00     0.135 A 
ATOM     86  C   UNL A   1      50.347  26.003  27.334  1.00  0.00     0.135 A 
ATOM     87  F   UNL A   1      49.091  27.037  24.078  1.00  0.00    -0.206 F 
ATOM     88  C   UNL A   1      51.185  26.164  24.680  1.00  0.00     0.059 A 
ATOM     89  C   UNL A   1      51.636  25.601  27.001  1.00  0.00     0.059 A 
ATOM     90  F   UNL A   1      49.966  25.912  28.618  1.00  0.00    -0.206 F 
ATOM     91  C   UNL A   1      52.042  25.673  25.667  1.00  0.00     0.060 A 
BRANCH  91  92
ATOM     92  S   UNL A   1      53.707  25.156  25.197  1.00  0.00     0.124 S 
ATOM     93  O   UNL A   1      53.567  23.703  25.178  1.00  0.00    -0.237 OA
ATOM     94  O   UNL A   1      53.880  25.793  23.896  1.00  0.00    -0.237 OA
ATOM     95  O   UNL A   1      54.541  25.693  26.266  1.00  0.00    -0.744 OA
ENDBRANCH  91  92
ENDBRANCH  59  84
ENDBRANCH  33  34
ENDBRANCH  26  28
ENDBRANCH  25  26
ENDBRANCH  24  25
ENDBRANCH   1  24
TORSDOF 18
ENDMDL
MODEL 2
REMARK VINA RESULT:     -11.3      1.199      2.293
REMARK SMILES O=C(Cc1ccccc1[N+](=O)[O-])N[C@@H]1C=C[C@H](C(=O)OCCOC(=O)c2ccc(-c3c4nc(c(-c5c(F)cc(S(=O)(=O)[O-])cc5F)c5ccc([nH]5)c(-c5c(F)cc(S(=O)(=O)[O-])cc5F)c5nc(c(-c6c(F)cc(S(=O)(=O)[O-])cc6F)c6ccc3[nH]6)C=C5)C=C4)cc2)C1
REMARK SMILES IDX 21 1 20 2 18 3 19 4 17 5 14 6 15 7 92 8 16 9 13 10 1 11 2 12
REMARK SMILES IDX 3 14 4 15 5 16 9 17 6 18 8 19 7 20 10 21 11 22 12 23 22 24
REMARK SMILES IDX 23 25 24 26 25 27 26 28 27 29 91 30 28 31 90 32 29 33 30 34
REMARK SMILES IDX 31 35 84 36 32 37 89 38 83 39 85 40 33 41 88 42 82 43 81 44
REMARK SMILES IDX 34 46 68 47 47 48 67 49 48 50 51 51 66 52 86 53 49 54 50 55
REMARK SMILES IDX 65 57 87 58 52 59 35 60 36 61 45 62 37 63 38 64 44 65 46 66
REMARK SMILES IDX 39 67 40 68 41 69 42 70 43 71 69 72 70 73 79 74 71 75 72 76
REMARK SMILES IDX 78 77 80 78 73 79 74 80 75 81 76 82 77 83 53 84 54 85 63 86
REMARK SMILES IDX 55 87 56 88 62 89 64 90 57 91 58 92 59 93 60 94 61 95
REMARK H PARENT 13 13 85 45 51 56
REMARK Flexibility Score: inf
ROOT
ATOM      1  C   UNL A   1      32.858  29.456  27.244  1.00  0.00     0.274 C 
ENDROOT
BRANCH   1   2
ATOM      2  O   UNL A   1      32.069  29.768  26.078  1.00  0.00    -0.462 OA
BRANCH   2   3
ATOM      3  C   UNL A   1      31.691  28.705  25.314  1.00  0.00     0.312 C 
ATOM      4  O   UNL A   1      31.322  27.627  25.767  1.00  0.00    -0.252 OA
BRANCH   3   5
ATOM      5  C   UNL A   1      31.876  28.973  23.820  1.00  0.00     0.124 C 
ATOM      6  C   UNL A   1      32.299  27.156  22.180  1.00  0.00     0.106 C 
ATOM      7  C   UNL A   1      33.549  27.871  22.565  1.00  0.00    -0.006 C 
ATOM      8  C   UNL A   1      31.193  27.981  22.866  1.00  0.00     0.048 C 
ATOM      9  C   UNL A   1      33.323  28.862  23.434  1.00  0.00    -0.014 C 
BRANCH   6  10
ATOM     10  N   UNL A   1      32.382  25.782  22.620  1.00  0.00    -0.350 N 
ATOM     11  O   UNL A   1      33.140  25.034  20.592  1.00  0.00    -0.275 OA
ATOM     12  C   UNL A   1      32.893  24.819  21.777  1.00  0.00     0.225 C 
ATOM     13  H   UNL A   1      32.073  25.533  23.521  1.00  0.00     0.164 HD
BRANCH  12  14
ATOM     14  C   UNL A   1      33.140  23.463  22.400  1.00  0.00     0.142 C 
BRANCH  14  15
ATOM     15  C   UNL A   1      33.947  23.411  23.684  1.00  0.00     0.039 A 
ATOM     16  C   UNL A   1      35.343  23.568  23.556  1.00  0.00     0.011 A 
ATOM     17  C   UNL A   1      33.446  23.329  24.997  1.00  0.00     0.273 A 
ATOM     18  C   UNL A   1      36.186  23.602  24.673  1.00  0.00     0.001 A 
ATOM     19  C   UNL A   1      34.287  23.344  26.124  1.00  0.00     0.086 A 
ATOM     20  C   UNL A   1      35.661  23.481  25.956  1.00  0.00     0.007 A 
BRANCH  17  21
ATOM     21  N   UNL A   1      32.028  23.266  25.283  1.00  0.00     0.063 N 
ATOM     22  O   UNL A   1      31.573  22.161  25.612  1.00  0.00    -0.258 OA
ATOM     23  O   UNL A   1      31.397  24.330  25.232  1.00  0.00    -0.258 OA
ENDBRANCH  17  21
ENDBRANCH  14  15
ENDBRANCH  12  14
ENDBRANCH   6  10
ENDBRANCH   3   5
ENDBRANCH   2   3
ENDBRANCH   1   2
BRANCH   1  24
ATOM     24  C   UNL A   1      34.158  30.258  27.235  1.00  0.00     0.275 C 
BRANCH  24  25
ATOM     25  O   UNL A   1      35.171  29.523  27.939  1.00  0.00    -0.458 OA
BRANCH  25  26
ATOM     26  C   UNL A   1      35.951  30.245  28.775  1.00  0.00     0.338 C 
ATOM     27  O   UNL A   1      35.594  31.144  29.517  1.00  0.00    -0.246 OA
BRANCH  26  28
ATOM     28  C   UNL A   1      37.357  29.791  28.674  1.00  0.00     0.060 A 
ATOM     29  C   UNL A   1      38.107  29.495  29.812  1.00  0.00     0.016 A 
ATOM     30  C   UNL A   1      37.957  29.726  27.414  1.00  0.00     0.016 A 
ATOM     31  C   UNL A   1      39.462  29.177  29.702  1.00  0.00     0.010 A 
ATOM     32  C   UNL A   1      39.293  29.328  27.299  1.00  0.00     0.010 A 
ATOM     33  C   UNL A   1      40.067  29.063  28.442  1.00  0.00    -0.014 A 
BRANCH  33  34
ATOM     34  C   UNL A   1      41.495  28.660  28.309  1.00  0.00     0.031 A 
ATOM     35  C   UNL A   1      42.590  29.687  28.437  1.00  0.00     0.074 A 
ATOM     36  C   UNL A   1      41.816  27.377  28.043  1.00  0.00     0.049 A 
ATOM     37  N   UNL A   1      43.866  29.570  28.170  1.00  0.00    -0.248 NA
ATOM     38  C   UNL A   1      42.198  31.022  28.914  1.00  0.00     0.031 C 
ATOM     39  C   UNL A   1      40.863  26.274  27.913  1.00  0.00     0.029 A 
ATOM     40  N   UNL A   1      43.036  26.785  27.829  1.00  0.00    -0.354 N 
ATOM     41  C   UNL A   1      44.421  30.824  28.400  1.00  0.00     0.074 A 
ATOM     42  C   UNL A   1      43.341  31.688  28.828  1.00  0.00     0.031 C 
ATOM     43  C   UNL A   1      41.534  25.137  27.669  1.00  0.00     0.029 A 
ATOM     44  C   UNL A   1      42.955  25.440  27.552  1.00  0.00     0.049 A 
ATOM     45  H   UNL A   1      43.889  27.276  27.871  1.00  0.00     0.167 HD
ATOM     46  C   UNL A   1      45.711  31.217  28.266  1.00  0.00     0.037 A 
ATOM     47  C   UNL A   1      43.909  24.554  27.203  1.00  0.00     0.037 A 
ATOM     48  C   UNL A   1      46.793  30.347  27.884  1.00  0.00     0.049 A 
ATOM     49  C   UNL A   1      45.330  25.017  27.051  1.00  0.00     0.074 A 
ATOM     50  C   UNL A   1      48.135  30.657  27.732  1.00  0.00     0.029 A 
ATOM     51  N   UNL A   1      46.665  28.994  27.609  1.00  0.00    -0.354 N 
ATOM     52  N   UNL A   1      45.826  26.218  27.224  1.00  0.00    -0.248 NA
ATOM     53  C   UNL A   1      46.316  24.008  26.640  1.00  0.00     0.031 C 
ATOM     54  C   UNL A   1      48.813  29.496  27.343  1.00  0.00     0.029 A 
ATOM     55  C   UNL A   1      47.900  28.457  27.284  1.00  0.00     0.049 A 
ATOM     56  H   UNL A   1      45.820  28.490  27.641  1.00  0.00     0.167 HD
ATOM     57  C   UNL A   1      47.183  26.109  26.946  1.00  0.00     0.074 A 
ATOM     58  C   UNL A   1      47.435  24.722  26.615  1.00  0.00     0.031 C 
ATOM     59  C   UNL A   1      48.135  27.075  26.956  1.00  0.00     0.037 A 
BRANCH  46  60
ATOM     60  C   UNL A   1      46.024  32.665  28.512  1.00  0.00     0.058 A 
ATOM     61  C   UNL A   1      46.419  33.132  29.774  1.00  0.00     0.135 A 
ATOM     62  C   UNL A   1      45.964  33.591  27.458  1.00  0.00     0.135 A 
ATOM     63  F   UNL A   1      46.474  32.292  30.820  1.00  0.00    -0.206 F 
ATOM     64  C   UNL A   1      46.719  34.474  29.991  1.00  0.00     0.059 A 
ATOM     65  C   UNL A   1      46.280  34.934  27.645  1.00  0.00     0.059 A 
ATOM     66  F   UNL A   1      45.590  33.195  26.231  1.00  0.00    -0.206 F 
ATOM     67  C   UNL A   1      46.641  35.367  28.920  1.00  0.00     0.060 A 
BRANCH  67  68
ATOM     68  S   UNL A   1      47.010  37.108  29.220  1.00  0.00     0.124 S 
ATOM     69  O   UNL A   1      47.213  37.109  30.666  1.00  0.00    -0.237 OA
ATOM     70  O   UNL A   1      48.206  37.321  28.413  1.00  0.00    -0.237 OA
ATOM     71  O   UNL A   1      45.810  37.795  28.753  1.00  0.00    -0.744 OA
ENDBRANCH  67  68
ENDBRANCH  46  60
BRANCH  47  72
ATOM     72  C   UNL A   1      43.540  23.139  26.937  1.00  0.00     0.058 A 
ATOM     73  C   UNL A   1      43.245  22.261  27.989  1.00  0.00     0.135 A 
ATOM     74  C   UNL A   1      43.457  22.643  25.626  1.00  0.00     0.135 A 
ATOM     75  F   UNL A   1      43.322  22.687  29.259  1.00  0.00    -0.206 F 
ATOM     76  C   UNL A   1      42.886  20.938  27.754  1.00  0.00     0.059 A 
ATOM     77  C   UNL A   1      43.076  21.331  25.365  1.00  0.00     0.059 A 
ATOM     78  F   UNL A   1      43.718  23.449  24.585  1.00  0.00    -0.206 F 
ATOM     79  C   UNL A   1      42.802  20.483  26.437  1.00  0.00     0.060 A 
BRANCH  79  80
ATOM     80  S   UNL A   1      42.273  18.784  26.130  1.00  0.00     0.124 S 
ATOM     81  O   UNL A   1      43.221  18.363  25.106  1.00  0.00    -0.237 OA
ATOM     82  O   UNL A   1      42.435  18.165  27.443  1.00  0.00    -0.237 OA
ATOM     83  O   UNL A   1      40.890  18.942  25.690  1.00  0.00    -0.744 OA
ENDBRANCH  79  80
ENDBRANCH  47  72
BRANCH  59  84
ATOM     84  C   UNL A   1      49.537  26.657  26.616  1.00  0.00     0.058 A 
ATOM     85  C   UNL A   1      50.423  26.198  27.602  1.00  0.00     0.135 A 
ATOM     86  C   UNL A   1      49.987  26.691  25.288  1.00  0.00     0.135 A 
ATOM     87  F   UNL A   1      50.039  26.153  28.887  1.00  0.00    -0.206 F 
ATOM     88  C   UNL A   1      51.720  25.807  27.285  1.00  0.00     0.059 A 
ATOM     89  C   UNL A   1      51.274  26.288  24.945  1.00  0.00     0.059 A 
ATOM     90  F   UNL A   1      49.174  27.116  24.308  1.00  0.00    -0.206 F 
ATOM     91  C   UNL A   1      52.139  25.860  25.954  1.00  0.00     0.060 A 
BRANCH  91  92
ATOM     92  S   UNL A   1      53.817  25.333  25.548  1.00  0.00     0.124 S 
ATOM     93  O   UNL A   1      53.561  24.202  24.661  1.00  0.00    -0.237 OA
ATOM     94  O   UNL A   1      54.377  26.522  24.914  1.00  0.00    -0.237 OA
ATOM     95  O   UNL A   1      54.389  24.997  26.847  1.00  0.00    -0.744 OA
ENDBRANCH  91  92
ENDBRANCH  59  84
ENDBRANCH  33  34
ENDBRANCH  26  28
ENDBRANCH  25  26
ENDBRANCH  24  25
ENDBRANCH   1  24
TORSDOF 18
ENDMDL
MODEL 3
REMARK VINA RESULT:     -11.2      6.674     12.079
REMARK SMILES O=C(Cc1ccccc1[N+](=O)[O-])N[C@@H]1C=C[C@H](C(=O)OCCOC(=O)c2ccc(-c3c4nc(c(-c5c(F)cc(S(=O)(=O)[O-])cc5F)c5ccc([nH]5)c(-c5c(F)cc(S(=O)(=O)[O-])cc5F)c5nc(c(-c6c(F)cc(S(=O)(=O)[O-])cc6F)c6ccc3[nH]6)C=C5)C=C4)cc2)C1
REMARK SMILES IDX 21 1 20 2 18 3 19 4 17 5 14 6 15 7 92 8 16 9 13 10 1 11 2 12
REMARK SMILES IDX 3 14 4 15 5 16 9 17 6 18 8 19 7 20 10 21 11 22 12 23 22 24
REMARK SMILES IDX 23 25 24 26 25 27 26 28 27 29 91 30 28 31 90 32 29 33 30 34
REMARK SMILES IDX 31 35 84 36 32 37 89 38 83 39 85 40 33 41 88 42 82 43 81 44
REMARK SMILES IDX 34 46 68 47 47 48 67 49 48 50 51 51 66 52 86 53 49 54 50 55
REMARK SMILES IDX 65 57 87 58 52 59 35 60 36 61 45 62 37 63 38 64 44 65 46 66
REMARK SMILES IDX 39 67 40 68 41 69 42 70 43 71 69 72 70 73 79 74 71 75 72 76
REMARK SMILES IDX 78 77 80 78 73 79 74 80 75 81 76 82 77 83 53 84 54 85 63 86
REMARK SMILES IDX 55 87 56 88 62 89 64 90 57 91 58 92 59 93 60 94 61 95
REMARK H PARENT 13 13 85 45 51 56
REMARK Flexibility Score: inf
ROOT
ATOM      1  C   UNL A   1      38.197  21.985  25.466  1.00  0.00     0.274 C 
ENDROOT
BRANCH   1   2
ATOM      2  O   UNL A   1      36.873  22.126  26.021  1.00  0.00    -0.462 OA
BRANCH   2   3
ATOM      3  C   UNL A   1      36.035  22.967  25.353  1.00  0.00     0.312 C 
ATOM      4  O   UNL A   1      35.782  24.113  25.708  1.00  0.00    -0.252 OA
BRANCH   3   5
ATOM      5  C   UNL A   1      35.362  22.286  24.161  1.00  0.00     0.124 C 
ATOM      6  C   UNL A   1      33.008  22.742  23.516  1.00  0.00     0.106 C 
ATOM      7  C   UNL A   1      33.145  21.476  24.290  1.00  0.00    -0.006 C 
ATOM      8  C   UNL A   1      34.467  23.179  23.288  1.00  0.00     0.048 C 
ATOM      9  C   UNL A   1      34.414  21.217  24.623  1.00  0.00    -0.014 C 
BRANCH   6  10
ATOM     10  N   UNL A   1      32.213  23.680  24.277  1.00  0.00    -0.350 N 
ATOM     11  O   UNL A   1      31.676  24.930  22.433  1.00  0.00    -0.275 OA
ATOM     12  C   UNL A   1      31.525  24.683  23.628  1.00  0.00     0.225 C 
ATOM     13  H   UNL A   1      32.164  23.604  25.257  1.00  0.00     0.164 HD
BRANCH  12  14
ATOM     14  C   UNL A   1      30.556  25.473  24.480  1.00  0.00     0.142 C 
BRANCH  14  15
ATOM     15  C   UNL A   1      30.967  26.868  24.909  1.00  0.00     0.039 A 
ATOM     16  C   UNL A   1      31.840  26.954  26.015  1.00  0.00     0.011 A 
ATOM     17  C   UNL A   1      30.658  28.080  24.263  1.00  0.00     0.273 A 
ATOM     18  C   UNL A   1      32.341  28.182  26.464  1.00  0.00     0.001 A 
ATOM     19  C   UNL A   1      31.142  29.320  24.719  1.00  0.00     0.086 A 
ATOM     20  C   UNL A   1      31.985  29.364  25.824  1.00  0.00     0.007 A 
BRANCH  17  21
ATOM     21  N   UNL A   1      29.856  28.134  23.058  1.00  0.00     0.063 N 
ATOM     22  O   UNL A   1      30.422  27.832  21.998  1.00  0.00    -0.258 OA
ATOM     23  O   UNL A   1      28.659  28.419  23.194  1.00  0.00    -0.258 OA
ENDBRANCH  17  21
ENDBRANCH  14  15
ENDBRANCH  12  14
ENDBRANCH   6  10
ENDBRANCH   3   5
ENDBRANCH   2   3
ENDBRANCH   1   2
BRANCH   1  24
ATOM     24  C   UNL A   1      39.249  22.389  26.497  1.00  0.00     0.275 C 
BRANCH  24  25
ATOM     25  O   UNL A   1      39.359  23.820  26.524  1.00  0.00    -0.458 OA
BRANCH  25  26
ATOM     26  C   UNL A   1      40.604  24.314  26.712  1.00  0.00     0.338 C 
ATOM     27  O   UNL A   1      41.621  23.978  26.129  1.00  0.00    -0.246 OA
BRANCH  26  28
ATOM     28  C   UNL A   1      40.580  25.359  27.760  1.00  0.00     0.060 A 
ATOM     29  C   UNL A   1      39.476  25.520  28.599  1.00  0.00     0.016 A 
ATOM     30  C   UNL A   1      41.659  26.240  27.860  1.00  0.00     0.016 A 
ATOM     31  C   UNL A   1      39.428  26.581  29.506  1.00  0.00     0.010 A 
ATOM     32  C   UNL A   1      41.643  27.254  28.824  1.00  0.00     0.010 A 
ATOM     33  C   UNL A   1      40.521  27.446  29.649  1.00  0.00    -0.014 A 
BRANCH  33  34
ATOM     34  C   UNL A   1      40.507  28.541  30.659  1.00  0.00     0.031 A 
ATOM     35  C   UNL A   1      41.483  28.531  31.806  1.00  0.00     0.074 A 
ATOM     36  C   UNL A   1      39.598  29.535  30.569  1.00  0.00     0.049 A 
ATOM     37  N   UNL A   1      41.506  29.283  32.878  1.00  0.00    -0.248 NA
ATOM     38  C   UNL A   1      42.567  27.538  31.749  1.00  0.00     0.031 C 
ATOM     39  C   UNL A   1      38.606  29.684  29.503  1.00  0.00     0.029 A 
ATOM     40  N   UNL A   1      39.359  30.607  31.394  1.00  0.00    -0.354 N 
ATOM     41  C   UNL A   1      42.573  28.826  33.642  1.00  0.00     0.074 A 
ATOM     42  C   UNL A   1      43.173  27.729  32.913  1.00  0.00     0.031 C 
ATOM     43  C   UNL A   1      37.885  30.795  29.723  1.00  0.00     0.029 A 
ATOM     44  C   UNL A   1      38.311  31.396  30.981  1.00  0.00     0.049 A 
ATOM     45  H   UNL A   1      39.888  30.793  32.204  1.00  0.00     0.167 HD
ATOM     46  C   UNL A   1      43.010  29.280  34.843  1.00  0.00     0.037 A 
ATOM     47  C   UNL A   1      37.728  32.462  31.565  1.00  0.00     0.037 A 
ATOM     48  C   UNL A   1      42.442  30.398  35.548  1.00  0.00     0.049 A 
ATOM     49  C   UNL A   1      38.225  32.939  32.900  1.00  0.00     0.074 A 
ATOM     50  C   UNL A   1      42.827  30.934  36.766  1.00  0.00     0.029 A 
ATOM     51  N   UNL A   1      41.380  31.166  35.095  1.00  0.00    -0.354 N 
ATOM     52  N   UNL A   1      39.202  32.461  33.631  1.00  0.00    -0.248 NA
ATOM     53  C   UNL A   1      37.529  34.087  33.496  1.00  0.00     0.031 C 
ATOM     54  C   UNL A   1      41.983  32.012  37.059  1.00  0.00     0.029 A 
ATOM     55  C   UNL A   1      41.094  32.167  36.010  1.00  0.00     0.049 A 
ATOM     56  H   UNL A   1      40.901  31.022  34.247  1.00  0.00     0.167 HD
ATOM     57  C   UNL A   1      39.241  33.252  34.773  1.00  0.00     0.074 A 
ATOM     58  C   UNL A   1      38.203  34.253  34.626  1.00  0.00     0.031 C 
ATOM     59  C   UNL A   1      40.058  33.155  35.851  1.00  0.00     0.037 A 
BRANCH  46  60
ATOM     60  C   UNL A   1      44.151  28.545  35.488  1.00  0.00     0.058 A 
ATOM     61  C   UNL A   1      45.487  28.898  35.247  1.00  0.00     0.135 A 
ATOM     62  C   UNL A   1      43.900  27.497  36.388  1.00  0.00     0.135 A 
ATOM     63  F   UNL A   1      45.782  29.880  34.381  1.00  0.00    -0.206 F 
ATOM     64  C   UNL A   1      46.538  28.221  35.858  1.00  0.00     0.059 A 
ATOM     65  C   UNL A   1      44.933  26.819  37.028  1.00  0.00     0.059 A 
ATOM     66  F   UNL A   1      42.639  27.120  36.651  1.00  0.00    -0.206 F 
ATOM     67  C   UNL A   1      46.250  27.179  36.743  1.00  0.00     0.060 A 
BRANCH  67  68
ATOM     68  S   UNL A   1      47.623  26.294  37.510  1.00  0.00     0.124 S 
ATOM     69  O   UNL A   1      47.834  25.213  36.550  1.00  0.00    -0.237 OA
ATOM     70  O   UNL A   1      48.667  27.312  37.557  1.00  0.00    -0.237 OA
ATOM     71  O   UNL A   1      47.085  25.889  38.804  1.00  0.00    -0.744 OA
ENDBRANCH  67  68
ENDBRANCH  46  60
BRANCH  47  72
ATOM     72  C   UNL A   1      36.580  33.131  30.900  1.00  0.00     0.058 A 
ATOM     73  C   UNL A   1      35.276  32.986  31.395  1.00  0.00     0.135 A 
ATOM     74  C   UNL A   1      36.765  33.943  29.770  1.00  0.00     0.135 A 
ATOM     75  F   UNL A   1      35.049  32.211  32.467  1.00  0.00    -0.206 F 
ATOM     76  C   UNL A   1      34.194  33.617  30.791  1.00  0.00     0.059 A 
ATOM     77  C   UNL A   1      35.702  34.603  29.163  1.00  0.00     0.059 A 
ATOM     78  F   UNL A   1      37.996  34.121  29.266  1.00  0.00    -0.206 F 
ATOM     79  C   UNL A   1      34.418  34.426  29.676  1.00  0.00     0.060 A 
BRANCH  79  80
ATOM     80  S   UNL A   1      33.021  35.295  28.931  1.00  0.00     0.124 S 
ATOM     81  O   UNL A   1      32.161  35.512  30.087  1.00  0.00    -0.237 OA
ATOM     82  O   UNL A   1      33.656  36.486  28.374  1.00  0.00    -0.237 OA
ATOM     83  O   UNL A   1      32.527  34.341  27.942  1.00  0.00    -0.744 OA
ENDBRANCH  79  80
ENDBRANCH  47  72
BRANCH  59  84
ATOM     84  C   UNL A   1      39.871  34.166  36.945  1.00  0.00     0.058 A 
ATOM     85  C   UNL A   1      40.488  35.425  36.890  1.00  0.00     0.135 A 
ATOM     86  C   UNL A   1      39.046  33.882  38.044  1.00  0.00     0.135 A 
ATOM     87  F   UNL A   1      41.291  35.739  35.863  1.00  0.00    -0.206 F 
ATOM     88  C   UNL A   1      40.312  36.362  37.902  1.00  0.00     0.059 A 
ATOM     89  C   UNL A   1      38.840  34.812  39.058  1.00  0.00     0.059 A 
ATOM     90  F   UNL A   1      38.428  32.694  38.137  1.00  0.00    -0.206 F 
ATOM     91  C   UNL A   1      39.489  36.045  38.986  1.00  0.00     0.060 A 
BRANCH  91  92
ATOM     92  S   UNL A   1      39.249  37.274  40.286  1.00  0.00     0.124 S 
ATOM     93  O   UNL A   1      38.527  36.500  41.291  1.00  0.00    -0.237 OA
ATOM     94  O   UNL A   1      40.618  37.642  40.631  1.00  0.00    -0.237 OA
ATOM     95  O   UNL A   1      38.476  38.320  39.623  1.00  0.00    -0.744 OA
ENDBRANCH  91  92
ENDBRANCH  59  84
ENDBRANCH  33  34
ENDBRANCH  26  28
ENDBRANCH  25  26
ENDBRANCH  24  25
ENDBRANCH   1  24
TORSDOF 18
ENDMDL
