MODEL 1
REMARK VINA RESULT:     -12.4      0.000      0.000
REMARK SMILES O=C(OCCOC(=O)c1ccc(-c2c3nc(c(-c4c(F)cc(S(=O)(=O)[O-])cc4F)c4ccc([nH]4)c(-c4c(F)cc(S(=O)(=O)[O-])cc4F)c4nc(c(-c5c(F)cc(S(=O)(=O)[O-])cc5F)c5ccc2[nH]5)C=C4)C=C3)cc1)c1ccc(NC(=O)[C@@H]2CC=CC[C@@H]2C(=O)Nc2ccc(Br)cc2)cc1
REMARK SMILES IDX 4 1 3 2 2 3 1 4 75 5 76 6 99 7 77 8 98 9 78 10 79 11 80 12
REMARK SMILES IDX 81 14 82 15 83 16 87 17 84 18 86 19 85 20 88 21 89 22 90 23
REMARK SMILES IDX 91 25 92 26 97 27 93 28 96 29 94 30 95 31 5 32 6 33 7 34
REMARK SMILES IDX 8 35 9 36 10 37 74 38 11 39 73 40 12 41 13 42 14 43 67 44
REMARK SMILES IDX 15 45 72 46 66 47 68 48 16 49 71 50 65 51 64 52 17 54 51 55
REMARK SMILES IDX 30 56 50 57 31 58 34 59 49 60 69 61 32 62 33 63 48 65 70 66
REMARK SMILES IDX 35 67 18 68 19 69 28 70 20 71 21 72 27 73 29 74 22 75 23 76
REMARK SMILES IDX 24 77 25 78 26 79 52 80 53 81 62 82 54 83 55 84 61 85 63 86
REMARK SMILES IDX 56 87 57 88 58 89 59 90 60 91 36 92 37 93 46 94 38 95 39 96
REMARK SMILES IDX 45 97 47 98 40 99 41 100 42 101 43 102 44 103
REMARK H PARENT 79 13 90 24 68 53 34 64
REMARK Flexibility Score: inf
ROOT
ATOM      1  C   UNL A   1      42.773  21.704  25.755  1.00  0.00     0.275 C 
ENDROOT
BRANCH   1   2
ATOM      2  O   UNL A   1      41.451  21.135  25.850  1.00  0.00    -0.458 OA
BRANCH   2   3
ATOM      3  C   UNL A   1      40.390  21.450  26.635  1.00  0.00     0.338 C 
ATOM      4  O   UNL A   1      40.444  21.173  27.833  1.00  0.00    -0.246 OA
BRANCH   3   5
ATOM      5  C   UNL A   1      39.094  21.980  26.106  1.00  0.00     0.060 A 
ATOM      6  C   UNL A   1      38.618  23.272  26.275  1.00  0.00     0.018 A 
ATOM      7  C   UNL A   1      38.280  21.104  25.369  1.00  0.00     0.018 A 
ATOM      8  C   UNL A   1      37.529  23.739  25.530  1.00  0.00     0.027 A 
ATOM      9  C   UNL A   1      37.165  21.577  24.657  1.00  0.00     0.027 A 
ATOM     10  C   UNL A   1      36.888  22.938  24.595  1.00  0.00     0.041 A 
BRANCH  10  11
ATOM     11  N   UNL A   1      36.068  23.387  23.530  1.00  0.00    -0.326 N 
ATOM     12  C   UNL A   1      34.721  23.688  23.468  1.00  0.00     0.228 C 
ATOM     13  H   UNL A   1      36.547  23.507  22.678  1.00  0.00     0.169 HD
ATOM     14  O   UNL A   1      34.305  24.327  22.501  1.00  0.00    -0.274 OA
BRANCH  12  15
ATOM     15  C   UNL A   1      33.793  23.288  24.593  1.00  0.00     0.095 C 
ATOM     16  C   UNL A   1      32.976  22.048  24.221  1.00  0.00     0.041 C 
ATOM     17  C   UNL A   1      32.941  24.385  25.256  1.00  0.00     0.095 C 
ATOM     18  C   UNL A   1      32.203  21.563  25.414  1.00  0.00    -0.030 C 
ATOM     19  C   UNL A   1      32.404  23.780  26.587  1.00  0.00     0.041 C 
ATOM     20  C   UNL A   1      31.975  22.333  26.490  1.00  0.00    -0.030 C 
BRANCH  17  21
ATOM     21  C   UNL A   1      31.771  24.959  24.451  1.00  0.00     0.228 C 
ATOM     22  O   UNL A   1      31.007  24.253  23.792  1.00  0.00    -0.274 OA
ATOM     23  N   UNL A   1      31.444  26.291  24.584  1.00  0.00    -0.326 N 
ATOM     24  H   UNL A   1      30.593  26.548  24.162  1.00  0.00     0.169 HD
BRANCH  23  25
ATOM     25  C   UNL A   1      32.120  27.344  25.221  1.00  0.00     0.041 A 
ATOM     26  C   UNL A   1      31.688  27.710  26.501  1.00  0.00     0.027 A 
ATOM     27  C   UNL A   1      33.186  28.034  24.640  1.00  0.00     0.027 A 
ATOM     28  C   UNL A   1      32.387  28.673  27.234  1.00  0.00     0.018 A 
ATOM     29  C   UNL A   1      33.880  29.008  25.365  1.00  0.00     0.018 A 
ATOM     30  C   UNL A   1      33.492  29.305  26.669  1.00  0.00     0.018 A 
ATOM     31  Br  UNL A   1      34.467  30.575  27.673  1.00  0.00    -0.051 Br
ENDBRANCH  23  25
ENDBRANCH  17  21
ENDBRANCH  12  15
ENDBRANCH  10  11
ENDBRANCH   3   5
ENDBRANCH   2   3
ENDBRANCH   1   2
BRANCH   1  32
ATOM     32  C   UNL A   1      42.821  23.198  25.419  1.00  0.00     0.275 C 
BRANCH  32  33
ATOM     33  O   UNL A   1      42.424  24.037  26.509  1.00  0.00    -0.458 OA
BRANCH  33  34
ATOM     34  C   UNL A   1      41.880  25.227  26.126  1.00  0.00     0.338 C 
ATOM     35  O   UNL A   1      41.449  25.503  25.028  1.00  0.00    -0.246 OA
BRANCH  34  36
ATOM     36  C   UNL A   1      41.775  26.126  27.299  1.00  0.00     0.060 A 
ATOM     37  C   UNL A   1      40.679  25.963  28.153  1.00  0.00     0.016 A 
ATOM     38  C   UNL A   1      42.719  27.123  27.552  1.00  0.00     0.016 A 
ATOM     39  C   UNL A   1      40.516  26.802  29.260  1.00  0.00     0.010 A 
ATOM     40  C   UNL A   1      42.558  27.958  28.665  1.00  0.00     0.010 A 
ATOM     41  C   UNL A   1      41.447  27.816  29.520  1.00  0.00    -0.014 A 
BRANCH  41  42
ATOM     42  C   UNL A   1      41.229  28.806  30.611  1.00  0.00     0.031 A 
ATOM     43  C   UNL A   1      41.992  28.664  31.895  1.00  0.00     0.074 A 
ATOM     44  C   UNL A   1      40.330  29.802  30.498  1.00  0.00     0.049 A 
ATOM     45  N   UNL A   1      41.888  29.360  32.997  1.00  0.00    -0.248 NA
ATOM     46  C   UNL A   1      43.017  27.612  31.934  1.00  0.00     0.031 C 
ATOM     47  C   UNL A   1      39.584  30.123  29.291  1.00  0.00     0.029 A 
ATOM     48  N   UNL A   1      39.862  30.703  31.424  1.00  0.00    -0.354 N 
ATOM     49  C   UNL A   1      42.838  28.837  33.861  1.00  0.00     0.074 A 
ATOM     50  C   UNL A   1      43.475  27.734  33.171  1.00  0.00     0.031 C 
ATOM     51  C   UNL A   1      38.670  31.067  29.569  1.00  0.00     0.029 A 
ATOM     52  C   UNL A   1      38.795  31.446  30.975  1.00  0.00     0.049 A 
ATOM     53  H   UNL A   1      40.252  30.807  32.321  1.00  0.00     0.167 HD
ATOM     54  C   UNL A   1      43.167  29.251  35.109  1.00  0.00     0.037 A 
ATOM     55  C   UNL A   1      38.003  32.329  31.616  1.00  0.00     0.037 A 
ATOM     56  C   UNL A   1      42.529  30.339  35.802  1.00  0.00     0.049 A 
ATOM     57  C   UNL A   1      38.312  32.712  33.038  1.00  0.00     0.074 A 
ATOM     58  C   UNL A   1      42.831  30.853  37.051  1.00  0.00     0.029 A 
ATOM     59  N   UNL A   1      41.447  31.063  35.324  1.00  0.00    -0.354 N 
ATOM     60  N   UNL A   1      39.265  32.262  33.819  1.00  0.00    -0.248 NA
ATOM     61  C   UNL A   1      37.468  33.745  33.655  1.00  0.00     0.031 C 
ATOM     62  C   UNL A   1      41.893  31.846  37.355  1.00  0.00     0.029 A 
ATOM     63  C   UNL A   1      41.045  31.994  36.269  1.00  0.00     0.049 A 
ATOM     64  H   UNL A   1      41.026  30.934  34.444  1.00  0.00     0.167 HD
ATOM     65  C   UNL A   1      39.163  32.987  35.002  1.00  0.00     0.074 A 
ATOM     66  C   UNL A   1      38.050  33.897  34.839  1.00  0.00     0.031 C 
ATOM     67  C   UNL A   1      39.941  32.912  36.110  1.00  0.00     0.037 A 
BRANCH  54  68
ATOM     68  C   UNL A   1      44.252  28.488  35.809  1.00  0.00     0.058 A 
ATOM     69  C   UNL A   1      43.966  27.408  36.661  1.00  0.00     0.135 A 
ATOM     70  C   UNL A   1      45.596  28.858  35.646  1.00  0.00     0.135 A 
ATOM     71  F   UNL A   1      42.695  27.023  36.863  1.00  0.00    -0.206 F 
ATOM     72  C   UNL A   1      44.970  26.759  37.371  1.00  0.00     0.059 A 
ATOM     73  C   UNL A   1      46.619  28.204  36.323  1.00  0.00     0.059 A 
ATOM     74  F   UNL A   1      45.923  29.880  34.841  1.00  0.00    -0.206 F 
ATOM     75  C   UNL A   1      46.292  27.174  37.204  1.00  0.00     0.060 A 
BRANCH  75  76
ATOM     76  S   UNL A   1      47.578  26.367  38.180  1.00  0.00     0.124 S 
ATOM     77  O   UNL A   1      48.494  27.477  38.421  1.00  0.00    -0.237 OA
ATOM     78  O   UNL A   1      46.838  25.892  39.343  1.00  0.00    -0.237 OA
ATOM     79  O   UNL A   1      48.076  25.325  37.288  1.00  0.00    -0.744 OA
ENDBRANCH  75  76
ENDBRANCH  54  68
BRANCH  55  80
ATOM     80  C   UNL A   1      36.845  32.925  30.898  1.00  0.00     0.058 A 
ATOM     81  C   UNL A   1      35.532  32.515  31.163  1.00  0.00     0.135 A 
ATOM     82  C   UNL A   1      37.035  33.949  29.955  1.00  0.00     0.135 A 
ATOM     83  F   UNL A   1      35.301  31.536  32.050  1.00  0.00    -0.206 F 
ATOM     84  C   UNL A   1      34.443  33.099  30.522  1.00  0.00     0.059 A 
ATOM     85  C   UNL A   1      35.962  34.559  29.312  1.00  0.00     0.059 A 
ATOM     86  F   UNL A   1      38.273  34.386  29.678  1.00  0.00    -0.206 F 
ATOM     87  C   UNL A   1      34.669  34.127  29.603  1.00  0.00     0.060 A 
BRANCH  87  88
ATOM     88  S   UNL A   1      33.242  34.934  28.843  1.00  0.00     0.124 S 
ATOM     89  O   UNL A   1      33.859  36.091  28.207  1.00  0.00    -0.237 OA
ATOM     90  O   UNL A   1      32.752  33.895  27.942  1.00  0.00    -0.237 OA
ATOM     91  O   UNL A   1      32.375  35.226  29.981  1.00  0.00    -0.744 OA
ENDBRANCH  87  88
ENDBRANCH  55  80
BRANCH  67  92
ATOM     92  C   UNL A   1      39.663  33.867  37.241  1.00  0.00     0.058 A 
ATOM     93  C   UNL A   1      38.911  33.492  38.364  1.00  0.00     0.135 A 
ATOM     94  C   UNL A   1      40.247  35.146  37.243  1.00  0.00     0.135 A 
ATOM     95  F   UNL A   1      38.323  32.287  38.412  1.00  0.00    -0.206 F 
ATOM     96  C   UNL A   1      38.747  34.349  39.450  1.00  0.00     0.059 A 
ATOM     97  C   UNL A   1      40.118  36.009  38.328  1.00  0.00     0.059 A 
ATOM     98  F   UNL A   1      40.982  35.556  36.196  1.00  0.00    -0.206 F 
ATOM     99  C   UNL A   1      39.364  35.603  39.426  1.00  0.00     0.060 A 
BRANCH  99 100
ATOM    100  S   UNL A   1      39.209  36.674  40.873  1.00  0.00     0.124 S 
ATOM    101  O   UNL A   1      40.600  36.796  41.300  1.00  0.00    -0.237 OA
ATOM    102  O   UNL A   1      38.611  37.879  40.308  1.00  0.00    -0.237 OA
ATOM    103  O   UNL A   1      38.343  35.913  41.769  1.00  0.00    -0.744 OA
ENDBRANCH  99 100
ENDBRANCH  67  92
ENDBRANCH  41  42
ENDBRANCH  34  36
ENDBRANCH  33  34
ENDBRANCH  32  33
ENDBRANCH   1  32
TORSDOF 18
ENDMDL
MODEL 2
REMARK VINA RESULT:     -12.3      1.721      3.148
REMARK SMILES O=C(OCCOC(=O)c1ccc(-c2c3nc(c(-c4c(F)cc(S(=O)(=O)[O-])cc4F)c4ccc([nH]4)c(-c4c(F)cc(S(=O)(=O)[O-])cc4F)c4nc(c(-c5c(F)cc(S(=O)(=O)[O-])cc5F)c5ccc2[nH]5)C=C4)C=C3)cc1)c1ccc(NC(=O)[C@@H]2CC=CC[C@@H]2C(=O)Nc2ccc(Br)cc2)cc1
REMARK SMILES IDX 4 1 3 2 2 3 1 4 75 5 76 6 99 7 77 8 98 9 78 10 79 11 80 12
REMARK SMILES IDX 81 14 82 15 83 16 87 17 84 18 86 19 85 20 88 21 89 22 90 23
REMARK SMILES IDX 91 25 92 26 97 27 93 28 96 29 94 30 95 31 5 32 6 33 7 34
REMARK SMILES IDX 8 35 9 36 10 37 74 38 11 39 73 40 12 41 13 42 14 43 67 44
REMARK SMILES IDX 15 45 72 46 66 47 68 48 16 49 71 50 65 51 64 52 17 54 51 55
REMARK SMILES IDX 30 56 50 57 31 58 34 59 49 60 69 61 32 62 33 63 48 65 70 66
REMARK SMILES IDX 35 67 18 68 19 69 28 70 20 71 21 72 27 73 29 74 22 75 23 76
REMARK SMILES IDX 24 77 25 78 26 79 52 80 53 81 62 82 54 83 55 84 61 85 63 86
REMARK SMILES IDX 56 87 57 88 58 89 59 90 60 91 36 92 37 93 46 94 38 95 39 96
REMARK SMILES IDX 45 97 47 98 40 99 41 100 42 101 43 102 44 103
REMARK H PARENT 79 13 90 24 68 53 34 64
REMARK Flexibility Score: inf
ROOT
ATOM      1  C   UNL A   1      39.130  21.677  25.765  1.00  0.00     0.275 C 
ENDROOT
BRANCH   1   2
ATOM      2  O   UNL A   1      37.861  22.072  25.205  1.00  0.00    -0.458 OA
BRANCH   2   3
ATOM      3  C   UNL A   1      36.603  21.604  25.407  1.00  0.00     0.338 C 
ATOM      4  O   UNL A   1      36.316  20.489  24.973  1.00  0.00    -0.246 OA
BRANCH   3   5
ATOM      5  C   UNL A   1      35.498  22.423  25.996  1.00  0.00     0.060 A 
ATOM      6  C   UNL A   1      35.408  23.806  25.964  1.00  0.00     0.018 A 
ATOM      7  C   UNL A   1      34.450  21.742  26.638  1.00  0.00     0.018 A 
ATOM      8  C   UNL A   1      34.218  24.456  26.311  1.00  0.00     0.027 A 
ATOM      9  C   UNL A   1      33.276  22.412  27.019  1.00  0.00     0.027 A 
ATOM     10  C   UNL A   1      33.087  23.751  26.694  1.00  0.00     0.041 A 
BRANCH  10  11
ATOM     11  N   UNL A   1      31.756  24.236  26.685  1.00  0.00    -0.326 N 
ATOM     12  C   UNL A   1      31.238  25.506  26.513  1.00  0.00     0.228 C 
ATOM     13  H   UNL A   1      31.073  23.540  26.827  1.00  0.00     0.169 HD
ATOM     14  O   UNL A   1      30.038  25.624  26.265  1.00  0.00    -0.274 OA
BRANCH  12  15
ATOM     15  C   UNL A   1      32.142  26.717  26.572  1.00  0.00     0.095 C 
ATOM     16  C   UNL A   1      31.373  27.959  27.028  1.00  0.00     0.041 C 
ATOM     17  C   UNL A   1      33.063  26.994  25.370  1.00  0.00     0.095 C 
ATOM     18  C   UNL A   1      32.324  29.099  27.256  1.00  0.00    -0.030 C 
ATOM     19  C   UNL A   1      34.121  28.029  25.857  1.00  0.00     0.041 C 
ATOM     20  C   UNL A   1      33.569  29.113  26.755  1.00  0.00    -0.030 C 
BRANCH  17  21
ATOM     21  C   UNL A   1      32.412  27.502  24.080  1.00  0.00     0.228 C 
ATOM     22  O   UNL A   1      32.259  28.700  23.838  1.00  0.00    -0.274 OA
ATOM     23  N   UNL A   1      32.128  26.611  23.067  1.00  0.00    -0.326 N 
ATOM     24  H   UNL A   1      31.860  27.030  22.217  1.00  0.00     0.169 HD
BRANCH  23  25
ATOM     25  C   UNL A   1      32.157  25.208  23.042  1.00  0.00     0.041 A 
ATOM     26  C   UNL A   1      33.388  24.591  22.798  1.00  0.00     0.027 A 
ATOM     27  C   UNL A   1      31.026  24.414  23.242  1.00  0.00     0.027 A 
ATOM     28  C   UNL A   1      33.508  23.199  22.870  1.00  0.00     0.018 A 
ATOM     29  C   UNL A   1      31.138  23.021  23.303  1.00  0.00     0.018 A 
ATOM     30  C   UNL A   1      32.384  22.422  23.141  1.00  0.00     0.018 A 
ATOM     31  Br  UNL A   1      32.551  20.545  23.284  1.00  0.00    -0.051 Br
ENDBRANCH  23  25
ENDBRANCH  17  21
ENDBRANCH  12  15
ENDBRANCH  10  11
ENDBRANCH   3   5
ENDBRANCH   2   3
ENDBRANCH   1   2
BRANCH   1  32
ATOM     32  C   UNL A   1      39.656  22.571  26.893  1.00  0.00     0.275 C 
BRANCH  32  33
ATOM     33  O   UNL A   1      39.631  23.965  26.569  1.00  0.00    -0.458 OA
BRANCH  33  34
ATOM     34  C   UNL A   1      40.849  24.574  26.638  1.00  0.00     0.338 C 
ATOM     35  O   UNL A   1      41.775  24.423  25.872  1.00  0.00    -0.246 OA
BRANCH  34  36
ATOM     36  C   UNL A   1      40.847  25.566  27.738  1.00  0.00     0.060 A 
ATOM     37  C   UNL A   1      39.687  25.686  28.510  1.00  0.00     0.016 A 
ATOM     38  C   UNL A   1      41.952  26.378  28.002  1.00  0.00     0.016 A 
ATOM     39  C   UNL A   1      39.621  26.625  29.544  1.00  0.00     0.010 A 
ATOM     40  C   UNL A   1      41.888  27.313  29.042  1.00  0.00     0.010 A 
ATOM     41  C   UNL A   1      40.717  27.457  29.812  1.00  0.00    -0.014 A 
BRANCH  41  42
ATOM     42  C   UNL A   1      40.628  28.553  30.816  1.00  0.00     0.031 A 
ATOM     43  C   UNL A   1      41.417  28.450  32.089  1.00  0.00     0.074 A 
ATOM     44  C   UNL A   1      39.823  29.618  30.638  1.00  0.00     0.049 A 
ATOM     45  N   UNL A   1      41.415  29.244  33.127  1.00  0.00    -0.248 NA
ATOM     46  C   UNL A   1      42.340  27.311  32.195  1.00  0.00     0.031 C 
ATOM     47  C   UNL A   1      39.071  29.904  29.427  1.00  0.00     0.029 A 
ATOM     48  N   UNL A   1      39.472  30.636  31.492  1.00  0.00    -0.354 N 
ATOM     49  C   UNL A   1      42.340  28.709  34.010  1.00  0.00     0.074 A 
ATOM     50  C   UNL A   1      42.848  27.495  33.405  1.00  0.00     0.031 C 
ATOM     51  C   UNL A   1      38.259  30.952  29.642  1.00  0.00     0.029 A 
ATOM     52  C   UNL A   1      38.465  31.437  31.005  1.00  0.00     0.049 A 
ATOM     53  H   UNL A   1      39.900  30.779  32.366  1.00  0.00     0.167 HD
ATOM     54  C   UNL A   1      42.748  29.195  35.207  1.00  0.00     0.037 A 
ATOM     55  C   UNL A   1      37.780  32.443  31.586  1.00  0.00     0.037 A 
ATOM     56  C   UNL A   1      42.238  30.395  35.817  1.00  0.00     0.049 A 
ATOM     57  C   UNL A   1      38.171  32.915  32.960  1.00  0.00     0.074 A 
ATOM     58  C   UNL A   1      42.628  30.983  37.007  1.00  0.00     0.029 A 
ATOM     59  N   UNL A   1      41.213  31.176  35.304  1.00  0.00    -0.354 N 
ATOM     60  N   UNL A   1      39.104  32.445  33.754  1.00  0.00    -0.248 NA
ATOM     61  C   UNL A   1      37.448  34.073  33.504  1.00  0.00     0.031 C 
ATOM     62  C   UNL A   1      41.798  32.083  37.246  1.00  0.00     0.029 A 
ATOM     63  C   UNL A   1      40.931  32.219  36.173  1.00  0.00     0.049 A 
ATOM     64  H   UNL A   1      40.752  31.012  34.449  1.00  0.00     0.167 HD
ATOM     65  C   UNL A   1      39.109  33.275  34.870  1.00  0.00     0.074 A 
ATOM     66  C   UNL A   1      38.081  34.271  34.655  1.00  0.00     0.031 C 
ATOM     67  C   UNL A   1      39.913  33.221  35.961  1.00  0.00     0.037 A 
BRANCH  54  68
ATOM     68  C   UNL A   1      43.779  28.394  35.946  1.00  0.00     0.058 A 
ATOM     69  C   UNL A   1      45.155  28.618  35.771  1.00  0.00     0.135 A 
ATOM     70  C   UNL A   1      43.386  27.370  36.821  1.00  0.00     0.135 A 
ATOM     71  F   UNL A   1      45.584  29.575  34.933  1.00  0.00    -0.206 F 
ATOM     72  C   UNL A   1      46.105  27.816  36.394  1.00  0.00     0.059 A 
ATOM     73  C   UNL A   1      44.318  26.576  37.479  1.00  0.00     0.059 A 
ATOM     74  F   UNL A   1      42.084  27.118  37.026  1.00  0.00    -0.206 F 
ATOM     75  C   UNL A   1      45.675  26.790  37.237  1.00  0.00     0.060 A 
BRANCH  75  76
ATOM     76  S   UNL A   1      46.915  25.717  37.989  1.00  0.00     0.124 S 
ATOM     77  O   UNL A   1      48.073  26.603  38.036  1.00  0.00    -0.237 OA
ATOM     78  O   UNL A   1      46.311  25.395  39.278  1.00  0.00    -0.237 OA
ATOM     79  O   UNL A   1      47.013  24.603  37.052  1.00  0.00    -0.744 OA
ENDBRANCH  75  76
ENDBRANCH  54  68
BRANCH  55  80
ATOM     80  C   UNL A   1      36.661  33.084  30.846  1.00  0.00     0.058 A 
ATOM     81  C   UNL A   1      35.324  32.841  31.192  1.00  0.00     0.135 A 
ATOM     82  C   UNL A   1      36.913  33.985  29.800  1.00  0.00     0.135 A 
ATOM     83  F   UNL A   1      35.033  31.982  32.180  1.00  0.00    -0.206 F 
ATOM     84  C   UNL A   1      34.275  33.469  30.528  1.00  0.00     0.059 A 
ATOM     85  C   UNL A   1      35.882  34.638  29.131  1.00  0.00     0.059 A 
ATOM     86  F   UNL A   1      38.177  34.262  29.442  1.00  0.00    -0.206 F 
ATOM     87  C   UNL A   1      34.565  34.374  29.504  1.00  0.00     0.060 A 
BRANCH  87  88
ATOM     88  S   UNL A   1      33.197  35.247  28.710  1.00  0.00     0.124 S 
ATOM     89  O   UNL A   1      32.453  35.743  29.861  1.00  0.00    -0.237 OA
ATOM     90  O   UNL A   1      33.899  36.255  27.920  1.00  0.00    -0.237 OA
ATOM     91  O   UNL A   1      32.537  34.201  27.933  1.00  0.00    -0.744 OA
ENDBRANCH  87  88
ENDBRANCH  55  80
BRANCH  67  92
ATOM     92  C   UNL A   1      39.764  34.292  37.009  1.00  0.00     0.058 A 
ATOM     93  C   UNL A   1      38.970  34.110  38.151  1.00  0.00     0.135 A 
ATOM     94  C   UNL A   1      40.509  35.479  36.914  1.00  0.00     0.135 A 
ATOM     95  F   UNL A   1      38.229  32.999  38.289  1.00  0.00    -0.206 F 
ATOM     96  C   UNL A   1      38.921  35.065  39.163  1.00  0.00     0.059 A 
ATOM     97  C   UNL A   1      40.495  36.437  37.925  1.00  0.00     0.059 A 
ATOM     98  F   UNL A   1      41.291  35.705  35.845  1.00  0.00    -0.206 F 
ATOM     99  C   UNL A   1      39.696  36.222  39.046  1.00  0.00     0.060 A 
BRANCH  99 100
ATOM    100  S   UNL A   1      39.684  37.417  40.401  1.00  0.00     0.124 S 
ATOM    101  O   UNL A   1      38.415  38.103  40.178  1.00  0.00    -0.237 OA
ATOM    102  O   UNL A   1      39.740  36.556  41.577  1.00  0.00    -0.237 OA
ATOM    103  O   UNL A   1      40.881  38.217  40.160  1.00  0.00    -0.744 OA
ENDBRANCH  99 100
ENDBRANCH  67  92
ENDBRANCH  41  42
ENDBRANCH  34  36
ENDBRANCH  33  34
ENDBRANCH  32  33
ENDBRANCH   1  32
TORSDOF 18
ENDMDL
MODEL 3
REMARK VINA RESULT:     -12.3      1.788      8.468
REMARK SMILES O=C(OCCOC(=O)c1ccc(-c2c3nc(c(-c4c(F)cc(S(=O)(=O)[O-])cc4F)c4ccc([nH]4)c(-c4c(F)cc(S(=O)(=O)[O-])cc4F)c4nc(c(-c5c(F)cc(S(=O)(=O)[O-])cc5F)c5ccc2[nH]5)C=C4)C=C3)cc1)c1ccc(NC(=O)[C@@H]2CC=CC[C@@H]2C(=O)Nc2ccc(Br)cc2)cc1
REMARK SMILES IDX 4 1 3 2 2 3 1 4 75 5 76 6 99 7 77 8 98 9 78 10 79 11 80 12
REMARK SMILES IDX 81 14 82 15 83 16 87 17 84 18 86 19 85 20 88 21 89 22 90 23
REMARK SMILES IDX 91 25 92 26 97 27 93 28 96 29 94 30 95 31 5 32 6 33 7 34
REMARK SMILES IDX 8 35 9 36 10 37 74 38 11 39 73 40 12 41 13 42 14 43 67 44
REMARK SMILES IDX 15 45 72 46 66 47 68 48 16 49 71 50 65 51 64 52 17 54 51 55
REMARK SMILES IDX 30 56 50 57 31 58 34 59 49 60 69 61 32 62 33 63 48 65 70 66
REMARK SMILES IDX 35 67 18 68 19 69 28 70 20 71 21 72 27 73 29 74 22 75 23 76
REMARK SMILES IDX 24 77 25 78 26 79 52 80 53 81 62 82 54 83 55 84 61 85 63 86
REMARK SMILES IDX 56 87 57 88 58 89 59 90 60 91 36 92 37 93 46 94 38 95 39 96
REMARK SMILES IDX 45 97 47 98 40 99 41 100 42 101 43 102 44 103
REMARK H PARENT 79 13 90 24 68 53 34 64
REMARK Flexibility Score: inf
ROOT
ATOM      1  C   UNL A   1      39.229  21.813  26.176  1.00  0.00     0.275 C 
ENDROOT
BRANCH   1   2
ATOM      2  O   UNL A   1      38.116  22.127  25.313  1.00  0.00    -0.458 OA
BRANCH   2   3
ATOM      3  C   UNL A   1      36.804  21.789  25.378  1.00  0.00     0.338 C 
ATOM      4  O   UNL A   1      36.449  20.716  24.892  1.00  0.00    -0.246 OA
BRANCH   3   5
ATOM      5  C   UNL A   1      35.733  22.710  25.875  1.00  0.00     0.060 A 
ATOM      6  C   UNL A   1      35.511  24.005  25.434  1.00  0.00     0.018 A 
ATOM      7  C   UNL A   1      34.868  22.230  26.873  1.00  0.00     0.018 A 
ATOM      8  C   UNL A   1      34.335  24.686  25.771  1.00  0.00     0.027 A 
ATOM      9  C   UNL A   1      33.712  22.941  27.233  1.00  0.00     0.027 A 
ATOM     10  C   UNL A   1      33.349  24.097  26.550  1.00  0.00     0.041 A 
BRANCH  10  11
ATOM     11  N   UNL A   1      31.993  24.501  26.630  1.00  0.00    -0.326 N 
ATOM     12  C   UNL A   1      31.390  25.738  26.498  1.00  0.00     0.228 C 
ATOM     13  H   UNL A   1      31.365  23.765  26.815  1.00  0.00     0.169 HD
ATOM     14  O   UNL A   1      30.172  25.784  26.330  1.00  0.00    -0.274 OA
BRANCH  12  15
ATOM     15  C   UNL A   1      32.222  27.000  26.501  1.00  0.00     0.095 C 
ATOM     16  C   UNL A   1      31.454  28.166  27.127  1.00  0.00     0.041 C 
ATOM     17  C   UNL A   1      32.948  27.395  25.202  1.00  0.00     0.095 C 
ATOM     18  C   UNL A   1      32.360  29.354  27.287  1.00  0.00    -0.030 C 
ATOM     19  C   UNL A   1      34.002  28.472  25.597  1.00  0.00     0.041 C 
ATOM     20  C   UNL A   1      33.520  29.473  26.622  1.00  0.00    -0.030 C 
BRANCH  17  21
ATOM     21  C   UNL A   1      32.094  27.921  24.044  1.00  0.00     0.228 C 
ATOM     22  O   UNL A   1      31.869  29.119  23.874  1.00  0.00    -0.274 OA
ATOM     23  N   UNL A   1      31.689  27.054  23.051  1.00  0.00    -0.326 N 
ATOM     24  H   UNL A   1      31.283  27.491  22.268  1.00  0.00     0.169 HD
BRANCH  23  25
ATOM     25  C   UNL A   1      31.759  25.655  22.969  1.00  0.00     0.041 A 
ATOM     26  C   UNL A   1      32.946  25.093  22.487  1.00  0.00     0.027 A 
ATOM     27  C   UNL A   1      30.708  24.812  23.336  1.00  0.00     0.027 A 
ATOM     28  C   UNL A   1      33.122  23.706  22.484  1.00  0.00     0.018 A 
ATOM     29  C   UNL A   1      30.874  23.423  23.323  1.00  0.00     0.018 A 
ATOM     30  C   UNL A   1      32.090  22.878  22.919  1.00  0.00     0.018 A 
ATOM     31  Br  UNL A   1      32.340  21.005  22.960  1.00  0.00    -0.051 Br
ENDBRANCH  23  25
ENDBRANCH  17  21
ENDBRANCH  12  15
ENDBRANCH  10  11
ENDBRANCH   3   5
ENDBRANCH   2   3
ENDBRANCH   1   2
BRANCH   1  32
ATOM     32  C   UNL A   1      40.207  22.966  26.430  1.00  0.00     0.275 C 
BRANCH  32  33
ATOM     33  O   UNL A   1      39.561  24.237  26.563  1.00  0.00    -0.458 OA
BRANCH  33  34
ATOM     34  C   UNL A   1      40.393  25.304  26.392  1.00  0.00     0.338 C 
ATOM     35  O   UNL A   1      40.962  25.619  25.370  1.00  0.00    -0.246 OA
BRANCH  34  36
ATOM     36  C   UNL A   1      40.414  26.120  27.627  1.00  0.00     0.060 A 
ATOM     37  C   UNL A   1      39.395  25.917  28.565  1.00  0.00     0.016 A 
ATOM     38  C   UNL A   1      41.400  27.082  27.861  1.00  0.00     0.016 A 
ATOM     39  C   UNL A   1      39.352  26.679  29.737  1.00  0.00     0.010 A 
ATOM     40  C   UNL A   1      41.359  27.839  29.037  1.00  0.00     0.010 A 
ATOM     41  C   UNL A   1      40.326  27.658  29.979  1.00  0.00    -0.014 A 
BRANCH  41  42
ATOM     42  C   UNL A   1      40.229  28.572  31.149  1.00  0.00     0.031 A 
ATOM     43  C   UNL A   1      39.287  29.739  31.094  1.00  0.00     0.074 A 
ATOM     44  C   UNL A   1      40.998  28.412  32.243  1.00  0.00     0.049 A 
ATOM     45  N   UNL A   1      39.115  30.702  31.962  1.00  0.00    -0.248 NA
ATOM     46  C   UNL A   1      38.415  29.820  29.914  1.00  0.00     0.031 C 
ATOM     47  C   UNL A   1      41.887  27.286  32.482  1.00  0.00     0.029 A 
ATOM     48  N   UNL A   1      41.184  29.217  33.341  1.00  0.00    -0.354 N 
ATOM     49  C   UNL A   1      38.109  31.501  31.440  1.00  0.00     0.074 A 
ATOM     50  C   UNL A   1      37.745  30.937  30.157  1.00  0.00     0.031 C 
ATOM     51  C   UNL A   1      42.612  27.516  33.589  1.00  0.00     0.029 A 
ATOM     52  C   UNL A   1      42.206  28.799  34.161  1.00  0.00     0.049 A 
ATOM     53  H   UNL A   1      40.639  30.016  33.523  1.00  0.00     0.167 HD
ATOM     54  C   UNL A   1      37.526  32.593  31.989  1.00  0.00     0.037 A 
ATOM     55  C   UNL A   1      42.759  29.377  35.247  1.00  0.00     0.037 A 
ATOM     56  C   UNL A   1      37.892  33.164  33.259  1.00  0.00     0.049 A 
ATOM     57  C   UNL A   1      42.170  30.648  35.795  1.00  0.00     0.074 A 
ATOM     58  C   UNL A   1      37.322  34.243  33.910  1.00  0.00     0.029 A 
ATOM     59  N   UNL A   1      38.937  32.723  34.059  1.00  0.00    -0.354 N 
ATOM     60  N   UNL A   1      41.165  31.353  35.331  1.00  0.00    -0.248 NA
ATOM     61  C   UNL A   1      42.758  31.183  37.031  1.00  0.00     0.031 C 
ATOM     62  C   UNL A   1      38.060  34.495  35.072  1.00  0.00     0.029 A 
ATOM     63  C   UNL A   1      39.051  33.532  35.178  1.00  0.00     0.049 A 
ATOM     64  H   UNL A   1      39.512  31.949  33.860  1.00  0.00     0.167 HD
ATOM     65  C   UNL A   1      40.974  32.388  36.240  1.00  0.00     0.074 A 
ATOM     66  C   UNL A   1      41.972  32.225  37.276  1.00  0.00     0.031 C 
ATOM     67  C   UNL A   1      40.038  33.370  36.220  1.00  0.00     0.037 A 
BRANCH  54  68
ATOM     68  C   UNL A   1      36.447  33.258  31.186  1.00  0.00     0.058 A 
ATOM     69  C   UNL A   1      36.736  33.994  30.025  1.00  0.00     0.135 A 
ATOM     70  C   UNL A   1      35.108  33.179  31.598  1.00  0.00     0.135 A 
ATOM     71  F   UNL A   1      38.002  34.113  29.596  1.00  0.00    -0.206 F 
ATOM     72  C   UNL A   1      35.741  34.676  29.333  1.00  0.00     0.059 A 
ATOM     73  C   UNL A   1      34.093  33.828  30.905  1.00  0.00     0.059 A 
ATOM     74  F   UNL A   1      34.779  32.485  32.698  1.00  0.00    -0.206 F 
ATOM     75  C   UNL A   1      34.424  34.596  29.790  1.00  0.00     0.060 A 
BRANCH  75  76
ATOM     76  S   UNL A   1      33.153  35.537  28.922  1.00  0.00     0.124 S 
ATOM     77  O   UNL A   1      32.343  36.022  30.035  1.00  0.00    -0.237 OA
ATOM     78  O   UNL A   1      33.935  36.549  28.220  1.00  0.00    -0.237 OA
ATOM     79  O   UNL A   1      32.515  34.539  28.069  1.00  0.00    -0.744 OA
ENDBRANCH  75  76
ENDBRANCH  54  68
BRANCH  55  80
ATOM     80  C   UNL A   1      43.933  28.735  35.895  1.00  0.00     0.058 A 
ATOM     81  C   UNL A   1      43.780  27.663  36.785  1.00  0.00     0.135 A 
ATOM     82  C   UNL A   1      45.238  29.164  35.604  1.00  0.00     0.135 A 
ATOM     83  F   UNL A   1      42.553  27.224  37.100  1.00  0.00    -0.206 F 
ATOM     84  C   UNL A   1      44.879  27.034  37.363  1.00  0.00     0.059 A 
ATOM     85  C   UNL A   1      46.353  28.541  36.156  1.00  0.00     0.059 A 
ATOM     86  F   UNL A   1      45.437  30.177  34.746  1.00  0.00    -0.206 F 
ATOM     87  C   UNL A   1      46.163  27.476  37.035  1.00  0.00     0.060 A 
BRANCH  87  88
ATOM     88  S   UNL A   1      47.581  26.595  37.725  1.00  0.00     0.124 S 
ATOM     89  O   UNL A   1      48.641  26.961  36.794  1.00  0.00    -0.237 OA
ATOM     90  O   UNL A   1      47.676  27.174  39.062  1.00  0.00    -0.237 OA
ATOM     91  O   UNL A   1      47.160  25.196  37.685  1.00  0.00    -0.744 OA
ENDBRANCH  87  88
ENDBRANCH  55  80
BRANCH  67  92
ATOM     92  C   UNL A   1      39.997  34.338  37.373  1.00  0.00     0.058 A 
ATOM     93  C   UNL A   1      40.703  35.550  37.352  1.00  0.00     0.135 A 
ATOM     94  C   UNL A   1      39.155  34.090  38.471  1.00  0.00     0.135 A 
ATOM     95  F   UNL A   1      41.528  35.834  36.333  1.00  0.00    -0.206 F 
ATOM     96  C   UNL A   1      40.576  36.484  38.378  1.00  0.00     0.059 A 
ATOM     97  C   UNL A   1      38.994  35.020  39.495  1.00  0.00     0.059 A 
ATOM     98  F   UNL A   1      38.452  32.949  38.541  1.00  0.00    -0.206 F 
ATOM     99  C   UNL A   1      39.710  36.214  39.441  1.00  0.00     0.060 A 
BRANCH  99 100
ATOM    100  S   UNL A   1      39.495  37.466  40.725  1.00  0.00     0.124 S 
ATOM    101  O   UNL A   1      38.450  38.306  40.146  1.00  0.00    -0.237 OA
ATOM    102  O   UNL A   1      39.099  36.666  41.879  1.00  0.00    -0.237 OA
ATOM    103  O   UNL A   1      40.814  38.085  40.822  1.00  0.00    -0.744 OA
ENDBRANCH  99 100
ENDBRANCH  67  92
ENDBRANCH  41  42
ENDBRANCH  34  36
ENDBRANCH  33  34
ENDBRANCH  32  33
ENDBRANCH   1  32
TORSDOF 18
ENDMDL
