MODEL 1
REMARK VINA RESULT:     -11.0      0.000      0.000
REMARK SMILES COc1cc(/C=N/[NH+]=C2\NC(=O)[C@@H](CC(=O)OCCOC(=O)c3ccc(-c4c5nc(c(-c6c(F)cc(S(=O)(=O)[O-])cc6F)c6ccc([nH]6)c(-c6c(F)cc(S(=O)(=O)[O-])cc6F)c6nc(c(-c7c(F)cc(S(=O)(=O)[O-])cc7F)c7ccc4[nH]7)C=C6)C=C5)cc3)S2)cc(I)c1OC
REMARK SMILES IDX 18 1 17 2 15 3 16 4 14 5 13 6 8 7 9 8 10 10 89 11 11 12
REMARK SMILES IDX 12 14 7 15 6 16 5 17 3 18 4 19 93 20 91 21 90 22 92 23 2 24
REMARK SMILES IDX 1 25 94 26 95 27 19 28 20 29 21 30 22 31 23 32 24 33 88 34
REMARK SMILES IDX 25 35 87 36 26 37 27 38 28 39 81 40 29 41 86 42 80 43 82 44
REMARK SMILES IDX 30 45 85 46 79 47 78 48 31 50 65 51 44 52 64 53 45 54 48 55
REMARK SMILES IDX 63 56 83 57 46 58 47 59 62 61 84 62 49 63 32 64 33 65 42 66
REMARK SMILES IDX 34 67 35 68 41 69 43 70 36 71 37 72 38 73 39 74 40 75 66 76
REMARK SMILES IDX 67 77 76 78 68 79 69 80 75 81 77 82 70 83 71 84 72 85 73 86
REMARK SMILES IDX 74 87 50 88 51 89 60 90 52 91 53 92 59 93 61 94 54 95 55 96
REMARK SMILES IDX 56 97 57 98 58 99
REMARK H PARENT 8 9 10 13 82 49 48 60
REMARK Flexibility Score: inf
ROOT
ATOM      1  C   UNL A   1      38.123  22.772  25.863  1.00  0.00     0.274 C 
ENDROOT
BRANCH   1   2
ATOM      2  O   UNL A   1      37.436  21.597  25.389  1.00  0.00    -0.462 OA
BRANCH   2   3
ATOM      3  C   UNL A   1      36.158  21.457  25.807  1.00  0.00     0.307 C 
ATOM      4  O   UNL A   1      35.684  21.992  26.802  1.00  0.00    -0.252 OA
BRANCH   3   5
ATOM      5  C   UNL A   1      35.334  20.541  24.934  1.00  0.00     0.150 C 
BRANCH   5   6
ATOM      6  C   UNL A   1      34.269  21.195  24.061  1.00  0.00     0.184 C 
ATOM      7  N   UNL A   1      31.855  23.458  26.045  1.00  0.00    -0.142 N 
ATOM      8  C   UNL A   1      32.746  22.845  25.342  1.00  0.00     0.337 C 
ATOM      9  H   UNL A   1      31.080  23.005  26.448  1.00  0.00     0.343 HD
ATOM     10  N   UNL A   1      33.798  23.432  24.728  1.00  0.00    -0.202 N 
ATOM     11  S   UNL A   1      32.669  21.145  24.973  1.00  0.00    -0.020 SA
ATOM     12  C   UNL A   1      34.485  22.680  23.829  1.00  0.00     0.322 C 
ATOM     13  H   UNL A   1      34.053  24.363  24.922  1.00  0.00     0.316 HD
ATOM     14  O   UNL A   1      35.129  23.152  22.903  1.00  0.00    -0.246 OA
BRANCH   7  15
ATOM     15  N   UNL A   1      32.097  24.835  26.179  1.00  0.00    -0.093 NA
ATOM     16  C   UNL A   1      31.485  25.512  25.258  1.00  0.00     0.166 C 
BRANCH  16  17
ATOM     17  C   UNL A   1      31.580  26.974  25.195  1.00  0.00     0.002 A 
ATOM     18  C   UNL A   1      30.759  29.096  24.471  1.00  0.00     0.162 A 
ATOM     19  C   UNL A   1      30.666  27.705  24.453  1.00  0.00     0.060 A 
ATOM     20  C   UNL A   1      31.722  29.780  25.241  1.00  0.00     0.174 A 
ATOM     21  C   UNL A   1      32.648  29.019  25.963  1.00  0.00     0.060 A 
ATOM     22  C   UNL A   1      32.592  27.615  25.914  1.00  0.00     0.028 A 
ATOM     23  I   UNL A   1      34.095  29.800  27.270  1.00  0.00    -0.040 I 
BRANCH  18  24
ATOM     24  O   UNL A   1      29.913  29.803  23.661  1.00  0.00    -0.493 OA
ATOM     25  C   UNL A   1      29.423  28.974  22.615  1.00  0.00     0.278 C 
ENDBRANCH  18  24
BRANCH  20  26
ATOM     26  O   UNL A   1      31.507  31.126  25.366  1.00  0.00    -0.492 OA
ATOM     27  C   UNL A   1      31.153  31.636  26.642  1.00  0.00     0.278 C 
ENDBRANCH  20  26
ENDBRANCH  16  17
ENDBRANCH   7  15
ENDBRANCH   5   6
ENDBRANCH   3   5
ENDBRANCH   2   3
ENDBRANCH   1   2
BRANCH   1  28
ATOM     28  C   UNL A   1      39.506  22.420  26.417  1.00  0.00     0.275 C 
BRANCH  28  29
ATOM     29  O   UNL A   1      39.878  23.349  27.453  1.00  0.00    -0.458 OA
BRANCH  29  30
ATOM     30  C   UNL A   1      40.767  24.303  27.092  1.00  0.00     0.338 C 
ATOM     31  O   UNL A   1      41.640  24.231  26.247  1.00  0.00    -0.246 OA
BRANCH  30  32
ATOM     32  C   UNL A   1      40.571  25.514  27.903  1.00  0.00     0.060 A 
ATOM     33  C   UNL A   1      41.599  26.447  28.045  1.00  0.00     0.016 A 
ATOM     34  C   UNL A   1      39.401  25.627  28.658  1.00  0.00     0.016 A 
ATOM     35  C   UNL A   1      41.484  27.462  28.999  1.00  0.00     0.010 A 
ATOM     36  C   UNL A   1      39.268  26.673  29.574  1.00  0.00     0.010 A 
ATOM     37  C   UNL A   1      40.325  27.573  29.786  1.00  0.00    -0.014 A 
BRANCH  37  38
ATOM     38  C   UNL A   1      40.240  28.597  30.860  1.00  0.00     0.031 A 
ATOM     39  C   UNL A   1      41.080  28.474  32.107  1.00  0.00     0.074 A 
ATOM     40  C   UNL A   1      39.393  29.636  30.731  1.00  0.00     0.049 A 
ATOM     41  N   UNL A   1      41.138  29.269  33.145  1.00  0.00    -0.248 NA
ATOM     42  C   UNL A   1      41.951  27.292  32.210  1.00  0.00     0.031 C 
ATOM     43  C   UNL A   1      38.491  29.857  29.600  1.00  0.00     0.029 A 
ATOM     44  N   UNL A   1      39.142  30.690  31.572  1.00  0.00    -0.354 N 
ATOM     45  C   UNL A   1      42.055  28.695  34.017  1.00  0.00     0.074 A 
ATOM     46  C   UNL A   1      42.472  27.448  33.419  1.00  0.00     0.031 C 
ATOM     47  C   UNL A   1      37.777  30.972  29.823  1.00  0.00     0.029 A 
ATOM     48  C   UNL A   1      38.156  31.533  31.118  1.00  0.00     0.049 A 
ATOM     49  H   UNL A   1      39.623  30.831  32.420  1.00  0.00     0.167 HD
ATOM     50  C   UNL A   1      42.527  29.167  35.195  1.00  0.00     0.037 A 
ATOM     51  C   UNL A   1      37.608  32.624  31.686  1.00  0.00     0.037 A 
ATOM     52  C   UNL A   1      42.099  30.390  35.812  1.00  0.00     0.049 A 
ATOM     53  C   UNL A   1      38.118  33.110  33.015  1.00  0.00     0.074 A 
ATOM     54  C   UNL A   1      42.534  30.952  37.000  1.00  0.00     0.029 A 
ATOM     55  N   UNL A   1      41.125  31.230  35.303  1.00  0.00    -0.354 N 
ATOM     56  N   UNL A   1      39.057  32.600  33.773  1.00  0.00    -0.248 NA
ATOM     57  C   UNL A   1      37.498  34.327  33.559  1.00  0.00     0.031 C 
ATOM     58  C   UNL A   1      41.801  32.122  37.225  1.00  0.00     0.029 A 
ATOM     59  C   UNL A   1      40.927  32.295  36.164  1.00  0.00     0.049 A 
ATOM     60  H   UNL A   1      40.644  31.092  34.454  1.00  0.00     0.167 HD
ATOM     61  C   UNL A   1      39.154  33.444  34.874  1.00  0.00     0.074 A 
ATOM     62  C   UNL A   1      38.187  34.503  34.679  1.00  0.00     0.031 C 
ATOM     63  C   UNL A   1      39.970  33.348  35.952  1.00  0.00     0.037 A 
BRANCH  50  64
ATOM     64  C   UNL A   1      43.585  28.375  35.903  1.00  0.00     0.058 A 
ATOM     65  C   UNL A   1      44.946  28.667  35.715  1.00  0.00     0.135 A 
ATOM     66  C   UNL A   1      43.246  27.385  36.835  1.00  0.00     0.135 A 
ATOM     67  F   UNL A   1      45.318  29.593  34.817  1.00  0.00    -0.206 F 
ATOM     68  C   UNL A   1      45.939  27.997  36.424  1.00  0.00     0.059 A 
ATOM     69  C   UNL A   1      44.221  26.701  37.554  1.00  0.00     0.059 A 
ATOM     70  F   UNL A   1      41.958  27.071  37.046  1.00  0.00    -0.206 F 
ATOM     71  C   UNL A   1      45.567  27.007  37.335  1.00  0.00     0.060 A 
BRANCH  71  72
ATOM     72  S   UNL A   1      46.832  26.100  38.252  1.00  0.00     0.124 S 
ATOM     73  O   UNL A   1      47.005  24.919  37.414  1.00  0.00    -0.237 OA
ATOM     74  O   UNL A   1      47.957  27.029  38.277  1.00  0.00    -0.237 OA
ATOM     75  O   UNL A   1      46.190  25.869  39.542  1.00  0.00    -0.744 OA
ENDBRANCH  71  72
ENDBRANCH  50  64
BRANCH  51  76
ATOM     76  C   UNL A   1      36.497  33.328  30.999  1.00  0.00     0.058 A 
ATOM     77  C   UNL A   1      35.180  33.239  31.470  1.00  0.00     0.135 A 
ATOM     78  C   UNL A   1      36.738  34.108  29.857  1.00  0.00     0.135 A 
ATOM     79  F   UNL A   1      34.904  32.500  32.554  1.00  0.00    -0.206 F 
ATOM     80  C   UNL A   1      34.134  33.888  30.823  1.00  0.00     0.059 A 
ATOM     81  C   UNL A   1      35.713  34.780  29.204  1.00  0.00     0.059 A 
ATOM     82  F   UNL A   1      37.987  34.232  29.380  1.00  0.00    -0.206 F 
ATOM     83  C   UNL A   1      34.410  34.654  29.688  1.00  0.00     0.060 A 
BRANCH  83  84
ATOM     84  S   UNL A   1      33.059  35.532  28.873  1.00  0.00     0.124 S 
ATOM     85  O   UNL A   1      33.784  36.544  28.114  1.00  0.00    -0.237 OA
ATOM     86  O   UNL A   1      32.428  34.474  28.087  1.00  0.00    -0.237 OA
ATOM     87  O   UNL A   1      32.263  36.027  29.992  1.00  0.00    -0.744 OA
ENDBRANCH  83  84
ENDBRANCH  51  76
BRANCH  63  88
ATOM     88  C   UNL A   1      39.870  34.422  36.992  1.00  0.00     0.058 A 
ATOM     89  C   UNL A   1      40.575  35.627  36.867  1.00  0.00     0.135 A 
ATOM     90  C   UNL A   1      39.029  34.261  38.105  1.00  0.00     0.135 A 
ATOM     91  F   UNL A   1      41.392  35.826  35.820  1.00  0.00    -0.206 F 
ATOM     92  C   UNL A   1      40.473  36.630  37.825  1.00  0.00     0.059 A 
ATOM     93  C   UNL A   1      38.896  35.258  39.065  1.00  0.00     0.059 A 
ATOM     94  F   UNL A   1      38.322  33.131  38.261  1.00  0.00    -0.206 F 
ATOM     95  C   UNL A   1      39.634  36.433  38.924  1.00  0.00     0.060 A 
BRANCH  95  96
ATOM     96  S   UNL A   1      39.491  37.743  40.159  1.00  0.00     0.124 S 
ATOM     97  O   UNL A   1      40.791  38.394  40.045  1.00  0.00    -0.237 OA
ATOM     98  O   UNL A   1      38.350  38.515  39.675  1.00  0.00    -0.237 OA
ATOM     99  O   UNL A   1      39.260  37.010  41.400  1.00  0.00    -0.744 OA
ENDBRANCH  95  96
ENDBRANCH  63  88
ENDBRANCH  37  38
ENDBRANCH  30  32
ENDBRANCH  29  30
ENDBRANCH  28  29
ENDBRANCH   1  28
TORSDOF 19
ENDMDL
MODEL 2
REMARK VINA RESULT:     -10.8      6.564     12.615
REMARK SMILES COc1cc(/C=N/[NH+]=C2\NC(=O)[C@@H](CC(=O)OCCOC(=O)c3ccc(-c4c5nc(c(-c6c(F)cc(S(=O)(=O)[O-])cc6F)c6ccc([nH]6)c(-c6c(F)cc(S(=O)(=O)[O-])cc6F)c6nc(c(-c7c(F)cc(S(=O)(=O)[O-])cc7F)c7ccc4[nH]7)C=C6)C=C5)cc3)S2)cc(I)c1OC
REMARK SMILES IDX 18 1 17 2 15 3 16 4 14 5 13 6 8 7 9 8 10 10 89 11 11 12
REMARK SMILES IDX 12 14 7 15 6 16 5 17 3 18 4 19 93 20 91 21 90 22 92 23 2 24
REMARK SMILES IDX 1 25 94 26 95 27 19 28 20 29 21 30 22 31 23 32 24 33 88 34
REMARK SMILES IDX 25 35 87 36 26 37 27 38 28 39 81 40 29 41 86 42 80 43 82 44
REMARK SMILES IDX 30 45 85 46 79 47 78 48 31 50 65 51 44 52 64 53 45 54 48 55
REMARK SMILES IDX 63 56 83 57 46 58 47 59 62 61 84 62 49 63 32 64 33 65 42 66
REMARK SMILES IDX 34 67 35 68 41 69 43 70 36 71 37 72 38 73 39 74 40 75 66 76
REMARK SMILES IDX 67 77 76 78 68 79 69 80 75 81 77 82 70 83 71 84 72 85 73 86
REMARK SMILES IDX 74 87 50 88 51 89 60 90 52 91 53 92 59 93 61 94 54 95 55 96
REMARK SMILES IDX 56 97 57 98 58 99
REMARK H PARENT 8 9 10 13 82 49 48 60
REMARK Flexibility Score: inf
ROOT
ATOM      1  C   UNL A   1      37.074  34.343  33.307  1.00  0.00     0.274 C 
ENDROOT
BRANCH   1   2
ATOM      2  O   UNL A   1      35.644  34.154  33.304  1.00  0.00    -0.462 OA
BRANCH   2   3
ATOM      3  C   UNL A   1      34.931  35.092  32.642  1.00  0.00     0.307 C 
ATOM      4  O   UNL A   1      34.973  36.294  32.872  1.00  0.00    -0.252 OA
BRANCH   3   5
ATOM      5  C   UNL A   1      34.029  34.523  31.573  1.00  0.00     0.150 C 
BRANCH   5   6
ATOM      6  C   UNL A   1      34.431  34.776  30.125  1.00  0.00     0.184 C 
ATOM      7  N   UNL A   1      34.792  31.537  28.059  1.00  0.00    -0.142 N 
ATOM      8  C   UNL A   1      34.515  32.632  28.682  1.00  0.00     0.337 C 
ATOM      9  H   UNL A   1      35.672  31.098  28.104  1.00  0.00     0.343 HD
ATOM     10  N   UNL A   1      33.339  33.297  28.610  1.00  0.00    -0.202 N 
ATOM     11  S   UNL A   1      35.675  33.505  29.643  1.00  0.00    -0.020 SA
ATOM     12  C   UNL A   1      33.310  34.553  29.124  1.00  0.00     0.322 C 
ATOM     13  H   UNL A   1      32.541  32.889  28.202  1.00  0.00     0.316 HD
ATOM     14  O   UNL A   1      32.524  35.416  28.759  1.00  0.00    -0.246 OA
BRANCH   7  15
ATOM     15  N   UNL A   1      33.717  31.030  27.310  1.00  0.00    -0.093 NA
ATOM     16  C   UNL A   1      33.981  29.848  26.850  1.00  0.00     0.166 C 
BRANCH  16  17
ATOM     17  C   UNL A   1      33.007  29.107  26.041  1.00  0.00     0.002 A 
ATOM     18  C   UNL A   1      31.539  28.941  24.166  1.00  0.00     0.162 A 
ATOM     19  C   UNL A   1      32.413  29.703  24.940  1.00  0.00     0.060 A 
ATOM     20  C   UNL A   1      31.269  27.584  24.442  1.00  0.00     0.174 A 
ATOM     21  C   UNL A   1      31.863  27.013  25.574  1.00  0.00     0.060 A 
ATOM     22  C   UNL A   1      32.709  27.787  26.387  1.00  0.00     0.028 A 
ATOM     23  I   UNL A   1      31.710  24.993  26.127  1.00  0.00    -0.040 I 
BRANCH  18  24
ATOM     24  O   UNL A   1      30.886  29.565  23.138  1.00  0.00    -0.493 OA
ATOM     25  C   UNL A   1      29.533  29.820  23.495  1.00  0.00     0.278 C 
ENDBRANCH  18  24
BRANCH  20  26
ATOM     26  O   UNL A   1      30.617  26.913  23.443  1.00  0.00    -0.492 OA
ATOM     27  C   UNL A   1      31.395  26.293  22.431  1.00  0.00     0.278 C 
ENDBRANCH  20  26
ENDBRANCH  16  17
ENDBRANCH   7  15
ENDBRANCH   5   6
ENDBRANCH   3   5
ENDBRANCH   2   3
ENDBRANCH   1   2
BRANCH   1  28
ATOM     28  C   UNL A   1      37.771  33.303  32.427  1.00  0.00     0.275 C 
BRANCH  28  29
ATOM     29  O   UNL A   1      37.493  31.975  32.912  1.00  0.00    -0.458 OA
BRANCH  29  30
ATOM     30  C   UNL A   1      37.054  31.094  31.984  1.00  0.00     0.338 C 
ATOM     31  O   UNL A   1      35.903  30.819  31.699  1.00  0.00    -0.246 OA
BRANCH  30  32
ATOM     32  C   UNL A   1      38.194  30.436  31.327  1.00  0.00     0.060 A 
ATOM     33  C   UNL A   1      39.197  29.831  32.086  1.00  0.00     0.016 A 
ATOM     34  C   UNL A   1      38.337  30.576  29.945  1.00  0.00     0.016 A 
ATOM     35  C   UNL A   1      40.381  29.422  31.465  1.00  0.00     0.010 A 
ATOM     36  C   UNL A   1      39.500  30.120  29.321  1.00  0.00     0.010 A 
ATOM     37  C   UNL A   1      40.551  29.581  30.080  1.00  0.00    -0.014 A 
BRANCH  37  38
ATOM     38  C   UNL A   1      41.843  29.229  29.435  1.00  0.00     0.031 A 
ATOM     39  C   UNL A   1      42.910  30.275  29.231  1.00  0.00     0.074 A 
ATOM     40  C   UNL A   1      42.060  27.969  29.011  1.00  0.00     0.049 A 
ATOM     41  N   UNL A   1      44.096  30.151  28.689  1.00  0.00    -0.248 NA
ATOM     42  C   UNL A   1      42.596  31.643  29.673  1.00  0.00     0.031 C 
ATOM     43  C   UNL A   1      41.101  26.867  29.105  1.00  0.00     0.029 A 
ATOM     44  N   UNL A   1      43.154  27.411  28.399  1.00  0.00    -0.354 N 
ATOM     45  C   UNL A   1      44.671  31.414  28.734  1.00  0.00     0.074 A 
ATOM     46  C   UNL A   1      43.679  32.304  29.288  1.00  0.00     0.031 C 
ATOM     47  C   UNL A   1      41.645  25.768  28.558  1.00  0.00     0.029 A 
ATOM     48  C   UNL A   1      42.981  26.090  28.061  1.00  0.00     0.049 A 
ATOM     49  H   UNL A   1      43.984  27.908  28.219  1.00  0.00     0.167 HD
ATOM     50  C   UNL A   1      45.918  31.800  28.371  1.00  0.00     0.037 A 
ATOM     51  C   UNL A   1      43.797  25.240  27.409  1.00  0.00     0.037 A 
ATOM     52  C   UNL A   1      46.903  30.931  27.793  1.00  0.00     0.049 A 
ATOM     53  C   UNL A   1      45.162  25.698  26.978  1.00  0.00     0.074 A 
ATOM     54  C   UNL A   1      48.197  31.234  27.407  1.00  0.00     0.029 A 
ATOM     55  N   UNL A   1      46.699  29.594  27.500  1.00  0.00    -0.354 N 
ATOM     56  N   UNL A   1      45.719  26.876  27.122  1.00  0.00    -0.248 NA
ATOM     57  C   UNL A   1      46.013  24.707  26.303  1.00  0.00     0.031 C 
ATOM     58  C   UNL A   1      48.769  30.084  26.852  1.00  0.00     0.029 A 
ATOM     59  C   UNL A   1      47.836  29.063  26.915  1.00  0.00     0.049 A 
ATOM     60  H   UNL A   1      45.869  29.095  27.681  1.00  0.00     0.167 HD
ATOM     61  C   UNL A   1      46.992  26.762  26.573  1.00  0.00     0.074 A 
ATOM     62  C   UNL A   1      47.127  25.398  26.105  1.00  0.00     0.031 C 
ATOM     63  C   UNL A   1      47.961  27.703  26.465  1.00  0.00     0.037 A 
BRANCH  50  64
ATOM     64  C   UNL A   1      46.314  33.227  28.603  1.00  0.00     0.058 A 
ATOM     65  C   UNL A   1      46.074  34.206  27.625  1.00  0.00     0.135 A 
ATOM     66  C   UNL A   1      46.850  33.639  29.831  1.00  0.00     0.135 A 
ATOM     67  F   UNL A   1      45.580  33.854  26.427  1.00  0.00    -0.206 F 
ATOM     68  C   UNL A   1      46.360  35.549  27.854  1.00  0.00     0.059 A 
ATOM     69  C   UNL A   1      47.146  34.976  30.081  1.00  0.00     0.059 A 
ATOM     70  F   UNL A   1      47.098  32.739  30.794  1.00  0.00    -0.206 F 
ATOM     71  C   UNL A   1      46.906  35.923  29.083  1.00  0.00     0.060 A 
BRANCH  71  72
ATOM     72  S   UNL A   1      47.314  37.654  29.401  1.00  0.00     0.124 S 
ATOM     73  O   UNL A   1      47.060  38.256  28.097  1.00  0.00    -0.237 OA
ATOM     74  O   UNL A   1      46.384  38.027  30.462  1.00  0.00    -0.237 OA
ATOM     75  O   UNL A   1      48.716  37.585  29.801  1.00  0.00    -0.744 OA
ENDBRANCH  71  72
ENDBRANCH  50  64
BRANCH  51  76
ATOM     76  C   UNL A   1      43.333  23.861  27.114  1.00  0.00     0.058 A 
ATOM     77  C   UNL A   1      42.921  23.495  25.825  1.00  0.00     0.135 A 
ATOM     78  C   UNL A   1      43.300  22.884  28.120  1.00  0.00     0.135 A 
ATOM     79  F   UNL A   1      42.930  24.399  24.835  1.00  0.00    -0.206 F 
ATOM     80  C   UNL A   1      42.474  22.208  25.546  1.00  0.00     0.059 A 
ATOM     81  C   UNL A   1      42.876  21.586  27.862  1.00  0.00     0.059 A 
ATOM     82  F   UNL A   1      43.699  23.188  29.365  1.00  0.00    -0.206 F 
ATOM     83  C   UNL A   1      42.454  21.260  26.573  1.00  0.00     0.060 A 
BRANCH  83  84
ATOM     84  S   UNL A   1      41.916  19.577  26.201  1.00  0.00     0.124 S 
ATOM     85  O   UNL A   1      42.299  18.873  27.419  1.00  0.00    -0.237 OA
ATOM     86  O   UNL A   1      40.481  19.747  25.985  1.00  0.00    -0.237 OA
ATOM     87  O   UNL A   1      42.684  19.241  25.006  1.00  0.00    -0.744 OA
ENDBRANCH  83  84
ENDBRANCH  51  76
BRANCH  63  88
ATOM     88  C   UNL A   1      49.258  27.291  25.837  1.00  0.00     0.058 A 
ATOM     89  C   UNL A   1      50.317  26.795  26.610  1.00  0.00     0.135 A 
ATOM     90  C   UNL A   1      49.428  27.354  24.444  1.00  0.00     0.135 A 
ATOM     91  F   UNL A   1      50.201  26.717  27.945  1.00  0.00    -0.206 F 
ATOM     92  C   UNL A   1      51.517  26.400  26.027  1.00  0.00     0.059 A 
ATOM     93  C   UNL A   1      50.611  26.946  23.838  1.00  0.00     0.059 A 
ATOM     94  F   UNL A   1      48.437  27.807  23.662  1.00  0.00    -0.206 F 
ATOM     95  C   UNL A   1      51.655  26.485  24.640  1.00  0.00     0.060 A 
BRANCH  95  96
ATOM     96  S   UNL A   1      53.208  25.957  23.883  1.00  0.00     0.124 S 
ATOM     97  O   UNL A   1      53.398  24.646  24.493  1.00  0.00    -0.237 OA
ATOM     98  O   UNL A   1      52.884  25.954  22.460  1.00  0.00    -0.237 OA
ATOM     99  O   UNL A   1      54.152  26.989  24.300  1.00  0.00    -0.744 OA
ENDBRANCH  95  96
ENDBRANCH  63  88
ENDBRANCH  37  38
ENDBRANCH  30  32
ENDBRANCH  29  30
ENDBRANCH  28  29
ENDBRANCH   1  28
TORSDOF 19
ENDMDL
MODEL 3
REMARK VINA RESULT:     -10.7      2.415      3.985
REMARK SMILES COc1cc(/C=N/[NH+]=C2\NC(=O)[C@@H](CC(=O)OCCOC(=O)c3ccc(-c4c5nc(c(-c6c(F)cc(S(=O)(=O)[O-])cc6F)c6ccc([nH]6)c(-c6c(F)cc(S(=O)(=O)[O-])cc6F)c6nc(c(-c7c(F)cc(S(=O)(=O)[O-])cc7F)c7ccc4[nH]7)C=C6)C=C5)cc3)S2)cc(I)c1OC
REMARK SMILES IDX 18 1 17 2 15 3 16 4 14 5 13 6 8 7 9 8 10 10 89 11 11 12
REMARK SMILES IDX 12 14 7 15 6 16 5 17 3 18 4 19 93 20 91 21 90 22 92 23 2 24
REMARK SMILES IDX 1 25 94 26 95 27 19 28 20 29 21 30 22 31 23 32 24 33 88 34
REMARK SMILES IDX 25 35 87 36 26 37 27 38 28 39 81 40 29 41 86 42 80 43 82 44
REMARK SMILES IDX 30 45 85 46 79 47 78 48 31 50 65 51 44 52 64 53 45 54 48 55
REMARK SMILES IDX 63 56 83 57 46 58 47 59 62 61 84 62 49 63 32 64 33 65 42 66
REMARK SMILES IDX 34 67 35 68 41 69 43 70 36 71 37 72 38 73 39 74 40 75 66 76
REMARK SMILES IDX 67 77 76 78 68 79 69 80 75 81 77 82 70 83 71 84 72 85 73 86
REMARK SMILES IDX 74 87 50 88 51 89 60 90 52 91 53 92 59 93 61 94 54 95 55 96
REMARK SMILES IDX 56 97 57 98 58 99
REMARK H PARENT 8 9 10 13 82 49 48 60
REMARK Flexibility Score: inf
ROOT
ATOM      1  C   UNL A   1      44.961  23.514  25.829  1.00  0.00     0.274 C 
ENDROOT
BRANCH   1   2
ATOM      2  O   UNL A   1      44.346  22.301  26.309  1.00  0.00    -0.462 OA
BRANCH   2   3
ATOM      3  C   UNL A   1      43.313  21.837  25.572  1.00  0.00     0.307 C 
ATOM      4  O   UNL A   1      42.744  22.468  24.689  1.00  0.00    -0.252 OA
BRANCH   3   5
ATOM      5  C   UNL A   1      42.884  20.439  25.945  1.00  0.00     0.150 C 
BRANCH   5   6
ATOM      6  C   UNL A   1      41.649  20.308  26.829  1.00  0.00     0.184 C 
ATOM      7  N   UNL A   1      39.314  23.374  26.642  1.00  0.00    -0.142 N 
ATOM      8  C   UNL A   1      39.990  22.276  26.590  1.00  0.00     0.337 C 
ATOM      9  H   UNL A   1      39.531  24.113  27.254  1.00  0.00     0.343 HD
ATOM     10  N   UNL A   1      39.700  21.215  25.804  1.00  0.00    -0.202 N 
ATOM     11  S   UNL A   1      41.343  21.938  27.632  1.00  0.00    -0.020 SA
ATOM     12  C   UNL A   1      40.363  20.058  26.062  1.00  0.00     0.322 C 
ATOM     13  H   UNL A   1      39.038  21.279  25.077  1.00  0.00     0.316 HD
ATOM     14  O   UNL A   1      39.928  18.951  25.778  1.00  0.00    -0.246 OA
BRANCH   7  15
ATOM     15  N   UNL A   1      38.239  23.413  25.740  1.00  0.00    -0.093 NA
ATOM     16  C   UNL A   1      37.109  23.552  26.360  1.00  0.00     0.166 C 
BRANCH  16  17
ATOM     17  C   UNL A   1      35.840  23.626  25.629  1.00  0.00     0.002 A 
ATOM     18  C   UNL A   1      34.038  22.592  24.452  1.00  0.00     0.162 A 
ATOM     19  C   UNL A   1      35.275  22.483  25.086  1.00  0.00     0.060 A 
ATOM     20  C   UNL A   1      33.330  23.809  24.377  1.00  0.00     0.174 A 
ATOM     21  C   UNL A   1      33.932  24.954  24.912  1.00  0.00     0.060 A 
ATOM     22  C   UNL A   1      35.201  24.863  25.512  1.00  0.00     0.028 A 
ATOM     23  I   UNL A   1      33.034  26.849  25.027  1.00  0.00    -0.040 I 
BRANCH  18  24
ATOM     24  O   UNL A   1      33.535  21.477  23.838  1.00  0.00    -0.493 OA
ATOM     25  C   UNL A   1      33.704  20.337  24.671  1.00  0.00     0.278 C 
ENDBRANCH  18  24
BRANCH  20  26
ATOM     26  O   UNL A   1      32.028  23.692  23.974  1.00  0.00    -0.492 OA
ATOM     27  C   UNL A   1      31.601  24.444  22.849  1.00  0.00     0.278 C 
ENDBRANCH  20  26
ENDBRANCH  16  17
ENDBRANCH   7  15
ENDBRANCH   5   6
ENDBRANCH   3   5
ENDBRANCH   2   3
ENDBRANCH   1   2
BRANCH   1  28
ATOM     28  C   UNL A   1      44.380  24.744  26.530  1.00  0.00     0.275 C 
BRANCH  28  29
ATOM     29  O   UNL A   1      43.594  25.519  25.604  1.00  0.00    -0.458 OA
BRANCH  29  30
ATOM     30  C   UNL A   1      42.305  25.725  25.960  1.00  0.00     0.338 C 
ATOM     31  O   UNL A   1      41.301  25.436  25.337  1.00  0.00    -0.246 OA
BRANCH  30  32
ATOM     32  C   UNL A   1      42.241  26.409  27.262  1.00  0.00     0.060 A 
ATOM     33  C   UNL A   1      41.354  25.975  28.248  1.00  0.00     0.016 A 
ATOM     34  C   UNL A   1      42.961  27.594  27.427  1.00  0.00     0.016 A 
ATOM     35  C   UNL A   1      41.136  26.768  29.378  1.00  0.00     0.010 A 
ATOM     36  C   UNL A   1      42.779  28.358  28.581  1.00  0.00     0.010 A 
ATOM     37  C   UNL A   1      41.831  27.977  29.545  1.00  0.00    -0.014 A 
BRANCH  37  38
ATOM     38  C   UNL A   1      41.534  28.862  30.702  1.00  0.00     0.031 A 
ATOM     39  C   UNL A   1      42.316  28.736  31.986  1.00  0.00     0.074 A 
ATOM     40  C   UNL A   1      40.548  29.775  30.613  1.00  0.00     0.049 A 
ATOM     41  N   UNL A   1      42.197  29.420  33.095  1.00  0.00    -0.248 NA
ATOM     42  C   UNL A   1      43.349  27.689  32.038  1.00  0.00     0.031 C 
ATOM     43  C   UNL A   1      39.684  29.977  29.449  1.00  0.00     0.029 A 
ATOM     44  N   UNL A   1      40.095  30.690  31.529  1.00  0.00    -0.354 N 
ATOM     45  C   UNL A   1      43.142  28.899  33.970  1.00  0.00     0.074 A 
ATOM     46  C   UNL A   1      43.774  27.795  33.288  1.00  0.00     0.031 C 
ATOM     47  C   UNL A   1      38.798  30.948  29.726  1.00  0.00     0.029 A 
ATOM     48  C   UNL A   1      39.019  31.422  31.090  1.00  0.00     0.049 A 
ATOM     49  H   UNL A   1      40.503  30.811  32.418  1.00  0.00     0.167 HD
ATOM     50  C   UNL A   1      43.473  29.312  35.216  1.00  0.00     0.037 A 
ATOM     51  C   UNL A   1      38.282  32.357  31.719  1.00  0.00     0.037 A 
ATOM     52  C   UNL A   1      42.833  30.390  35.915  1.00  0.00     0.049 A 
ATOM     53  C   UNL A   1      38.640  32.774  33.119  1.00  0.00     0.074 A 
ATOM     54  C   UNL A   1      43.113  30.884  37.177  1.00  0.00     0.029 A 
ATOM     55  N   UNL A   1      41.771  31.127  35.421  1.00  0.00    -0.354 N 
ATOM     56  N   UNL A   1      39.604  32.331  33.889  1.00  0.00    -0.248 NA
ATOM     57  C   UNL A   1      37.814  33.825  33.731  1.00  0.00     0.031 C 
ATOM     58  C   UNL A   1      42.200  31.906  37.459  1.00  0.00     0.029 A 
ATOM     59  C   UNL A   1      41.368  32.058  36.363  1.00  0.00     0.049 A 
ATOM     60  H   UNL A   1      41.363  31.008  34.532  1.00  0.00     0.167 HD
ATOM     61  C   UNL A   1      39.513  33.062  35.068  1.00  0.00     0.074 A 
ATOM     62  C   UNL A   1      38.408  33.983  34.907  1.00  0.00     0.031 C 
ATOM     63  C   UNL A   1      40.275  32.976  36.185  1.00  0.00     0.037 A 
BRANCH  50  64
ATOM     64  C   UNL A   1      44.600  28.614  35.918  1.00  0.00     0.058 A 
ATOM     65  C   UNL A   1      44.353  27.509  36.750  1.00  0.00     0.135 A 
ATOM     66  C   UNL A   1      45.933  28.985  35.694  1.00  0.00     0.135 A 
ATOM     67  F   UNL A   1      43.091  27.131  37.008  1.00  0.00    -0.206 F 
ATOM     68  C   UNL A   1      45.392  26.799  37.344  1.00  0.00     0.059 A 
ATOM     69  C   UNL A   1      46.987  28.291  36.280  1.00  0.00     0.059 A 
ATOM     70  F   UNL A   1      46.217  30.035  34.908  1.00  0.00    -0.206 F 
ATOM     71  C   UNL A   1      46.707  27.204  37.111  1.00  0.00     0.060 A 
BRANCH  71  72
ATOM     72  S   UNL A   1      48.077  26.320  37.889  1.00  0.00     0.124 S 
ATOM     73  O   UNL A   1      49.130  26.486  36.894  1.00  0.00    -0.237 OA
ATOM     74  O   UNL A   1      48.271  27.042  39.143  1.00  0.00    -0.237 OA
ATOM     75  O   UNL A   1      47.548  24.967  38.029  1.00  0.00    -0.744 OA
ENDBRANCH  71  72
ENDBRANCH  50  64
BRANCH  51  76
ATOM     76  C   UNL A   1      37.115  32.959  31.027  1.00  0.00     0.058 A 
ATOM     77  C   UNL A   1      35.803  32.640  31.404  1.00  0.00     0.135 A 
ATOM     78  C   UNL A   1      37.296  33.870  29.975  1.00  0.00     0.135 A 
ATOM     79  F   UNL A   1      35.585  31.769  32.400  1.00  0.00    -0.206 F 
ATOM     80  C   UNL A   1      34.707  33.192  30.750  1.00  0.00     0.059 A 
ATOM     81  C   UNL A   1      36.217  34.449  29.319  1.00  0.00     0.059 A 
ATOM     82  F   UNL A   1      38.535  34.214  29.590  1.00  0.00    -0.206 F 
ATOM     83  C   UNL A   1      34.924  34.094  29.707  1.00  0.00     0.060 A 
BRANCH  83  84
ATOM     84  S   UNL A   1      33.501  34.844  28.887  1.00  0.00     0.124 S 
ATOM     85  O   UNL A   1      34.038  36.144  28.501  1.00  0.00    -0.237 OA
ATOM     86  O   UNL A   1      33.241  33.911  27.794  1.00  0.00    -0.237 OA
ATOM     87  O   UNL A   1      32.487  34.863  29.936  1.00  0.00    -0.744 OA
ENDBRANCH  83  84
ENDBRANCH  51  76
BRANCH  63  88
ATOM     88  C   UNL A   1      39.958  33.912  37.312  1.00  0.00     0.058 A 
ATOM     89  C   UNL A   1      40.540  35.185  37.389  1.00  0.00     0.135 A 
ATOM     90  C   UNL A   1      39.032  33.547  38.303  1.00  0.00     0.135 A 
ATOM     91  F   UNL A   1      41.431  35.578  36.464  1.00  0.00    -0.206 F 
ATOM     92  C   UNL A   1      40.236  36.060  38.427  1.00  0.00     0.059 A 
ATOM     93  C   UNL A   1      38.699  34.412  39.339  1.00  0.00     0.059 A 
ATOM     94  F   UNL A   1      38.438  32.345  38.264  1.00  0.00    -0.206 F 
ATOM     95  C   UNL A   1      39.318  35.661  39.400  1.00  0.00     0.060 A 
BRANCH  95  96
ATOM     96  S   UNL A   1      38.913  36.803  40.739  1.00  0.00     0.124 S 
ATOM     97  O   UNL A   1      38.120  35.952  41.619  1.00  0.00    -0.237 OA
ATOM     98  O   UNL A   1      40.230  37.184  41.243  1.00  0.00    -0.237 OA
ATOM     99  O   UNL A   1      38.179  37.868  40.062  1.00  0.00    -0.744 OA
ENDBRANCH  95  96
ENDBRANCH  63  88
ENDBRANCH  37  38
ENDBRANCH  30  32
ENDBRANCH  29  30
ENDBRANCH  28  29
ENDBRANCH   1  28
TORSDOF 19
ENDMDL
