MODEL 1
REMARK VINA RESULT:     -11.2      0.000      0.000
REMARK SMILES C[C@@H](C(=O)OCCOC(=O)c1ccc(-c2c3nc(c(-c4c(F)cc(S(=O)(=O)[O-])cc4F)c4ccc([nH]4)c(-c4c(F)cc(S(=O)(=O)[O-])cc4F)c4nc(c(-c5c(F)cc(S(=O)(=O)[O-])cc5F)c5ccc2[nH]5)C=C4)C=C3)cc1)c1ccc(Cc2ccsc2)cc1F
REMARK SMILES IDX 6 1 5 2 3 3 4 4 2 5 1 6 77 7 78 8 88 9 79 10 87 11 89 12
REMARK SMILES IDX 80 13 81 14 82 15 83 16 86 17 84 18 85 19 7 20 8 21 9 22
REMARK SMILES IDX 10 23 11 24 12 25 76 26 13 27 75 28 14 29 15 30 16 31 69 32
REMARK SMILES IDX 17 33 74 34 68 35 70 36 18 37 73 38 67 39 66 40 19 42 53 43
REMARK SMILES IDX 32 44 52 45 33 46 36 47 51 48 71 49 34 50 35 51 50 53 72 54
REMARK SMILES IDX 37 55 20 56 21 57 30 58 22 59 23 60 29 61 31 62 24 63 25 64
REMARK SMILES IDX 26 65 27 66 28 67 54 68 55 69 64 70 56 71 57 72 63 73 65 74
REMARK SMILES IDX 58 75 59 76 60 77 61 78 62 79 38 80 39 81 48 82 40 83 41 84
REMARK SMILES IDX 47 85 49 86 42 87 43 88 44 89 45 90 46 91
REMARK H PARENT 70 41 36 52
REMARK Flexibility Score: inf
ROOT
ATOM      1  C   UNL A   1      38.509  21.459  25.414  1.00  0.00     0.274 C 
ENDROOT
BRANCH   1   2
ATOM      2  O   UNL A   1      37.242  22.136  25.574  1.00  0.00    -0.462 OA
BRANCH   2   3
ATOM      3  C   UNL A   1      36.135  21.486  25.112  1.00  0.00     0.313 C 
ATOM      4  O   UNL A   1      35.871  20.316  25.370  1.00  0.00    -0.252 OA
BRANCH   3   5
ATOM      5  C   UNL A   1      35.307  22.345  24.149  1.00  0.00     0.129 C 
ATOM      6  C   UNL A   1      36.124  22.968  23.013  1.00  0.00     0.025 C 
BRANCH   5   7
ATOM      7  C   UNL A   1      34.454  23.362  24.898  1.00  0.00     0.002 A 
ATOM      8  C   UNL A   1      34.886  24.694  25.001  1.00  0.00     0.008 A 
ATOM      9  C   UNL A   1      33.200  23.047  25.431  1.00  0.00     0.127 A 
ATOM     10  C   UNL A   1      34.069  25.673  25.578  1.00  0.00     0.004 A 
ATOM     11  C   UNL A   1      32.387  24.016  26.029  1.00  0.00     0.043 A 
ATOM     12  F   UNL A   1      32.715  21.802  25.311  1.00  0.00    -0.207 F 
ATOM     13  C   UNL A   1      32.797  25.354  26.078  1.00  0.00    -0.041 A 
BRANCH  13  14
ATOM     14  C   UNL A   1      31.862  26.458  26.525  1.00  0.00     0.072 C 
BRANCH  14  15
ATOM     15  C   UNL A   1      31.343  27.171  25.317  1.00  0.00    -0.033 A 
ATOM     16  C   UNL A   1      31.514  28.567  25.023  1.00  0.00     0.015 A 
ATOM     17  C   UNL A   1      30.707  26.535  24.263  1.00  0.00     0.068 A 
ATOM     18  C   UNL A   1      30.987  28.924  23.802  1.00  0.00     0.065 A 
ATOM     19  S   UNL A   1      30.291  27.595  22.990  1.00  0.00    -0.152 S 
ENDBRANCH  14  15
ENDBRANCH  13  14
ENDBRANCH   5   7
ENDBRANCH   3   5
ENDBRANCH   2   3
ENDBRANCH   1   2
BRANCH   1  20
ATOM     20  C   UNL A   1      39.483  21.912  26.498  1.00  0.00     0.275 C 
BRANCH  20  21
ATOM     21  O   UNL A   1      39.466  23.346  26.547  1.00  0.00    -0.458 OA
BRANCH  21  22
ATOM     22  C   UNL A   1      40.664  23.962  26.646  1.00  0.00     0.338 C 
ATOM     23  O   UNL A   1      41.707  23.611  26.111  1.00  0.00    -0.246 OA
BRANCH  22  24
ATOM     24  C   UNL A   1      40.537  25.155  27.518  1.00  0.00     0.060 A 
ATOM     25  C   UNL A   1      41.497  26.168  27.496  1.00  0.00     0.016 A 
ATOM     26  C   UNL A   1      39.477  25.238  28.425  1.00  0.00     0.016 A 
ATOM     27  C   UNL A   1      41.442  27.206  28.425  1.00  0.00     0.010 A 
ATOM     28  C   UNL A   1      39.384  26.329  29.301  1.00  0.00     0.010 A 
ATOM     29  C   UNL A   1      40.389  27.311  29.345  1.00  0.00    -0.014 A 
BRANCH  29  30
ATOM     30  C   UNL A   1      40.376  28.390  30.383  1.00  0.00     0.031 A 
ATOM     31  C   UNL A   1      41.403  28.396  31.493  1.00  0.00     0.074 A 
ATOM     32  C   UNL A   1      39.486  29.405  30.330  1.00  0.00     0.049 A 
ATOM     33  N   UNL A   1      41.430  29.108  32.592  1.00  0.00    -0.248 NA
ATOM     34  C   UNL A   1      42.547  27.482  31.350  1.00  0.00     0.031 C 
ATOM     35  C   UNL A   1      38.468  29.592  29.294  1.00  0.00     0.029 A 
ATOM     36  N   UNL A   1      39.305  30.485  31.162  1.00  0.00    -0.354 N 
ATOM     37  C   UNL A   1      42.540  28.669  33.308  1.00  0.00     0.074 A 
ATOM     38  C   UNL A   1      43.174  27.644  32.508  1.00  0.00     0.031 C 
ATOM     39  C   UNL A   1      37.816  30.743  29.516  1.00  0.00     0.029 A 
ATOM     40  C   UNL A   1      38.282  31.319  30.773  1.00  0.00     0.049 A 
ATOM     41  H   UNL A   1      39.857  30.648  31.961  1.00  0.00     0.167 HD
ATOM     42  C   UNL A   1      42.988  29.081  34.519  1.00  0.00     0.037 A 
ATOM     43  C   UNL A   1      37.729  32.390  31.374  1.00  0.00     0.037 A 
ATOM     44  C   UNL A   1      42.411  30.161  35.279  1.00  0.00     0.049 A 
ATOM     45  C   UNL A   1      38.223  32.819  32.726  1.00  0.00     0.074 A 
ATOM     46  C   UNL A   1      42.802  30.650  36.515  1.00  0.00     0.029 A 
ATOM     47  N   UNL A   1      41.340  30.940  34.866  1.00  0.00    -0.354 N 
ATOM     48  N   UNL A   1      39.196  32.312  33.444  1.00  0.00    -0.248 NA
ATOM     49  C   UNL A   1      37.522  33.941  33.365  1.00  0.00     0.031 C 
ATOM     50  C   UNL A   1      41.954  31.710  36.859  1.00  0.00     0.029 A 
ATOM     51  C   UNL A   1      41.056  31.902  35.823  1.00  0.00     0.049 A 
ATOM     52  H   UNL A   1      40.854  30.826  34.018  1.00  0.00     0.167 HD
ATOM     53  C   UNL A   1      39.216  33.046  34.624  1.00  0.00     0.074 A 
ATOM     54  C   UNL A   1      38.180  34.050  34.512  1.00  0.00     0.031 C 
ATOM     55  C   UNL A   1      40.015  32.890  35.708  1.00  0.00     0.037 A 
BRANCH  42  56
ATOM     56  C   UNL A   1      44.145  28.336  35.130  1.00  0.00     0.058 A 
ATOM     57  C   UNL A   1      43.964  27.204  35.936  1.00  0.00     0.135 A 
ATOM     58  C   UNL A   1      45.462  28.741  34.858  1.00  0.00     0.135 A 
ATOM     59  F   UNL A   1      42.727  26.784  36.241  1.00  0.00    -0.206 F 
ATOM     60  C   UNL A   1      45.046  26.509  36.468  1.00  0.00     0.059 A 
ATOM     61  C   UNL A   1      46.560  28.049  35.360  1.00  0.00     0.059 A 
ATOM     62  F   UNL A   1      45.694  29.818  34.090  1.00  0.00    -0.206 F 
ATOM     63  C   UNL A   1      46.342  26.940  36.175  1.00  0.00     0.060 A 
BRANCH  63  64
ATOM     64  S   UNL A   1      47.739  26.026  36.863  1.00  0.00     0.124 S 
ATOM     65  O   UNL A   1      48.803  27.021  36.789  1.00  0.00    -0.237 OA
ATOM     66  O   UNL A   1      47.271  25.699  38.206  1.00  0.00    -0.237 OA
ATOM     67  O   UNL A   1      47.879  24.889  35.959  1.00  0.00    -0.744 OA
ENDBRANCH  63  64
ENDBRANCH  42  56
BRANCH  43  68
ATOM     68  C   UNL A   1      36.590  33.091  30.723  1.00  0.00     0.058 A 
ATOM     69  C   UNL A   1      35.276  32.915  31.178  1.00  0.00     0.135 A 
ATOM     70  C   UNL A   1      36.803  33.985  29.661  1.00  0.00     0.135 A 
ATOM     71  F   UNL A   1      35.021  32.057  32.177  1.00  0.00    -0.206 F 
ATOM     72  C   UNL A   1      34.212  33.611  30.613  1.00  0.00     0.059 A 
ATOM     73  C   UNL A   1      35.759  34.713  29.099  1.00  0.00     0.059 A 
ATOM     74  F   UNL A   1      38.043  34.191  29.193  1.00  0.00    -0.206 F 
ATOM     75  C   UNL A   1      34.466  34.516  29.580  1.00  0.00     0.060 A 
BRANCH  75  76
ATOM     76  S   UNL A   1      33.102  35.499  28.919  1.00  0.00     0.124 S 
ATOM     77  O   UNL A   1      32.436  35.934  30.141  1.00  0.00    -0.237 OA
ATOM     78  O   UNL A   1      33.800  36.537  28.168  1.00  0.00    -0.237 OA
ATOM     79  O   UNL A   1      32.367  34.537  28.104  1.00  0.00    -0.744 OA
ENDBRANCH  75  76
ENDBRANCH  43  68
BRANCH  55  80
ATOM     80  C   UNL A   1      39.801  33.831  36.859  1.00  0.00     0.058 A 
ATOM     81  C   UNL A   1      40.422  35.090  36.900  1.00  0.00     0.135 A 
ATOM     82  C   UNL A   1      38.947  33.486  37.918  1.00  0.00     0.135 A 
ATOM     83  F   UNL A   1      41.254  35.463  35.915  1.00  0.00    -0.206 F 
ATOM     84  C   UNL A   1      40.222  35.963  37.963  1.00  0.00     0.059 A 
ATOM     85  C   UNL A   1      38.717  34.353  38.982  1.00  0.00     0.059 A 
ATOM     86  F   UNL A   1      38.323  32.297  37.923  1.00  0.00    -0.206 F 
ATOM     87  C   UNL A   1      39.369  35.585  39.002  1.00  0.00     0.060 A 
BRANCH  87  88
ATOM     88  S   UNL A   1      39.106  36.733  40.371  1.00  0.00     0.124 S 
ATOM     89  O   UNL A   1      38.181  35.980  41.212  1.00  0.00    -0.237 OA
ATOM     90  O   UNL A   1      40.454  36.902  40.905  1.00  0.00    -0.237 OA
ATOM     91  O   UNL A   1      38.544  37.913  39.721  1.00  0.00    -0.744 OA
ENDBRANCH  87  88
ENDBRANCH  55  80
ENDBRANCH  29  30
ENDBRANCH  22  24
ENDBRANCH  21  22
ENDBRANCH  20  21
ENDBRANCH   1  20
TORSDOF 17
ENDMDL
MODEL 2
REMARK VINA RESULT:     -11.2      5.496     10.986
REMARK SMILES C[C@@H](C(=O)OCCOC(=O)c1ccc(-c2c3nc(c(-c4c(F)cc(S(=O)(=O)[O-])cc4F)c4ccc([nH]4)c(-c4c(F)cc(S(=O)(=O)[O-])cc4F)c4nc(c(-c5c(F)cc(S(=O)(=O)[O-])cc5F)c5ccc2[nH]5)C=C4)C=C3)cc1)c1ccc(Cc2ccsc2)cc1F
REMARK SMILES IDX 6 1 5 2 3 3 4 4 2 5 1 6 77 7 78 8 88 9 79 10 87 11 89 12
REMARK SMILES IDX 80 13 81 14 82 15 83 16 86 17 84 18 85 19 7 20 8 21 9 22
REMARK SMILES IDX 10 23 11 24 12 25 76 26 13 27 75 28 14 29 15 30 16 31 69 32
REMARK SMILES IDX 17 33 74 34 68 35 70 36 18 37 73 38 67 39 66 40 19 42 53 43
REMARK SMILES IDX 32 44 52 45 33 46 36 47 51 48 71 49 34 50 35 51 50 53 72 54
REMARK SMILES IDX 37 55 20 56 21 57 30 58 22 59 23 60 29 61 31 62 24 63 25 64
REMARK SMILES IDX 26 65 27 66 28 67 54 68 55 69 64 70 56 71 57 72 63 73 65 74
REMARK SMILES IDX 58 75 59 76 60 77 61 78 62 79 38 80 39 81 48 82 40 83 41 84
REMARK SMILES IDX 47 85 49 86 42 87 43 88 44 89 45 90 46 91
REMARK H PARENT 70 41 36 52
REMARK Flexibility Score: inf
ROOT
ATOM      1  C   UNL A   1      33.583  28.905  25.529  1.00  0.00     0.274 C 
ENDROOT
BRANCH   1   2
ATOM      2  O   UNL A   1      32.625  27.824  25.519  1.00  0.00    -0.462 OA
BRANCH   2   3
ATOM      3  C   UNL A   1      33.112  26.572  25.279  1.00  0.00     0.313 C 
ATOM      4  O   UNL A   1      34.033  26.064  25.910  1.00  0.00    -0.252 OA
BRANCH   3   5
ATOM      5  C   UNL A   1      32.453  25.906  24.066  1.00  0.00     0.129 C 
ATOM      6  C   UNL A   1      33.406  25.674  22.890  1.00  0.00     0.025 C 
BRANCH   5   7
ATOM      7  C   UNL A   1      31.170  26.622  23.662  1.00  0.00     0.002 A 
ATOM      8  C   UNL A   1      29.933  26.160  24.141  1.00  0.00     0.008 A 
ATOM      9  C   UNL A   1      31.168  27.787  22.888  1.00  0.00     0.127 A 
ATOM     10  C   UNL A   1      28.752  26.867  23.884  1.00  0.00     0.004 A 
ATOM     11  C   UNL A   1      29.989  28.486  22.609  1.00  0.00     0.043 A 
ATOM     12  F   UNL A   1      32.327  28.302  22.452  1.00  0.00    -0.207 F 
ATOM     13  C   UNL A   1      28.766  28.053  23.136  1.00  0.00    -0.041 A 
BRANCH  13  14
ATOM     14  C   UNL A   1      27.512  28.894  23.031  1.00  0.00     0.072 C 
BRANCH  14  15
ATOM     15  C   UNL A   1      27.883  30.259  22.541  1.00  0.00    -0.033 A 
ATOM     16  C   UNL A   1      27.988  30.662  21.166  1.00  0.00     0.015 A 
ATOM     17  C   UNL A   1      28.076  31.348  23.375  1.00  0.00     0.068 A 
ATOM     18  C   UNL A   1      28.277  32.000  21.023  1.00  0.00     0.065 A 
ATOM     19  S   UNL A   1      28.418  32.791  22.529  1.00  0.00    -0.152 S 
ENDBRANCH  14  15
ENDBRANCH  13  14
ENDBRANCH   5   7
ENDBRANCH   3   5
ENDBRANCH   2   3
ENDBRANCH   1   2
BRANCH   1  20
ATOM     20  C   UNL A   1      33.136  29.990  26.505  1.00  0.00     0.275 C 
BRANCH  20  21
ATOM     21  O   UNL A   1      33.695  29.694  27.793  1.00  0.00    -0.458 OA
BRANCH  21  22
ATOM     22  C   UNL A   1      34.526  30.621  28.319  1.00  0.00     0.338 C 
ATOM     23  O   UNL A   1      34.218  31.747  28.684  1.00  0.00    -0.246 OA
BRANCH  22  24
ATOM     24  C   UNL A   1      35.900  30.068  28.392  1.00  0.00     0.060 A 
ATOM     25  C   UNL A   1      36.399  29.536  29.581  1.00  0.00     0.016 A 
ATOM     26  C   UNL A   1      36.735  30.142  27.273  1.00  0.00     0.016 A 
ATOM     27  C   UNL A   1      37.739  29.158  29.672  1.00  0.00     0.010 A 
ATOM     28  C   UNL A   1      38.058  29.684  27.350  1.00  0.00     0.010 A 
ATOM     29  C   UNL A   1      38.596  29.224  28.564  1.00  0.00    -0.014 A 
BRANCH  29  30
ATOM     30  C   UNL A   1      40.048  28.882  28.691  1.00  0.00     0.031 A 
ATOM     31  C   UNL A   1      41.028  29.899  29.231  1.00  0.00     0.074 A 
ATOM     32  C   UNL A   1      40.511  27.653  28.375  1.00  0.00     0.049 A 
ATOM     33  N   UNL A   1      42.338  29.874  29.218  1.00  0.00    -0.248 NA
ATOM     34  C   UNL A   1      40.465  31.101  29.866  1.00  0.00     0.031 C 
ATOM     35  C   UNL A   1      39.696  26.532  27.903  1.00  0.00     0.029 A 
ATOM     36  N   UNL A   1      41.784  27.133  28.422  1.00  0.00    -0.354 N 
ATOM     37  C   UNL A   1      42.752  31.088  29.761  1.00  0.00     0.074 A 
ATOM     38  C   UNL A   1      41.553  31.816  30.115  1.00  0.00     0.031 C 
ATOM     39  C   UNL A   1      40.473  25.447  27.764  1.00  0.00     0.029 A 
ATOM     40  C   UNL A   1      41.860  25.819  28.020  1.00  0.00     0.049 A 
ATOM     41  H   UNL A   1      42.566  27.652  28.717  1.00  0.00     0.167 HD
ATOM     42  C   UNL A   1      44.012  31.551  29.947  1.00  0.00     0.037 A 
ATOM     43  C   UNL A   1      42.919  25.011  27.816  1.00  0.00     0.037 A 
ATOM     44  C   UNL A   1      45.208  30.793  29.677  1.00  0.00     0.049 A 
ATOM     45  C   UNL A   1      44.308  25.547  28.006  1.00  0.00     0.074 A 
ATOM     46  C   UNL A   1      46.528  31.181  29.840  1.00  0.00     0.029 A 
ATOM     47  N   UNL A   1      45.234  29.485  29.219  1.00  0.00    -0.354 N 
ATOM     48  N   UNL A   1      44.682  26.740  28.402  1.00  0.00    -0.248 NA
ATOM     49  C   UNL A   1      45.420  24.642  27.685  1.00  0.00     0.031 C 
ATOM     50  C   UNL A   1      47.352  30.115  29.458  1.00  0.00     0.029 A 
ATOM     51  C   UNL A   1      46.544  29.052  29.090  1.00  0.00     0.049 A 
ATOM     52  H   UNL A   1      44.437  28.943  29.015  1.00  0.00     0.167 HD
ATOM     53  C   UNL A   1      46.071  26.732  28.368  1.00  0.00     0.074 A 
ATOM     54  C   UNL A   1      46.473  25.408  27.941  1.00  0.00     0.031 C 
ATOM     55  C   UNL A   1      46.935  27.737  28.652  1.00  0.00     0.037 A 
BRANCH  42  56
ATOM     56  C   UNL A   1      44.175  32.966  30.434  1.00  0.00     0.058 A 
ATOM     57  C   UNL A   1      44.111  34.067  29.568  1.00  0.00     0.135 A 
ATOM     58  C   UNL A   1      44.349  33.221  31.804  1.00  0.00     0.135 A 
ATOM     59  F   UNL A   1      43.964  33.878  28.248  1.00  0.00    -0.206 F 
ATOM     60  C   UNL A   1      44.234  35.371  30.038  1.00  0.00     0.059 A 
ATOM     61  C   UNL A   1      44.451  34.517  32.301  1.00  0.00     0.059 A 
ATOM     62  F   UNL A   1      44.414  32.204  32.678  1.00  0.00    -0.206 F 
ATOM     63  C   UNL A   1      44.405  35.586  31.408  1.00  0.00     0.060 A 
BRANCH  63  64
ATOM     64  S   UNL A   1      44.553  37.282  32.010  1.00  0.00     0.124 S 
ATOM     65  O   UNL A   1      43.950  37.175  33.334  1.00  0.00    -0.237 OA
ATOM     66  O   UNL A   1      45.996  37.499  31.988  1.00  0.00    -0.237 OA
ATOM     67  O   UNL A   1      43.792  38.056  31.035  1.00  0.00    -0.744 OA
ENDBRANCH  63  64
ENDBRANCH  42  56
BRANCH  43  68
ATOM     68  C   UNL A   1      42.699  23.619  27.339  1.00  0.00     0.058 A 
ATOM     69  C   UNL A   1      42.865  23.283  25.989  1.00  0.00     0.135 A 
ATOM     70  C   UNL A   1      42.360  22.593  28.235  1.00  0.00     0.135 A 
ATOM     71  F   UNL A   1      43.170  24.233  25.092  1.00  0.00    -0.206 F 
ATOM     72  C   UNL A   1      42.719  21.972  25.544  1.00  0.00     0.059 A 
ATOM     73  C   UNL A   1      42.236  21.272  27.818  1.00  0.00     0.059 A 
ATOM     74  F   UNL A   1      42.194  22.865  29.538  1.00  0.00    -0.206 F 
ATOM     75  C   UNL A   1      42.414  20.972  26.469  1.00  0.00     0.060 A 
BRANCH  75  76
ATOM     76  S   UNL A   1      42.330  19.256  25.910  1.00  0.00     0.124 S 
ATOM     77  O   UNL A   1      40.895  19.079  25.726  1.00  0.00    -0.237 OA
ATOM     78  O   UNL A   1      43.131  19.285  24.691  1.00  0.00    -0.237 OA
ATOM     79  O   UNL A   1      42.923  18.517  27.020  1.00  0.00    -0.744 OA
ENDBRANCH  75  76
ENDBRANCH  43  68
BRANCH  55  80
ATOM     80  C   UNL A   1      48.401  27.442  28.515  1.00  0.00     0.058 A 
ATOM     81  C   UNL A   1      49.108  27.773  27.348  1.00  0.00     0.135 A 
ATOM     82  C   UNL A   1      49.114  26.847  29.568  1.00  0.00     0.135 A 
ATOM     83  F   UNL A   1      48.469  28.335  26.310  1.00  0.00    -0.206 F 
ATOM     84  C   UNL A   1      50.466  27.502  27.221  1.00  0.00     0.059 A 
ATOM     85  C   UNL A   1      50.477  26.586  29.470  1.00  0.00     0.059 A 
ATOM     86  F   UNL A   1      48.485  26.519  30.708  1.00  0.00    -0.206 F 
ATOM     87  C   UNL A   1      51.143  26.906  28.287  1.00  0.00     0.060 A 
BRANCH  87  88
ATOM     88  S   UNL A   1      52.909  26.571  28.116  1.00  0.00     0.124 S 
ATOM     89  O   UNL A   1      52.915  25.548  27.077  1.00  0.00    -0.237 OA
ATOM     90  O   UNL A   1      53.440  27.874  27.727  1.00  0.00    -0.237 OA
ATOM     91  O   UNL A   1      53.297  26.116  29.448  1.00  0.00    -0.744 OA
ENDBRANCH  87  88
ENDBRANCH  55  80
ENDBRANCH  29  30
ENDBRANCH  22  24
ENDBRANCH  21  22
ENDBRANCH  20  21
ENDBRANCH   1  20
TORSDOF 17
ENDMDL
MODEL 3
REMARK VINA RESULT:     -11.1      2.015      3.287
REMARK SMILES C[C@@H](C(=O)OCCOC(=O)c1ccc(-c2c3nc(c(-c4c(F)cc(S(=O)(=O)[O-])cc4F)c4ccc([nH]4)c(-c4c(F)cc(S(=O)(=O)[O-])cc4F)c4nc(c(-c5c(F)cc(S(=O)(=O)[O-])cc5F)c5ccc2[nH]5)C=C4)C=C3)cc1)c1ccc(Cc2ccsc2)cc1F
REMARK SMILES IDX 6 1 5 2 3 3 4 4 2 5 1 6 77 7 78 8 88 9 79 10 87 11 89 12
REMARK SMILES IDX 80 13 81 14 82 15 83 16 86 17 84 18 85 19 7 20 8 21 9 22
REMARK SMILES IDX 10 23 11 24 12 25 76 26 13 27 75 28 14 29 15 30 16 31 69 32
REMARK SMILES IDX 17 33 74 34 68 35 70 36 18 37 73 38 67 39 66 40 19 42 53 43
REMARK SMILES IDX 32 44 52 45 33 46 36 47 51 48 71 49 34 50 35 51 50 53 72 54
REMARK SMILES IDX 37 55 20 56 21 57 30 58 22 59 23 60 29 61 31 62 24 63 25 64
REMARK SMILES IDX 26 65 27 66 28 67 54 68 55 69 64 70 56 71 57 72 63 73 65 74
REMARK SMILES IDX 58 75 59 76 60 77 61 78 62 79 38 80 39 81 48 82 40 83 41 84
REMARK SMILES IDX 47 85 49 86 42 87 43 88 44 89 45 90 46 91
REMARK H PARENT 70 41 36 52
REMARK Flexibility Score: inf
ROOT
ATOM      1  C   UNL A   1      38.062  22.025  25.333  1.00  0.00     0.274 C 
ENDROOT
BRANCH   1   2
ATOM      2  O   UNL A   1      37.334  23.255  25.125  1.00  0.00    -0.462 OA
BRANCH   2   3
ATOM      3  C   UNL A   1      36.557  23.328  24.006  1.00  0.00     0.313 C 
ATOM      4  O   UNL A   1      36.985  23.183  22.865  1.00  0.00    -0.252 OA
BRANCH   3   5
ATOM      5  C   UNL A   1      35.108  23.716  24.319  1.00  0.00     0.129 C 
ATOM      6  C   UNL A   1      34.937  24.463  25.646  1.00  0.00     0.025 C 
BRANCH   5   7
ATOM      7  C   UNL A   1      34.166  22.526  24.179  1.00  0.00     0.002 A 
ATOM      8  C   UNL A   1      33.321  22.434  23.062  1.00  0.00     0.008 A 
ATOM      9  C   UNL A   1      34.160  21.460  25.085  1.00  0.00     0.127 A 
ATOM     10  C   UNL A   1      32.534  21.296  22.847  1.00  0.00     0.004 A 
ATOM     11  C   UNL A   1      33.360  20.330  24.887  1.00  0.00     0.043 A 
ATOM     12  F   UNL A   1      34.988  21.471  26.138  1.00  0.00    -0.207 F 
ATOM     13  C   UNL A   1      32.560  20.217  23.742  1.00  0.00    -0.041 A 
BRANCH  13  14
ATOM     14  C   UNL A   1      31.848  18.928  23.393  1.00  0.00     0.072 C 
BRANCH  14  15
ATOM     15  C   UNL A   1      32.656  17.775  23.898  1.00  0.00    -0.033 A 
ATOM     16  C   UNL A   1      33.819  17.218  23.264  1.00  0.00     0.015 A 
ATOM     17  C   UNL A   1      32.435  17.157  25.118  1.00  0.00     0.068 A 
ATOM     18  C   UNL A   1      34.396  16.207  24.000  1.00  0.00     0.065 A 
ATOM     19  S   UNL A   1      33.561  15.919  25.460  1.00  0.00    -0.152 S 
ENDBRANCH  14  15
ENDBRANCH  13  14
ENDBRANCH   5   7
ENDBRANCH   3   5
ENDBRANCH   2   3
ENDBRANCH   1   2
BRANCH   1  20
ATOM     20  C   UNL A   1      39.289  22.285  26.203  1.00  0.00     0.275 C 
BRANCH  20  21
ATOM     21  O   UNL A   1      39.296  23.673  26.566  1.00  0.00    -0.458 OA
BRANCH  21  22
ATOM     22  C   UNL A   1      40.507  24.248  26.733  1.00  0.00     0.338 C 
ATOM     23  O   UNL A   1      41.560  23.884  26.226  1.00  0.00    -0.246 OA
BRANCH  22  24
ATOM     24  C   UNL A   1      40.381  25.413  27.643  1.00  0.00     0.060 A 
ATOM     25  C   UNL A   1      41.294  26.466  27.593  1.00  0.00     0.016 A 
ATOM     26  C   UNL A   1      39.374  25.427  28.611  1.00  0.00     0.016 A 
ATOM     27  C   UNL A   1      41.250  27.479  28.551  1.00  0.00     0.010 A 
ATOM     28  C   UNL A   1      39.285  26.491  29.520  1.00  0.00     0.010 A 
ATOM     29  C   UNL A   1      40.249  27.514  29.533  1.00  0.00    -0.014 A 
BRANCH  29  30
ATOM     30  C   UNL A   1      40.251  28.566  30.599  1.00  0.00     0.031 A 
ATOM     31  C   UNL A   1      41.264  28.516  31.721  1.00  0.00     0.074 A 
ATOM     32  C   UNL A   1      39.389  29.605  30.562  1.00  0.00     0.049 A 
ATOM     33  N   UNL A   1      41.295  29.198  32.838  1.00  0.00    -0.248 NA
ATOM     34  C   UNL A   1      42.385  27.576  31.568  1.00  0.00     0.031 C 
ATOM     35  C   UNL A   1      38.390  29.846  29.519  1.00  0.00     0.029 A 
ATOM     36  N   UNL A   1      39.226  30.668  31.420  1.00  0.00    -0.354 N 
ATOM     37  C   UNL A   1      42.384  28.711  33.556  1.00  0.00     0.074 A 
ATOM     38  C   UNL A   1      43.002  27.691  32.737  1.00  0.00     0.031 C 
ATOM     39  C   UNL A   1      37.766  31.008  29.763  1.00  0.00     0.029 A 
ATOM     40  C   UNL A   1      38.230  31.538  31.040  1.00  0.00     0.049 A 
ATOM     41  H   UNL A   1      39.771  30.795  32.230  1.00  0.00     0.167 HD
ATOM     42  C   UNL A   1      42.827  29.080  34.784  1.00  0.00     0.037 A 
ATOM     43  C   UNL A   1      37.698  32.608  31.663  1.00  0.00     0.037 A 
ATOM     44  C   UNL A   1      42.269  30.155  35.564  1.00  0.00     0.049 A 
ATOM     45  C   UNL A   1      38.186  32.989  33.031  1.00  0.00     0.074 A 
ATOM     46  C   UNL A   1      42.657  30.601  36.817  1.00  0.00     0.029 A 
ATOM     47  N   UNL A   1      41.225  30.972  35.159  1.00  0.00    -0.354 N 
ATOM     48  N   UNL A   1      39.136  32.437  33.747  1.00  0.00    -0.248 NA
ATOM     49  C   UNL A   1      37.507  34.112  33.691  1.00  0.00     0.031 C 
ATOM     50  C   UNL A   1      41.832  31.673  37.179  1.00  0.00     0.029 A 
ATOM     51  C   UNL A   1      40.954  31.916  36.137  1.00  0.00     0.049 A 
ATOM     52  H   UNL A   1      40.747  30.893  34.302  1.00  0.00     0.167 HD
ATOM     53  C   UNL A   1      39.160  33.139  34.947  1.00  0.00     0.074 A 
ATOM     54  C   UNL A   1      38.152  34.174  34.848  1.00  0.00     0.031 C 
ATOM     55  C   UNL A   1      39.940  32.934  36.036  1.00  0.00     0.037 A 
BRANCH  42  56
ATOM     56  C   UNL A   1      43.956  28.289  35.388  1.00  0.00     0.058 A 
ATOM     57  C   UNL A   1      43.741  27.097  36.093  1.00  0.00     0.135 A 
ATOM     58  C   UNL A   1      45.284  28.713  35.212  1.00  0.00     0.135 A 
ATOM     59  F   UNL A   1      42.492  26.656  36.306  1.00  0.00    -0.206 F 
ATOM     60  C   UNL A   1      44.799  26.362  36.621  1.00  0.00     0.059 A 
ATOM     61  C   UNL A   1      46.359  27.983  35.709  1.00  0.00     0.059 A 
ATOM     62  F   UNL A   1      45.548  29.846  34.542  1.00  0.00    -0.206 F 
ATOM     63  C   UNL A   1      46.106  26.814  36.424  1.00  0.00     0.060 A 
BRANCH  63  64
ATOM     64  S   UNL A   1      47.472  25.848  37.104  1.00  0.00     0.124 S 
ATOM     65  O   UNL A   1      48.601  26.744  36.881  1.00  0.00    -0.237 OA
ATOM     66  O   UNL A   1      47.070  25.670  38.496  1.00  0.00    -0.237 OA
ATOM     67  O   UNL A   1      47.465  24.634  36.295  1.00  0.00    -0.744 OA
ENDBRANCH  63  64
ENDBRANCH  42  56
BRANCH  43  68
ATOM     68  C   UNL A   1      36.586  33.356  31.016  1.00  0.00     0.058 A 
ATOM     69  C   UNL A   1      36.819  34.191  29.915  1.00  0.00     0.135 A 
ATOM     70  C   UNL A   1      35.262  33.212  31.463  1.00  0.00     0.135 A 
ATOM     71  F   UNL A   1      38.070  34.375  29.464  1.00  0.00    -0.206 F 
ATOM     72  C   UNL A   1      35.777  34.847  29.268  1.00  0.00     0.059 A 
ATOM     73  C   UNL A   1      34.201  33.835  30.815  1.00  0.00     0.059 A 
ATOM     74  F   UNL A   1      34.988  32.420  32.510  1.00  0.00    -0.206 F 
ATOM     75  C   UNL A   1      34.469  34.654  29.720  1.00  0.00     0.060 A 
BRANCH  75  76
ATOM     76  S   UNL A   1      33.107  35.420  28.814  1.00  0.00     0.124 S 
ATOM     77  O   UNL A   1      33.813  36.398  27.995  1.00  0.00    -0.237 OA
ATOM     78  O   UNL A   1      32.530  34.286  28.100  1.00  0.00    -0.237 OA
ATOM     79  O   UNL A   1      32.271  35.969  29.877  1.00  0.00    -0.744 OA
ENDBRANCH  75  76
ENDBRANCH  43  68
BRANCH  55  80
ATOM     80  C   UNL A   1      39.736  33.851  37.208  1.00  0.00     0.058 A 
ATOM     81  C   UNL A   1      40.374  35.099  37.280  1.00  0.00     0.135 A 
ATOM     82  C   UNL A   1      38.875  33.492  38.257  1.00  0.00     0.135 A 
ATOM     83  F   UNL A   1      41.214  35.484  36.307  1.00  0.00    -0.206 F 
ATOM     84  C   UNL A   1      40.184  35.950  38.364  1.00  0.00     0.059 A 
ATOM     85  C   UNL A   1      38.655  34.336  39.341  1.00  0.00     0.059 A 
ATOM     86  F   UNL A   1      38.235  32.312  38.232  1.00  0.00    -0.206 F 
ATOM     87  C   UNL A   1      39.324  35.559  39.392  1.00  0.00     0.060 A 
BRANCH  87  88
ATOM     88  S   UNL A   1      39.073  36.677  40.787  1.00  0.00     0.124 S 
ATOM     89  O   UNL A   1      38.520  37.854  40.125  1.00  0.00    -0.237 OA
ATOM     90  O   UNL A   1      38.145  35.928  41.629  1.00  0.00    -0.237 OA
ATOM     91  O   UNL A   1      40.415  36.839  41.337  1.00  0.00    -0.744 OA
ENDBRANCH  87  88
ENDBRANCH  55  80
ENDBRANCH  29  30
ENDBRANCH  22  24
ENDBRANCH  21  22
ENDBRANCH  20  21
ENDBRANCH   1  20
TORSDOF 17
ENDMDL
