MODEL 1
REMARK VINA RESULT:     -11.5      0.000      0.000
REMARK SMILES O=C(OCCOC(=O)c1ccc(-c2ccn(C(F)F)c(=O)c2)cc1O)c1ccc(-c2c3nc(c(-c4c(F)cc(S(=O)(=O)[O-])cc4F)c4ccc([nH]4)c(-c4c(F)cc(S(=O)(=O)[O-])cc4F)c4nc(c(-c5c(F)cc(S(=O)(=O)[O-])cc5F)c5ccc2[nH]5)C=C4)C=C3)cc1
REMARK SMILES IDX 4 1 3 2 2 3 1 4 26 5 27 6 91 7 28 8 90 9 29 10 30 11 31 12
REMARK SMILES IDX 84 13 32 14 89 15 83 16 85 17 33 18 88 19 82 20 81 21 34 23
REMARK SMILES IDX 68 24 47 25 67 26 48 27 51 28 66 29 86 30 49 31 50 32 65 34
REMARK SMILES IDX 87 35 52 36 35 37 36 38 45 39 37 40 38 41 44 42 46 43 39 44
REMARK SMILES IDX 40 45 41 46 42 47 43 48 69 49 70 50 79 51 71 52 72 53 78 54
REMARK SMILES IDX 80 55 73 56 74 57 75 58 76 59 77 60 53 61 54 62 63 63 55 64
REMARK SMILES IDX 56 65 62 66 64 67 57 68 58 69 59 70 60 71 61 72 5 73 6 74
REMARK SMILES IDX 7 75 8 76 9 77 10 78 24 79 11 80 23 81 12 82 25 83 13 85
REMARK SMILES IDX 14 86 22 87 15 88 20 89 16 90 21 91 17 92 18 93 19 94
REMARK H PARENT 85 22 51 33 25 84
REMARK Flexibility Score: inf
ROOT
ATOM      1  C   UNL A   1      42.798  23.337  27.394  1.00  0.00     0.275 C 
ENDROOT
BRANCH   1   2
ATOM      2  O   UNL A   1      42.339  24.033  26.225  1.00  0.00    -0.458 OA
BRANCH   2   3
ATOM      3  C   UNL A   1      41.773  25.259  26.124  1.00  0.00     0.338 C 
ATOM      4  O   UNL A   1      41.653  25.768  25.010  1.00  0.00    -0.246 OA
BRANCH   3   5
ATOM      5  C   UNL A   1      41.457  26.103  27.317  1.00  0.00     0.060 A 
ATOM      6  C   UNL A   1      42.376  27.121  27.607  1.00  0.00     0.016 A 
ATOM      7  C   UNL A   1      40.338  25.981  28.145  1.00  0.00     0.016 A 
ATOM      8  C   UNL A   1      42.244  27.901  28.759  1.00  0.00     0.010 A 
ATOM      9  C   UNL A   1      40.202  26.764  29.299  1.00  0.00     0.010 A 
ATOM     10  C   UNL A   1      41.168  27.711  29.636  1.00  0.00    -0.014 A 
BRANCH  10  11
ATOM     11  C   UNL A   1      40.964  28.627  30.784  1.00  0.00     0.031 A 
ATOM     12  C   UNL A   1      41.723  28.500  32.075  1.00  0.00     0.074 A 
ATOM     13  C   UNL A   1      40.033  29.589  30.644  1.00  0.00     0.049 A 
ATOM     14  N   UNL A   1      41.830  29.361  33.054  1.00  0.00    -0.248 NA
ATOM     15  C   UNL A   1      42.479  27.262  32.296  1.00  0.00     0.031 C 
ATOM     16  C   UNL A   1      39.190  29.774  29.461  1.00  0.00     0.029 A 
ATOM     17  N   UNL A   1      39.628  30.572  31.503  1.00  0.00    -0.354 N 
ATOM     18  C   UNL A   1      42.754  28.821  33.942  1.00  0.00     0.074 A 
ATOM     19  C   UNL A   1      43.127  27.525  33.425  1.00  0.00     0.031 C 
ATOM     20  C   UNL A   1      38.366  30.810  29.669  1.00  0.00     0.029 A 
ATOM     21  C   UNL A   1      38.601  31.335  31.008  1.00  0.00     0.049 A 
ATOM     22  H   UNL A   1      40.032  30.718  32.389  1.00  0.00     0.167 HD
ATOM     23  C   UNL A   1      43.237  29.361  35.086  1.00  0.00     0.037 A 
ATOM     24  C   UNL A   1      37.907  32.335  31.581  1.00  0.00     0.037 A 
ATOM     25  C   UNL A   1      42.674  30.534  35.703  1.00  0.00     0.049 A 
ATOM     26  C   UNL A   1      38.306  32.789  32.953  1.00  0.00     0.074 A 
ATOM     27  C   UNL A   1      43.020  31.131  36.903  1.00  0.00     0.029 A 
ATOM     28  N   UNL A   1      41.581  31.234  35.209  1.00  0.00    -0.354 N 
ATOM     29  N   UNL A   1      39.294  32.361  33.705  1.00  0.00    -0.248 NA
ATOM     30  C   UNL A   1      37.501  33.855  33.557  1.00  0.00     0.031 C 
ATOM     31  C   UNL A   1      42.072  32.123  37.181  1.00  0.00     0.029 A 
ATOM     32  C   UNL A   1      41.183  32.196  36.119  1.00  0.00     0.049 A 
ATOM     33  H   UNL A   1      41.152  31.069  34.337  1.00  0.00     0.167 HD
ATOM     34  C   UNL A   1      39.244  33.122  34.865  1.00  0.00     0.074 A 
ATOM     35  C   UNL A   1      38.130  34.040  34.710  1.00  0.00     0.031 C 
ATOM     36  C   UNL A   1      40.048  33.072  35.956  1.00  0.00     0.037 A 
BRANCH  23  37
ATOM     37  C   UNL A   1      44.393  28.680  35.768  1.00  0.00     0.058 A 
ATOM     38  C   UNL A   1      44.172  27.624  36.670  1.00  0.00     0.135 A 
ATOM     39  C   UNL A   1      45.723  28.996  35.451  1.00  0.00     0.135 A 
ATOM     40  F   UNL A   1      42.922  27.279  37.017  1.00  0.00    -0.206 F 
ATOM     41  C   UNL A   1      45.228  26.903  37.223  1.00  0.00     0.059 A 
ATOM     42  C   UNL A   1      46.795  28.280  35.981  1.00  0.00     0.059 A 
ATOM     43  F   UNL A   1      45.991  29.999  34.600  1.00  0.00    -0.206 F 
ATOM     44  C   UNL A   1      46.537  27.233  36.866  1.00  0.00     0.060 A 
BRANCH  44  45
ATOM     45  S   UNL A   1      47.888  26.257  37.564  1.00  0.00     0.124 S 
ATOM     46  O   UNL A   1      49.000  26.628  36.693  1.00  0.00    -0.237 OA
ATOM     47  O   UNL A   1      47.958  26.765  38.930  1.00  0.00    -0.237 OA
ATOM     48  O   UNL A   1      47.422  24.881  37.429  1.00  0.00    -0.744 OA
ENDBRANCH  44  45
ENDBRANCH  23  37
BRANCH  24  49
ATOM     49  C   UNL A   1      36.775  32.942  30.838  1.00  0.00     0.058 A 
ATOM     50  C   UNL A   1      35.448  32.667  31.186  1.00  0.00     0.135 A 
ATOM     51  C   UNL A   1      37.005  33.881  29.817  1.00  0.00     0.135 A 
ATOM     52  F   UNL A   1      35.177  31.776  32.152  1.00  0.00    -0.206 F 
ATOM     53  C   UNL A   1      34.385  33.303  30.553  1.00  0.00     0.059 A 
ATOM     54  C   UNL A   1      35.962  34.548  29.187  1.00  0.00     0.059 A 
ATOM     55  F   UNL A   1      38.262  34.194  29.461  1.00  0.00    -0.206 F 
ATOM     56  C   UNL A   1      34.653  34.249  29.560  1.00  0.00     0.060 A 
BRANCH  56  57
ATOM     57  S   UNL A   1      33.268  35.117  28.793  1.00  0.00     0.124 S 
ATOM     58  O   UNL A   1      32.497  35.528  29.960  1.00  0.00    -0.237 OA
ATOM     59  O   UNL A   1      33.942  36.186  28.063  1.00  0.00    -0.237 OA
ATOM     60  O   UNL A   1      32.649  34.092  27.959  1.00  0.00    -0.744 OA
ENDBRANCH  56  57
ENDBRANCH  24  49
BRANCH  36  61
ATOM     61  C   UNL A   1      39.736  34.021  37.078  1.00  0.00     0.058 A 
ATOM     62  C   UNL A   1      38.987  33.613  38.192  1.00  0.00     0.135 A 
ATOM     63  C   UNL A   1      40.238  35.332  37.064  1.00  0.00     0.135 A 
ATOM     64  F   UNL A   1      38.481  32.371  38.249  1.00  0.00    -0.206 F 
ATOM     65  C   UNL A   1      38.728  34.480  39.246  1.00  0.00     0.059 A 
ATOM     66  C   UNL A   1      40.016  36.207  38.121  1.00  0.00     0.059 A 
ATOM     67  F   UNL A   1      40.972  35.766  36.026  1.00  0.00    -0.206 F 
ATOM     68  C   UNL A   1      39.251  35.774  39.204  1.00  0.00     0.060 A 
BRANCH  68  69
ATOM     69  S   UNL A   1      38.941  36.874  40.600  1.00  0.00     0.124 S 
ATOM     70  O   UNL A   1      40.296  37.144  41.069  1.00  0.00    -0.237 OA
ATOM     71  O   UNL A   1      38.254  37.995  39.964  1.00  0.00    -0.237 OA
ATOM     72  O   UNL A   1      38.115  36.066  41.493  1.00  0.00    -0.744 OA
ENDBRANCH  68  69
ENDBRANCH  36  61
ENDBRANCH  10  11
ENDBRANCH   3   5
ENDBRANCH   2   3
ENDBRANCH   1   2
BRANCH   1  73
ATOM     73  C   UNL A   1      41.961  22.119  27.799  1.00  0.00     0.275 C 
BRANCH  73  74
ATOM     74  O   UNL A   1      40.554  22.246  27.540  1.00  0.00    -0.458 OA
BRANCH  74  75
ATOM     75  C   UNL A   1      40.086  21.523  26.484  1.00  0.00     0.342 C 
ATOM     76  O   UNL A   1      40.602  20.526  26.006  1.00  0.00    -0.246 OA
BRANCH  75  77
ATOM     77  C   UNL A   1      38.782  22.070  26.051  1.00  0.00     0.101 A 
ATOM     78  C   UNL A   1      38.497  23.408  26.361  1.00  0.00     0.020 A 
ATOM     79  C   UNL A   1      37.851  21.326  25.330  1.00  0.00     0.130 A 
ATOM     80  C   UNL A   1      37.335  24.018  25.864  1.00  0.00     0.010 A 
ATOM     81  C   UNL A   1      36.667  21.921  24.888  1.00  0.00     0.055 A 
ATOM     82  C   UNL A   1      36.419  23.286  25.097  1.00  0.00    -0.014 A 
BRANCH  79  83
ATOM     83  O   UNL A   1      38.030  20.012  24.992  1.00  0.00    -0.507 OA
ATOM     84  H   UNL A   1      37.750  19.702  24.154  1.00  0.00     0.293 HD
ENDBRANCH  79  83
BRANCH  82  85
ATOM     85  C   UNL A   1      35.222  23.907  24.482  1.00  0.00    -0.011 A 
ATOM     86  C   UNL A   1      34.389  24.857  25.196  1.00  0.00     0.027 A 
ATOM     87  C   UNL A   1      34.835  23.526  23.250  1.00  0.00     0.080 A 
ATOM     88  C   UNL A   1      33.252  25.316  24.661  1.00  0.00     0.095 A 
ATOM     89  C   UNL A   1      33.602  24.075  22.612  1.00  0.00     0.255 A 
ATOM     90  N   UNL A   1      32.850  24.931  23.397  1.00  0.00    -0.258 N 
ATOM     91  O   UNL A   1      33.357  23.760  21.452  1.00  0.00    -0.269 OA
BRANCH  90  92
ATOM     92  C   UNL A   1      31.626  25.441  22.833  1.00  0.00     0.451 C 
ATOM     93  F   UNL A   1      30.718  24.442  22.681  1.00  0.00    -0.185 F 
ATOM     94  F   UNL A   1      31.069  26.394  23.616  1.00  0.00    -0.185 F 
ENDBRANCH  90  92
ENDBRANCH  82  85
ENDBRANCH  75  77
ENDBRANCH  74  75
ENDBRANCH  73  74
ENDBRANCH   1  73
TORSDOF 17
ENDMDL
MODEL 2
REMARK VINA RESULT:     -11.3      6.283     12.160
REMARK SMILES O=C(OCCOC(=O)c1ccc(-c2ccn(C(F)F)c(=O)c2)cc1O)c1ccc(-c2c3nc(c(-c4c(F)cc(S(=O)(=O)[O-])cc4F)c4ccc([nH]4)c(-c4c(F)cc(S(=O)(=O)[O-])cc4F)c4nc(c(-c5c(F)cc(S(=O)(=O)[O-])cc5F)c5ccc2[nH]5)C=C4)C=C3)cc1
REMARK SMILES IDX 4 1 3 2 2 3 1 4 26 5 27 6 91 7 28 8 90 9 29 10 30 11 31 12
REMARK SMILES IDX 84 13 32 14 89 15 83 16 85 17 33 18 88 19 82 20 81 21 34 23
REMARK SMILES IDX 68 24 47 25 67 26 48 27 51 28 66 29 86 30 49 31 50 32 65 34
REMARK SMILES IDX 87 35 52 36 35 37 36 38 45 39 37 40 38 41 44 42 46 43 39 44
REMARK SMILES IDX 40 45 41 46 42 47 43 48 69 49 70 50 79 51 71 52 72 53 78 54
REMARK SMILES IDX 80 55 73 56 74 57 75 58 76 59 77 60 53 61 54 62 63 63 55 64
REMARK SMILES IDX 56 65 62 66 64 67 57 68 58 69 59 70 60 71 61 72 5 73 6 74
REMARK SMILES IDX 7 75 8 76 9 77 10 78 24 79 11 80 23 81 12 82 25 83 13 85
REMARK SMILES IDX 14 86 22 87 15 88 20 89 16 90 21 91 17 92 18 93 19 94
REMARK H PARENT 85 22 51 33 25 84
REMARK Flexibility Score: inf
ROOT
ATOM      1  C   UNL A   1      36.320  33.037  30.389  1.00  0.00     0.275 C 
ENDROOT
BRANCH   1   2
ATOM      2  O   UNL A   1      35.866  31.689  30.588  1.00  0.00    -0.458 OA
BRANCH   2   3
ATOM      3  C   UNL A   1      36.562  30.601  30.995  1.00  0.00     0.338 C 
ATOM      4  O   UNL A   1      36.170  29.980  31.982  1.00  0.00    -0.246 OA
BRANCH   3   5
ATOM      5  C   UNL A   1      37.888  30.227  30.413  1.00  0.00     0.060 A 
ATOM      6  C   UNL A   1      38.908  29.960  31.337  1.00  0.00     0.016 A 
ATOM      7  C   UNL A   1      38.193  30.108  29.054  1.00  0.00     0.016 A 
ATOM      8  C   UNL A   1      40.215  29.708  30.912  1.00  0.00     0.010 A 
ATOM      9  C   UNL A   1      39.502  29.853  28.625  1.00  0.00     0.010 A 
ATOM     10  C   UNL A   1      40.534  29.681  29.548  1.00  0.00    -0.014 A 
BRANCH  10  11
ATOM     11  C   UNL A   1      41.891  29.285  29.102  1.00  0.00     0.031 A 
ATOM     12  C   UNL A   1      43.031  30.260  28.993  1.00  0.00     0.074 A 
ATOM     13  C   UNL A   1      42.075  27.997  28.761  1.00  0.00     0.049 A 
ATOM     14  N   UNL A   1      44.310  30.017  28.860  1.00  0.00    -0.248 NA
ATOM     15  C   UNL A   1      42.708  31.689  29.060  1.00  0.00     0.031 C 
ATOM     16  C   UNL A   1      41.030  26.970  28.768  1.00  0.00     0.029 A 
ATOM     17  N   UNL A   1      43.191  27.337  28.327  1.00  0.00    -0.354 N 
ATOM     18  C   UNL A   1      44.946  31.251  28.951  1.00  0.00     0.074 A 
ATOM     19  C   UNL A   1      43.912  32.250  29.078  1.00  0.00     0.031 C 
ATOM     20  C   UNL A   1      41.555  25.809  28.357  1.00  0.00     0.029 A 
ATOM     21  C   UNL A   1      42.959  26.018  28.028  1.00  0.00     0.049 A 
ATOM     22  H   UNL A   1      44.073  27.764  28.239  1.00  0.00     0.167 HD
ATOM     23  C   UNL A   1      46.274  31.516  28.923  1.00  0.00     0.037 A 
ATOM     24  C   UNL A   1      43.784  25.084  27.520  1.00  0.00     0.037 A 
ATOM     25  C   UNL A   1      47.266  30.540  28.553  1.00  0.00     0.049 A 
ATOM     26  C   UNL A   1      45.218  25.451  27.279  1.00  0.00     0.074 A 
ATOM     27  C   UNL A   1      48.631  30.708  28.408  1.00  0.00     0.029 A 
ATOM     28  N   UNL A   1      46.981  29.233  28.180  1.00  0.00    -0.354 N 
ATOM     29  N   UNL A   1      45.829  26.586  27.528  1.00  0.00    -0.248 NA
ATOM     30  C   UNL A   1      46.074  24.417  26.690  1.00  0.00     0.031 C 
ATOM     31  C   UNL A   1      49.154  29.535  27.848  1.00  0.00     0.029 A 
ATOM     32  C   UNL A   1      48.127  28.612  27.718  1.00  0.00     0.049 A 
ATOM     33  H   UNL A   1      46.093  28.811  28.235  1.00  0.00     0.167 HD
ATOM     34  C   UNL A   1      47.150  26.397  27.145  1.00  0.00     0.074 A 
ATOM     35  C   UNL A   1      47.247  25.035  26.653  1.00  0.00     0.031 C 
ATOM     36  C   UNL A   1      48.189  27.266  27.200  1.00  0.00     0.037 A 
BRANCH  23  37
ATOM     37  C   UNL A   1      46.733  32.911  29.255  1.00  0.00     0.058 A 
ATOM     38  C   UNL A   1      46.820  33.895  28.254  1.00  0.00     0.135 A 
ATOM     39  C   UNL A   1      46.982  33.306  30.579  1.00  0.00     0.135 A 
ATOM     40  F   UNL A   1      46.598  33.577  26.970  1.00  0.00    -0.206 F 
ATOM     41  C   UNL A   1      47.129  35.219  28.557  1.00  0.00     0.059 A 
ATOM     42  C   UNL A   1      47.280  34.628  30.907  1.00  0.00     0.059 A 
ATOM     43  F   UNL A   1      46.918  32.406  31.573  1.00  0.00    -0.206 F 
ATOM     44  C   UNL A   1      47.348  35.578  29.888  1.00  0.00     0.060 A 
BRANCH  44  45
ATOM     45  S   UNL A   1      47.707  37.310  30.261  1.00  0.00     0.124 S 
ATOM     46  O   UNL A   1      48.568  37.186  31.434  1.00  0.00    -0.237 OA
ATOM     47  O   UNL A   1      48.365  37.756  29.037  1.00  0.00    -0.237 OA
ATOM     48  O   UNL A   1      46.391  37.886  30.511  1.00  0.00    -0.744 OA
ENDBRANCH  44  45
ENDBRANCH  23  37
BRANCH  24  49
ATOM     49  C   UNL A   1      43.242  23.738  27.213  1.00  0.00     0.058 A 
ATOM     50  C   UNL A   1      42.910  23.370  25.904  1.00  0.00     0.135 A 
ATOM     51  C   UNL A   1      43.128  22.762  28.218  1.00  0.00     0.135 A 
ATOM     52  F   UNL A   1      43.000  24.267  24.910  1.00  0.00    -0.206 F 
ATOM     53  C   UNL A   1      42.489  22.080  25.597  1.00  0.00     0.059 A 
ATOM     54  C   UNL A   1      42.734  21.460  27.933  1.00  0.00     0.059 A 
ATOM     55  F   UNL A   1      43.454  23.060  29.487  1.00  0.00    -0.206 F 
ATOM     56  C   UNL A   1      42.412  21.129  26.618  1.00  0.00     0.060 A 
BRANCH  56  57
ATOM     57  S   UNL A   1      41.929  19.442  26.197  1.00  0.00     0.124 S 
ATOM     58  O   UNL A   1      42.721  19.201  24.997  1.00  0.00    -0.237 OA
ATOM     59  O   UNL A   1      42.331  18.701  27.389  1.00  0.00    -0.237 OA
ATOM     60  O   UNL A   1      40.488  19.546  25.990  1.00  0.00    -0.744 OA
ENDBRANCH  56  57
ENDBRANCH  24  49
BRANCH  36  61
ATOM     61  C   UNL A   1      49.515  26.777  26.693  1.00  0.00     0.058 A 
ATOM     62  C   UNL A   1      50.371  26.017  27.505  1.00  0.00     0.135 A 
ATOM     63  C   UNL A   1      49.907  27.023  25.368  1.00  0.00     0.135 A 
ATOM     64  F   UNL A   1      50.042  25.760  28.781  1.00  0.00    -0.206 F 
ATOM     65  C   UNL A   1      51.583  25.534  27.026  1.00  0.00     0.059 A 
ATOM     66  C   UNL A   1      51.102  26.525  24.860  1.00  0.00     0.059 A 
ATOM     67  F   UNL A   1      49.117  27.734  24.548  1.00  0.00    -0.206 F 
ATOM     68  C   UNL A   1      51.937  25.789  25.700  1.00  0.00     0.060 A 
BRANCH  68  69
ATOM     69  S   UNL A   1      53.494  25.120  25.081  1.00  0.00     0.124 S 
ATOM     70  O   UNL A   1      53.509  25.625  23.712  1.00  0.00    -0.237 OA
ATOM     71  O   UNL A   1      54.470  25.716  25.989  1.00  0.00    -0.237 OA
ATOM     72  O   UNL A   1      53.322  23.676  25.217  1.00  0.00    -0.744 OA
ENDBRANCH  68  69
ENDBRANCH  36  61
ENDBRANCH  10  11
ENDBRANCH   3   5
ENDBRANCH   2   3
ENDBRANCH   1   2
BRANCH   1  73
ATOM     73  C   UNL A   1      36.077  33.607  28.988  1.00  0.00     0.275 C 
BRANCH  73  74
ATOM     74  O   UNL A   1      35.592  32.654  28.029  1.00  0.00    -0.458 OA
BRANCH  74  75
ATOM     75  C   UNL A   1      34.236  32.554  27.938  1.00  0.00     0.342 C 
ATOM     76  O   UNL A   1      33.430  33.440  28.163  1.00  0.00    -0.246 OA
BRANCH  75  77
ATOM     77  C   UNL A   1      33.875  31.217  27.418  1.00  0.00     0.101 A 
ATOM     78  C   UNL A   1      34.839  30.201  27.495  1.00  0.00     0.020 A 
ATOM     79  C   UNL A   1      32.620  30.924  26.888  1.00  0.00     0.130 A 
ATOM     80  C   UNL A   1      34.511  28.884  27.139  1.00  0.00     0.010 A 
ATOM     81  C   UNL A   1      32.316  29.623  26.479  1.00  0.00     0.055 A 
ATOM     82  C   UNL A   1      33.233  28.576  26.652  1.00  0.00    -0.014 A 
BRANCH  79  83
ATOM     83  O   UNL A   1      31.620  31.849  26.757  1.00  0.00    -0.507 OA
ATOM     84  H   UNL A   1      31.099  32.083  27.499  1.00  0.00     0.293 HD
ENDBRANCH  79  83
BRANCH  82  85
ATOM     85  C   UNL A   1      32.814  27.189  26.341  1.00  0.00    -0.011 A 
ATOM     86  C   UNL A   1      33.729  26.209  25.786  1.00  0.00     0.027 A 
ATOM     87  C   UNL A   1      31.525  26.834  26.498  1.00  0.00     0.080 A 
ATOM     88  C   UNL A   1      33.299  24.999  25.409  1.00  0.00     0.095 A 
ATOM     89  C   UNL A   1      31.039  25.467  26.141  1.00  0.00     0.255 A 
ATOM     90  N   UNL A   1      31.978  24.628  25.569  1.00  0.00    -0.258 N 
ATOM     91  O   UNL A   1      29.875  25.178  26.396  1.00  0.00    -0.269 OA
BRANCH  90  92
ATOM     92  C   UNL A   1      31.534  23.319  25.164  1.00  0.00     0.451 C 
ATOM     93  F   UNL A   1      31.051  22.628  26.230  1.00  0.00    -0.185 F 
ATOM     94  F   UNL A   1      30.554  23.384  24.234  1.00  0.00    -0.185 F 
ENDBRANCH  90  92
ENDBRANCH  82  85
ENDBRANCH  75  77
ENDBRANCH  74  75
ENDBRANCH  73  74
ENDBRANCH   1  73
TORSDOF 17
ENDMDL
MODEL 3
REMARK VINA RESULT:     -11.3      0.559      8.291
REMARK SMILES O=C(OCCOC(=O)c1ccc(-c2ccn(C(F)F)c(=O)c2)cc1O)c1ccc(-c2c3nc(c(-c4c(F)cc(S(=O)(=O)[O-])cc4F)c4ccc([nH]4)c(-c4c(F)cc(S(=O)(=O)[O-])cc4F)c4nc(c(-c5c(F)cc(S(=O)(=O)[O-])cc5F)c5ccc2[nH]5)C=C4)C=C3)cc1
REMARK SMILES IDX 4 1 3 2 2 3 1 4 26 5 27 6 91 7 28 8 90 9 29 10 30 11 31 12
REMARK SMILES IDX 84 13 32 14 89 15 83 16 85 17 33 18 88 19 82 20 81 21 34 23
REMARK SMILES IDX 68 24 47 25 67 26 48 27 51 28 66 29 86 30 49 31 50 32 65 34
REMARK SMILES IDX 87 35 52 36 35 37 36 38 45 39 37 40 38 41 44 42 46 43 39 44
REMARK SMILES IDX 40 45 41 46 42 47 43 48 69 49 70 50 79 51 71 52 72 53 78 54
REMARK SMILES IDX 80 55 73 56 74 57 75 58 76 59 77 60 53 61 54 62 63 63 55 64
REMARK SMILES IDX 56 65 62 66 64 67 57 68 58 69 59 70 60 71 61 72 5 73 6 74
REMARK SMILES IDX 7 75 8 76 9 77 10 78 24 79 11 80 23 81 12 82 25 83 13 85
REMARK SMILES IDX 14 86 22 87 15 88 20 89 16 90 21 91 17 92 18 93 19 94
REMARK H PARENT 85 22 51 33 25 84
REMARK Flexibility Score: inf
ROOT
ATOM      1  C   UNL A   1      43.076  23.119  25.418  1.00  0.00     0.275 C 
ENDROOT
BRANCH   1   2
ATOM      2  O   UNL A   1      42.843  24.160  26.378  1.00  0.00    -0.458 OA
BRANCH   2   3
ATOM      3  C   UNL A   1      42.091  25.281  26.263  1.00  0.00     0.338 C 
ATOM      4  O   UNL A   1      41.808  25.693  25.138  1.00  0.00    -0.246 OA
BRANCH   3   5
ATOM      5  C   UNL A   1      41.744  26.145  27.433  1.00  0.00     0.060 A 
ATOM      6  C   UNL A   1      42.611  27.219  27.679  1.00  0.00     0.016 A 
ATOM      7  C   UNL A   1      40.644  25.989  28.280  1.00  0.00     0.016 A 
ATOM      8  C   UNL A   1      42.451  28.027  28.807  1.00  0.00     0.010 A 
ATOM      9  C   UNL A   1      40.479  26.800  29.411  1.00  0.00     0.010 A 
ATOM     10  C   UNL A   1      41.398  27.808  29.705  1.00  0.00    -0.014 A 
BRANCH  10  11
ATOM     11  C   UNL A   1      41.158  28.748  30.826  1.00  0.00     0.031 A 
ATOM     12  C   UNL A   1      40.172  29.880  30.745  1.00  0.00     0.074 A 
ATOM     13  C   UNL A   1      41.889  28.573  31.942  1.00  0.00     0.049 A 
ATOM     14  N   UNL A   1      39.684  30.615  31.710  1.00  0.00    -0.248 NA
ATOM     15  C   UNL A   1      39.645  30.225  29.420  1.00  0.00     0.031 C 
ATOM     16  C   UNL A   1      42.920  27.547  32.117  1.00  0.00     0.029 A 
ATOM     17  N   UNL A   1      41.893  29.258  33.125  1.00  0.00    -0.354 N 
ATOM     18  C   UNL A   1      38.711  31.420  31.127  1.00  0.00     0.074 A 
ATOM     19  C   UNL A   1      38.724  31.136  29.711  1.00  0.00     0.031 C 
ATOM     20  C   UNL A   1      43.458  27.671  33.337  1.00  0.00     0.029 A 
ATOM     21  C   UNL A   1      42.834  28.802  34.013  1.00  0.00     0.049 A 
ATOM     22  H   UNL A   1      41.282  30.005  33.320  1.00  0.00     0.167 HD
ATOM     23  C   UNL A   1      37.890  32.315  31.725  1.00  0.00     0.037 A 
ATOM     24  C   UNL A   1      43.172  29.259  35.232  1.00  0.00     0.037 A 
ATOM     25  C   UNL A   1      38.060  32.755  33.086  1.00  0.00     0.049 A 
ATOM     26  C   UNL A   1      42.398  30.408  35.805  1.00  0.00     0.074 A 
ATOM     27  C   UNL A   1      37.347  33.717  33.779  1.00  0.00     0.029 A 
ATOM     28  N   UNL A   1      39.077  32.325  33.929  1.00  0.00    -0.354 N 
ATOM     29  N   UNL A   1      41.372  31.046  35.291  1.00  0.00    -0.248 NA
ATOM     30  C   UNL A   1      42.824  30.902  37.119  1.00  0.00     0.031 C 
ATOM     31  C   UNL A   1      37.996  33.939  35.000  1.00  0.00     0.029 A 
ATOM     32  C   UNL A   1      39.066  33.063  35.099  1.00  0.00     0.049 A 
ATOM     33  H   UNL A   1      39.712  31.600  33.724  1.00  0.00     0.167 HD
ATOM     34  C   UNL A   1      41.013  32.004  36.229  1.00  0.00     0.074 A 
ATOM     35  C   UNL A   1      41.931  31.857  37.344  1.00  0.00     0.031 C 
ATOM     36  C   UNL A   1      40.014  32.920  36.177  1.00  0.00     0.037 A 
BRANCH  23  37
ATOM     37  C   UNL A   1      36.769  32.911  30.916  1.00  0.00     0.058 A 
ATOM     38  C   UNL A   1      35.448  32.457  31.077  1.00  0.00     0.135 A 
ATOM     39  C   UNL A   1      36.982  34.005  30.063  1.00  0.00     0.135 A 
ATOM     40  F   UNL A   1      35.182  31.412  31.876  1.00  0.00    -0.206 F 
ATOM     41  C   UNL A   1      34.381  33.073  30.426  1.00  0.00     0.059 A 
ATOM     42  C   UNL A   1      35.927  34.645  29.412  1.00  0.00     0.059 A 
ATOM     43  F   UNL A   1      38.224  34.475  29.868  1.00  0.00    -0.206 F 
ATOM     44  C   UNL A   1      34.629  34.172  29.603  1.00  0.00     0.060 A 
BRANCH  44  45
ATOM     45  S   UNL A   1      33.224  34.979  28.802  1.00  0.00     0.124 S 
ATOM     46  O   UNL A   1      32.750  33.926  27.909  1.00  0.00    -0.237 OA
ATOM     47  O   UNL A   1      32.358  35.282  29.938  1.00  0.00    -0.237 OA
ATOM     48  O   UNL A   1      33.822  36.134  28.143  1.00  0.00    -0.744 OA
ENDBRANCH  44  45
ENDBRANCH  23  37
BRANCH  24  49
ATOM     49  C   UNL A   1      44.299  28.617  35.953  1.00  0.00     0.058 A 
ATOM     50  C   UNL A   1      44.086  27.533  36.813  1.00  0.00     0.135 A 
ATOM     51  C   UNL A   1      45.625  29.024  35.726  1.00  0.00     0.135 A 
ATOM     52  F   UNL A   1      42.838  27.109  37.063  1.00  0.00    -0.206 F 
ATOM     53  C   UNL A   1      45.148  26.869  37.419  1.00  0.00     0.059 A 
ATOM     54  C   UNL A   1      46.702  28.362  36.300  1.00  0.00     0.059 A 
ATOM     55  F   UNL A   1      45.882  30.047  34.893  1.00  0.00    -0.206 F 
ATOM     56  C   UNL A   1      46.453  27.286  37.150  1.00  0.00     0.060 A 
BRANCH  56  57
ATOM     57  S   UNL A   1      47.825  26.375  37.890  1.00  0.00     0.124 S 
ATOM     58  O   UNL A   1      47.936  25.232  36.991  1.00  0.00    -0.237 OA
ATOM     59  O   UNL A   1      48.910  27.348  37.825  1.00  0.00    -0.237 OA
ATOM     60  O   UNL A   1      47.342  26.074  39.234  1.00  0.00    -0.744 OA
ENDBRANCH  56  57
ENDBRANCH  24  49
BRANCH  36  61
ATOM     61  C   UNL A   1      39.877  33.847  37.350  1.00  0.00     0.058 A 
ATOM     62  C   UNL A   1      40.497  35.106  37.361  1.00  0.00     0.135 A 
ATOM     63  C   UNL A   1      39.073  33.497  38.447  1.00  0.00     0.135 A 
ATOM     64  F   UNL A   1      41.278  35.484  36.338  1.00  0.00    -0.206 F 
ATOM     65  C   UNL A   1      40.341  35.980  38.431  1.00  0.00     0.059 A 
ATOM     66  C   UNL A   1      38.881  34.367  39.514  1.00  0.00     0.059 A 
ATOM     67  F   UNL A   1      38.448  32.309  38.477  1.00  0.00    -0.206 F 
ATOM     68  C   UNL A   1      39.527  35.603  39.501  1.00  0.00     0.060 A 
BRANCH  68  69
ATOM     69  S   UNL A   1      39.303  36.765  40.862  1.00  0.00     0.124 S 
ATOM     70  O   UNL A   1      40.683  37.042  41.245  1.00  0.00    -0.237 OA
ATOM     71  O   UNL A   1      38.591  37.865  40.216  1.00  0.00    -0.237 OA
ATOM     72  O   UNL A   1      38.521  36.006  41.833  1.00  0.00    -0.744 OA
ENDBRANCH  68  69
ENDBRANCH  36  61
ENDBRANCH  10  11
ENDBRANCH   3   5
ENDBRANCH   2   3
ENDBRANCH   1   2
BRANCH   1  73
ATOM     73  C   UNL A   1      42.617  21.721  25.848  1.00  0.00     0.275 C 
BRANCH  73  74
ATOM     74  O   UNL A   1      41.215  21.468  25.664  1.00  0.00    -0.458 OA
BRANCH  74  75
ATOM     75  C   UNL A   1      40.421  21.773  26.729  1.00  0.00     0.342 C 
ATOM     76  O   UNL A   1      40.748  21.749  27.903  1.00  0.00    -0.246 OA
BRANCH  75  77
ATOM     77  C   UNL A   1      39.107  22.244  26.243  1.00  0.00     0.101 A 
ATOM     78  C   UNL A   1      38.732  23.563  26.538  1.00  0.00     0.020 A 
ATOM     79  C   UNL A   1      38.249  21.447  25.487  1.00  0.00     0.130 A 
ATOM     80  C   UNL A   1      37.557  24.105  25.994  1.00  0.00     0.010 A 
ATOM     81  C   UNL A   1      37.051  21.972  24.997  1.00  0.00     0.055 A 
ATOM     82  C   UNL A   1      36.717  23.321  25.193  1.00  0.00    -0.014 A 
BRANCH  79  83
ATOM     83  O   UNL A   1      38.517  20.145  25.161  1.00  0.00    -0.507 OA
ATOM     84  H   UNL A   1      37.886  19.477  25.342  1.00  0.00     0.293 HD
ENDBRANCH  79  83
BRANCH  82  85
ATOM     85  C   UNL A   1      35.511  23.871  24.530  1.00  0.00    -0.011 A 
ATOM     86  C   UNL A   1      34.771  24.994  25.075  1.00  0.00     0.027 A 
ATOM     87  C   UNL A   1      35.027  23.269  23.427  1.00  0.00     0.080 A 
ATOM     88  C   UNL A   1      33.623  25.399  24.520  1.00  0.00     0.095 A 
ATOM     89  C   UNL A   1      33.780  23.746  22.757  1.00  0.00     0.255 A 
ATOM     90  N   UNL A   1      33.122  24.787  23.387  1.00  0.00    -0.258 N 
ATOM     91  O   UNL A   1      33.445  23.214  21.704  1.00  0.00    -0.269 OA
BRANCH  90  92
ATOM     92  C   UNL A   1      31.888  25.241  22.798  1.00  0.00     0.451 C 
ATOM     93  F   UNL A   1      32.105  25.718  21.545  1.00  0.00    -0.185 F 
ATOM     94  F   UNL A   1      30.975  24.246  22.711  1.00  0.00    -0.185 F 
ENDBRANCH  90  92
ENDBRANCH  82  85
ENDBRANCH  75  77
ENDBRANCH  74  75
ENDBRANCH  73  74
ENDBRANCH   1  73
TORSDOF 17
ENDMDL
