MODEL 1
REMARK VINA RESULT:     -10.3      0.000      0.000
REMARK SMILES Cc1cc2c(c(C)c1Br)C=C(C(=O)OCCOC(=O)c1ccc(-c3c4nc(c(-c5c(F)cc(S(=O)(=O)[O-])cc5F)c5ccc([nH]5)c(-c5c(F)cc(S(=O)(=O)[O-])cc5F)c5nc(c(-c6c(F)cc(S(=O)(=O)[O-])cc6F)c6ccc3[nH]6)C=C5)C=C4)cc1)[C@@H](C(F)(F)F)O2
REMARK SMILES IDX 16 1 15 2 14 3 12 4 13 5 11 6 1 7 2 8 3 9 8 10 4 11 6 12
REMARK SMILES IDX 9 13 5 14 91 15 7 16 10 17 86 18 87 19 88 20 89 21 90 22
REMARK SMILES IDX 17 23 18 24 19 25 20 26 21 27 85 28 22 29 84 30 23 31 24 32
REMARK SMILES IDX 25 33 78 34 26 35 83 36 77 37 79 38 27 39 82 40 76 41 75 42
REMARK SMILES IDX 28 44 62 45 41 46 61 47 42 48 45 49 60 50 80 51 43 52 44 53
REMARK SMILES IDX 59 55 81 56 46 57 29 58 30 59 39 60 31 61 32 62 38 63 40 64
REMARK SMILES IDX 33 65 34 66 35 67 36 68 37 69 63 70 64 71 73 72 65 73 66 74
REMARK SMILES IDX 72 75 74 76 67 77 68 78 69 79 70 80 71 81 47 82 48 83 57 84
REMARK SMILES IDX 49 85 50 86 56 87 58 88 51 89 52 90 53 91 54 92 55 93
REMARK H PARENT 79 43 45 54
REMARK Flexibility Score: inf
ROOT
ATOM      1  C   UNL A   1      40.492  20.231  26.082  1.00  0.00     0.275 C 
ENDROOT
BRANCH   1   2
ATOM      2  C   UNL A   1      42.012  20.129  26.193  1.00  0.00     0.275 C 
BRANCH   2   3
ATOM      3  O   UNL A   1      42.624  21.436  26.161  1.00  0.00    -0.459 OA
BRANCH   3   4
ATOM      4  C   UNL A   1      43.882  21.478  25.663  1.00  0.00     0.338 C 
ATOM      5  O   UNL A   1      44.289  20.909  24.663  1.00  0.00    -0.246 OA
BRANCH   4   6
ATOM      6  C   UNL A   1      44.747  22.314  26.513  1.00  0.00     0.087 C 
ATOM      7  C   UNL A   1      47.280  26.675  30.585  1.00  0.00     0.046 C 
ATOM      8  C   UNL A   1      46.511  25.557  29.934  1.00  0.00    -0.033 A 
ATOM      9  C   UNL A   1      46.935  25.101  28.678  1.00  0.00     0.051 A 
ATOM     10  C   UNL A   1      45.363  24.981  30.519  1.00  0.00     0.024 A 
ATOM     11  C   UNL A   1      46.227  24.116  27.996  1.00  0.00     0.128 A 
ATOM     12  C   UNL A   1      44.650  23.954  29.857  1.00  0.00    -0.026 A 
ATOM     13  Br  UNL A   1      44.774  25.653  32.214  1.00  0.00    -0.050 Br
ATOM     14  C   UNL A   1      45.084  23.547  28.566  1.00  0.00     0.021 A 
ATOM     15  O   UNL A   1      46.742  23.768  26.776  1.00  0.00    -0.475 OA
ATOM     16  C   UNL A   1      43.431  23.301  30.474  1.00  0.00     0.046 C 
ATOM     17  C   UNL A   1      44.346  22.574  27.763  1.00  0.00     0.027 C 
ATOM     18  C   UNL A   1      45.944  22.951  25.883  1.00  0.00     0.316 C 
BRANCH  18  19
ATOM     19  C   UNL A   1      45.562  23.783  24.648  1.00  0.00     0.430 C 
ATOM     20  F   UNL A   1      46.330  24.895  24.547  1.00  0.00    -0.167 F 
ATOM     21  F   UNL A   1      45.753  23.085  23.501  1.00  0.00    -0.167 F 
ATOM     22  F   UNL A   1      44.272  24.183  24.670  1.00  0.00    -0.167 F 
ENDBRANCH  18  19
ENDBRANCH   4   6
ENDBRANCH   3   4
ENDBRANCH   2   3
ENDBRANCH   1   2
BRANCH   1  23
ATOM     23  O   UNL A   1      39.996  21.199  27.024  1.00  0.00    -0.458 OA
BRANCH  23  24
ATOM     24  C   UNL A   1      39.277  22.212  26.490  1.00  0.00     0.338 C 
ATOM     25  O   UNL A   1      38.372  22.129  25.678  1.00  0.00    -0.246 OA
BRANCH  24  26
ATOM     26  C   UNL A   1      39.690  23.490  27.093  1.00  0.00     0.060 A 
ATOM     27  C   UNL A   1      39.205  24.674  26.552  1.00  0.00     0.016 A 
ATOM     28  C   UNL A   1      40.695  23.526  28.057  1.00  0.00     0.016 A 
ATOM     29  C   UNL A   1      39.837  25.878  26.843  1.00  0.00     0.010 A 
ATOM     30  C   UNL A   1      41.225  24.760  28.457  1.00  0.00     0.010 A 
ATOM     31  C   UNL A   1      40.853  25.951  27.807  1.00  0.00    -0.014 A 
BRANCH  31  32
ATOM     32  C   UNL A   1      41.554  27.249  28.067  1.00  0.00     0.031 A 
ATOM     33  C   UNL A   1      40.863  28.349  28.843  1.00  0.00     0.074 A 
ATOM     34  C   UNL A   1      42.831  27.435  27.665  1.00  0.00     0.049 A 
ATOM     35  N   UNL A   1      41.240  29.589  29.033  1.00  0.00    -0.248 NA
ATOM     36  C   UNL A   1      39.574  28.022  29.475  1.00  0.00     0.031 C 
ATOM     37  C   UNL A   1      43.649  26.450  26.952  1.00  0.00     0.029 A 
ATOM     38  N   UNL A   1      43.680  28.505  27.822  1.00  0.00    -0.354 N 
ATOM     39  C   UNL A   1      40.210  30.201  29.743  1.00  0.00     0.074 A 
ATOM     40  C   UNL A   1      39.184  29.202  29.938  1.00  0.00     0.031 C 
ATOM     41  C   UNL A   1      44.896  26.923  26.814  1.00  0.00     0.029 A 
ATOM     42  C   UNL A   1      44.940  28.292  27.308  1.00  0.00     0.049 A 
ATOM     43  H   UNL A   1      43.412  29.345  28.261  1.00  0.00     0.167 HD
ATOM     44  C   UNL A   1      40.132  31.474  30.200  1.00  0.00     0.037 A 
ATOM     45  C   UNL A   1      46.003  29.114  27.198  1.00  0.00     0.037 A 
ATOM     46  C   UNL A   1      41.191  32.442  30.075  1.00  0.00     0.049 A 
ATOM     47  C   UNL A   1      45.875  30.538  27.660  1.00  0.00     0.074 A 
ATOM     48  C   UNL A   1      41.217  33.751  30.525  1.00  0.00     0.029 A 
ATOM     49  N   UNL A   1      42.420  32.201  29.479  1.00  0.00    -0.354 N 
ATOM     50  N   UNL A   1      44.867  31.115  28.269  1.00  0.00    -0.248 NA
ATOM     51  C   UNL A   1      47.007  31.433  27.385  1.00  0.00     0.031 C 
ATOM     52  C   UNL A   1      42.444  34.314  30.164  1.00  0.00     0.029 A 
ATOM     53  C   UNL A   1      43.201  33.344  29.526  1.00  0.00     0.049 A 
ATOM     54  H   UNL A   1      42.697  31.344  29.081  1.00  0.00     0.167 HD
ATOM     55  C   UNL A   1      45.241  32.443  28.442  1.00  0.00     0.074 A 
ATOM     56  C   UNL A   1      46.580  32.576  27.904  1.00  0.00     0.031 C 
ATOM     57  C   UNL A   1      44.531  33.462  28.984  1.00  0.00     0.037 A 
BRANCH  44  58
ATOM     58  C   UNL A   1      38.854  31.913  30.866  1.00  0.00     0.058 A 
ATOM     59  C   UNL A   1      38.633  31.741  32.240  1.00  0.00     0.135 A 
ATOM     60  C   UNL A   1      37.858  32.570  30.122  1.00  0.00     0.135 A 
ATOM     61  F   UNL A   1      39.543  31.108  32.997  1.00  0.00    -0.206 F 
ATOM     62  C   UNL A   1      37.462  32.183  32.851  1.00  0.00     0.059 A 
ATOM     63  C   UNL A   1      36.692  33.046  30.716  1.00  0.00     0.059 A 
ATOM     64  F   UNL A   1      38.017  32.765  28.803  1.00  0.00    -0.206 F 
ATOM     65  C   UNL A   1      36.498  32.837  32.080  1.00  0.00     0.060 A 
BRANCH  65  66
ATOM     66  S   UNL A   1      34.991  33.410  32.891  1.00  0.00     0.124 S 
ATOM     67  O   UNL A   1      35.254  33.054  34.282  1.00  0.00    -0.237 OA
ATOM     68  O   UNL A   1      34.999  34.838  32.591  1.00  0.00    -0.237 OA
ATOM     69  O   UNL A   1      33.936  32.641  32.239  1.00  0.00    -0.744 OA
ENDBRANCH  65  66
ENDBRANCH  44  58
BRANCH  45  70
ATOM     70  C   UNL A   1      47.263  28.620  26.573  1.00  0.00     0.058 A 
ATOM     71  C   UNL A   1      48.413  28.402  27.342  1.00  0.00     0.135 A 
ATOM     72  C   UNL A   1      47.331  28.325  25.201  1.00  0.00     0.135 A 
ATOM     73  F   UNL A   1      48.406  28.685  28.655  1.00  0.00    -0.206 F 
ATOM     74  C   UNL A   1      49.584  27.903  26.779  1.00  0.00     0.059 A 
ATOM     75  C   UNL A   1      48.479  27.796  24.621  1.00  0.00     0.059 A 
ATOM     76  F   UNL A   1      46.257  28.510  24.417  1.00  0.00    -0.206 F 
ATOM     77  C   UNL A   1      49.604  27.593  25.418  1.00  0.00     0.060 A 
BRANCH  77  78
ATOM     78  S   UNL A   1      51.107  26.883  24.712  1.00  0.00     0.124 S 
ATOM     79  O   UNL A   1      50.742  26.763  23.306  1.00  0.00    -0.237 OA
ATOM     80  O   UNL A   1      52.102  27.902  25.029  1.00  0.00    -0.237 OA
ATOM     81  O   UNL A   1      51.257  25.624  25.436  1.00  0.00    -0.744 OA
ENDBRANCH  77  78
ENDBRANCH  45  70
BRANCH  57  82
ATOM     82  C   UNL A   1      45.172  34.819  29.015  1.00  0.00     0.058 A 
ATOM     83  C   UNL A   1      46.019  35.196  30.068  1.00  0.00     0.135 A 
ATOM     84  C   UNL A   1      45.023  35.708  27.938  1.00  0.00     0.135 A 
ATOM     85  F   UNL A   1      46.184  34.385  31.125  1.00  0.00    -0.206 F 
ATOM     86  C   UNL A   1      46.703  36.406  30.050  1.00  0.00     0.059 A 
ATOM     87  C   UNL A   1      45.717  36.914  27.888  1.00  0.00     0.059 A 
ATOM     88  F   UNL A   1      44.228  35.391  26.904  1.00  0.00    -0.206 F 
ATOM     89  C   UNL A   1      46.555  37.253  28.949  1.00  0.00     0.060 A 
BRANCH  89  90
ATOM     90  S   UNL A   1      47.515  38.781  28.908  1.00  0.00     0.124 S 
ATOM     91  O   UNL A   1      48.732  38.347  28.228  1.00  0.00    -0.237 OA
ATOM     92  O   UNL A   1      46.645  39.671  28.145  1.00  0.00    -0.237 OA
ATOM     93  O   UNL A   1      47.673  39.124  30.318  1.00  0.00    -0.744 OA
ENDBRANCH  89  90
ENDBRANCH  57  82
ENDBRANCH  31  32
ENDBRANCH  24  26
ENDBRANCH  23  24
ENDBRANCH   1  23
TORSDOF 15
ENDMDL
MODEL 2
REMARK VINA RESULT:     -10.3      4.851     12.586
REMARK SMILES Cc1cc2c(c(C)c1Br)C=C(C(=O)OCCOC(=O)c1ccc(-c3c4nc(c(-c5c(F)cc(S(=O)(=O)[O-])cc5F)c5ccc([nH]5)c(-c5c(F)cc(S(=O)(=O)[O-])cc5F)c5nc(c(-c6c(F)cc(S(=O)(=O)[O-])cc6F)c6ccc3[nH]6)C=C5)C=C4)cc1)[C@@H](C(F)(F)F)O2
REMARK SMILES IDX 16 1 15 2 14 3 12 4 13 5 11 6 1 7 2 8 3 9 8 10 4 11 6 12
REMARK SMILES IDX 9 13 5 14 91 15 7 16 10 17 86 18 87 19 88 20 89 21 90 22
REMARK SMILES IDX 17 23 18 24 19 25 20 26 21 27 85 28 22 29 84 30 23 31 24 32
REMARK SMILES IDX 25 33 78 34 26 35 83 36 77 37 79 38 27 39 82 40 76 41 75 42
REMARK SMILES IDX 28 44 62 45 41 46 61 47 42 48 45 49 60 50 80 51 43 52 44 53
REMARK SMILES IDX 59 55 81 56 46 57 29 58 30 59 39 60 31 61 32 62 38 63 40 64
REMARK SMILES IDX 33 65 34 66 35 67 36 68 37 69 63 70 64 71 73 72 65 73 66 74
REMARK SMILES IDX 72 75 74 76 67 77 68 78 69 79 70 80 71 81 47 82 48 83 57 84
REMARK SMILES IDX 49 85 50 86 56 87 58 88 51 89 52 90 53 91 54 92 55 93
REMARK H PARENT 79 43 45 54
REMARK Flexibility Score: inf
ROOT
ATOM      1  C   UNL A   1      33.353  33.673  27.838  1.00  0.00     0.275 C 
ENDROOT
BRANCH   1   2
ATOM      2  C   UNL A   1      33.380  34.363  29.201  1.00  0.00     0.275 C 
BRANCH   2   3
ATOM      3  O   UNL A   1      34.725  34.434  29.720  1.00  0.00    -0.459 OA
BRANCH   3   4
ATOM      4  C   UNL A   1      34.994  33.602  30.753  1.00  0.00     0.338 C 
ATOM      5  O   UNL A   1      34.402  32.572  31.033  1.00  0.00    -0.246 OA
BRANCH   4   6
ATOM      6  C   UNL A   1      36.126  34.112  31.546  1.00  0.00     0.087 C 
ATOM      7  C   UNL A   1      41.754  35.096  34.607  1.00  0.00     0.046 C 
ATOM      8  C   UNL A   1      40.657  34.871  33.602  1.00  0.00    -0.033 A 
ATOM      9  C   UNL A   1      39.329  35.054  34.015  1.00  0.00     0.051 A 
ATOM     10  C   UNL A   1      40.911  34.449  32.280  1.00  0.00     0.024 A 
ATOM     11  C   UNL A   1      38.268  34.799  33.151  1.00  0.00     0.128 A 
ATOM     12  C   UNL A   1      39.846  34.218  31.376  1.00  0.00    -0.026 A 
ATOM     13  Br  UNL A   1      42.729  34.158  31.753  1.00  0.00    -0.050 Br
ATOM     14  C   UNL A   1      38.512  34.372  31.842  1.00  0.00     0.021 A 
ATOM     15  O   UNL A   1      37.024  35.009  33.681  1.00  0.00    -0.475 OA
ATOM     16  C   UNL A   1      40.092  33.789  29.946  1.00  0.00     0.046 C 
ATOM     17  C   UNL A   1      37.352  34.049  31.014  1.00  0.00     0.027 C 
ATOM     18  C   UNL A   1      35.862  34.528  32.958  1.00  0.00     0.316 C 
BRANCH  18  19
ATOM     19  C   UNL A   1      35.197  33.403  33.768  1.00  0.00     0.430 C 
ATOM     20  F   UNL A   1      35.678  32.187  33.407  1.00  0.00    -0.167 F 
ATOM     21  F   UNL A   1      35.448  33.531  35.094  1.00  0.00    -0.167 F 
ATOM     22  F   UNL A   1      33.856  33.371  33.608  1.00  0.00    -0.167 F 
ENDBRANCH  18  19
ENDBRANCH   4   6
ENDBRANCH   3   4
ENDBRANCH   2   3
ENDBRANCH   1   2
BRANCH   1  23
ATOM     23  O   UNL A   1      34.588  32.970  27.621  1.00  0.00    -0.458 OA
BRANCH  23  24
ATOM     24  C   UNL A   1      34.496  31.621  27.617  1.00  0.00     0.338 C 
ATOM     25  O   UNL A   1      33.549  30.946  27.253  1.00  0.00    -0.246 OA
BRANCH  24  26
ATOM     26  C   UNL A   1      35.769  31.032  28.063  1.00  0.00     0.060 A 
ATOM     27  C   UNL A   1      35.765  29.746  28.588  1.00  0.00     0.016 A 
ATOM     28  C   UNL A   1      36.922  31.810  28.138  1.00  0.00     0.016 A 
ATOM     29  C   UNL A   1      36.848  29.301  29.339  1.00  0.00     0.010 A 
ATOM     30  C   UNL A   1      38.064  31.295  28.767  1.00  0.00     0.010 A 
ATOM     31  C   UNL A   1      38.024  30.060  29.439  1.00  0.00    -0.014 A 
BRANCH  31  32
ATOM     32  C   UNL A   1      39.158  29.585  30.294  1.00  0.00     0.031 A 
ATOM     33  C   UNL A   1      40.208  28.655  29.725  1.00  0.00     0.074 A 
ATOM     34  C   UNL A   1      39.293  30.023  31.565  1.00  0.00     0.049 A 
ATOM     35  N   UNL A   1      41.168  28.014  30.343  1.00  0.00    -0.248 NA
ATOM     36  C   UNL A   1      40.166  28.396  28.276  1.00  0.00     0.031 C 
ATOM     37  C   UNL A   1      38.393  30.962  32.240  1.00  0.00     0.029 A 
ATOM     38  N   UNL A   1      40.256  29.764  32.511  1.00  0.00    -0.354 N 
ATOM     39  C   UNL A   1      41.795  27.232  29.378  1.00  0.00     0.074 A 
ATOM     40  C   UNL A   1      41.098  27.465  28.133  1.00  0.00     0.031 C 
ATOM     41  C   UNL A   1      38.889  31.265  33.447  1.00  0.00     0.029 A 
ATOM     42  C   UNL A   1      40.071  30.450  33.692  1.00  0.00     0.049 A 
ATOM     43  H   UNL A   1      41.007  29.146  32.360  1.00  0.00     0.167 HD
ATOM     44  C   UNL A   1      42.860  26.406  29.513  1.00  0.00     0.037 A 
ATOM     45  C   UNL A   1      40.740  30.401  34.861  1.00  0.00     0.037 A 
ATOM     46  C   UNL A   1      43.602  26.240  30.736  1.00  0.00     0.049 A 
ATOM     47  C   UNL A   1      41.883  29.435  35.006  1.00  0.00     0.074 A 
ATOM     48  C   UNL A   1      44.710  25.444  30.969  1.00  0.00     0.029 A 
ATOM     49  N   UNL A   1      43.329  26.900  31.925  1.00  0.00    -0.354 N 
ATOM     50  N   UNL A   1      42.418  28.655  34.098  1.00  0.00    -0.248 NA
ATOM     51  C   UNL A   1      42.486  29.312  36.340  1.00  0.00     0.031 C 
ATOM     52  C   UNL A   1      45.080  25.589  32.309  1.00  0.00     0.029 A 
ATOM     53  C   UNL A   1      44.230  26.508  32.901  1.00  0.00     0.049 A 
ATOM     54  H   UNL A   1      42.602  27.550  32.056  1.00  0.00     0.167 HD
ATOM     55  C   UNL A   1      43.415  27.942  34.753  1.00  0.00     0.074 A 
ATOM     56  C   UNL A   1      43.431  28.407  36.125  1.00  0.00     0.031 C 
ATOM     57  C   UNL A   1      44.232  26.978  34.264  1.00  0.00     0.037 A 
BRANCH  44  58
ATOM     58  C   UNL A   1      43.289  25.596  28.316  1.00  0.00     0.058 A 
ATOM     59  C   UNL A   1      44.287  26.039  27.436  1.00  0.00     0.135 A 
ATOM     60  C   UNL A   1      42.728  24.328  28.083  1.00  0.00     0.135 A 
ATOM     61  F   UNL A   1      44.847  27.247  27.602  1.00  0.00    -0.206 F 
ATOM     62  C   UNL A   1      44.699  25.265  26.354  1.00  0.00     0.059 A 
ATOM     63  C   UNL A   1      43.145  23.525  27.024  1.00  0.00     0.059 A 
ATOM     64  F   UNL A   1      41.771  23.852  28.895  1.00  0.00    -0.206 F 
ATOM     65  C   UNL A   1      44.122  24.008  26.158  1.00  0.00     0.060 A 
BRANCH  65  66
ATOM     66  S   UNL A   1      44.676  23.017  24.754  1.00  0.00     0.124 S 
ATOM     67  O   UNL A   1      45.675  23.896  24.152  1.00  0.00    -0.237 OA
ATOM     68  O   UNL A   1      45.197  21.820  25.405  1.00  0.00    -0.237 OA
ATOM     69  O   UNL A   1      43.461  22.823  23.970  1.00  0.00    -0.744 OA
ENDBRANCH  65  66
ENDBRANCH  44  58
BRANCH  45  70
ATOM     70  C   UNL A   1      40.307  31.255  36.002  1.00  0.00     0.058 A 
ATOM     71  C   UNL A   1      41.143  32.259  36.510  1.00  0.00     0.135 A 
ATOM     72  C   UNL A   1      39.038  31.107  36.586  1.00  0.00     0.135 A 
ATOM     73  F   UNL A   1      42.373  32.430  35.999  1.00  0.00    -0.206 F 
ATOM     74  C   UNL A   1      40.736  33.091  37.549  1.00  0.00     0.059 A 
ATOM     75  C   UNL A   1      38.596  31.946  37.604  1.00  0.00     0.059 A 
ATOM     76  F   UNL A   1      38.195  30.164  36.136  1.00  0.00    -0.206 F 
ATOM     77  C   UNL A   1      39.455  32.933  38.083  1.00  0.00     0.060 A 
BRANCH  77  78
ATOM     78  S   UNL A   1      38.913  34.061  39.384  1.00  0.00     0.124 S 
ATOM     79  O   UNL A   1      38.931  35.342  38.689  1.00  0.00    -0.237 OA
ATOM     80  O   UNL A   1      37.594  33.531  39.716  1.00  0.00    -0.237 OA
ATOM     81  O   UNL A   1      39.927  33.891  40.421  1.00  0.00    -0.744 OA
ENDBRANCH  77  78
ENDBRANCH  45  70
BRANCH  57  82
ATOM     82  C   UNL A   1      45.207  26.342  35.212  1.00  0.00     0.058 A 
ATOM     83  C   UNL A   1      46.469  26.911  35.442  1.00  0.00     0.135 A 
ATOM     84  C   UNL A   1      44.841  25.220  35.972  1.00  0.00     0.135 A 
ATOM     85  F   UNL A   1      46.869  27.978  34.731  1.00  0.00    -0.206 F 
ATOM     86  C   UNL A   1      47.334  26.393  36.399  1.00  0.00     0.059 A 
ATOM     87  C   UNL A   1      45.682  24.699  36.952  1.00  0.00     0.059 A 
ATOM     88  F   UNL A   1      43.643  24.643  35.793  1.00  0.00    -0.206 F 
ATOM     89  C   UNL A   1      46.926  25.294  37.158  1.00  0.00     0.060 A 
BRANCH  89  90
ATOM     90  S   UNL A   1      48.029  24.688  38.451  1.00  0.00     0.124 S 
ATOM     91  O   UNL A   1      48.871  25.855  38.693  1.00  0.00    -0.237 OA
ATOM     92  O   UNL A   1      47.095  24.347  39.520  1.00  0.00    -0.237 OA
ATOM     93  O   UNL A   1      48.699  23.552  37.824  1.00  0.00    -0.744 OA
ENDBRANCH  89  90
ENDBRANCH  57  82
ENDBRANCH  31  32
ENDBRANCH  24  26
ENDBRANCH  23  24
ENDBRANCH   1  23
TORSDOF 15
ENDMDL
MODEL 3
REMARK VINA RESULT:     -10.1      4.636      9.565
REMARK SMILES Cc1cc2c(c(C)c1Br)C=C(C(=O)OCCOC(=O)c1ccc(-c3c4nc(c(-c5c(F)cc(S(=O)(=O)[O-])cc5F)c5ccc([nH]5)c(-c5c(F)cc(S(=O)(=O)[O-])cc5F)c5nc(c(-c6c(F)cc(S(=O)(=O)[O-])cc6F)c6ccc3[nH]6)C=C5)C=C4)cc1)[C@@H](C(F)(F)F)O2
REMARK SMILES IDX 16 1 15 2 14 3 12 4 13 5 11 6 1 7 2 8 3 9 8 10 4 11 6 12
REMARK SMILES IDX 9 13 5 14 91 15 7 16 10 17 86 18 87 19 88 20 89 21 90 22
REMARK SMILES IDX 17 23 18 24 19 25 20 26 21 27 85 28 22 29 84 30 23 31 24 32
REMARK SMILES IDX 25 33 78 34 26 35 83 36 77 37 79 38 27 39 82 40 76 41 75 42
REMARK SMILES IDX 28 44 62 45 41 46 61 47 42 48 45 49 60 50 80 51 43 52 44 53
REMARK SMILES IDX 59 55 81 56 46 57 29 58 30 59 39 60 31 61 32 62 38 63 40 64
REMARK SMILES IDX 33 65 34 66 35 67 36 68 37 69 63 70 64 71 73 72 65 73 66 74
REMARK SMILES IDX 72 75 74 76 67 77 68 78 69 79 70 80 71 81 47 82 48 83 57 84
REMARK SMILES IDX 49 85 50 86 56 87 58 88 51 89 52 90 53 91 54 92 55 93
REMARK H PARENT 79 43 45 54
REMARK Flexibility Score: inf
ROOT
ATOM      1  C   UNL A   1      32.217  30.818  26.902  1.00  0.00     0.275 C 
ENDROOT
BRANCH   1   2
ATOM      2  C   UNL A   1      31.628  30.321  25.584  1.00  0.00     0.275 C 
BRANCH   2   3
ATOM      3  O   UNL A   1      31.487  28.884  25.587  1.00  0.00    -0.459 OA
BRANCH   3   4
ATOM      4  C   UNL A   1      31.116  28.333  24.408  1.00  0.00     0.338 C 
ATOM      5  O   UNL A   1      30.220  28.719  23.673  1.00  0.00    -0.246 OA
BRANCH   4   6
ATOM      6  C   UNL A   1      31.943  27.153  24.105  1.00  0.00     0.087 C 
ATOM      7  C   UNL A   1      35.995  22.094  24.190  1.00  0.00     0.046 C 
ATOM      8  C   UNL A   1      34.879  23.077  24.421  1.00  0.00    -0.033 A 
ATOM      9  C   UNL A   1      34.690  24.101  23.483  1.00  0.00     0.051 A 
ATOM     10  C   UNL A   1      34.046  23.028  25.559  1.00  0.00     0.024 A 
ATOM     11  C   UNL A   1      33.717  25.078  23.673  1.00  0.00     0.128 A 
ATOM     12  C   UNL A   1      33.028  23.992  25.753  1.00  0.00    -0.026 A 
ATOM     13  Br  UNL A   1      34.353  21.648  26.851  1.00  0.00    -0.050 Br
ATOM     14  C   UNL A   1      32.893  25.041  24.803  1.00  0.00     0.021 A 
ATOM     15  O   UNL A   1      33.642  26.025  22.688  1.00  0.00    -0.475 OA
ATOM     16  C   UNL A   1      32.104  23.948  26.951  1.00  0.00     0.046 C 
ATOM     17  C   UNL A   1      31.946  26.140  24.979  1.00  0.00     0.027 C 
ATOM     18  C   UNL A   1      32.851  27.219  22.919  1.00  0.00     0.316 C 
BRANCH  18  19
ATOM     19  C   UNL A   1      33.786  28.437  22.984  1.00  0.00     0.430 C 
ATOM     20  F   UNL A   1      33.108  29.590  22.764  1.00  0.00    -0.167 F 
ATOM     21  F   UNL A   1      34.356  28.560  24.208  1.00  0.00    -0.167 F 
ATOM     22  F   UNL A   1      34.784  28.375  22.075  1.00  0.00    -0.167 F 
ENDBRANCH  18  19
ENDBRANCH   4   6
ENDBRANCH   3   4
ENDBRANCH   2   3
ENDBRANCH   1   2
BRANCH   1  23
ATOM     23  O   UNL A   1      33.486  30.184  27.141  1.00  0.00    -0.458 OA
BRANCH  23  24
ATOM     24  C   UNL A   1      34.303  30.829  28.004  1.00  0.00     0.338 C 
ATOM     25  O   UNL A   1      34.043  31.815  28.673  1.00  0.00    -0.246 OA
BRANCH  24  26
ATOM     26  C   UNL A   1      35.590  30.120  28.099  1.00  0.00     0.060 A 
ATOM     27  C   UNL A   1      36.010  29.658  29.340  1.00  0.00     0.016 A 
ATOM     28  C   UNL A   1      36.458  30.080  27.011  1.00  0.00     0.016 A 
ATOM     29  C   UNL A   1      37.345  29.319  29.537  1.00  0.00     0.010 A 
ATOM     30  C   UNL A   1      37.761  29.593  27.184  1.00  0.00     0.010 A 
ATOM     31  C   UNL A   1      38.248  29.271  28.464  1.00  0.00    -0.014 A 
BRANCH  31  32
ATOM     32  C   UNL A   1      39.691  28.953  28.707  1.00  0.00     0.031 A 
ATOM     33  C   UNL A   1      40.597  29.967  29.371  1.00  0.00     0.074 A 
ATOM     34  C   UNL A   1      40.191  27.738  28.391  1.00  0.00     0.049 A 
ATOM     35  N   UNL A   1      41.897  29.940  29.522  1.00  0.00    -0.248 NA
ATOM     36  C   UNL A   1      39.965  31.177  29.922  1.00  0.00     0.031 C 
ATOM     37  C   UNL A   1      39.432  26.636  27.793  1.00  0.00     0.029 A 
ATOM     38  N   UNL A   1      41.450  27.210  28.553  1.00  0.00    -0.354 N 
ATOM     39  C   UNL A   1      42.241  31.149  30.121  1.00  0.00     0.074 A 
ATOM     40  C   UNL A   1      41.016  31.895  30.292  1.00  0.00     0.031 C 
ATOM     41  C   UNL A   1      40.210  25.546  27.722  1.00  0.00     0.029 A 
ATOM     42  C   UNL A   1      41.558  25.898  28.146  1.00  0.00     0.049 A 
ATOM     43  H   UNL A   1      42.204  27.721  28.926  1.00  0.00     0.167 HD
ATOM     44  C   UNL A   1      43.464  31.591  30.503  1.00  0.00     0.037 A 
ATOM     45  C   UNL A   1      42.624  25.077  28.071  1.00  0.00     0.037 A 
ATOM     46  C   UNL A   1      44.670  30.810  30.406  1.00  0.00     0.049 A 
ATOM     47  C   UNL A   1      43.979  25.607  28.446  1.00  0.00     0.074 A 
ATOM     48  C   UNL A   1      45.954  31.161  30.787  1.00  0.00     0.029 A 
ATOM     49  N   UNL A   1      44.739  29.515  29.916  1.00  0.00    -0.354 N 
ATOM     50  N   UNL A   1      44.293  26.777  28.948  1.00  0.00    -0.248 NA
ATOM     51  C   UNL A   1      45.130  24.724  28.209  1.00  0.00     0.031 C 
ATOM     52  C   UNL A   1      46.806  30.094  30.488  1.00  0.00     0.029 A 
ATOM     53  C   UNL A   1      46.048  29.062  29.959  1.00  0.00     0.049 A 
ATOM     54  H   UNL A   1      43.973  28.994  29.585  1.00  0.00     0.167 HD
ATOM     55  C   UNL A   1      45.676  26.774  29.078  1.00  0.00     0.074 A 
ATOM     56  C   UNL A   1      46.137  25.474  28.634  1.00  0.00     0.031 C 
ATOM     57  C   UNL A   1      46.491  27.766  29.512  1.00  0.00     0.037 A 
BRANCH  44  58
ATOM     58  C   UNL A   1      43.575  32.991  31.050  1.00  0.00     0.058 A 
ATOM     59  C   UNL A   1      43.505  33.262  32.424  1.00  0.00     0.135 A 
ATOM     60  C   UNL A   1      43.813  34.072  30.182  1.00  0.00     0.135 A 
ATOM     61  F   UNL A   1      43.265  32.271  33.297  1.00  0.00    -0.206 F 
ATOM     62  C   UNL A   1      43.645  34.556  32.919  1.00  0.00     0.059 A 
ATOM     63  C   UNL A   1      43.985  35.370  30.657  1.00  0.00     0.059 A 
ATOM     64  F   UNL A   1      43.893  33.871  28.857  1.00  0.00    -0.206 F 
ATOM     65  C   UNL A   1      43.886  35.603  32.027  1.00  0.00     0.060 A 
BRANCH  65  66
ATOM     66  S   UNL A   1      44.072  37.273  32.689  1.00  0.00     0.124 S 
ATOM     67  O   UNL A   1      45.463  37.258  33.132  1.00  0.00    -0.237 OA
ATOM     68  O   UNL A   1      43.788  38.103  31.523  1.00  0.00    -0.237 OA
ATOM     69  O   UNL A   1      43.078  37.332  33.755  1.00  0.00    -0.744 OA
ENDBRANCH  65  66
ENDBRANCH  44  58
BRANCH  45  70
ATOM     70  C   UNL A   1      42.457  23.685  27.567  1.00  0.00     0.058 A 
ATOM     71  C   UNL A   1      42.485  23.406  26.194  1.00  0.00     0.135 A 
ATOM     72  C   UNL A   1      42.300  22.602  28.448  1.00  0.00     0.135 A 
ATOM     73  F   UNL A   1      42.615  24.407  25.309  1.00  0.00    -0.206 F 
ATOM     74  C   UNL A   1      42.370  22.106  25.711  1.00  0.00     0.059 A 
ATOM     75  C   UNL A   1      42.215  21.291  27.992  1.00  0.00     0.059 A 
ATOM     76  F   UNL A   1      42.271  22.811  29.774  1.00  0.00    -0.206 F 
ATOM     77  C   UNL A   1      42.246  21.053  26.619  1.00  0.00     0.060 A 
BRANCH  77  78
ATOM     78  S   UNL A   1      42.166  19.364  25.984  1.00  0.00     0.124 S 
ATOM     79  O   UNL A   1      42.657  18.599  27.124  1.00  0.00    -0.237 OA
ATOM     80  O   UNL A   1      40.745  19.220  25.682  1.00  0.00    -0.237 OA
ATOM     81  O   UNL A   1      43.047  19.400  24.820  1.00  0.00    -0.744 OA
ENDBRANCH  77  78
ENDBRANCH  45  70
BRANCH  57  82
ATOM     82  C   UNL A   1      47.970  27.502  29.518  1.00  0.00     0.058 A 
ATOM     83  C   UNL A   1      48.763  27.802  28.400  1.00  0.00     0.135 A 
ATOM     84  C   UNL A   1      48.613  27.046  30.680  1.00  0.00     0.135 A 
ATOM     85  F   UNL A   1      48.192  28.228  27.262  1.00  0.00    -0.206 F 
ATOM     86  C   UNL A   1      50.145  27.665  28.435  1.00  0.00     0.059 A 
ATOM     87  C   UNL A   1      49.998  26.925  30.745  1.00  0.00     0.059 A 
ATOM     88  F   UNL A   1      47.898  26.751  31.777  1.00  0.00    -0.206 F 
ATOM     89  C   UNL A   1      50.755  27.238  29.617  1.00  0.00     0.060 A 
BRANCH  89  90
ATOM     90  S   UNL A   1      52.557  27.145  29.668  1.00  0.00     0.124 S 
ATOM     91  O   UNL A   1      52.884  26.967  28.257  1.00  0.00    -0.237 OA
ATOM     92  O   UNL A   1      52.917  28.438  30.244  1.00  0.00    -0.237 OA
ATOM     93  O   UNL A   1      52.816  25.990  30.522  1.00  0.00    -0.744 OA
ENDBRANCH  89  90
ENDBRANCH  57  82
ENDBRANCH  31  32
ENDBRANCH  24  26
ENDBRANCH  23  24
ENDBRANCH   1  23
TORSDOF 15
ENDMDL
