MODEL 1
REMARK VINA RESULT:     -10.9      0.000      0.000
REMARK SMILES COc1c(C)cc([C@H](C(=O)OCCOC(=O)c2ccc(-c3c4nc(c(-c5c(F)cc(S(=O)(=O)[O-])cc5F)c5ccc([nH]5)c(-c5c(F)cc(S(=O)(=O)[O-])cc5F)c5nc(c(-c6c(F)cc(S(=O)(=O)[O-])cc6F)c6ccc3[nH]6)C=C5)C=C4)cc2)[N@@H+](C)CCN2CCCCC2=O)cc1C
REMARK SMILES IDX 12 1 11 2 9 3 10 4 8 5 7 6 3 7 4 8 95 9 5 10 6 11 94 12
REMARK SMILES IDX 96 13 2 14 1 15 83 16 84 17 85 19 86 20 87 21 88 22 92 23
REMARK SMILES IDX 89 24 91 25 93 26 90 27 13 28 14 29 15 30 16 31 17 32 18 33
REMARK SMILES IDX 82 34 19 35 81 36 20 37 21 38 22 39 75 40 23 41 80 42 74 43
REMARK SMILES IDX 76 44 24 45 79 46 73 47 72 48 25 50 59 51 38 52 58 53 39 54
REMARK SMILES IDX 42 55 57 56 77 57 40 58 41 59 56 61 78 62 43 63 26 64 27 65
REMARK SMILES IDX 36 66 28 67 29 68 35 69 37 70 30 71 31 72 32 73 33 74 34 75
REMARK SMILES IDX 60 76 61 77 70 78 62 79 63 80 69 81 71 82 64 83 65 84 66 85
REMARK SMILES IDX 67 86 68 87 44 88 45 89 54 90 46 91 47 92 53 93 55 94 48 95
REMARK SMILES IDX 49 96 50 97 51 98 52 99
REMARK H PARENT 83 18 76 49 42 60
REMARK Flexibility Score: inf
ROOT
ATOM      1  C   UNL A   1      33.216  29.998  27.395  1.00  0.00     0.274 C 
ENDROOT
BRANCH   1   2
ATOM      2  O   UNL A   1      33.326  28.568  27.639  1.00  0.00    -0.457 OA
BRANCH   2   3
ATOM      3  C   UNL A   1      32.468  27.687  27.031  1.00  0.00     0.370 C 
ATOM      4  O   UNL A   1      31.429  27.306  27.563  1.00  0.00    -0.245 OA
BRANCH   3   5
ATOM      5  C   UNL A   1      32.991  27.120  25.661  1.00  0.00     0.326 C 
BRANCH   5   6
ATOM      6  C   UNL A   1      33.510  25.675  25.583  1.00  0.00     0.022 A 
ATOM      7  C   UNL A   1      34.673  23.113  25.914  1.00  0.00     0.124 A 
ATOM      8  C   UNL A   1      33.522  23.441  26.631  1.00  0.00    -0.008 A 
ATOM      9  C   UNL A   1      35.148  23.984  24.917  1.00  0.00    -0.008 A 
ATOM     10  C   UNL A   1      32.959  22.596  27.738  1.00  0.00     0.048 C 
ATOM     11  C   UNL A   1      32.916  24.681  26.383  1.00  0.00     0.017 A 
ATOM     12  C   UNL A   1      34.549  25.254  24.748  1.00  0.00     0.017 A 
ATOM     13  C   UNL A   1      36.326  23.615  24.058  1.00  0.00     0.048 C 
BRANCH   7  14
ATOM     14  O   UNL A   1      35.521  22.127  26.348  1.00  0.00    -0.496 OA
ATOM     15  C   UNL A   1      35.384  20.878  25.687  1.00  0.00     0.278 C 
ENDBRANCH   7  14
ENDBRANCH   5   6
BRANCH   5  16
ATOM     16  N   UNL A   1      32.099  27.501  24.541  1.00  0.00    -0.320 N 
ATOM     17  C   UNL A   1      31.064  28.459  24.885  1.00  0.00     0.333 C 
ATOM     18  H   UNL A   1      31.828  26.525  24.422  1.00  0.00     0.348 HD
BRANCH  16  19
ATOM     19  C   UNL A   1      32.348  27.224  23.122  1.00  0.00     0.284 C 
BRANCH  19  20
ATOM     20  C   UNL A   1      31.628  26.145  22.242  1.00  0.00     0.180 C 
BRANCH  20  21
ATOM     21  N   UNL A   1      31.716  24.727  22.588  1.00  0.00    -0.337 N 
ATOM     22  C   UNL A   1      30.585  24.046  23.146  1.00  0.00     0.119 C 
ATOM     23  C   UNL A   1      32.692  23.928  21.993  1.00  0.00     0.222 C 
ATOM     24  C   UNL A   1      31.074  23.117  24.218  1.00  0.00     0.022 C 
ATOM     25  C   UNL A   1      32.826  22.485  22.495  1.00  0.00     0.100 C 
ATOM     26  O   UNL A   1      33.403  24.340  21.076  1.00  0.00    -0.275 OA
ATOM     27  C   UNL A   1      31.928  22.020  23.636  1.00  0.00     0.012 C 
ENDBRANCH  20  21
ENDBRANCH  19  20
ENDBRANCH  16  19
ENDBRANCH   5  16
ENDBRANCH   3   5
ENDBRANCH   2   3
ENDBRANCH   1   2
BRANCH   1  28
ATOM     28  C   UNL A   1      34.548  30.763  27.506  1.00  0.00     0.275 C 
BRANCH  28  29
ATOM     29  O   UNL A   1      35.505  29.899  28.131  1.00  0.00    -0.458 OA
BRANCH  29  30
ATOM     30  C   UNL A   1      36.227  30.378  29.175  1.00  0.00     0.338 C 
ATOM     31  O   UNL A   1      35.770  30.859  30.204  1.00  0.00    -0.246 OA
BRANCH  30  32
ATOM     32  C   UNL A   1      37.653  29.973  28.971  1.00  0.00     0.060 A 
ATOM     33  C   UNL A   1      38.559  30.132  30.022  1.00  0.00     0.016 A 
ATOM     34  C   UNL A   1      38.144  29.630  27.706  1.00  0.00     0.016 A 
ATOM     35  C   UNL A   1      39.925  30.023  29.812  1.00  0.00     0.010 A 
ATOM     36  C   UNL A   1      39.521  29.390  27.525  1.00  0.00     0.010 A 
ATOM     37  C   UNL A   1      40.425  29.567  28.586  1.00  0.00    -0.014 A 
BRANCH  37  38
ATOM     38  C   UNL A   1      41.849  29.129  28.518  1.00  0.00     0.031 A 
ATOM     39  C   UNL A   1      43.007  30.085  28.627  1.00  0.00     0.074 A 
ATOM     40  C   UNL A   1      42.095  27.808  28.371  1.00  0.00     0.049 A 
ATOM     41  N   UNL A   1      44.284  29.843  28.464  1.00  0.00    -0.248 NA
ATOM     42  C   UNL A   1      42.708  31.477  28.992  1.00  0.00     0.031 C 
ATOM     43  C   UNL A   1      41.072  26.756  28.322  1.00  0.00     0.029 A 
ATOM     44  N   UNL A   1      43.274  27.117  28.230  1.00  0.00    -0.354 N 
ATOM     45  C   UNL A   1      44.943  31.040  28.714  1.00  0.00     0.074 A 
ATOM     46  C   UNL A   1      43.923  32.016  29.038  1.00  0.00     0.031 C 
ATOM     47  C   UNL A   1      41.662  25.565  28.182  1.00  0.00     0.029 A 
ATOM     48  C   UNL A   1      43.085  25.777  27.982  1.00  0.00     0.049 A 
ATOM     49  H   UNL A   1      44.161  27.538  28.299  1.00  0.00     0.167 HD
ATOM     50  C   UNL A   1      46.276  31.297  28.665  1.00  0.00     0.037 A 
ATOM     51  C   UNL A   1      43.926  24.828  27.533  1.00  0.00     0.037 A 
ATOM     52  C   UNL A   1      47.277  30.327  28.286  1.00  0.00     0.049 A 
ATOM     53  C   UNL A   1      45.351  25.188  27.267  1.00  0.00     0.074 A 
ATOM     54  C   UNL A   1      48.649  30.500  28.188  1.00  0.00     0.029 A 
ATOM     55  N   UNL A   1      47.019  29.017  27.911  1.00  0.00    -0.354 N 
ATOM     56  N   UNL A   1      45.955  26.331  27.469  1.00  0.00    -0.248 NA
ATOM     57  C   UNL A   1      46.199  24.142  26.688  1.00  0.00     0.031 C 
ATOM     58  C   UNL A   1      49.208  29.320  27.681  1.00  0.00     0.029 A 
ATOM     59  C   UNL A   1      48.194  28.389  27.524  1.00  0.00     0.049 A 
ATOM     60  H   UNL A   1      46.130  28.593  27.919  1.00  0.00     0.167 HD
ATOM     61  C   UNL A   1      47.263  26.144  27.047  1.00  0.00     0.074 A 
ATOM     62  C   UNL A   1      47.362  24.770  26.593  1.00  0.00     0.031 C 
ATOM     63  C   UNL A   1      48.285  27.033  27.041  1.00  0.00     0.037 A 
BRANCH  50  64
ATOM     64  C   UNL A   1      46.743  32.697  28.962  1.00  0.00     0.058 A 
ATOM     65  C   UNL A   1      46.823  33.684  27.967  1.00  0.00     0.135 A 
ATOM     66  C   UNL A   1      47.020  33.081  30.285  1.00  0.00     0.135 A 
ATOM     67  F   UNL A   1      46.575  33.374  26.685  1.00  0.00    -0.206 F 
ATOM     68  C   UNL A   1      47.168  35.000  28.274  1.00  0.00     0.059 A 
ATOM     69  C   UNL A   1      47.348  34.393  30.618  1.00  0.00     0.059 A 
ATOM     70  F   UNL A   1      46.956  32.177  31.276  1.00  0.00    -0.206 F 
ATOM     71  C   UNL A   1      47.425  35.345  29.603  1.00  0.00     0.060 A 
BRANCH  71  72
ATOM     72  S   UNL A   1      47.847  37.059  29.989  1.00  0.00     0.124 S 
ATOM     73  O   UNL A   1      47.274  37.766  28.849  1.00  0.00    -0.237 OA
ATOM     74  O   UNL A   1      47.172  37.267  31.267  1.00  0.00    -0.237 OA
ATOM     75  O   UNL A   1      49.306  37.047  30.049  1.00  0.00    -0.744 OA
ENDBRANCH  71  72
ENDBRANCH  50  64
BRANCH  51  76
ATOM     76  C   UNL A   1      43.374  23.491  27.190  1.00  0.00     0.058 A 
ATOM     77  C   UNL A   1      42.948  23.186  25.893  1.00  0.00     0.135 A 
ATOM     78  C   UNL A   1      43.360  22.461  28.149  1.00  0.00     0.135 A 
ATOM     79  F   UNL A   1      42.929  24.141  24.951  1.00  0.00    -0.206 F 
ATOM     80  C   UNL A   1      42.549  21.899  25.548  1.00  0.00     0.059 A 
ATOM     81  C   UNL A   1      42.999  21.162  27.819  1.00  0.00     0.059 A 
ATOM     82  F   UNL A   1      43.772  22.702  29.403  1.00  0.00    -0.206 F 
ATOM     83  C   UNL A   1      42.595  20.890  26.514  1.00  0.00     0.060 A 
BRANCH  83  84
ATOM     84  S   UNL A   1      42.191  19.199  26.029  1.00  0.00     0.124 S 
ATOM     85  O   UNL A   1      43.114  18.984  24.921  1.00  0.00    -0.237 OA
ATOM     86  O   UNL A   1      42.474  18.452  27.251  1.00  0.00    -0.237 OA
ATOM     87  O   UNL A   1      40.779  19.282  25.669  1.00  0.00    -0.744 OA
ENDBRANCH  83  84
ENDBRANCH  51  76
BRANCH  63  88
ATOM     88  C   UNL A   1      49.609  26.534  26.538  1.00  0.00     0.058 A 
ATOM     89  C   UNL A   1      50.506  25.856  27.380  1.00  0.00     0.135 A 
ATOM     90  C   UNL A   1      49.992  26.746  25.204  1.00  0.00     0.135 A 
ATOM     91  F   UNL A   1      50.194  25.643  28.668  1.00  0.00    -0.206 F 
ATOM     92  C   UNL A   1      51.751  25.436  26.924  1.00  0.00     0.059 A 
ATOM     93  C   UNL A   1      51.221  26.310  24.721  1.00  0.00     0.059 A 
ATOM     94  F   UNL A   1      49.169  27.386  24.358  1.00  0.00    -0.206 F 
ATOM     95  C   UNL A   1      52.101  25.672  25.593  1.00  0.00     0.060 A 
BRANCH  95  96
ATOM     96  S   UNL A   1      53.721  25.126  25.014  1.00  0.00     0.124 S 
ATOM     97  O   UNL A   1      53.519  23.687  24.887  1.00  0.00    -0.237 OA
ATOM     98  O   UNL A   1      53.870  25.858  23.760  1.00  0.00    -0.237 OA
ATOM     99  O   UNL A   1      54.622  25.541  26.086  1.00  0.00    -0.744 OA
ENDBRANCH  95  96
ENDBRANCH  63  88
ENDBRANCH  37  38
ENDBRANCH  30  32
ENDBRANCH  29  30
ENDBRANCH  28  29
ENDBRANCH   1  28
TORSDOF 20
ENDMDL
MODEL 2
REMARK VINA RESULT:     -10.8      1.981      3.995
REMARK SMILES COc1c(C)cc([C@H](C(=O)OCCOC(=O)c2ccc(-c3c4nc(c(-c5c(F)cc(S(=O)(=O)[O-])cc5F)c5ccc([nH]5)c(-c5c(F)cc(S(=O)(=O)[O-])cc5F)c5nc(c(-c6c(F)cc(S(=O)(=O)[O-])cc6F)c6ccc3[nH]6)C=C5)C=C4)cc2)[N@@H+](C)CCN2CCCCC2=O)cc1C
REMARK SMILES IDX 12 1 11 2 9 3 10 4 8 5 7 6 3 7 4 8 95 9 5 10 6 11 94 12
REMARK SMILES IDX 96 13 2 14 1 15 83 16 84 17 85 19 86 20 87 21 88 22 92 23
REMARK SMILES IDX 89 24 91 25 93 26 90 27 13 28 14 29 15 30 16 31 17 32 18 33
REMARK SMILES IDX 82 34 19 35 81 36 20 37 21 38 22 39 75 40 23 41 80 42 74 43
REMARK SMILES IDX 76 44 24 45 79 46 73 47 72 48 25 50 59 51 38 52 58 53 39 54
REMARK SMILES IDX 42 55 57 56 77 57 40 58 41 59 56 61 78 62 43 63 26 64 27 65
REMARK SMILES IDX 36 66 28 67 29 68 35 69 37 70 30 71 31 72 32 73 33 74 34 75
REMARK SMILES IDX 60 76 61 77 70 78 62 79 63 80 69 81 71 82 64 83 65 84 66 85
REMARK SMILES IDX 67 86 68 87 44 88 45 89 54 90 46 91 47 92 53 93 55 94 48 95
REMARK SMILES IDX 49 96 50 97 51 98 52 99
REMARK H PARENT 83 18 76 49 42 60
REMARK Flexibility Score: inf
ROOT
ATOM      1  C   UNL A   1      33.732  27.848  26.370  1.00  0.00     0.274 C 
ENDROOT
BRANCH   1   2
ATOM      2  O   UNL A   1      32.501  27.274  25.850  1.00  0.00    -0.457 OA
BRANCH   2   3
ATOM      3  C   UNL A   1      32.479  26.659  24.625  1.00  0.00     0.370 C 
ATOM      4  O   UNL A   1      33.443  26.673  23.863  1.00  0.00    -0.245 OA
BRANCH   3   5
ATOM      5  C   UNL A   1      31.085  26.047  24.235  1.00  0.00     0.326 C 
BRANCH   5   6
ATOM      6  C   UNL A   1      30.006  26.946  23.610  1.00  0.00     0.022 A 
ATOM      7  C   UNL A   1      28.210  28.973  22.780  1.00  0.00     0.124 A 
ATOM      8  C   UNL A   1      29.539  29.018  22.355  1.00  0.00    -0.008 A 
ATOM      9  C   UNL A   1      27.735  27.845  23.471  1.00  0.00    -0.008 A 
ATOM     10  C   UNL A   1      30.148  30.192  21.644  1.00  0.00     0.048 C 
ATOM     11  C   UNL A   1      30.385  27.957  22.707  1.00  0.00     0.017 A 
ATOM     12  C   UNL A   1      28.637  26.829  23.866  1.00  0.00     0.017 A 
ATOM     13  C   UNL A   1      26.287  27.720  23.854  1.00  0.00     0.048 C 
BRANCH   7  14
ATOM     14  O   UNL A   1      27.438  30.106  22.812  1.00  0.00    -0.496 OA
ATOM     15  C   UNL A   1      27.783  31.044  23.820  1.00  0.00     0.278 C 
ENDBRANCH   7  14
ENDBRANCH   5   6
BRANCH   5  16
ATOM     16  N   UNL A   1      31.237  24.733  23.565  1.00  0.00    -0.320 N 
ATOM     17  C   UNL A   1      31.619  24.804  22.167  1.00  0.00     0.333 C 
ATOM     18  H   UNL A   1      30.268  24.506  23.787  1.00  0.00     0.348 HD
BRANCH  16  19
ATOM     19  C   UNL A   1      31.314  23.435  24.243  1.00  0.00     0.284 C 
BRANCH  19  20
ATOM     20  C   UNL A   1      32.545  22.464  24.262  1.00  0.00     0.180 C 
BRANCH  20  21
ATOM     21  N   UNL A   1      33.901  22.990  24.407  1.00  0.00    -0.337 N 
ATOM     22  C   UNL A   1      34.689  23.290  23.248  1.00  0.00     0.119 C 
ATOM     23  C   UNL A   1      34.278  23.616  25.595  1.00  0.00     0.222 C 
ATOM     24  C   UNL A   1      36.103  22.863  23.514  1.00  0.00     0.022 C 
ATOM     25  C   UNL A   1      35.749  24.024  25.742  1.00  0.00     0.100 C 
ATOM     26  O   UNL A   1      33.466  23.868  26.486  1.00  0.00    -0.275 OA
ATOM     27  C   UNL A   1      36.719  23.686  24.616  1.00  0.00     0.012 C 
ENDBRANCH  20  21
ENDBRANCH  19  20
ENDBRANCH  16  19
ENDBRANCH   5  16
ENDBRANCH   3   5
ENDBRANCH   2   3
ENDBRANCH   1   2
BRANCH   1  28
ATOM     28  C   UNL A   1      33.636  29.347  26.714  1.00  0.00     0.275 C 
BRANCH  28  29
ATOM     29  O   UNL A   1      34.099  29.524  28.059  1.00  0.00    -0.458 OA
BRANCH  29  30
ATOM     30  C   UNL A   1      34.788  30.652  28.365  1.00  0.00     0.338 C 
ATOM     31  O   UNL A   1      34.298  31.744  28.626  1.00  0.00    -0.246 OA
BRANCH  30  32
ATOM     32  C   UNL A   1      36.216  30.269  28.593  1.00  0.00     0.060 A 
ATOM     33  C   UNL A   1      37.099  30.274  27.511  1.00  0.00     0.016 A 
ATOM     34  C   UNL A   1      36.642  29.719  29.807  1.00  0.00     0.016 A 
ATOM     35  C   UNL A   1      38.351  29.685  27.607  1.00  0.00     0.010 A 
ATOM     36  C   UNL A   1      37.962  29.240  29.941  1.00  0.00     0.010 A 
ATOM     37  C   UNL A   1      38.837  29.237  28.841  1.00  0.00    -0.014 A 
BRANCH  37  38
ATOM     38  C   UNL A   1      40.294  28.945  28.969  1.00  0.00     0.031 A 
ATOM     39  C   UNL A   1      41.313  29.996  29.320  1.00  0.00     0.074 A 
ATOM     40  C   UNL A   1      40.700  27.670  28.776  1.00  0.00     0.049 A 
ATOM     41  N   UNL A   1      42.619  29.892  29.344  1.00  0.00    -0.248 NA
ATOM     42  C   UNL A   1      40.815  31.319  29.724  1.00  0.00     0.031 C 
ATOM     43  C   UNL A   1      39.814  26.532  28.499  1.00  0.00     0.029 A 
ATOM     44  N   UNL A   1      41.954  27.110  28.777  1.00  0.00    -0.354 N 
ATOM     45  C   UNL A   1      43.101  31.123  29.772  1.00  0.00     0.074 A 
ATOM     46  C   UNL A   1      41.944  31.967  29.995  1.00  0.00     0.031 C 
ATOM     47  C   UNL A   1      40.543  25.418  28.376  1.00  0.00     0.029 A 
ATOM     48  C   UNL A   1      41.950  25.782  28.416  1.00  0.00     0.049 A 
ATOM     49  H   UNL A   1      42.770  27.607  29.011  1.00  0.00     0.167 HD
ATOM     50  C   UNL A   1      44.390  31.510  29.949  1.00  0.00     0.037 A 
ATOM     51  C   UNL A   1      42.945  24.958  28.043  1.00  0.00     0.037 A 
ATOM     52  C   UNL A   1      45.535  30.675  29.670  1.00  0.00     0.049 A 
ATOM     53  C   UNL A   1      44.346  25.474  28.027  1.00  0.00     0.074 A 
ATOM     54  C   UNL A   1      46.880  30.986  29.799  1.00  0.00     0.029 A 
ATOM     55  N   UNL A   1      45.478  29.381  29.174  1.00  0.00    -0.354 N 
ATOM     56  N   UNL A   1      44.787  26.650  28.396  1.00  0.00    -0.248 NA
ATOM     57  C   UNL A   1      45.379  24.564  27.522  1.00  0.00     0.031 C 
ATOM     58  C   UNL A   1      47.632  29.910  29.310  1.00  0.00     0.029 A 
ATOM     59  C   UNL A   1      46.759  28.903  28.936  1.00  0.00     0.049 A 
ATOM     60  H   UNL A   1      44.648  28.874  29.015  1.00  0.00     0.167 HD
ATOM     61  C   UNL A   1      46.156  26.624  28.173  1.00  0.00     0.074 A 
ATOM     62  C   UNL A   1      46.469  25.308  27.651  1.00  0.00     0.031 C 
ATOM     63  C   UNL A   1      47.066  27.605  28.386  1.00  0.00     0.037 A 
BRANCH  50  64
ATOM     64  C   UNL A   1      44.654  32.920  30.407  1.00  0.00     0.058 A 
ATOM     65  C   UNL A   1      44.862  33.238  31.758  1.00  0.00     0.135 A 
ATOM     66  C   UNL A   1      44.798  33.952  29.464  1.00  0.00     0.135 A 
ATOM     67  F   UNL A   1      44.733  32.294  32.703  1.00  0.00    -0.206 F 
ATOM     68  C   UNL A   1      45.198  34.531  32.158  1.00  0.00     0.059 A 
ATOM     69  C   UNL A   1      45.151  35.246  29.838  1.00  0.00     0.059 A 
ATOM     70  F   UNL A   1      44.612  33.701  28.158  1.00  0.00    -0.206 F 
ATOM     71  C   UNL A   1      45.344  35.528  31.189  1.00  0.00     0.060 A 
BRANCH  71  72
ATOM     72  S   UNL A   1      45.802  37.193  31.718  1.00  0.00     0.124 S 
ATOM     73  O   UNL A   1      44.706  37.526  32.621  1.00  0.00    -0.237 OA
ATOM     74  O   UNL A   1      47.099  36.974  32.352  1.00  0.00    -0.237 OA
ATOM     75  O   UNL A   1      45.838  37.951  30.471  1.00  0.00    -0.744 OA
ENDBRANCH  71  72
ENDBRANCH  50  64
BRANCH  51  76
ATOM     76  C   UNL A   1      42.598  23.607  27.531  1.00  0.00     0.058 A 
ATOM     77  C   UNL A   1      42.502  23.345  26.160  1.00  0.00     0.135 A 
ATOM     78  C   UNL A   1      42.453  22.525  28.421  1.00  0.00     0.135 A 
ATOM     79  F   UNL A   1      42.617  24.348  25.276  1.00  0.00    -0.206 F 
ATOM     80  C   UNL A   1      42.299  22.054  25.684  1.00  0.00     0.059 A 
ATOM     81  C   UNL A   1      42.285  21.224  27.967  1.00  0.00     0.059 A 
ATOM     82  F   UNL A   1      42.550  22.725  29.745  1.00  0.00    -0.206 F 
ATOM     83  C   UNL A   1      42.210  20.999  26.595  1.00  0.00     0.060 A 
BRANCH  83  84
ATOM     84  S   UNL A   1      42.067  19.312  25.965  1.00  0.00     0.124 S 
ATOM     85  O   UNL A   1      42.989  19.343  24.836  1.00  0.00    -0.237 OA
ATOM     86  O   UNL A   1      42.490  18.518  27.114  1.00  0.00    -0.237 OA
ATOM     87  O   UNL A   1      40.652  19.201  25.624  1.00  0.00    -0.744 OA
ENDBRANCH  83  84
ENDBRANCH  51  76
BRANCH  63  88
ATOM     88  C   UNL A   1      48.496  27.278  28.064  1.00  0.00     0.058 A 
ATOM     89  C   UNL A   1      49.016  27.456  26.772  1.00  0.00     0.135 A 
ATOM     90  C   UNL A   1      49.352  26.768  29.053  1.00  0.00     0.135 A 
ATOM     91  F   UNL A   1      48.234  27.925  25.787  1.00  0.00    -0.206 F 
ATOM     92  C   UNL A   1      50.328  27.108  26.464  1.00  0.00     0.059 A 
ATOM     93  C   UNL A   1      50.674  26.440  28.773  1.00  0.00     0.059 A 
ATOM     94  F   UNL A   1      48.904  26.582  30.305  1.00  0.00    -0.206 F 
ATOM     95  C   UNL A   1      51.148  26.597  27.472  1.00  0.00     0.060 A 
BRANCH  95  96
ATOM     96  S   UNL A   1      52.846  26.145  27.060  1.00  0.00     0.124 S 
ATOM     97  O   UNL A   1      53.474  26.126  28.377  1.00  0.00    -0.237 OA
ATOM     98  O   UNL A   1      52.678  24.845  26.418  1.00  0.00    -0.237 OA
ATOM     99  O   UNL A   1      53.278  27.223  26.174  1.00  0.00    -0.744 OA
ENDBRANCH  95  96
ENDBRANCH  63  88
ENDBRANCH  37  38
ENDBRANCH  30  32
ENDBRANCH  29  30
ENDBRANCH  28  29
ENDBRANCH   1  28
TORSDOF 20
ENDMDL
MODEL 3
REMARK VINA RESULT:     -10.5      5.607      9.623
REMARK SMILES COc1c(C)cc([C@H](C(=O)OCCOC(=O)c2ccc(-c3c4nc(c(-c5c(F)cc(S(=O)(=O)[O-])cc5F)c5ccc([nH]5)c(-c5c(F)cc(S(=O)(=O)[O-])cc5F)c5nc(c(-c6c(F)cc(S(=O)(=O)[O-])cc6F)c6ccc3[nH]6)C=C5)C=C4)cc2)[N@@H+](C)CCN2CCCCC2=O)cc1C
REMARK SMILES IDX 12 1 11 2 9 3 10 4 8 5 7 6 3 7 4 8 95 9 5 10 6 11 94 12
REMARK SMILES IDX 96 13 2 14 1 15 83 16 84 17 85 19 86 20 87 21 88 22 92 23
REMARK SMILES IDX 89 24 91 25 93 26 90 27 13 28 14 29 15 30 16 31 17 32 18 33
REMARK SMILES IDX 82 34 19 35 81 36 20 37 21 38 22 39 75 40 23 41 80 42 74 43
REMARK SMILES IDX 76 44 24 45 79 46 73 47 72 48 25 50 59 51 38 52 58 53 39 54
REMARK SMILES IDX 42 55 57 56 77 57 40 58 41 59 56 61 78 62 43 63 26 64 27 65
REMARK SMILES IDX 36 66 28 67 29 68 35 69 37 70 30 71 31 72 32 73 33 74 34 75
REMARK SMILES IDX 60 76 61 77 70 78 62 79 63 80 69 81 71 82 64 83 65 84 66 85
REMARK SMILES IDX 67 86 68 87 44 88 45 89 54 90 46 91 47 92 53 93 55 94 48 95
REMARK SMILES IDX 49 96 50 97 51 98 52 99
REMARK H PARENT 83 18 76 49 42 60
REMARK Flexibility Score: inf
ROOT
ATOM      1  C   UNL A   1      32.404  29.056  27.177  1.00  0.00     0.274 C 
ENDROOT
BRANCH   1   2
ATOM      2  O   UNL A   1      32.088  28.343  25.949  1.00  0.00    -0.457 OA
BRANCH   2   3
ATOM      3  C   UNL A   1      31.899  26.985  25.958  1.00  0.00     0.370 C 
ATOM      4  O   UNL A   1      31.553  26.374  26.966  1.00  0.00    -0.245 OA
BRANCH   3   5
ATOM      5  C   UNL A   1      32.281  26.272  24.610  1.00  0.00     0.326 C 
BRANCH   5   6
ATOM      6  C   UNL A   1      33.088  24.964  24.642  1.00  0.00     0.022 A 
ATOM      7  C   UNL A   1      34.406  22.519  25.199  1.00  0.00     0.124 A 
ATOM      8  C   UNL A   1      33.024  22.524  25.003  1.00  0.00    -0.008 A 
ATOM      9  C   UNL A   1      35.150  23.687  24.956  1.00  0.00    -0.008 A 
ATOM     10  C   UNL A   1      32.138  21.340  25.270  1.00  0.00     0.048 C 
ATOM     11  C   UNL A   1      32.409  23.731  24.641  1.00  0.00     0.017 A 
ATOM     12  C   UNL A   1      34.484  24.899  24.661  1.00  0.00     0.017 A 
ATOM     13  C   UNL A   1      36.650  23.688  25.061  1.00  0.00     0.048 C 
BRANCH   7  14
ATOM     14  O   UNL A   1      35.017  21.513  25.903  1.00  0.00    -0.496 OA
ATOM     15  C   UNL A   1      36.114  20.897  25.246  1.00  0.00     0.278 C 
ENDBRANCH   7  14
ENDBRANCH   5   6
BRANCH   5  16
ATOM     16  N   UNL A   1      31.140  26.253  23.664  1.00  0.00    -0.320 N 
ATOM     17  C   UNL A   1      31.477  25.845  22.312  1.00  0.00     0.333 C 
ATOM     18  H   UNL A   1      30.976  27.244  23.839  1.00  0.00     0.348 HD
BRANCH  16  19
ATOM     19  C   UNL A   1      29.724  26.327  24.037  1.00  0.00     0.284 C 
BRANCH  19  20
ATOM     20  C   UNL A   1      28.616  27.179  23.327  1.00  0.00     0.180 C 
BRANCH  20  21
ATOM     21  N   UNL A   1      28.658  28.639  23.377  1.00  0.00    -0.337 N 
ATOM     22  C   UNL A   1      29.854  29.342  23.015  1.00  0.00     0.119 C 
ATOM     23  C   UNL A   1      27.470  29.368  23.332  1.00  0.00     0.222 C 
ATOM     24  C   UNL A   1      30.033  30.490  23.964  1.00  0.00     0.022 C 
ATOM     25  C   UNL A   1      27.566  30.886  23.527  1.00  0.00     0.100 C 
ATOM     26  O   UNL A   1      26.383  28.833  23.113  1.00  0.00    -0.275 OA
ATOM     27  C   UNL A   1      28.932  31.505  23.801  1.00  0.00     0.012 C 
ENDBRANCH  20  21
ENDBRANCH  19  20
ENDBRANCH  16  19
ENDBRANCH   5  16
ENDBRANCH   3   5
ENDBRANCH   2   3
ENDBRANCH   1   2
BRANCH   1  28
ATOM     28  C   UNL A   1      32.449  30.588  27.026  1.00  0.00     0.275 C 
BRANCH  28  29
ATOM     29  O   UNL A   1      33.822  30.980  26.895  1.00  0.00    -0.458 OA
BRANCH  29  30
ATOM     30  C   UNL A   1      34.303  31.942  27.722  1.00  0.00     0.338 C 
ATOM     31  O   UNL A   1      33.738  32.990  28.010  1.00  0.00    -0.246 OA
BRANCH  30  32
ATOM     32  C   UNL A   1      35.502  31.387  28.423  1.00  0.00     0.060 A 
ATOM     33  C   UNL A   1      36.671  32.149  28.473  1.00  0.00     0.016 A 
ATOM     34  C   UNL A   1      35.549  30.056  28.852  1.00  0.00     0.016 A 
ATOM     35  C   UNL A   1      37.874  31.589  28.873  1.00  0.00     0.010 A 
ATOM     36  C   UNL A   1      36.743  29.526  29.383  1.00  0.00     0.010 A 
ATOM     37  C   UNL A   1      37.916  30.298  29.415  1.00  0.00    -0.014 A 
BRANCH  37  38
ATOM     38  C   UNL A   1      39.144  29.874  30.149  1.00  0.00     0.031 A 
ATOM     39  C   UNL A   1      40.097  28.836  29.622  1.00  0.00     0.074 A 
ATOM     40  C   UNL A   1      39.408  30.475  31.331  1.00  0.00     0.049 A 
ATOM     41  N   UNL A   1      41.132  28.299  30.220  1.00  0.00    -0.248 NA
ATOM     42  C   UNL A   1      39.891  28.358  28.247  1.00  0.00     0.031 C 
ATOM     43  C   UNL A   1      38.609  31.550  31.933  1.00  0.00     0.029 A 
ATOM     44  N   UNL A   1      40.413  30.270  32.245  1.00  0.00    -0.354 N 
ATOM     45  C   UNL A   1      41.706  27.430  29.300  1.00  0.00     0.074 A 
ATOM     46  C   UNL A   1      40.902  27.508  28.097  1.00  0.00     0.031 C 
ATOM     47  C   UNL A   1      39.160  31.919  33.094  1.00  0.00     0.029 A 
ATOM     48  C   UNL A   1      40.257  31.014  33.392  1.00  0.00     0.049 A 
ATOM     49  H   UNL A   1      41.167  29.655  32.094  1.00  0.00     0.167 HD
ATOM     50  C   UNL A   1      42.797  26.636  29.455  1.00  0.00     0.037 A 
ATOM     51  C   UNL A   1      40.841  30.920  34.600  1.00  0.00     0.037 A 
ATOM     52  C   UNL A   1      43.557  26.529  30.678  1.00  0.00     0.049 A 
ATOM     53  C   UNL A   1      41.890  29.881  34.820  1.00  0.00     0.074 A 
ATOM     54  C   UNL A   1      44.665  25.737  30.937  1.00  0.00     0.029 A 
ATOM     55  N   UNL A   1      43.273  27.203  31.857  1.00  0.00    -0.354 N 
ATOM     56  N   UNL A   1      42.399  29.040  33.956  1.00  0.00    -0.248 NA
ATOM     57  C   UNL A   1      42.425  29.760  36.179  1.00  0.00     0.031 C 
ATOM     58  C   UNL A   1      45.001  25.875  32.290  1.00  0.00     0.029 A 
ATOM     59  C   UNL A   1      44.144  26.802  32.860  1.00  0.00     0.049 A 
ATOM     60  H   UNL A   1      42.557  27.871  31.966  1.00  0.00     0.167 HD
ATOM     61  C   UNL A   1      43.323  28.286  34.665  1.00  0.00     0.074 A 
ATOM     62  C   UNL A   1      43.311  28.786  36.026  1.00  0.00     0.031 C 
ATOM     63  C   UNL A   1      44.109  27.276  34.222  1.00  0.00     0.037 A 
BRANCH  50  64
ATOM     64  C   UNL A   1      43.212  25.762  28.301  1.00  0.00     0.058 A 
ATOM     65  C   UNL A   1      44.299  26.086  27.474  1.00  0.00     0.135 A 
ATOM     66  C   UNL A   1      42.570  24.531  28.083  1.00  0.00     0.135 A 
ATOM     67  F   UNL A   1      44.946  27.251  27.632  1.00  0.00    -0.206 F 
ATOM     68  C   UNL A   1      44.730  25.221  26.468  1.00  0.00     0.059 A 
ATOM     69  C   UNL A   1      42.995  23.644  27.097  1.00  0.00     0.059 A 
ATOM     70  F   UNL A   1      41.526  24.172  28.847  1.00  0.00    -0.206 F 
ATOM     71  C   UNL A   1      44.073  24.001  26.290  1.00  0.00     0.060 A 
BRANCH  71  72
ATOM     72  S   UNL A   1      44.657  22.880  24.998  1.00  0.00     0.124 S 
ATOM     73  O   UNL A   1      45.569  22.022  25.746  1.00  0.00    -0.237 OA
ATOM     74  O   UNL A   1      43.420  22.250  24.549  1.00  0.00    -0.237 OA
ATOM     75  O   UNL A   1      45.289  23.773  24.031  1.00  0.00    -0.744 OA
ENDBRANCH  71  72
ENDBRANCH  50  64
BRANCH  51  76
ATOM     76  C   UNL A   1      40.325  31.765  35.708  1.00  0.00     0.058 A 
ATOM     77  C   UNL A   1      39.142  31.443  36.384  1.00  0.00     0.135 A 
ATOM     78  C   UNL A   1      41.073  32.863  36.173  1.00  0.00     0.135 A 
ATOM     79  F   UNL A   1      38.389  30.415  35.967  1.00  0.00    -0.206 F 
ATOM     80  C   UNL A   1      38.729  32.165  37.500  1.00  0.00     0.059 A 
ATOM     81  C   UNL A   1      40.698  33.576  37.304  1.00  0.00     0.059 A 
ATOM     82  F   UNL A   1      42.220  33.202  35.565  1.00  0.00    -0.206 F 
ATOM     83  C   UNL A   1      39.523  33.218  37.961  1.00  0.00     0.060 A 
BRANCH  83  84
ATOM     84  S   UNL A   1      39.044  34.072  39.478  1.00  0.00     0.124 S 
ATOM     85  O   UNL A   1      40.115  33.680  40.386  1.00  0.00    -0.237 OA
ATOM     86  O   UNL A   1      39.042  35.470  39.057  1.00  0.00    -0.237 OA
ATOM     87  O   UNL A   1      37.728  33.514  39.774  1.00  0.00    -0.744 OA
ENDBRANCH  83  84
ENDBRANCH  51  76
BRANCH  63  88
ATOM     88  C   UNL A   1      45.035  26.653  35.227  1.00  0.00     0.058 A 
ATOM     89  C   UNL A   1      44.675  25.498  35.939  1.00  0.00     0.135 A 
ATOM     90  C   UNL A   1      46.291  27.223  35.490  1.00  0.00     0.135 A 
ATOM     91  F   UNL A   1      43.478  24.924  35.736  1.00  0.00    -0.206 F 
ATOM     92  C   UNL A   1      45.514  24.950  36.904  1.00  0.00     0.059 A 
ATOM     93  C   UNL A   1      47.156  26.675  36.431  1.00  0.00     0.059 A 
ATOM     94  F   UNL A   1      46.684  28.326  34.833  1.00  0.00    -0.206 F 
ATOM     95  C   UNL A   1      46.752  25.549  37.145  1.00  0.00     0.060 A 
BRANCH  95  96
ATOM     96  S   UNL A   1      47.831  24.831  38.401  1.00  0.00     0.124 S 
ATOM     97  O   UNL A   1      47.314  25.446  39.619  1.00  0.00    -0.237 OA
ATOM     98  O   UNL A   1      47.575  23.401  38.255  1.00  0.00    -0.237 OA
ATOM     99  O   UNL A   1      49.164  25.267  37.993  1.00  0.00    -0.744 OA
ENDBRANCH  95  96
ENDBRANCH  63  88
ENDBRANCH  37  38
ENDBRANCH  30  32
ENDBRANCH  29  30
ENDBRANCH  28  29
ENDBRANCH   1  28
TORSDOF 20
ENDMDL
