MODEL 1
REMARK VINA RESULT:     -14.6      0.000      0.000
REMARK SMILES Cc1ccc(NC(=O)c2cnn3c2NC2=C(C(=O)CCC2)[C@H]3c2ccc(C(=O)OCCOC(=O)c3ccc(-c4c5nc(c(-c6c(F)cc(S(=O)(=O)[O-])cc6F)c6ccc([nH]6)c(-c6c(F)cc(S(=O)(=O)[O-])cc6F)c6nc(c(-c7c(F)cc(S(=O)(=O)[O-])cc7F)c7ccc4[nH]7)C=C6)C=C5)cc3)cc2)cc1
REMARK SMILES IDX 30 1 29 2 27 3 28 4 26 5 23 6 24 7 102 8 25 9 101 10 22 11
REMARK SMILES IDX 9 12 10 13 13 14 11 15 12 16 14 17 15 18 16 20 21 21 17 22
REMARK SMILES IDX 20 23 18 24 19 25 7 26 6 27 8 29 5 30 1 31 2 32 3 33 104 34
REMARK SMILES IDX 4 35 103 36 31 37 32 38 33 39 34 40 35 41 36 42 100 43 37 44
REMARK SMILES IDX 99 45 38 46 39 47 40 48 93 49 41 50 98 51 92 52 94 53 42 54
REMARK SMILES IDX 97 55 91 56 90 57 43 59 77 60 56 61 76 62 57 63 60 64 75 65
REMARK SMILES IDX 95 66 58 67 59 68 74 70 96 71 61 72 44 73 45 74 54 75 46 76
REMARK SMILES IDX 47 77 53 78 55 79 48 80 49 81 50 82 51 83 52 84 78 85 79 86
REMARK SMILES IDX 88 87 80 88 81 89 87 90 89 91 82 92 83 93 84 94 85 95 86 96
REMARK SMILES IDX 62 97 63 98 72 99 64 100 65 101 71 102 73 103 66 104 67 105
REMARK SMILES IDX 68 106 69 107 70 108
REMARK H PARENT 14 19 6 28 94 58 60 69
REMARK Flexibility Score: inf
ROOT
ATOM      1  C   UNL A   1      33.607  31.633  27.663  1.00  0.00     0.275 C 
ENDROOT
BRANCH   1   2
ATOM      2  O   UNL A   1      33.237  30.247  27.543  1.00  0.00    -0.458 OA
BRANCH   2   3
ATOM      3  C   UNL A   1      32.567  29.912  26.416  1.00  0.00     0.338 C 
ATOM      4  O   UNL A   1      32.095  30.684  25.597  1.00  0.00    -0.246 OA
BRANCH   3   5
ATOM      5  C   UNL A   1      32.727  28.472  26.155  1.00  0.00     0.060 A 
ATOM      6  C   UNL A   1      33.018  25.637  26.128  1.00  0.00    -0.019 A 
ATOM      7  C   UNL A   1      33.992  26.469  25.546  1.00  0.00     0.007 A 
ATOM      8  C   UNL A   1      31.884  26.297  26.650  1.00  0.00     0.007 A 
ATOM      9  C   UNL A   1      33.853  27.881  25.569  1.00  0.00     0.016 A 
ATOM     10  C   UNL A   1      31.728  27.675  26.674  1.00  0.00     0.016 A 
BRANCH   6  11
ATOM     11  C   UNL A   1      33.146  24.069  26.147  1.00  0.00     0.175 C 
ATOM     12  C   UNL A   1      32.783  23.557  22.681  1.00  0.00     0.102 A 
ATOM     13  C   UNL A   1      31.717  22.777  23.217  1.00  0.00     0.151 A 
ATOM     14  C   UNL A   1      33.651  23.688  23.750  1.00  0.00     0.142 A 
ATOM     15  N   UNL A   1      31.710  22.767  24.555  1.00  0.00    -0.178 NA
ATOM     16  N   UNL A   1      32.800  23.503  24.834  1.00  0.00    -0.237 N 
ATOM     17  N   UNL A   1      34.935  24.097  24.035  1.00  0.00    -0.343 N 
ATOM     18  C   UNL A   1      35.452  23.918  25.340  1.00  0.00     0.026 C 
ATOM     19  H   UNL A   1      35.490  24.511  23.335  1.00  0.00     0.168 HD
ATOM     20  C   UNL A   1      34.573  23.608  26.327  1.00  0.00     0.044 C 
ATOM     21  C   UNL A   1      36.897  23.572  25.573  1.00  0.00     0.055 C 
ATOM     22  C   UNL A   1      34.733  22.145  26.684  1.00  0.00     0.163 C 
ATOM     23  C   UNL A   1      37.070  22.066  25.790  1.00  0.00     0.014 C 
ATOM     24  O   UNL A   1      33.966  21.605  27.477  1.00  0.00    -0.294 OA
ATOM     25  C   UNL A   1      35.731  21.338  25.849  1.00  0.00     0.081 C 
BRANCH  12  26
ATOM     26  C   UNL A   1      32.895  24.095  21.352  1.00  0.00     0.261 C 
ATOM     27  N   UNL A   1      32.276  25.298  21.039  1.00  0.00    -0.322 N 
ATOM     28  H   UNL A   1      32.194  25.444  20.069  1.00  0.00     0.170 HD
ATOM     29  O   UNL A   1      33.517  23.501  20.466  1.00  0.00    -0.269 OA
BRANCH  27  30
ATOM     30  C   UNL A   1      31.736  26.365  21.806  1.00  0.00     0.041 A 
ATOM     31  C   UNL A   1      29.823  29.526  24.102  1.00  0.00     0.044 C 
ATOM     32  C   UNL A   1      30.462  28.420  23.318  1.00  0.00    -0.051 A 
ATOM     33  C   UNL A   1      31.687  28.642  22.701  1.00  0.00     0.005 A 
ATOM     34  C   UNL A   1      29.870  27.162  23.176  1.00  0.00     0.005 A 
ATOM     35  C   UNL A   1      32.302  27.629  21.959  1.00  0.00     0.026 A 
ATOM     36  C   UNL A   1      30.496  26.153  22.420  1.00  0.00     0.026 A 
ENDBRANCH  27  30
ENDBRANCH  12  26
ENDBRANCH   6  11
ENDBRANCH   3   5
ENDBRANCH   2   3
ENDBRANCH   1   2
BRANCH   1  37
ATOM     37  C   UNL A   1      35.128  31.922  27.635  1.00  0.00     0.275 C 
BRANCH  37  38
ATOM     38  O   UNL A   1      36.011  30.789  27.760  1.00  0.00    -0.458 OA
BRANCH  38  39
ATOM     39  C   UNL A   1      36.495  30.548  29.015  1.00  0.00     0.338 C 
ATOM     40  O   UNL A   1      35.903  30.821  30.043  1.00  0.00    -0.246 OA
BRANCH  39  41
ATOM     41  C   UNL A   1      37.599  29.559  28.874  1.00  0.00     0.060 A 
ATOM     42  C   UNL A   1      38.513  29.682  27.813  1.00  0.00     0.016 A 
ATOM     43  C   UNL A   1      37.919  28.813  30.009  1.00  0.00     0.016 A 
ATOM     44  C   UNL A   1      39.792  29.145  27.938  1.00  0.00     0.010 A 
ATOM     45  C   UNL A   1      39.221  28.457  30.212  1.00  0.00     0.010 A 
ATOM     46  C   UNL A   1      40.139  28.568  29.158  1.00  0.00    -0.014 A 
BRANCH  46  47
ATOM     47  C   UNL A   1      41.265  27.678  29.358  1.00  0.00     0.031 A 
ATOM     48  C   UNL A   1      41.317  26.310  28.821  1.00  0.00     0.074 A 
ATOM     49  C   UNL A   1      42.330  28.371  29.826  1.00  0.00     0.049 A 
ATOM     50  N   UNL A   1      42.100  25.400  29.285  1.00  0.00    -0.248 NA
ATOM     51  C   UNL A   1      40.490  25.831  27.714  1.00  0.00     0.031 C 
ATOM     52  C   UNL A   1      43.742  28.053  29.803  1.00  0.00     0.029 A 
ATOM     53  N   UNL A   1      42.285  29.595  30.517  1.00  0.00    -0.354 N 
ATOM     54  C   UNL A   1      42.149  24.380  28.352  1.00  0.00     0.074 A 
ATOM     55  C   UNL A   1      41.027  24.624  27.475  1.00  0.00     0.031 C 
ATOM     56  C   UNL A   1      44.362  28.841  30.706  1.00  0.00     0.029 A 
ATOM     57  C   UNL A   1      43.323  29.570  31.432  1.00  0.00     0.049 A 
ATOM     58  H   UNL A   1      41.641  30.326  30.376  1.00  0.00     0.167 HD
ATOM     59  C   UNL A   1      43.256  23.577  28.315  1.00  0.00     0.037 A 
ATOM     60  C   UNL A   1      43.067  29.490  32.772  1.00  0.00     0.037 A 
ATOM     61  C   UNL A   1      44.231  24.067  29.288  1.00  0.00     0.049 A 
ATOM     62  C   UNL A   1      43.615  28.189  33.302  1.00  0.00     0.074 A 
ATOM     63  C   UNL A   1      45.301  24.932  29.126  1.00  0.00     0.029 A 
ATOM     64  N   UNL A   1      43.975  23.992  30.650  1.00  0.00    -0.354 N 
ATOM     65  N   UNL A   1      43.663  27.082  32.610  1.00  0.00    -0.248 NA
ATOM     66  C   UNL A   1      44.244  28.073  34.611  1.00  0.00     0.031 C 
ATOM     67  C   UNL A   1      45.654  25.427  30.402  1.00  0.00     0.029 A 
ATOM     68  C   UNL A   1      44.797  24.868  31.334  1.00  0.00     0.049 A 
ATOM     69  H   UNL A   1      43.307  23.402  31.067  1.00  0.00     0.167 HD
ATOM     70  C   UNL A   1      44.402  26.159  33.303  1.00  0.00     0.074 A 
ATOM     71  C   UNL A   1      44.712  26.814  34.563  1.00  0.00     0.031 C 
ATOM     72  C   UNL A   1      44.768  24.951  32.782  1.00  0.00     0.037 A 
BRANCH  59  73
ATOM     73  C   UNL A   1      43.645  22.594  27.222  1.00  0.00     0.058 A 
ATOM     74  C   UNL A   1      42.883  21.413  27.019  1.00  0.00     0.135 A 
ATOM     75  C   UNL A   1      44.729  22.742  26.335  1.00  0.00     0.135 A 
ATOM     76  F   UNL A   1      41.774  21.157  27.725  1.00  0.00    -0.206 F 
ATOM     77  C   UNL A   1      43.211  20.433  26.085  1.00  0.00     0.059 A 
ATOM     78  C   UNL A   1      45.090  21.758  25.398  1.00  0.00     0.059 A 
ATOM     79  F   UNL A   1      45.458  23.866  26.314  1.00  0.00    -0.206 F 
ATOM     80  C   UNL A   1      44.328  20.599  25.287  1.00  0.00     0.060 A 
BRANCH  80  81
ATOM     81  S   UNL A   1      44.730  19.297  24.105  1.00  0.00     0.124 S 
ATOM     82  O   UNL A   1      46.155  19.091  24.352  1.00  0.00    -0.237 OA
ATOM     83  O   UNL A   1      43.852  18.213  24.531  1.00  0.00    -0.237 OA
ATOM     84  O   UNL A   1      44.406  19.897  22.815  1.00  0.00    -0.744 OA
ENDBRANCH  80  81
ENDBRANCH  59  73
BRANCH  60  85
ATOM     85  C   UNL A   1      41.799  30.151  33.225  1.00  0.00     0.058 A 
ATOM     86  C   UNL A   1      40.685  29.329  33.501  1.00  0.00     0.135 A 
ATOM     87  C   UNL A   1      41.746  31.468  33.709  1.00  0.00     0.135 A 
ATOM     88  F   UNL A   1      40.664  28.060  33.060  1.00  0.00    -0.206 F 
ATOM     89  C   UNL A   1      39.636  29.745  34.319  1.00  0.00     0.059 A 
ATOM     90  C   UNL A   1      40.695  31.912  34.523  1.00  0.00     0.059 A 
ATOM     91  F   UNL A   1      42.766  32.311  33.493  1.00  0.00    -0.206 F 
ATOM     92  C   UNL A   1      39.669  31.028  34.859  1.00  0.00     0.060 A 
BRANCH  92  93
ATOM     93  S   UNL A   1      38.463  31.438  36.149  1.00  0.00     0.124 S 
ATOM     94  O   UNL A   1      39.206  32.394  36.962  1.00  0.00    -0.237 OA
ATOM     95  O   UNL A   1      37.368  31.990  35.357  1.00  0.00    -0.237 OA
ATOM     96  O   UNL A   1      38.193  30.147  36.773  1.00  0.00    -0.744 OA
ENDBRANCH  92  93
ENDBRANCH  60  85
BRANCH  72  97
ATOM     97  C   UNL A   1      45.289  23.777  33.570  1.00  0.00     0.058 A 
ATOM     98  C   UNL A   1      46.584  23.729  34.108  1.00  0.00     0.135 A 
ATOM     99  C   UNL A   1      44.424  22.721  33.957  1.00  0.00     0.135 A 
ATOM    100  F   UNL A   1      47.455  24.731  33.931  1.00  0.00    -0.206 F 
ATOM    101  C   UNL A   1      47.023  22.667  34.893  1.00  0.00     0.059 A 
ATOM    102  C   UNL A   1      44.820  21.689  34.797  1.00  0.00     0.059 A 
ATOM    103  F   UNL A   1      43.148  22.662  33.549  1.00  0.00    -0.206 F 
ATOM    104  C   UNL A   1      46.135  21.651  35.231  1.00  0.00     0.060 A 
BRANCH 104 105
ATOM    105  S   UNL A   1      46.692  20.302  36.278  1.00  0.00     0.124 S 
ATOM    106  O   UNL A   1      45.796  19.228  35.863  1.00  0.00    -0.237 OA
ATOM    107  O   UNL A   1      48.089  20.147  35.884  1.00  0.00    -0.237 OA
ATOM    108  O   UNL A   1      46.485  20.816  37.628  1.00  0.00    -0.744 OA
ENDBRANCH 104 105
ENDBRANCH  72  97
ENDBRANCH  46  47
ENDBRANCH  39  41
ENDBRANCH  38  39
ENDBRANCH  37  38
ENDBRANCH   1  37
TORSDOF 17
ENDMDL
MODEL 2
REMARK VINA RESULT:     -13.8      1.818      2.508
REMARK SMILES Cc1ccc(NC(=O)c2cnn3c2NC2=C(C(=O)CCC2)[C@H]3c2ccc(C(=O)OCCOC(=O)c3ccc(-c4c5nc(c(-c6c(F)cc(S(=O)(=O)[O-])cc6F)c6ccc([nH]6)c(-c6c(F)cc(S(=O)(=O)[O-])cc6F)c6nc(c(-c7c(F)cc(S(=O)(=O)[O-])cc7F)c7ccc4[nH]7)C=C6)C=C5)cc3)cc2)cc1
REMARK SMILES IDX 30 1 29 2 27 3 28 4 26 5 23 6 24 7 102 8 25 9 101 10 22 11
REMARK SMILES IDX 9 12 10 13 13 14 11 15 12 16 14 17 15 18 16 20 21 21 17 22
REMARK SMILES IDX 20 23 18 24 19 25 7 26 6 27 8 29 5 30 1 31 2 32 3 33 104 34
REMARK SMILES IDX 4 35 103 36 31 37 32 38 33 39 34 40 35 41 36 42 100 43 37 44
REMARK SMILES IDX 99 45 38 46 39 47 40 48 93 49 41 50 98 51 92 52 94 53 42 54
REMARK SMILES IDX 97 55 91 56 90 57 43 59 77 60 56 61 76 62 57 63 60 64 75 65
REMARK SMILES IDX 95 66 58 67 59 68 74 70 96 71 61 72 44 73 45 74 54 75 46 76
REMARK SMILES IDX 47 77 53 78 55 79 48 80 49 81 50 82 51 83 52 84 78 85 79 86
REMARK SMILES IDX 88 87 80 88 81 89 87 90 89 91 82 92 83 93 84 94 85 95 86 96
REMARK SMILES IDX 62 97 63 98 72 99 64 100 65 101 71 102 73 103 66 104 67 105
REMARK SMILES IDX 68 106 69 107 70 108
REMARK H PARENT 14 19 6 28 94 58 60 69
REMARK Flexibility Score: inf
ROOT
ATOM      1  C   UNL A   1      34.608  31.437  28.139  1.00  0.00     0.275 C 
ENDROOT
BRANCH   1   2
ATOM      2  O   UNL A   1      34.162  30.797  26.930  1.00  0.00    -0.458 OA
BRANCH   2   3
ATOM      3  C   UNL A   1      32.900  30.309  26.952  1.00  0.00     0.338 C 
ATOM      4  O   UNL A   1      31.872  30.964  27.016  1.00  0.00    -0.246 OA
BRANCH   3   5
ATOM      5  C   UNL A   1      32.915  28.880  26.600  1.00  0.00     0.060 A 
ATOM      6  C   UNL A   1      32.809  26.041  26.376  1.00  0.00    -0.019 A 
ATOM      7  C   UNL A   1      33.994  26.744  26.095  1.00  0.00     0.007 A 
ATOM      8  C   UNL A   1      31.689  26.837  26.702  1.00  0.00     0.007 A 
ATOM      9  C   UNL A   1      34.050  28.157  26.217  1.00  0.00     0.016 A 
ATOM     10  C   UNL A   1      31.723  28.219  26.818  1.00  0.00     0.016 A 
BRANCH   6  11
ATOM     11  C   UNL A   1      32.711  24.473  26.278  1.00  0.00     0.175 C 
ATOM     12  C   UNL A   1      32.428  24.270  22.772  1.00  0.00     0.102 A 
ATOM     13  C   UNL A   1      31.240  23.617  23.212  1.00  0.00     0.151 A 
ATOM     14  C   UNL A   1      33.260  24.197  23.876  1.00  0.00     0.142 A 
ATOM     15  N   UNL A   1      31.173  23.512  24.544  1.00  0.00    -0.178 NA
ATOM     16  N   UNL A   1      32.344  24.059  24.914  1.00  0.00    -0.237 N 
ATOM     17  N   UNL A   1      34.575  24.393  24.233  1.00  0.00    -0.343 N 
ATOM     18  C   UNL A   1      35.004  24.048  25.537  1.00  0.00     0.026 C 
ATOM     19  H   UNL A   1      35.212  24.771  23.585  1.00  0.00     0.168 HD
ATOM     20  C   UNL A   1      34.049  23.798  26.468  1.00  0.00     0.044 C 
ATOM     21  C   UNL A   1      36.375  23.480  25.788  1.00  0.00     0.055 C 
ATOM     22  C   UNL A   1      33.983  22.306  26.716  1.00  0.00     0.163 C 
ATOM     23  C   UNL A   1      36.322  21.952  25.893  1.00  0.00     0.014 C 
ATOM     24  O   UNL A   1      33.113  21.827  27.439  1.00  0.00    -0.294 OA
ATOM     25  C   UNL A   1      34.891  21.424  25.853  1.00  0.00     0.081 C 
BRANCH  12  26
ATOM     26  C   UNL A   1      32.673  24.880  21.493  1.00  0.00     0.261 C 
ATOM     27  N   UNL A   1      32.205  26.162  21.239  1.00  0.00    -0.322 N 
ATOM     28  H   UNL A   1      32.194  26.381  20.279  1.00  0.00     0.170 HD
ATOM     29  O   UNL A   1      33.278  24.282  20.599  1.00  0.00    -0.269 OA
BRANCH  27  30
ATOM     30  C   UNL A   1      31.738  27.229  22.053  1.00  0.00     0.041 A 
ATOM     31  C   UNL A   1      30.054  30.464  24.424  1.00  0.00     0.044 C 
ATOM     32  C   UNL A   1      30.609  29.337  23.607  1.00  0.00    -0.051 A 
ATOM     33  C   UNL A   1      31.967  29.315  23.312  1.00  0.00     0.005 A 
ATOM     34  C   UNL A   1      29.811  28.298  23.120  1.00  0.00     0.005 A 
ATOM     35  C   UNL A   1      32.510  28.278  22.546  1.00  0.00     0.026 A 
ATOM     36  C   UNL A   1      30.369  27.265  22.344  1.00  0.00     0.026 A 
ENDBRANCH  27  30
ENDBRANCH  12  26
ENDBRANCH   6  11
ENDBRANCH   3   5
ENDBRANCH   2   3
ENDBRANCH   1   2
BRANCH   1  37
ATOM     37  C   UNL A   1      35.080  32.903  27.982  1.00  0.00     0.275 C 
BRANCH  37  38
ATOM     38  O   UNL A   1      36.317  33.265  28.630  1.00  0.00    -0.458 OA
BRANCH  38  39
ATOM     39  C   UNL A   1      36.284  33.303  29.995  1.00  0.00     0.338 C 
ATOM     40  O   UNL A   1      35.337  33.699  30.649  1.00  0.00    -0.246 OA
BRANCH  39  41
ATOM     41  C   UNL A   1      37.378  32.418  30.481  1.00  0.00     0.060 A 
ATOM     42  C   UNL A   1      37.069  31.143  30.988  1.00  0.00     0.016 A 
ATOM     43  C   UNL A   1      38.668  32.717  30.040  1.00  0.00     0.016 A 
ATOM     44  C   UNL A   1      38.029  30.135  30.952  1.00  0.00     0.010 A 
ATOM     45  C   UNL A   1      39.541  31.691  29.827  1.00  0.00     0.010 A 
ATOM     46  C   UNL A   1      39.247  30.418  30.335  1.00  0.00    -0.014 A 
BRANCH  46  47
ATOM     47  C   UNL A   1      40.456  29.636  30.501  1.00  0.00     0.031 A 
ATOM     48  C   UNL A   1      40.726  28.397  29.755  1.00  0.00     0.074 A 
ATOM     49  C   UNL A   1      41.382  30.349  31.184  1.00  0.00     0.049 A 
ATOM     50  N   UNL A   1      41.576  27.513  30.143  1.00  0.00    -0.248 NA
ATOM     51  C   UNL A   1      40.060  28.032  28.505  1.00  0.00     0.031 C 
ATOM     52  C   UNL A   1      42.819  30.199  31.256  1.00  0.00     0.029 A 
ATOM     53  N   UNL A   1      41.125  31.421  32.058  1.00  0.00    -0.354 N 
ATOM     54  C   UNL A   1      41.831  26.684  29.065  1.00  0.00     0.074 A 
ATOM     55  C   UNL A   1      40.764  26.952  28.128  1.00  0.00     0.031 C 
ATOM     56  C   UNL A   1      43.258  30.879  32.336  1.00  0.00     0.029 A 
ATOM     57  C   UNL A   1      42.078  31.350  33.060  1.00  0.00     0.049 A 
ATOM     58  H   UNL A   1      40.407  32.090  31.973  1.00  0.00     0.167 HD
ATOM     59  C   UNL A   1      43.029  26.027  29.012  1.00  0.00     0.037 A 
ATOM     60  C   UNL A   1      41.723  31.009  34.335  1.00  0.00     0.037 A 
ATOM     61  C   UNL A   1      43.850  26.443  30.147  1.00  0.00     0.049 A 
ATOM     62  C   UNL A   1      42.385  29.704  34.698  1.00  0.00     0.074 A 
ATOM     63  C   UNL A   1      44.813  27.436  30.242  1.00  0.00     0.029 A 
ATOM     64  N   UNL A   1      43.493  26.103  31.445  1.00  0.00    -0.354 N 
ATOM     65  N   UNL A   1      42.630  28.747  33.843  1.00  0.00    -0.248 NA
ATOM     66  C   UNL A   1      42.912  29.430  36.028  1.00  0.00     0.031 C 
ATOM     67  C   UNL A   1      44.992  27.736  31.611  1.00  0.00     0.029 A 
ATOM     68  C   UNL A   1      44.138  26.930  32.344  1.00  0.00     0.049 A 
ATOM     69  H   UNL A   1      42.872  25.379  31.688  1.00  0.00     0.167 HD
ATOM     70  C   UNL A   1      43.420  27.805  34.447  1.00  0.00     0.074 A 
ATOM     71  C   UNL A   1      43.538  28.258  35.823  1.00  0.00     0.031 C 
ATOM     72  C   UNL A   1      43.978  26.754  33.776  1.00  0.00     0.037 A 
BRANCH  59  73
ATOM     73  C   UNL A   1      43.629  25.300  27.818  1.00  0.00     0.058 A 
ATOM     74  C   UNL A   1      43.944  23.918  27.907  1.00  0.00     0.135 A 
ATOM     75  C   UNL A   1      43.911  25.877  26.564  1.00  0.00     0.135 A 
ATOM     76  F   UNL A   1      43.668  23.200  29.003  1.00  0.00    -0.206 F 
ATOM     77  C   UNL A   1      44.556  23.197  26.884  1.00  0.00     0.059 A 
ATOM     78  C   UNL A   1      44.545  25.174  25.524  1.00  0.00     0.059 A 
ATOM     79  F   UNL A   1      43.546  27.136  26.284  1.00  0.00    -0.206 F 
ATOM     80  C   UNL A   1      44.872  23.834  25.698  1.00  0.00     0.060 A 
BRANCH  80  81
ATOM     81  S   UNL A   1      45.682  22.870  24.406  1.00  0.00     0.124 S 
ATOM     82  O   UNL A   1      46.224  21.744  25.161  1.00  0.00    -0.237 OA
ATOM     83  O   UNL A   1      44.572  22.558  23.513  1.00  0.00    -0.237 OA
ATOM     84  O   UNL A   1      46.679  23.791  23.868  1.00  0.00    -0.744 OA
ENDBRANCH  80  81
ENDBRANCH  59  73
BRANCH  60  85
ATOM     85  C   UNL A   1      40.349  31.436  34.756  1.00  0.00     0.058 A 
ATOM     86  C   UNL A   1      40.181  32.754  35.233  1.00  0.00     0.135 A 
ATOM     87  C   UNL A   1      39.181  30.742  34.397  1.00  0.00     0.135 A 
ATOM     88  F   UNL A   1      41.253  33.473  35.603  1.00  0.00    -0.206 F 
ATOM     89  C   UNL A   1      38.943  33.395  35.234  1.00  0.00     0.059 A 
ATOM     90  C   UNL A   1      37.924  31.362  34.402  1.00  0.00     0.059 A 
ATOM     91  F   UNL A   1      39.256  29.487  33.931  1.00  0.00    -0.206 F 
ATOM     92  C   UNL A   1      37.824  32.702  34.778  1.00  0.00     0.060 A 
BRANCH  92  93
ATOM     93  S   UNL A   1      36.297  33.640  34.504  1.00  0.00     0.124 S 
ATOM     94  O   UNL A   1      36.786  34.808  33.782  1.00  0.00    -0.237 OA
ATOM     95  O   UNL A   1      35.510  32.690  33.723  1.00  0.00    -0.237 OA
ATOM     96  O   UNL A   1      35.811  33.887  35.858  1.00  0.00    -0.744 OA
ENDBRANCH  92  93
ENDBRANCH  60  85
BRANCH  72  97
ATOM     97  C   UNL A   1      44.575  25.525  34.411  1.00  0.00     0.058 A 
ATOM     98  C   UNL A   1      45.948  25.382  34.661  1.00  0.00     0.135 A 
ATOM     99  C   UNL A   1      43.744  24.509  34.949  1.00  0.00     0.135 A 
ATOM    100  F   UNL A   1      46.826  26.337  34.325  1.00  0.00    -0.206 F 
ATOM    101  C   UNL A   1      46.472  24.269  35.312  1.00  0.00     0.059 A 
ATOM    102  C   UNL A   1      44.240  23.426  35.663  1.00  0.00     0.059 A 
ATOM    103  F   UNL A   1      42.410  24.539  34.818  1.00  0.00    -0.206 F 
ATOM    104  C   UNL A   1      45.611  23.296  35.808  1.00  0.00     0.060 A 
BRANCH 104 105
ATOM    105  S   UNL A   1      46.287  21.881  36.685  1.00  0.00     0.124 S 
ATOM    106  O   UNL A   1      47.717  22.061  36.459  1.00  0.00    -0.237 OA
ATOM    107  O   UNL A   1      45.832  22.105  38.053  1.00  0.00    -0.237 OA
ATOM    108  O   UNL A   1      45.675  20.743  36.007  1.00  0.00    -0.744 OA
ENDBRANCH 104 105
ENDBRANCH  72  97
ENDBRANCH  46  47
ENDBRANCH  39  41
ENDBRANCH  38  39
ENDBRANCH  37  38
ENDBRANCH   1  37
TORSDOF 17
ENDMDL
MODEL 3
REMARK VINA RESULT:     -13.6      4.291     10.825
REMARK SMILES Cc1ccc(NC(=O)c2cnn3c2NC2=C(C(=O)CCC2)[C@H]3c2ccc(C(=O)OCCOC(=O)c3ccc(-c4c5nc(c(-c6c(F)cc(S(=O)(=O)[O-])cc6F)c6ccc([nH]6)c(-c6c(F)cc(S(=O)(=O)[O-])cc6F)c6nc(c(-c7c(F)cc(S(=O)(=O)[O-])cc7F)c7ccc4[nH]7)C=C6)C=C5)cc3)cc2)cc1
REMARK SMILES IDX 30 1 29 2 27 3 28 4 26 5 23 6 24 7 102 8 25 9 101 10 22 11
REMARK SMILES IDX 9 12 10 13 13 14 11 15 12 16 14 17 15 18 16 20 21 21 17 22
REMARK SMILES IDX 20 23 18 24 19 25 7 26 6 27 8 29 5 30 1 31 2 32 3 33 104 34
REMARK SMILES IDX 4 35 103 36 31 37 32 38 33 39 34 40 35 41 36 42 100 43 37 44
REMARK SMILES IDX 99 45 38 46 39 47 40 48 93 49 41 50 98 51 92 52 94 53 42 54
REMARK SMILES IDX 97 55 91 56 90 57 43 59 77 60 56 61 76 62 57 63 60 64 75 65
REMARK SMILES IDX 95 66 58 67 59 68 74 70 96 71 61 72 44 73 45 74 54 75 46 76
REMARK SMILES IDX 47 77 53 78 55 79 48 80 49 81 50 82 51 83 52 84 78 85 79 86
REMARK SMILES IDX 88 87 80 88 81 89 87 90 89 91 82 92 83 93 84 94 85 95 86 96
REMARK SMILES IDX 62 97 63 98 72 99 64 100 65 101 71 102 73 103 66 104 67 105
REMARK SMILES IDX 68 106 69 107 70 108
REMARK H PARENT 14 19 6 28 94 58 60 69
REMARK Flexibility Score: inf
ROOT
ATOM      1  C   UNL A   1      40.075  21.698  26.098  1.00  0.00     0.275 C 
ENDROOT
BRANCH   1   2
ATOM      2  O   UNL A   1      38.709  22.142  26.192  1.00  0.00    -0.458 OA
BRANCH   2   3
ATOM      3  C   UNL A   1      37.849  21.593  25.304  1.00  0.00     0.338 C 
ATOM      4  O   UNL A   1      37.822  20.426  24.949  1.00  0.00    -0.246 OA
BRANCH   3   5
ATOM      5  C   UNL A   1      36.753  22.536  25.030  1.00  0.00     0.060 A 
ATOM      6  C   UNL A   1      34.901  24.505  24.125  1.00  0.00    -0.019 A 
ATOM      7  C   UNL A   1      35.423  24.549  25.431  1.00  0.00     0.007 A 
ATOM      8  C   UNL A   1      35.304  23.400  23.344  1.00  0.00     0.007 A 
ATOM      9  C   UNL A   1      36.353  23.576  25.877  1.00  0.00     0.016 A 
ATOM     10  C   UNL A   1      36.205  22.435  23.767  1.00  0.00     0.016 A 
BRANCH   6  11
ATOM     11  C   UNL A   1      33.888  25.580  23.581  1.00  0.00     0.175 C 
ATOM     12  C   UNL A   1      31.021  24.344  25.215  1.00  0.00     0.102 A 
ATOM     13  C   UNL A   1      30.632  24.304  23.844  1.00  0.00     0.151 A 
ATOM     14  C   UNL A   1      32.059  25.259  25.225  1.00  0.00     0.142 A 
ATOM     15  N   UNL A   1      31.564  24.809  23.029  1.00  0.00    -0.178 NA
ATOM     16  N   UNL A   1      32.504  25.201  23.908  1.00  0.00    -0.237 N 
ATOM     17  N   UNL A   1      32.825  25.989  26.105  1.00  0.00    -0.343 N 
ATOM     18  C   UNL A   1      33.741  26.946  25.606  1.00  0.00     0.026 C 
ATOM     19  H   UNL A   1      32.738  25.846  27.075  1.00  0.00     0.168 HD
ATOM     20  C   UNL A   1      34.028  26.911  24.280  1.00  0.00     0.044 C 
ATOM     21  C   UNL A   1      34.000  28.239  26.332  1.00  0.00     0.055 C 
ATOM     22  C   UNL A   1      33.331  28.068  23.597  1.00  0.00     0.163 C 
ATOM     23  C   UNL A   1      33.177  29.380  25.725  1.00  0.00     0.014 C 
ATOM     24  O   UNL A   1      33.351  28.180  22.373  1.00  0.00    -0.294 OA
ATOM     25  C   UNL A   1      32.425  28.941  24.472  1.00  0.00     0.081 C 
BRANCH  12  26
ATOM     26  C   UNL A   1      30.474  23.583  26.306  1.00  0.00     0.261 C 
ATOM     27  N   UNL A   1      30.874  22.269  26.501  1.00  0.00    -0.322 N 
ATOM     28  H   UNL A   1      30.267  21.768  27.093  1.00  0.00     0.170 HD
ATOM     29  O   UNL A   1      29.634  24.067  27.070  1.00  0.00    -0.269 OA
BRANCH  27  30
ATOM     30  C   UNL A   1      31.965  21.484  26.038  1.00  0.00     0.041 A 
ATOM     31  C   UNL A   1      35.113  18.913  24.490  1.00  0.00     0.044 C 
ATOM     32  C   UNL A   1      34.014  19.793  25.001  1.00  0.00    -0.051 A 
ATOM     33  C   UNL A   1      34.202  20.503  26.181  1.00  0.00     0.005 A 
ATOM     34  C   UNL A   1      32.792  19.930  24.336  1.00  0.00     0.005 A 
ATOM     35  C   UNL A   1      33.189  21.326  26.683  1.00  0.00     0.026 A 
ATOM     36  C   UNL A   1      31.778  20.757  24.856  1.00  0.00     0.026 A 
ENDBRANCH  27  30
ENDBRANCH  12  26
ENDBRANCH   6  11
ENDBRANCH   3   5
ENDBRANCH   2   3
ENDBRANCH   1   2
BRANCH   1  37
ATOM     37  C   UNL A   1      40.763  21.368  27.445  1.00  0.00     0.275 C 
BRANCH  37  38
ATOM     38  O   UNL A   1      41.500  22.432  28.082  1.00  0.00    -0.458 OA
BRANCH  38  39
ATOM     39  C   UNL A   1      42.661  22.803  27.466  1.00  0.00     0.338 C 
ATOM     40  O   UNL A   1      43.238  22.135  26.628  1.00  0.00    -0.246 OA
BRANCH  39  41
ATOM     41  C   UNL A   1      42.821  24.267  27.683  1.00  0.00     0.060 A 
ATOM     42  C   UNL A   1      42.310  25.171  26.736  1.00  0.00     0.016 A 
ATOM     43  C   UNL A   1      43.096  24.679  28.988  1.00  0.00     0.016 A 
ATOM     44  C   UNL A   1      41.974  26.465  27.128  1.00  0.00     0.010 A 
ATOM     45  C   UNL A   1      42.592  25.873  29.417  1.00  0.00     0.010 A 
ATOM     46  C   UNL A   1      42.088  26.785  28.480  1.00  0.00    -0.014 A 
BRANCH  46  47
ATOM     47  C   UNL A   1      42.116  28.135  29.007  1.00  0.00     0.031 A 
ATOM     48  C   UNL A   1      40.906  28.941  29.228  1.00  0.00     0.074 A 
ATOM     49  C   UNL A   1      43.337  28.408  29.525  1.00  0.00     0.049 A 
ATOM     50  N   UNL A   1      40.922  30.224  29.327  1.00  0.00    -0.248 NA
ATOM     51  C   UNL A   1      39.560  28.383  29.353  1.00  0.00     0.031 C 
ATOM     52  C   UNL A   1      43.748  29.407  30.488  1.00  0.00     0.029 A 
ATOM     53  N   UNL A   1      44.545  27.774  29.182  1.00  0.00    -0.354 N 
ATOM     54  C   UNL A   1      39.711  30.613  29.870  1.00  0.00     0.074 A 
ATOM     55  C   UNL A   1      38.852  29.460  29.729  1.00  0.00     0.031 C 
ATOM     56  C   UNL A   1      45.087  29.544  30.403  1.00  0.00     0.029 A 
ATOM     57  C   UNL A   1      45.535  28.738  29.269  1.00  0.00     0.049 A 
ATOM     58  H   UNL A   1      44.662  26.829  28.930  1.00  0.00     0.167 HD
ATOM     59  C   UNL A   1      39.650  31.792  30.561  1.00  0.00     0.037 A 
ATOM     60  C   UNL A   1      46.154  29.201  28.142  1.00  0.00     0.037 A 
ATOM     61  C   UNL A   1      40.991  32.369  30.635  1.00  0.00     0.049 A 
ATOM     62  C   UNL A   1      45.840  30.667  27.976  1.00  0.00     0.074 A 
ATOM     63  C   UNL A   1      41.959  32.263  31.620  1.00  0.00     0.029 A 
ATOM     64  N   UNL A   1      41.627  32.839  29.494  1.00  0.00    -0.354 N 
ATOM     65  N   UNL A   1      44.712  31.217  28.337  1.00  0.00    -0.248 NA
ATOM     66  C   UNL A   1      46.816  31.632  27.487  1.00  0.00     0.031 C 
ATOM     67  C   UNL A   1      43.202  32.617  31.047  1.00  0.00     0.029 A 
ATOM     68  C   UNL A   1      42.988  32.933  29.716  1.00  0.00     0.049 A 
ATOM     69  H   UNL A   1      41.175  33.071  28.651  1.00  0.00     0.167 HD
ATOM     70  C   UNL A   1      44.834  32.578  28.244  1.00  0.00     0.074 A 
ATOM     71  C   UNL A   1      46.154  32.787  27.673  1.00  0.00     0.031 C 
ATOM     72  C   UNL A   1      43.882  33.448  28.696  1.00  0.00     0.037 A 
BRANCH  59  73
ATOM     73  C   UNL A   1      38.523  32.275  31.460  1.00  0.00     0.058 A 
ATOM     74  C   UNL A   1      37.654  33.310  31.023  1.00  0.00     0.135 A 
ATOM     75  C   UNL A   1      38.225  31.774  32.742  1.00  0.00     0.135 A 
ATOM     76  F   UNL A   1      37.751  33.844  29.799  1.00  0.00    -0.206 F 
ATOM     77  C   UNL A   1      36.642  33.854  31.811  1.00  0.00     0.059 A 
ATOM     78  C   UNL A   1      37.221  32.319  33.562  1.00  0.00     0.059 A 
ATOM     79  F   UNL A   1      38.870  30.708  33.235  1.00  0.00    -0.206 F 
ATOM     80  C   UNL A   1      36.440  33.367  33.090  1.00  0.00     0.060 A 
BRANCH  80  81
ATOM     81  S   UNL A   1      35.132  34.112  34.086  1.00  0.00     0.124 S 
ATOM     82  O   UNL A   1      35.214  35.516  33.693  1.00  0.00    -0.237 OA
ATOM     83  O   UNL A   1      33.949  33.395  33.626  1.00  0.00    -0.237 OA
ATOM     84  O   UNL A   1      35.544  33.828  35.457  1.00  0.00    -0.744 OA
ENDBRANCH  80  81
ENDBRANCH  59  73
BRANCH  60  85
ATOM     85  C   UNL A   1      46.291  28.207  27.028  1.00  0.00     0.058 A 
ATOM     86  C   UNL A   1      47.365  27.291  27.085  1.00  0.00     0.135 A 
ATOM     87  C   UNL A   1      45.255  27.908  26.128  1.00  0.00     0.135 A 
ATOM     88  F   UNL A   1      48.394  27.519  27.916  1.00  0.00    -0.206 F 
ATOM     89  C   UNL A   1      47.353  26.085  26.387  1.00  0.00     0.059 A 
ATOM     90  C   UNL A   1      45.229  26.707  25.407  1.00  0.00     0.059 A 
ATOM     91  F   UNL A   1      44.197  28.725  26.018  1.00  0.00    -0.206 F 
ATOM     92  C   UNL A   1      46.259  25.782  25.580  1.00  0.00     0.060 A 
BRANCH  92  93
ATOM     93  S   UNL A   1      46.124  24.096  24.928  1.00  0.00     0.124 S 
ATOM     94  O   UNL A   1      47.155  24.088  23.897  1.00  0.00    -0.237 OA
ATOM     95  O   UNL A   1      46.408  23.302  26.120  1.00  0.00    -0.237 OA
ATOM     96  O   UNL A   1      44.746  24.034  24.451  1.00  0.00    -0.744 OA
ENDBRANCH  92  93
ENDBRANCH  60  85
BRANCH  72  97
ATOM     97  C   UNL A   1      43.793  34.911  28.348  1.00  0.00     0.058 A 
ATOM     98  C   UNL A   1      43.392  35.376  27.086  1.00  0.00     0.135 A 
ATOM     99  C   UNL A   1      43.952  35.906  29.347  1.00  0.00     0.135 A 
ATOM    100  F   UNL A   1      43.078  34.531  26.094  1.00  0.00    -0.206 F 
ATOM    101  C   UNL A   1      43.249  36.731  26.806  1.00  0.00     0.059 A 
ATOM    102  C   UNL A   1      43.745  37.258  29.106  1.00  0.00     0.059 A 
ATOM    103  F   UNL A   1      44.295  35.600  30.606  1.00  0.00    -0.206 F 
ATOM    104  C   UNL A   1      43.429  37.665  27.820  1.00  0.00     0.060 A 
BRANCH 104 105
ATOM    105  S   UNL A   1      43.204  39.411  27.465  1.00  0.00     0.124 S 
ATOM    106  O   UNL A   1      43.993  40.023  28.529  1.00  0.00    -0.237 OA
ATOM    107  O   UNL A   1      43.753  39.537  26.119  1.00  0.00    -0.237 OA
ATOM    108  O   UNL A   1      41.759  39.590  27.563  1.00  0.00    -0.744 OA
ENDBRANCH 104 105
ENDBRANCH  72  97
ENDBRANCH  46  47
ENDBRANCH  39  41
ENDBRANCH  38  39
ENDBRANCH  37  38
ENDBRANCH   1  37
TORSDOF 17
ENDMDL
