MODEL 1
REMARK VINA RESULT:     -10.3      0.000      0.000
REMARK SMILES C=CCN(CC(=O)OCCOC(=O)c1ccc(-c2c3nc(c(-c4c(F)cc(S(=O)(=O)[O-])cc4F)c4ccc([nH]4)c(-c4c(F)cc(S(=O)(=O)[O-])cc4F)c4nc(c(-c5c(F)cc(S(=O)(=O)[O-])cc5F)c5ccc2[nH]5)C=C4)C=C3)cc1)c1nc2ccccc2s1
REMARK SMILES IDX 9 1 8 2 6 3 7 4 5 5 4 6 3 7 2 8 1 9 80 10 81 11 88 12 82 13
REMARK SMILES IDX 87 14 83 15 86 16 84 17 85 18 10 19 11 20 12 21 13 22 14 23
REMARK SMILES IDX 15 24 79 25 16 26 78 27 17 28 18 29 19 30 72 31 20 32 77 33
REMARK SMILES IDX 71 34 73 35 21 36 76 37 70 38 69 39 22 41 56 42 35 43 55 44
REMARK SMILES IDX 36 45 39 46 54 47 74 48 37 49 38 50 53 52 75 53 40 54 23 55
REMARK SMILES IDX 24 56 33 57 25 58 26 59 32 60 34 61 27 62 28 63 29 64 30 65
REMARK SMILES IDX 31 66 57 67 58 68 67 69 59 70 60 71 66 72 68 73 61 74 62 75
REMARK SMILES IDX 63 76 64 77 65 78 41 79 42 80 51 81 43 82 44 83 50 84 52 85
REMARK SMILES IDX 45 86 46 87 47 88 48 89 49 90
REMARK H PARENT 73 40 39 51
REMARK Flexibility Score: inf
ROOT
ATOM      1  C   UNL A   1      33.092  29.594  26.932  1.00  0.00     0.274 C 
ENDROOT
BRANCH   1   2
ATOM      2  O   UNL A   1      33.170  29.560  25.494  1.00  0.00    -0.461 OA
BRANCH   2   3
ATOM      3  C   UNL A   1      33.470  28.339  24.970  1.00  0.00     0.325 C 
ATOM      4  O   UNL A   1      34.061  28.174  23.904  1.00  0.00    -0.250 OA
BRANCH   3   5
ATOM      5  C   UNL A   1      33.011  27.154  25.805  1.00  0.00     0.241 C 
BRANCH   5   6
ATOM      6  N   UNL A   1      32.698  25.918  25.083  1.00  0.00    -0.333 N 
BRANCH   6   7
ATOM      7  C   UNL A   1      31.460  25.869  24.328  1.00  0.00     0.146 C 
BRANCH   7   8
ATOM      8  C   UNL A   1      30.303  26.201  25.227  1.00  0.00    -0.014 C 
ATOM      9  C   UNL A   1      29.812  25.378  26.164  1.00  0.00     0.006 C 
ENDBRANCH   7   8
ENDBRANCH   6   7
BRANCH   6  10
ATOM     10  C   UNL A   1      33.606  24.898  25.088  1.00  0.00     0.187 A 
ATOM     11  N   UNL A   1      34.530  24.738  24.162  1.00  0.00    -0.220 NA
ATOM     12  S   UNL A   1      33.606  23.653  26.293  1.00  0.00    -0.097 S 
ATOM     13  C   UNL A   1      35.294  23.601  24.413  1.00  0.00     0.084 A 
ATOM     14  C   UNL A   1      34.890  22.842  25.506  1.00  0.00     0.056 A 
ATOM     15  C   UNL A   1      36.412  23.154  23.678  1.00  0.00     0.030 A 
ATOM     16  C   UNL A   1      35.509  21.627  25.849  1.00  0.00     0.021 A 
ATOM     17  C   UNL A   1      37.048  21.954  24.013  1.00  0.00     0.002 A 
ATOM     18  C   UNL A   1      36.590  21.193  25.080  1.00  0.00     0.002 A 
ENDBRANCH   6  10
ENDBRANCH   5   6
ENDBRANCH   3   5
ENDBRANCH   2   3
ENDBRANCH   1   2
BRANCH   1  19
ATOM     19  C   UNL A   1      34.105  30.586  27.503  1.00  0.00     0.275 C 
BRANCH  19  20
ATOM     20  O   UNL A   1      35.324  29.903  27.834  1.00  0.00    -0.458 OA
BRANCH  20  21
ATOM     21  C   UNL A   1      36.002  30.426  28.883  1.00  0.00     0.338 C 
ATOM     22  O   UNL A   1      35.531  31.137  29.758  1.00  0.00    -0.246 OA
BRANCH  21  23
ATOM     23  C   UNL A   1      37.433  30.024  28.850  1.00  0.00     0.060 A 
ATOM     24  C   UNL A   1      38.230  29.996  29.999  1.00  0.00     0.016 A 
ATOM     25  C   UNL A   1      38.013  29.747  27.606  1.00  0.00     0.016 A 
ATOM     26  C   UNL A   1      39.599  29.727  29.905  1.00  0.00     0.010 A 
ATOM     27  C   UNL A   1      39.370  29.433  27.517  1.00  0.00     0.010 A 
ATOM     28  C   UNL A   1      40.175  29.420  28.664  1.00  0.00    -0.014 A 
BRANCH  28  29
ATOM     29  C   UNL A   1      41.590  28.979  28.554  1.00  0.00     0.031 A 
ATOM     30  C   UNL A   1      42.715  29.973  28.582  1.00  0.00     0.074 A 
ATOM     31  C   UNL A   1      41.845  27.676  28.327  1.00  0.00     0.049 A 
ATOM     32  N   UNL A   1      43.978  29.795  28.286  1.00  0.00    -0.248 NA
ATOM     33  C   UNL A   1      42.379  31.347  28.985  1.00  0.00     0.031 C 
ATOM     34  C   UNL A   1      40.838  26.613  28.287  1.00  0.00     0.029 A 
ATOM     35  N   UNL A   1      43.023  27.028  28.055  1.00  0.00    -0.354 N 
ATOM     36  C   UNL A   1      44.586  31.034  28.445  1.00  0.00     0.074 A 
ATOM     37  C   UNL A   1      43.549  31.960  28.856  1.00  0.00     0.031 C 
ATOM     38  C   UNL A   1      41.438  25.451  27.996  1.00  0.00     0.029 A 
ATOM     39  C   UNL A   1      42.858  25.694  27.771  1.00  0.00     0.049 A 
ATOM     40  H   UNL A   1      43.900  27.475  28.064  1.00  0.00     0.167 HD
ATOM     41  C   UNL A   1      45.890  31.363  28.262  1.00  0.00     0.037 A 
ATOM     42  C   UNL A   1      43.738  24.776  27.330  1.00  0.00     0.037 A 
ATOM     43  C   UNL A   1      46.917  30.432  27.864  1.00  0.00     0.049 A 
ATOM     44  C   UNL A   1      45.163  25.176  27.088  1.00  0.00     0.074 A 
ATOM     45  C   UNL A   1      48.269  30.668  27.678  1.00  0.00     0.029 A 
ATOM     46  N   UNL A   1      46.709  29.088  27.587  1.00  0.00    -0.354 N 
ATOM     47  N   UNL A   1      45.723  26.352  27.233  1.00  0.00    -0.248 NA
ATOM     48  C   UNL A   1      46.074  24.126  26.612  1.00  0.00     0.031 C 
ATOM     49  C   UNL A   1      48.872  29.477  27.257  1.00  0.00     0.029 A 
ATOM     50  C   UNL A   1      47.903  28.488  27.216  1.00  0.00     0.049 A 
ATOM     51  H   UNL A   1      45.841  28.628  27.644  1.00  0.00     0.167 HD
ATOM     52  C   UNL A   1      47.057  26.182  26.884  1.00  0.00     0.074 A 
ATOM     53  C   UNL A   1      47.222  24.786  26.530  1.00  0.00     0.031 C 
ATOM     54  C   UNL A   1      48.055  27.100  26.862  1.00  0.00     0.037 A 
BRANCH  41  55
ATOM     55  C   UNL A   1      46.285  32.797  28.476  1.00  0.00     0.058 A 
ATOM     56  C   UNL A   1      46.750  33.257  29.717  1.00  0.00     0.135 A 
ATOM     57  C   UNL A   1      46.259  33.709  27.407  1.00  0.00     0.135 A 
ATOM     58  F   UNL A   1      46.787  32.431  30.774  1.00  0.00    -0.206 F 
ATOM     59  C   UNL A   1      47.157  34.577  29.898  1.00  0.00     0.059 A 
ATOM     60  C   UNL A   1      46.680  35.028  27.560  1.00  0.00     0.059 A 
ATOM     61  F   UNL A   1      45.827  33.320  26.197  1.00  0.00    -0.206 F 
ATOM     62  C   UNL A   1      47.116  35.456  28.813  1.00  0.00     0.060 A 
BRANCH  62  63
ATOM     63  S   UNL A   1      47.652  37.162  29.059  1.00  0.00     0.124 S 
ATOM     64  O   UNL A   1      47.306  37.375  30.461  1.00  0.00    -0.237 OA
ATOM     65  O   UNL A   1      49.080  37.089  28.764  1.00  0.00    -0.237 OA
ATOM     66  O   UNL A   1      46.854  37.912  28.094  1.00  0.00    -0.744 OA
ENDBRANCH  62  63
ENDBRANCH  41  55
BRANCH  42  67
ATOM     67  C   UNL A   1      43.277  23.389  27.071  1.00  0.00     0.058 A 
ATOM     68  C   UNL A   1      43.010  22.955  25.765  1.00  0.00     0.135 A 
ATOM     69  C   UNL A   1      43.136  22.462  28.115  1.00  0.00     0.135 A 
ATOM     70  F   UNL A   1      43.125  23.810  24.737  1.00  0.00    -0.206 F 
ATOM     71  C   UNL A   1      42.616  21.648  25.501  1.00  0.00     0.059 A 
ATOM     72  C   UNL A   1      42.765  21.143  27.874  1.00  0.00     0.059 A 
ATOM     73  F   UNL A   1      43.396  22.828  29.379  1.00  0.00    -0.206 F 
ATOM     74  C   UNL A   1      42.500  20.748  26.563  1.00  0.00     0.060 A 
BRANCH  74  75
ATOM     75  S   UNL A   1      42.056  19.035  26.206  1.00  0.00     0.124 S 
ATOM     76  O   UNL A   1      43.006  18.701  25.150  1.00  0.00    -0.237 OA
ATOM     77  O   UNL A   1      42.276  18.382  27.493  1.00  0.00    -0.237 OA
ATOM     78  O   UNL A   1      40.660  19.131  25.793  1.00  0.00    -0.744 OA
ENDBRANCH  74  75
ENDBRANCH  42  67
BRANCH  54  79
ATOM     79  C   UNL A   1      49.419  26.612  26.467  1.00  0.00     0.058 A 
ATOM     80  C   UNL A   1      50.262  25.962  27.383  1.00  0.00     0.135 A 
ATOM     81  C   UNL A   1      49.882  26.780  25.153  1.00  0.00     0.135 A 
ATOM     82  F   UNL A   1      49.869  25.786  28.654  1.00  0.00    -0.206 F 
ATOM     83  C   UNL A   1      51.528  25.519  27.015  1.00  0.00     0.059 A 
ATOM     84  C   UNL A   1      51.137  26.326  24.757  1.00  0.00     0.059 A 
ATOM     85  F   UNL A   1      49.112  27.389  24.237  1.00  0.00    -0.206 F 
ATOM     86  C   UNL A   1      51.958  25.709  25.700  1.00  0.00     0.060 A 
BRANCH  86  87
ATOM     87  S   UNL A   1      53.597  25.116  25.227  1.00  0.00     0.124 S 
ATOM     88  O   UNL A   1      53.690  25.582  23.846  1.00  0.00    -0.237 OA
ATOM     89  O   UNL A   1      54.467  25.793  26.183  1.00  0.00    -0.237 OA
ATOM     90  O   UNL A   1      53.495  23.670  25.397  1.00  0.00    -0.744 OA
ENDBRANCH  86  87
ENDBRANCH  54  79
ENDBRANCH  28  29
ENDBRANCH  21  23
ENDBRANCH  20  21
ENDBRANCH  19  20
ENDBRANCH   1  19
TORSDOF 18
ENDMDL
MODEL 2
REMARK VINA RESULT:     -10.2      5.158     10.700
REMARK SMILES C=CCN(CC(=O)OCCOC(=O)c1ccc(-c2c3nc(c(-c4c(F)cc(S(=O)(=O)[O-])cc4F)c4ccc([nH]4)c(-c4c(F)cc(S(=O)(=O)[O-])cc4F)c4nc(c(-c5c(F)cc(S(=O)(=O)[O-])cc5F)c5ccc2[nH]5)C=C4)C=C3)cc1)c1nc2ccccc2s1
REMARK SMILES IDX 9 1 8 2 6 3 7 4 5 5 4 6 3 7 2 8 1 9 80 10 81 11 88 12 82 13
REMARK SMILES IDX 87 14 83 15 86 16 84 17 85 18 10 19 11 20 12 21 13 22 14 23
REMARK SMILES IDX 15 24 79 25 16 26 78 27 17 28 18 29 19 30 72 31 20 32 77 33
REMARK SMILES IDX 71 34 73 35 21 36 76 37 70 38 69 39 22 41 56 42 35 43 55 44
REMARK SMILES IDX 36 45 39 46 54 47 74 48 37 49 38 50 53 52 75 53 40 54 23 55
REMARK SMILES IDX 24 56 33 57 25 58 26 59 32 60 34 61 27 62 28 63 29 64 30 65
REMARK SMILES IDX 31 66 57 67 58 68 67 69 59 70 60 71 66 72 68 73 61 74 62 75
REMARK SMILES IDX 63 76 64 77 65 78 41 79 42 80 51 81 43 82 44 83 50 84 52 85
REMARK SMILES IDX 45 86 46 87 47 88 48 89 49 90
REMARK H PARENT 73 40 39 51
REMARK Flexibility Score: inf
ROOT
ATOM      1  C   UNL A   1      35.558  22.193  24.723  1.00  0.00     0.274 C 
ENDROOT
BRANCH   1   2
ATOM      2  O   UNL A   1      34.633  22.860  23.842  1.00  0.00    -0.461 OA
BRANCH   2   3
ATOM      3  C   UNL A   1      33.359  22.382  23.891  1.00  0.00     0.325 C 
ATOM      4  O   UNL A   1      33.067  21.189  23.819  1.00  0.00    -0.250 OA
BRANCH   3   5
ATOM      5  C   UNL A   1      32.281  23.446  24.035  1.00  0.00     0.241 C 
BRANCH   5   6
ATOM      6  N   UNL A   1      32.070  23.996  25.376  1.00  0.00    -0.333 N 
BRANCH   6   7
ATOM      7  C   UNL A   1      31.792  23.067  26.455  1.00  0.00     0.146 C 
BRANCH   7   8
ATOM      8  C   UNL A   1      30.376  22.576  26.350  1.00  0.00    -0.014 C 
ATOM      9  C   UNL A   1      29.441  22.756  27.293  1.00  0.00     0.006 C 
ENDBRANCH   7   8
ENDBRANCH   6   7
BRANCH   6  10
ATOM     10  C   UNL A   1      32.214  25.341  25.571  1.00  0.00     0.187 A 
ATOM     11  N   UNL A   1      31.691  25.991  26.590  1.00  0.00    -0.220 NA
ATOM     12  S   UNL A   1      33.058  26.362  24.454  1.00  0.00    -0.097 S 
ATOM     13  C   UNL A   1      31.979  27.351  26.515  1.00  0.00     0.084 A 
ATOM     14  C   UNL A   1      32.667  27.751  25.373  1.00  0.00     0.056 A 
ATOM     15  C   UNL A   1      31.645  28.341  27.463  1.00  0.00     0.030 A 
ATOM     16  C   UNL A   1      32.969  29.098  25.109  1.00  0.00     0.021 A 
ATOM     17  C   UNL A   1      31.949  29.685  27.223  1.00  0.00     0.002 A 
ATOM     18  C   UNL A   1      32.592  30.059  26.050  1.00  0.00     0.002 A 
ENDBRANCH   6  10
ENDBRANCH   5   6
ENDBRANCH   3   5
ENDBRANCH   2   3
ENDBRANCH   1   2
BRANCH   1  19
ATOM     19  C   UNL A   1      37.000  22.467  24.297  1.00  0.00     0.275 C 
BRANCH  19  20
ATOM     20  O   UNL A   1      37.548  23.534  25.087  1.00  0.00    -0.458 OA
BRANCH  20  21
ATOM     21  C   UNL A   1      38.628  23.193  25.832  1.00  0.00     0.338 C 
ATOM     22  O   UNL A   1      39.141  22.086  25.885  1.00  0.00    -0.246 OA
BRANCH  21  23
ATOM     23  C   UNL A   1      39.136  24.359  26.602  1.00  0.00     0.060 A 
ATOM     24  C   UNL A   1      40.036  25.281  26.060  1.00  0.00     0.016 A 
ATOM     25  C   UNL A   1      38.757  24.478  27.945  1.00  0.00     0.016 A 
ATOM     26  C   UNL A   1      40.579  26.293  26.857  1.00  0.00     0.010 A 
ATOM     27  C   UNL A   1      39.262  25.517  28.729  1.00  0.00     0.010 A 
ATOM     28  C   UNL A   1      40.178  26.434  28.192  1.00  0.00    -0.014 A 
BRANCH  28  29
ATOM     29  C   UNL A   1      40.617  27.588  29.017  1.00  0.00     0.031 A 
ATOM     30  C   UNL A   1      41.863  27.514  29.852  1.00  0.00     0.074 A 
ATOM     31  C   UNL A   1      39.823  28.674  29.083  1.00  0.00     0.049 A 
ATOM     32  N   UNL A   1      42.277  28.332  30.787  1.00  0.00    -0.248 NA
ATOM     33  C   UNL A   1      42.756  26.370  29.614  1.00  0.00     0.031 C 
ATOM     34  C   UNL A   1      38.592  28.868  28.314  1.00  0.00     0.029 A 
ATOM     35  N   UNL A   1      39.914  29.805  29.856  1.00  0.00    -0.354 N 
ATOM     36  C   UNL A   1      43.466  27.795  31.266  1.00  0.00     0.074 A 
ATOM     37  C   UNL A   1      43.702  26.573  30.523  1.00  0.00     0.031 C 
ATOM     38  C   UNL A   1      38.038  30.039  28.660  1.00  0.00     0.029 A 
ATOM     39  C   UNL A   1      38.839  30.648  29.716  1.00  0.00     0.049 A 
ATOM     40  H   UNL A   1      40.675  29.992  30.451  1.00  0.00     0.167 HD
ATOM     41  C   UNL A   1      44.279  28.280  32.237  1.00  0.00     0.037 A 
ATOM     42  C   UNL A   1      38.503  31.762  30.392  1.00  0.00     0.037 A 
ATOM     43  C   UNL A   1      44.041  29.503  32.964  1.00  0.00     0.049 A 
ATOM     44  C   UNL A   1      39.394  32.251  31.496  1.00  0.00     0.074 A 
ATOM     45  C   UNL A   1      44.822  30.087  33.947  1.00  0.00     0.029 A 
ATOM     46  N   UNL A   1      42.940  30.330  32.791  1.00  0.00    -0.354 N 
ATOM     47  N   UNL A   1      40.510  31.729  31.944  1.00  0.00    -0.248 NA
ATOM     48  C   UNL A   1      38.975  33.476  32.192  1.00  0.00     0.031 C 
ATOM     49  C   UNL A   1      44.178  31.247  34.392  1.00  0.00     0.029 A 
ATOM     50  C   UNL A   1      43.014  31.409  33.660  1.00  0.00     0.049 A 
ATOM     51  H   UNL A   1      42.213  30.174  32.146  1.00  0.00     0.167 HD
ATOM     52  C   UNL A   1      40.938  32.571  32.964  1.00  0.00     0.074 A 
ATOM     53  C   UNL A   1      39.965  33.642  33.059  1.00  0.00     0.031 C 
ATOM     54  C   UNL A   1      42.039  32.466  33.749  1.00  0.00     0.037 A 
BRANCH  41  55
ATOM     55  C   UNL A   1      45.503  27.481  32.588  1.00  0.00     0.058 A 
ATOM     56  C   UNL A   1      45.468  26.466  33.555  1.00  0.00     0.135 A 
ATOM     57  C   UNL A   1      46.711  27.691  31.902  1.00  0.00     0.135 A 
ATOM     58  F   UNL A   1      44.342  26.229  34.247  1.00  0.00    -0.206 F 
ATOM     59  C   UNL A   1      46.593  25.698  33.845  1.00  0.00     0.059 A 
ATOM     60  C   UNL A   1      47.843  26.923  32.162  1.00  0.00     0.059 A 
ATOM     61  F   UNL A   1      46.798  28.647  30.964  1.00  0.00    -0.206 F 
ATOM     62  C   UNL A   1      47.778  25.936  33.145  1.00  0.00     0.060 A 
BRANCH  62  63
ATOM     63  S   UNL A   1      49.228  24.931  33.526  1.00  0.00     0.124 S 
ATOM     64  O   UNL A   1      49.955  25.806  34.441  1.00  0.00    -0.237 OA
ATOM     65  O   UNL A   1      48.636  23.739  34.127  1.00  0.00    -0.237 OA
ATOM     66  O   UNL A   1      49.852  24.726  32.223  1.00  0.00    -0.744 OA
ENDBRANCH  62  63
ENDBRANCH  41  55
BRANCH  42  67
ATOM     67  C   UNL A   1      37.247  32.475  30.049  1.00  0.00     0.058 A 
ATOM     68  C   UNL A   1      36.031  32.108  30.640  1.00  0.00     0.135 A 
ATOM     69  C   UNL A   1      37.247  33.560  29.159  1.00  0.00     0.135 A 
ATOM     70  F   UNL A   1      35.984  31.072  31.492  1.00  0.00    -0.206 F 
ATOM     71  C   UNL A   1      34.853  32.791  30.359  1.00  0.00     0.059 A 
ATOM     72  C   UNL A   1      36.086  34.273  28.880  1.00  0.00     0.059 A 
ATOM     73  F   UNL A   1      38.391  33.957  28.581  1.00  0.00    -0.206 F 
ATOM     74  C   UNL A   1      34.891  33.876  29.480  1.00  0.00     0.060 A 
BRANCH  74  75
ATOM     75  S   UNL A   1      33.372  34.801  29.174  1.00  0.00     0.124 S 
ATOM     76  O   UNL A   1      32.779  34.837  30.507  1.00  0.00    -0.237 OA
ATOM     77  O   UNL A   1      33.879  36.072  28.667  1.00  0.00    -0.237 OA
ATOM     78  O   UNL A   1      32.672  33.979  28.192  1.00  0.00    -0.744 OA
ENDBRANCH  74  75
ENDBRANCH  42  67
BRANCH  54  79
ATOM     79  C   UNL A   1      42.261  33.555  34.758  1.00  0.00     0.058 A 
ATOM     80  C   UNL A   1      41.750  33.464  36.063  1.00  0.00     0.135 A 
ATOM     81  C   UNL A   1      43.008  34.694  34.423  1.00  0.00     0.135 A 
ATOM     82  F   UNL A   1      41.020  32.399  36.429  1.00  0.00    -0.206 F 
ATOM     83  C   UNL A   1      41.951  34.479  36.992  1.00  0.00     0.059 A 
ATOM     84  C   UNL A   1      43.240  35.712  35.343  1.00  0.00     0.059 A 
ATOM     85  F   UNL A   1      43.524  34.826  33.189  1.00  0.00    -0.206 F 
ATOM     86  C   UNL A   1      42.695  35.602  36.621  1.00  0.00     0.060 A 
BRANCH  86  87
ATOM     87  S   UNL A   1      42.965  36.908  37.839  1.00  0.00     0.124 S 
ATOM     88  O   UNL A   1      41.599  37.199  38.264  1.00  0.00    -0.237 OA
ATOM     89  O   UNL A   1      43.809  36.248  38.830  1.00  0.00    -0.237 OA
ATOM     90  O   UNL A   1      43.620  37.959  37.067  1.00  0.00    -0.744 OA
ENDBRANCH  86  87
ENDBRANCH  54  79
ENDBRANCH  28  29
ENDBRANCH  21  23
ENDBRANCH  20  21
ENDBRANCH  19  20
ENDBRANCH   1  19
TORSDOF 18
ENDMDL
MODEL 3
REMARK VINA RESULT:     -10.2      2.622      3.502
REMARK SMILES C=CCN(CC(=O)OCCOC(=O)c1ccc(-c2c3nc(c(-c4c(F)cc(S(=O)(=O)[O-])cc4F)c4ccc([nH]4)c(-c4c(F)cc(S(=O)(=O)[O-])cc4F)c4nc(c(-c5c(F)cc(S(=O)(=O)[O-])cc5F)c5ccc2[nH]5)C=C4)C=C3)cc1)c1nc2ccccc2s1
REMARK SMILES IDX 9 1 8 2 6 3 7 4 5 5 4 6 3 7 2 8 1 9 80 10 81 11 88 12 82 13
REMARK SMILES IDX 87 14 83 15 86 16 84 17 85 18 10 19 11 20 12 21 13 22 14 23
REMARK SMILES IDX 15 24 79 25 16 26 78 27 17 28 18 29 19 30 72 31 20 32 77 33
REMARK SMILES IDX 71 34 73 35 21 36 76 37 70 38 69 39 22 41 56 42 35 43 55 44
REMARK SMILES IDX 36 45 39 46 54 47 74 48 37 49 38 50 53 52 75 53 40 54 23 55
REMARK SMILES IDX 24 56 33 57 25 58 26 59 32 60 34 61 27 62 28 63 29 64 30 65
REMARK SMILES IDX 31 66 57 67 58 68 67 69 59 70 60 71 66 72 68 73 61 74 62 75
REMARK SMILES IDX 63 76 64 77 65 78 41 79 42 80 51 81 43 82 44 83 50 84 52 85
REMARK SMILES IDX 45 86 46 87 47 88 48 89 49 90
REMARK H PARENT 73 40 39 51
REMARK Flexibility Score: inf
ROOT
ATOM      1  C   UNL A   1      32.890  27.377  26.116  1.00  0.00     0.274 C 
ENDROOT
BRANCH   1   2
ATOM      2  O   UNL A   1      33.872  26.358  25.847  1.00  0.00    -0.461 OA
BRANCH   2   3
ATOM      3  C   UNL A   1      33.417  25.313  25.103  1.00  0.00     0.325 C 
ATOM      4  O   UNL A   1      33.220  25.364  23.890  1.00  0.00    -0.250 OA
BRANCH   3   5
ATOM      5  C   UNL A   1      33.148  24.037  25.887  1.00  0.00     0.241 C 
BRANCH   5   6
ATOM      6  N   UNL A   1      34.148  22.972  25.780  1.00  0.00    -0.333 N 
BRANCH   6   7
ATOM      7  C   UNL A   1      35.440  23.189  26.403  1.00  0.00     0.146 C 
BRANCH   7   8
ATOM      8  C   UNL A   1      36.485  23.406  25.345  1.00  0.00    -0.014 C 
ATOM      9  C   UNL A   1      37.584  22.654  25.201  1.00  0.00     0.006 C 
ENDBRANCH   7   8
ENDBRANCH   6   7
BRANCH   6  10
ATOM     10  C   UNL A   1      33.806  21.800  25.167  1.00  0.00     0.187 A 
ATOM     11  N   UNL A   1      34.483  20.679  25.304  1.00  0.00    -0.220 NA
ATOM     12  S   UNL A   1      32.462  21.672  24.079  1.00  0.00    -0.097 S 
ATOM     13  C   UNL A   1      33.917  19.659  24.544  1.00  0.00     0.084 A 
ATOM     14  C   UNL A   1      32.837  20.036  23.752  1.00  0.00     0.056 A 
ATOM     15  C   UNL A   1      34.329  18.310  24.497  1.00  0.00     0.030 A 
ATOM     16  C   UNL A   1      32.201  19.144  22.872  1.00  0.00     0.021 A 
ATOM     17  C   UNL A   1      33.699  17.405  23.636  1.00  0.00     0.002 A 
ATOM     18  C   UNL A   1      32.655  17.824  22.822  1.00  0.00     0.002 A 
ENDBRANCH   6  10
ENDBRANCH   5   6
ENDBRANCH   3   5
ENDBRANCH   2   3
ENDBRANCH   1   2
BRANCH   1  19
ATOM     19  C   UNL A   1      33.557  28.745  26.254  1.00  0.00     0.275 C 
BRANCH  19  20
ATOM     20  O   UNL A   1      33.567  29.147  27.633  1.00  0.00    -0.458 OA
BRANCH  20  21
ATOM     21  C   UNL A   1      34.264  30.281  27.889  1.00  0.00     0.338 C 
ATOM     22  O   UNL A   1      33.807  31.413  27.912  1.00  0.00    -0.246 OA
BRANCH  21  23
ATOM     23  C   UNL A   1      35.697  29.981  28.149  1.00  0.00     0.060 A 
ATOM     24  C   UNL A   1      36.670  30.047  27.147  1.00  0.00     0.016 A 
ATOM     25  C   UNL A   1      36.057  29.536  29.427  1.00  0.00     0.016 A 
ATOM     26  C   UNL A   1      37.983  29.642  27.407  1.00  0.00     0.010 A 
ATOM     27  C   UNL A   1      37.378  29.176  29.700  1.00  0.00     0.010 A 
ATOM     28  C   UNL A   1      38.353  29.226  28.693  1.00  0.00    -0.014 A 
BRANCH  28  29
ATOM     29  C   UNL A   1      39.769  28.939  29.038  1.00  0.00     0.031 A 
ATOM     30  C   UNL A   1      40.674  30.020  29.555  1.00  0.00     0.074 A 
ATOM     31  C   UNL A   1      40.259  27.710  28.785  1.00  0.00     0.049 A 
ATOM     32  N   UNL A   1      41.975  30.003  29.701  1.00  0.00    -0.248 NA
ATOM     33  C   UNL A   1      40.040  31.286  29.952  1.00  0.00     0.031 C 
ATOM     34  C   UNL A   1      39.477  26.575  28.290  1.00  0.00     0.029 A 
ATOM     35  N   UNL A   1      41.537  27.220  28.877  1.00  0.00    -0.354 N 
ATOM     36  C   UNL A   1      42.322  31.259  30.185  1.00  0.00     0.074 A 
ATOM     37  C   UNL A   1      41.092  32.017  30.300  1.00  0.00     0.031 C 
ATOM     38  C   UNL A   1      40.292  25.525  28.112  1.00  0.00     0.029 A 
ATOM     39  C   UNL A   1      41.659  25.929  28.421  1.00  0.00     0.049 A 
ATOM     40  H   UNL A   1      42.291  27.741  29.235  1.00  0.00     0.167 HD
ATOM     41  C   UNL A   1      43.554  31.730  30.501  1.00  0.00     0.037 A 
ATOM     42  C   UNL A   1      42.751  25.168  28.224  1.00  0.00     0.037 A 
ATOM     43  C   UNL A   1      44.772  30.964  30.394  1.00  0.00     0.049 A 
ATOM     44  C   UNL A   1      44.107  25.729  28.534  1.00  0.00     0.074 A 
ATOM     45  C   UNL A   1      46.063  31.349  30.715  1.00  0.00     0.029 A 
ATOM     46  N   UNL A   1      44.852  29.659  29.929  1.00  0.00    -0.354 N 
ATOM     47  N   UNL A   1      44.422  26.920  28.983  1.00  0.00    -0.248 NA
ATOM     48  C   UNL A   1      45.259  24.846  28.303  1.00  0.00     0.031 C 
ATOM     49  C   UNL A   1      46.927  30.290  30.413  1.00  0.00     0.029 A 
ATOM     50  C   UNL A   1      46.172  29.231  29.939  1.00  0.00     0.049 A 
ATOM     51  H   UNL A   1      44.086  29.116  29.634  1.00  0.00     0.167 HD
ATOM     52  C   UNL A   1      45.806  26.925  29.104  1.00  0.00     0.074 A 
ATOM     53  C   UNL A   1      46.267  25.614  28.692  1.00  0.00     0.031 C 
ATOM     54  C   UNL A   1      46.620  27.926  29.523  1.00  0.00     0.037 A 
BRANCH  41  55
ATOM     55  C   UNL A   1      43.657  33.150  30.981  1.00  0.00     0.058 A 
ATOM     56  C   UNL A   1      43.628  33.471  32.347  1.00  0.00     0.135 A 
ATOM     57  C   UNL A   1      43.851  34.198  30.066  1.00  0.00     0.135 A 
ATOM     58  F   UNL A   1      43.437  32.510  33.263  1.00  0.00    -0.206 F 
ATOM     59  C   UNL A   1      43.769  34.785  32.788  1.00  0.00     0.059 A 
ATOM     60  C   UNL A   1      44.014  35.516  30.486  1.00  0.00     0.059 A 
ATOM     61  F   UNL A   1      43.891  33.946  28.748  1.00  0.00    -0.206 F 
ATOM     62  C   UNL A   1      43.958  35.801  31.850  1.00  0.00     0.060 A 
BRANCH  62  63
ATOM     63  S   UNL A   1      44.145  37.498  32.436  1.00  0.00     0.124 S 
ATOM     64  O   UNL A   1      43.832  38.257  31.229  1.00  0.00    -0.237 OA
ATOM     65  O   UNL A   1      43.155  37.574  33.505  1.00  0.00    -0.237 OA
ATOM     66  O   UNL A   1      45.538  37.557  32.870  1.00  0.00    -0.744 OA
ENDBRANCH  62  63
ENDBRANCH  41  55
BRANCH  42  67
ATOM     67  C   UNL A   1      42.596  23.794  27.683  1.00  0.00     0.058 A 
ATOM     68  C   UNL A   1      42.665  23.556  26.303  1.00  0.00     0.135 A 
ATOM     69  C   UNL A   1      42.420  22.693  28.534  1.00  0.00     0.135 A 
ATOM     70  F   UNL A   1      42.826  24.580  25.453  1.00  0.00    -0.206 F 
ATOM     71  C   UNL A   1      42.561  22.271  25.784  1.00  0.00     0.059 A 
ATOM     72  C   UNL A   1      42.336  21.396  28.040  1.00  0.00     0.059 A 
ATOM     73  F   UNL A   1      42.365  22.872  29.863  1.00  0.00    -0.206 F 
ATOM     74  C   UNL A   1      42.401  21.195  26.661  1.00  0.00     0.060 A 
BRANCH  74  75
ATOM     75  S   UNL A   1      42.337  19.523  25.985  1.00  0.00     0.124 S 
ATOM     76  O   UNL A   1      43.213  19.644  24.824  1.00  0.00    -0.237 OA
ATOM     77  O   UNL A   1      42.850  18.720  27.091  1.00  0.00    -0.237 OA
ATOM     78  O   UNL A   1      40.920  19.336  25.691  1.00  0.00    -0.744 OA
ENDBRANCH  74  75
ENDBRANCH  42  67
BRANCH  54  79
ATOM     79  C   UNL A   1      48.090  27.628  29.580  1.00  0.00     0.058 A 
ATOM     80  C   UNL A   1      48.705  27.185  30.762  1.00  0.00     0.135 A 
ATOM     81  C   UNL A   1      48.890  27.768  28.436  1.00  0.00     0.135 A 
ATOM     82  F   UNL A   1      47.985  27.045  31.886  1.00  0.00    -0.206 F 
ATOM     83  C   UNL A   1      50.069  26.917  30.813  1.00  0.00     0.059 A 
ATOM     84  C   UNL A   1      50.253  27.486  28.459  1.00  0.00     0.059 A 
ATOM     85  F   UNL A   1      48.349  28.182  27.278  1.00  0.00    -0.206 F 
ATOM     86  C   UNL A   1      50.836  27.075  29.656  1.00  0.00     0.060 A 
BRANCH  86  87
ATOM     87  S   UNL A   1      52.603  26.710  29.727  1.00  0.00     0.124 S 
ATOM     88  O   UNL A   1      52.851  26.196  28.384  1.00  0.00    -0.237 OA
ATOM     89  O   UNL A   1      53.185  28.016  30.023  1.00  0.00    -0.237 OA
ATOM     90  O   UNL A   1      52.702  25.730  30.804  1.00  0.00    -0.744 OA
ENDBRANCH  86  87
ENDBRANCH  54  79
ENDBRANCH  28  29
ENDBRANCH  21  23
ENDBRANCH  20  21
ENDBRANCH  19  20
ENDBRANCH   1  19
TORSDOF 18
ENDMDL
