MODEL 1
REMARK VINA RESULT:     -10.8      0.000      0.000
REMARK SMILES O=C(OCCOC(=O)[C@@H]1CSc2ccccc21)c1ccc(-c2c3nc(c(-c4c(F)cc(S(=O)(=O)[O-])cc4F)c4ccc([nH]4)c(-c4c(F)cc(S(=O)(=O)[O-])cc4F)c4nc(c(-c5c(F)cc(S(=O)(=O)[O-])cc5F)c5ccc2[nH]5)C=C4)C=C3)cc1
REMARK SMILES IDX 3 1 2 2 1 3 18 4 19 5 83 6 20 7 82 8 21 9 22 10 23 11 76 12
REMARK SMILES IDX 24 13 81 14 75 15 77 16 25 17 80 18 74 19 73 20 26 22 60 23
REMARK SMILES IDX 39 24 59 25 40 26 43 27 58 28 78 29 41 30 42 31 57 33 79 34
REMARK SMILES IDX 44 35 27 36 28 37 37 38 29 39 30 40 36 41 38 42 31 43 32 44
REMARK SMILES IDX 33 45 34 46 35 47 61 48 62 49 71 50 63 51 64 52 70 53 72 54
REMARK SMILES IDX 65 55 66 56 67 57 68 58 69 59 45 60 46 61 55 62 47 63 48 64
REMARK SMILES IDX 54 65 56 66 49 67 50 68 51 69 52 70 53 71 4 72 5 73 6 74
REMARK SMILES IDX 7 75 8 76 9 77 10 78 17 79 11 80 12 81 16 82 13 83 15 84
REMARK SMILES IDX 14 85
REMARK H PARENT 77 21 43 32
REMARK Flexibility Score: inf
ROOT
ATOM      1  O   UNL A   1      44.195  25.116  25.305  1.00  0.00    -0.458 OA
ENDROOT
BRANCH   1   2
ATOM      2  C   UNL A   1      43.148  25.943  25.542  1.00  0.00     0.338 C 
ATOM      3  O   UNL A   1      42.375  26.223  24.629  1.00  0.00    -0.246 OA
BRANCH   2   4
ATOM      4  C   UNL A   1      42.987  26.691  26.818  1.00  0.00     0.060 A 
ATOM      5  C   UNL A   1      41.600  26.142  27.807  1.00  0.00     0.016 A 
ATOM      6  C   UNL A   1      43.945  28.096  27.240  1.00  0.00     0.016 A 
ATOM      7  C   UNL A   1      41.038  26.965  29.263  1.00  0.00     0.010 A 
ATOM      8  C   UNL A   1      43.474  29.056  28.671  1.00  0.00     0.010 A 
ATOM      9  C   UNL A   1      41.909  28.449  29.816  1.00  0.00    -0.014 A 
BRANCH   9  10
ATOM     10  C   UNL A   1      41.217  28.826  31.205  1.00  0.00     0.031 A 
ATOM     11  C   UNL A   1      40.040  29.754  31.244  1.00  0.00     0.074 A 
ATOM     12  C   UNL A   1      41.743  28.444  32.388  1.00  0.00     0.049 A 
ATOM     13  N   UNL A   1      39.818  30.798  31.997  1.00  0.00    -0.248 NA
ATOM     14  C   UNL A   1      39.008  29.504  30.240  1.00  0.00     0.031 C 
ATOM     15  C   UNL A   1      42.716  27.379  32.610  1.00  0.00     0.029 A 
ATOM     16  N   UNL A   1      41.741  29.145  33.574  1.00  0.00    -0.354 N 
ATOM     17  C   UNL A   1      38.683  31.403  31.463  1.00  0.00     0.074 A 
ATOM     18  C   UNL A   1      38.309  30.631  30.300  1.00  0.00     0.031 C 
ATOM     19  C   UNL A   1      43.414  27.653  33.723  1.00  0.00     0.029 A 
ATOM     20  C   UNL A   1      42.867  28.863  34.324  1.00  0.00     0.049 A 
ATOM     21  H   UNL A   1      41.030  29.766  33.852  1.00  0.00     0.167 HD
ATOM     22  C   UNL A   1      38.006  32.479  31.938  1.00  0.00     0.037 A 
ATOM     23  C   UNL A   1      43.421  29.538  35.346  1.00  0.00     0.037 A 
ATOM     24  C   UNL A   1      38.308  33.064  33.223  1.00  0.00     0.049 A 
ATOM     25  C   UNL A   1      42.669  30.712  35.905  1.00  0.00     0.074 A 
ATOM     26  C   UNL A   1      37.615  34.039  33.918  1.00  0.00     0.029 A 
ATOM     27  N   UNL A   1      39.352  32.655  34.043  1.00  0.00    -0.354 N 
ATOM     28  N   UNL A   1      41.655  31.362  35.386  1.00  0.00    -0.248 NA
ATOM     29  C   UNL A   1      43.070  31.173  37.237  1.00  0.00     0.031 C 
ATOM     30  C   UNL A   1      38.239  34.218  35.157  1.00  0.00     0.029 A 
ATOM     31  C   UNL A   1      39.297  33.327  35.250  1.00  0.00     0.049 A 
ATOM     32  H   UNL A   1      40.031  31.985  33.800  1.00  0.00     0.167 HD
ATOM     33  C   UNL A   1      41.225  32.236  36.377  1.00  0.00     0.074 A 
ATOM     34  C   UNL A   1      42.110  32.044  37.509  1.00  0.00     0.031 C 
ATOM     35  C   UNL A   1      40.176  33.096  36.368  1.00  0.00     0.037 A 
BRANCH  22  36
ATOM     36  C   UNL A   1      36.832  33.028  31.161  1.00  0.00     0.058 A 
ATOM     37  C   UNL A   1      35.506  32.832  31.581  1.00  0.00     0.135 A 
ATOM     38  C   UNL A   1      37.030  33.858  30.040  1.00  0.00     0.135 A 
ATOM     39  F   UNL A   1      35.238  32.068  32.652  1.00  0.00    -0.206 F 
ATOM     40  C   UNL A   1      34.429  33.400  30.908  1.00  0.00     0.059 A 
ATOM     41  C   UNL A   1      35.967  34.479  29.380  1.00  0.00     0.059 A 
ATOM     42  F   UNL A   1      38.271  34.104  29.588  1.00  0.00    -0.206 F 
ATOM     43  C   UNL A   1      34.669  34.235  29.819  1.00  0.00     0.060 A 
BRANCH  43  44
ATOM     44  S   UNL A   1      33.251  35.020  29.024  1.00  0.00     0.124 S 
ATOM     45  O   UNL A   1      33.862  36.208  28.438  1.00  0.00    -0.237 OA
ATOM     46  O   UNL A   1      32.825  33.996  28.075  1.00  0.00    -0.237 OA
ATOM     47  O   UNL A   1      32.331  35.269  30.129  1.00  0.00    -0.744 OA
ENDBRANCH  43  44
ENDBRANCH  22  36
BRANCH  23  48
ATOM     48  C   UNL A   1      44.619  28.990  36.028  1.00  0.00     0.058 A 
ATOM     49  C   UNL A   1      45.868  29.556  35.742  1.00  0.00     0.135 A 
ATOM     50  C   UNL A   1      44.565  27.965  36.985  1.00  0.00     0.135 A 
ATOM     51  F   UNL A   1      45.960  30.549  34.844  1.00  0.00    -0.206 F 
ATOM     52  C   UNL A   1      47.030  29.106  36.348  1.00  0.00     0.059 A 
ATOM     53  C   UNL A   1      45.718  27.507  37.624  1.00  0.00     0.059 A 
ATOM     54  F   UNL A   1      43.387  27.416  37.324  1.00  0.00    -0.206 F 
ATOM     55  C   UNL A   1      46.947  28.079  37.289  1.00  0.00     0.060 A 
BRANCH  55  56
ATOM     56  S   UNL A   1      48.480  27.533  38.068  1.00  0.00     0.124 S 
ATOM     57  O   UNL A   1      49.269  28.759  38.057  1.00  0.00    -0.237 OA
ATOM     58  O   UNL A   1      48.008  27.090  39.376  1.00  0.00    -0.237 OA
ATOM     59  O   UNL A   1      48.950  26.472  37.182  1.00  0.00    -0.744 OA
ENDBRANCH  55  56
ENDBRANCH  23  48
BRANCH  35  60
ATOM     60  C   UNL A   1      39.883  33.834  37.643  1.00  0.00     0.058 A 
ATOM     61  C   UNL A   1      38.957  33.352  38.579  1.00  0.00     0.135 A 
ATOM     62  C   UNL A   1      40.568  35.023  37.945  1.00  0.00     0.135 A 
ATOM     63  F   UNL A   1      38.275  32.222  38.335  1.00  0.00    -0.206 F 
ATOM     64  C   UNL A   1      38.683  34.048  39.748  1.00  0.00     0.059 A 
ATOM     65  C   UNL A   1      40.341  35.713  39.130  1.00  0.00     0.059 A 
ATOM     66  F   UNL A   1      41.476  35.520  37.090  1.00  0.00    -0.206 F 
ATOM     67  C   UNL A   1      39.383  35.226  40.016  1.00  0.00     0.060 A 
BRANCH  67  68
ATOM     68  S   UNL A   1      39.017  36.108  41.546  1.00  0.00     0.124 S 
ATOM     69  O   UNL A   1      37.756  35.491  41.945  1.00  0.00    -0.237 OA
ATOM     70  O   UNL A   1      40.174  35.778  42.373  1.00  0.00    -0.237 OA
ATOM     71  O   UNL A   1      38.928  37.502  41.125  1.00  0.00    -0.744 OA
ENDBRANCH  67  68
ENDBRANCH  35  60
ENDBRANCH   9  10
ENDBRANCH   2   4
ENDBRANCH   1   2
BRANCH   1  72
ATOM     72  C   UNL A   1      45.609  25.397  25.364  1.00  0.00     0.275 C 
BRANCH  72  73
ATOM     73  C   UNL A   1      46.531  24.203  25.048  1.00  0.00     0.274 C 
BRANCH  73  74
ATOM     74  O   UNL A   1      46.179  23.514  23.840  1.00  0.00    -0.462 OA
BRANCH  74  75
ATOM     75  C   UNL A   1      45.249  22.535  23.948  1.00  0.00     0.314 C 
ATOM     76  O   UNL A   1      44.462  22.242  23.054  1.00  0.00    -0.252 OA
BRANCH  75  77
ATOM     77  C   UNL A   1      45.308  21.782  25.274  1.00  0.00     0.140 C 
ATOM     78  C   UNL A   1      45.905  20.398  24.918  1.00  0.00     0.095 C 
ATOM     79  C   UNL A   1      43.942  21.597  26.117  1.00  0.00    -0.019 A 
ATOM     80  S   UNL A   1      44.593  19.229  24.454  1.00  0.00    -0.125 SA
ATOM     81  C   UNL A   1      43.470  19.932  25.613  1.00  0.00     0.011 A 
ATOM     82  C   UNL A   1      42.685  22.567  27.384  1.00  0.00     0.006 A 
ATOM     83  C   UNL A   1      41.983  19.230  26.219  1.00  0.00     0.015 A 
ATOM     84  C   UNL A   1      41.164  21.739  27.892  1.00  0.00     0.000 A 
ATOM     85  C   UNL A   1      40.873  20.095  27.310  1.00  0.00     0.001 A 
ENDBRANCH  75  77
ENDBRANCH  74  75
ENDBRANCH  73  74
ENDBRANCH  72  73
ENDBRANCH   1  72
TORSDOF 14
ENDMDL
MODEL 2
REMARK VINA RESULT:     -10.7      3.116      9.874
REMARK SMILES O=C(OCCOC(=O)[C@@H]1CSc2ccccc21)c1ccc(-c2c3nc(c(-c4c(F)cc(S(=O)(=O)[O-])cc4F)c4ccc([nH]4)c(-c4c(F)cc(S(=O)(=O)[O-])cc4F)c4nc(c(-c5c(F)cc(S(=O)(=O)[O-])cc5F)c5ccc2[nH]5)C=C4)C=C3)cc1
REMARK SMILES IDX 3 1 2 2 1 3 18 4 19 5 83 6 20 7 82 8 21 9 22 10 23 11 76 12
REMARK SMILES IDX 24 13 81 14 75 15 77 16 25 17 80 18 74 19 73 20 26 22 60 23
REMARK SMILES IDX 39 24 59 25 40 26 43 27 58 28 78 29 41 30 42 31 57 33 79 34
REMARK SMILES IDX 44 35 27 36 28 37 37 38 29 39 30 40 36 41 38 42 31 43 32 44
REMARK SMILES IDX 33 45 34 46 35 47 61 48 62 49 71 50 63 51 64 52 70 53 72 54
REMARK SMILES IDX 65 55 66 56 67 57 68 58 69 59 45 60 46 61 55 62 47 63 48 64
REMARK SMILES IDX 54 65 56 66 49 67 50 68 51 69 52 70 53 71 4 72 5 73 6 74
REMARK SMILES IDX 7 75 8 76 9 77 10 78 17 79 11 80 12 81 16 82 13 83 15 84
REMARK SMILES IDX 14 85
REMARK H PARENT 77 21 43 32
REMARK Flexibility Score: inf
ROOT
ATOM      1  O   UNL A   1      47.201  24.061  37.791  1.00  0.00    -0.458 OA
ENDROOT
BRANCH   1   2
ATOM      2  C   UNL A   1      46.565  25.152  38.281  1.00  0.00     0.338 C 
ATOM      3  O   UNL A   1      46.751  25.493  39.447  1.00  0.00    -0.246 OA
BRANCH   2   4
ATOM      4  C   UNL A   1      45.491  25.861  37.532  1.00  0.00     0.060 A 
ATOM      5  C   UNL A   1      46.056  27.325  36.674  1.00  0.00     0.016 A 
ATOM      6  C   UNL A   1      43.798  25.417  37.622  1.00  0.00     0.016 A 
ATOM      7  C   UNL A   1      44.985  28.477  35.874  1.00  0.00     0.010 A 
ATOM      8  C   UNL A   1      42.587  26.507  36.890  1.00  0.00     0.010 A 
ATOM      9  C   UNL A   1      43.203  28.173  35.900  1.00  0.00    -0.014 A 
BRANCH   9  10
ATOM     10  C   UNL A   1      42.586  29.324  34.983  1.00  0.00     0.031 A 
ATOM     11  C   UNL A   1      41.971  30.545  35.600  1.00  0.00     0.074 A 
ATOM     12  C   UNL A   1      42.468  29.181  33.645  1.00  0.00     0.049 A 
ATOM     13  N   UNL A   1      40.824  31.121  35.359  1.00  0.00    -0.248 NA
ATOM     14  C   UNL A   1      42.733  31.150  36.691  1.00  0.00     0.031 C 
ATOM     15  C   UNL A   1      43.176  28.223  32.803  1.00  0.00     0.029 A 
ATOM     16  N   UNL A   1      41.460  29.656  32.836  1.00  0.00    -0.354 N 
ATOM     17  C   UNL A   1      40.673  32.075  36.362  1.00  0.00     0.074 A 
ATOM     18  C   UNL A   1      41.823  31.952  37.229  1.00  0.00     0.031 C 
ATOM     19  C   UNL A   1      42.432  27.969  31.714  1.00  0.00     0.029 A 
ATOM     20  C   UNL A   1      41.248  28.818  31.757  1.00  0.00     0.049 A 
ATOM     21  H   UNL A   1      40.956  30.485  33.002  1.00  0.00     0.167 HD
ATOM     22  C   UNL A   1      39.680  32.989  36.505  1.00  0.00     0.037 A 
ATOM     23  C   UNL A   1      40.191  28.715  30.932  1.00  0.00     0.037 A 
ATOM     24  C   UNL A   1      38.684  33.199  35.482  1.00  0.00     0.049 A 
ATOM     25  C   UNL A   1      39.098  29.737  31.056  1.00  0.00     0.074 A 
ATOM     26  C   UNL A   1      37.721  34.189  35.397  1.00  0.00     0.029 A 
ATOM     27  N   UNL A   1      38.586  32.447  34.318  1.00  0.00    -0.354 N 
ATOM     28  N   UNL A   1      38.875  30.589  32.028  1.00  0.00    -0.248 NA
ATOM     29  C   UNL A   1      38.181  29.856  29.919  1.00  0.00     0.031 C 
ATOM     30  C   UNL A   1      37.044  34.036  34.183  1.00  0.00     0.029 A 
ATOM     31  C   UNL A   1      37.610  32.975  33.493  1.00  0.00     0.049 A 
ATOM     32  H   UNL A   1      39.132  31.654  34.112  1.00  0.00     0.167 HD
ATOM     33  C   UNL A   1      37.859  31.420  31.571  1.00  0.00     0.074 A 
ATOM     34  C   UNL A   1      37.501  30.945  30.249  1.00  0.00     0.031 C 
ATOM     35  C   UNL A   1      37.294  32.496  32.172  1.00  0.00     0.037 A 
BRANCH  22  36
ATOM     36  C   UNL A   1      39.663  33.893  37.716  1.00  0.00     0.058 A 
ATOM     37  C   UNL A   1      40.316  35.136  37.725  1.00  0.00     0.135 A 
ATOM     38  C   UNL A   1      38.892  33.570  38.850  1.00  0.00     0.135 A 
ATOM     39  F   UNL A   1      41.056  35.523  36.673  1.00  0.00    -0.206 F 
ATOM     40  C   UNL A   1      40.239  36.001  38.811  1.00  0.00     0.059 A 
ATOM     41  C   UNL A   1      38.759  34.445  39.930  1.00  0.00     0.059 A 
ATOM     42  F   UNL A   1      38.227  32.404  38.909  1.00  0.00    -0.206 F 
ATOM     43  C   UNL A   1      39.445  35.656  39.903  1.00  0.00     0.060 A 
BRANCH  43  44
ATOM     44  S   UNL A   1      39.303  36.841  41.257  1.00  0.00     0.124 S 
ATOM     45  O   UNL A   1      40.704  37.123  41.550  1.00  0.00    -0.237 OA
ATOM     46  O   UNL A   1      38.556  37.930  40.635  1.00  0.00    -0.237 OA
ATOM     47  O   UNL A   1      38.584  36.100  42.288  1.00  0.00    -0.744 OA
ENDBRANCH  43  44
ENDBRANCH  22  36
BRANCH  23  48
ATOM     48  C   UNL A   1      40.231  27.757  29.800  1.00  0.00     0.058 A 
ATOM     49  C   UNL A   1      41.145  27.985  28.763  1.00  0.00     0.135 A 
ATOM     50  C   UNL A   1      39.437  26.602  29.735  1.00  0.00     0.135 A 
ATOM     51  F   UNL A   1      41.934  29.070  28.797  1.00  0.00    -0.206 F 
ATOM     52  C   UNL A   1      41.250  27.127  27.680  1.00  0.00     0.059 A 
ATOM     53  C   UNL A   1      39.537  25.712  28.664  1.00  0.00     0.059 A 
ATOM     54  F   UNL A   1      38.574  26.316  30.723  1.00  0.00    -0.206 F 
ATOM     55  C   UNL A   1      40.441  25.992  27.637  1.00  0.00     0.060 A 
BRANCH  55  56
ATOM     56  S   UNL A   1      40.620  24.891  26.218  1.00  0.00     0.124 S 
ATOM     57  O   UNL A   1      41.567  23.907  26.727  1.00  0.00    -0.237 OA
ATOM     58  O   UNL A   1      39.250  24.422  26.031  1.00  0.00    -0.237 OA
ATOM     59  O   UNL A   1      41.126  25.771  25.169  1.00  0.00    -0.744 OA
ENDBRANCH  55  56
ENDBRANCH  23  48
BRANCH  35  60
ATOM     60  C   UNL A   1      36.289  33.278  31.375  1.00  0.00     0.058 A 
ATOM     61  C   UNL A   1      36.666  34.059  30.274  1.00  0.00     0.135 A 
ATOM     62  C   UNL A   1      34.924  33.212  31.701  1.00  0.00     0.135 A 
ATOM     63  F   UNL A   1      37.959  34.156  29.925  1.00  0.00    -0.206 F 
ATOM     64  C   UNL A   1      35.732  34.789  29.552  1.00  0.00     0.059 A 
ATOM     65  C   UNL A   1      33.965  33.900  30.965  1.00  0.00     0.059 A 
ATOM     66  F   UNL A   1      34.507  32.467  32.736  1.00  0.00    -0.206 F 
ATOM     67  C   UNL A   1      34.383  34.700  29.903  1.00  0.00     0.060 A 
BRANCH  67  68
ATOM     68  S   UNL A   1      33.186  35.648  28.945  1.00  0.00     0.124 S 
ATOM     69  O   UNL A   1      32.530  34.597  28.173  1.00  0.00    -0.237 OA
ATOM     70  O   UNL A   1      32.377  36.267  29.990  1.00  0.00    -0.237 OA
ATOM     71  O   UNL A   1      34.016  36.567  28.173  1.00  0.00    -0.744 OA
ENDBRANCH  67  68
ENDBRANCH  35  60
ENDBRANCH   9  10
ENDBRANCH   2   4
ENDBRANCH   1   2
BRANCH   1  72
ATOM     72  C   UNL A   1      47.517  22.817  38.450  1.00  0.00     0.275 C 
BRANCH  72  73
ATOM     73  C   UNL A   1      46.301  21.968  38.870  1.00  0.00     0.274 C 
BRANCH  73  74
ATOM     74  O   UNL A   1      45.668  21.296  37.772  1.00  0.00    -0.462 OA
BRANCH  74  75
ATOM     75  C   UNL A   1      46.442  20.454  37.047  1.00  0.00     0.314 C 
ATOM     76  O   UNL A   1      47.176  19.606  37.544  1.00  0.00    -0.252 OA
BRANCH  75  77
ATOM     77  C   UNL A   1      46.273  20.617  35.540  1.00  0.00     0.140 C 
ATOM     78  C   UNL A   1      47.703  20.477  34.963  1.00  0.00     0.095 C 
ATOM     79  C   UNL A   1      45.580  21.967  34.982  1.00  0.00    -0.019 A 
ATOM     80  S   UNL A   1      48.543  22.088  34.919  1.00  0.00    -0.125 SA
ATOM     81  C   UNL A   1      47.042  22.931  34.554  1.00  0.00     0.011 A 
ATOM     82  C   UNL A   1      43.775  22.854  34.700  1.00  0.00     0.006 A 
ATOM     83  C   UNL A   1      46.856  24.556  33.925  1.00  0.00     0.015 A 
ATOM     84  C   UNL A   1      43.735  24.552  34.087  1.00  0.00     0.000 A 
ATOM     85  C   UNL A   1      45.271  25.338  33.703  1.00  0.00     0.001 A 
ENDBRANCH  75  77
ENDBRANCH  74  75
ENDBRANCH  73  74
ENDBRANCH  72  73
ENDBRANCH   1  72
TORSDOF 14
ENDMDL
MODEL 3
REMARK VINA RESULT:     -10.5      1.237      2.023
REMARK SMILES O=C(OCCOC(=O)[C@@H]1CSc2ccccc21)c1ccc(-c2c3nc(c(-c4c(F)cc(S(=O)(=O)[O-])cc4F)c4ccc([nH]4)c(-c4c(F)cc(S(=O)(=O)[O-])cc4F)c4nc(c(-c5c(F)cc(S(=O)(=O)[O-])cc5F)c5ccc2[nH]5)C=C4)C=C3)cc1
REMARK SMILES IDX 3 1 2 2 1 3 18 4 19 5 83 6 20 7 82 8 21 9 22 10 23 11 76 12
REMARK SMILES IDX 24 13 81 14 75 15 77 16 25 17 80 18 74 19 73 20 26 22 60 23
REMARK SMILES IDX 39 24 59 25 40 26 43 27 58 28 78 29 41 30 42 31 57 33 79 34
REMARK SMILES IDX 44 35 27 36 28 37 37 38 29 39 30 40 36 41 38 42 31 43 32 44
REMARK SMILES IDX 33 45 34 46 35 47 61 48 62 49 71 50 63 51 64 52 70 53 72 54
REMARK SMILES IDX 65 55 66 56 67 57 68 58 69 59 45 60 46 61 55 62 47 63 48 64
REMARK SMILES IDX 54 65 56 66 49 67 50 68 51 69 52 70 53 71 4 72 5 73 6 74
REMARK SMILES IDX 7 75 8 76 9 77 10 78 17 79 11 80 12 81 16 82 13 83 15 84
REMARK SMILES IDX 14 85
REMARK H PARENT 77 21 43 32
REMARK Flexibility Score: inf
ROOT
ATOM      1  O   UNL A   1      44.539  27.355  25.638  1.00  0.00    -0.458 OA
ENDROOT
BRANCH   1   2
ATOM      2  C   UNL A   1      43.200  27.555  25.587  1.00  0.00     0.338 C 
ATOM      3  O   UNL A   1      42.671  27.872  24.524  1.00  0.00    -0.246 OA
BRANCH   2   4
ATOM      4  C   UNL A   1      42.346  27.595  26.805  1.00  0.00     0.060 A 
ATOM      5  C   UNL A   1      42.619  29.036  27.830  1.00  0.00     0.016 A 
ATOM      6  C   UNL A   1      41.301  26.277  27.295  1.00  0.00     0.016 A 
ATOM      7  C   UNL A   1      41.907  29.260  29.429  1.00  0.00     0.010 A 
ATOM      8  C   UNL A   1      40.537  26.343  28.909  1.00  0.00     0.010 A 
ATOM      9  C   UNL A   1      40.822  27.973  30.088  1.00  0.00    -0.014 A 
BRANCH   9  10
ATOM     10  C   UNL A   1      40.275  28.575  31.462  1.00  0.00     0.031 A 
ATOM     11  C   UNL A   1      39.231  29.651  31.463  1.00  0.00     0.074 A 
ATOM     12  C   UNL A   1      40.824  28.245  32.651  1.00  0.00     0.049 A 
ATOM     13  N   UNL A   1      39.193  30.785  32.110  1.00  0.00    -0.248 NA
ATOM     14  C   UNL A   1      38.113  29.442  30.545  1.00  0.00     0.031 C 
ATOM     15  C   UNL A   1      41.666  27.087  32.935  1.00  0.00     0.029 A 
ATOM     16  N   UNL A   1      40.988  29.055  33.754  1.00  0.00    -0.354 N 
ATOM     17  C   UNL A   1      38.113  31.480  31.573  1.00  0.00     0.074 A 
ATOM     18  C   UNL A   1      37.568  30.652  30.520  1.00  0.00     0.031 C 
ATOM     19  C   UNL A   1      42.464  27.375  33.975  1.00  0.00     0.029 A 
ATOM     20  C   UNL A   1      42.116  28.700  34.471  1.00  0.00     0.049 A 
ATOM     21  H   UNL A   1      40.381  29.789  34.000  1.00  0.00     0.167 HD
ATOM     22  C   UNL A   1      37.610  32.677  31.965  1.00  0.00     0.037 A 
ATOM     23  C   UNL A   1      42.816  29.394  35.386  1.00  0.00     0.037 A 
ATOM     24  C   UNL A   1      38.066  33.341  33.163  1.00  0.00     0.049 A 
ATOM     25  C   UNL A   1      42.258  30.707  35.853  1.00  0.00     0.074 A 
ATOM     26  C   UNL A   1      37.550  34.464  33.785  1.00  0.00     0.029 A 
ATOM     27  N   UNL A   1      39.101  32.880  33.968  1.00  0.00    -0.354 N 
ATOM     28  N   UNL A   1      41.303  31.432  35.321  1.00  0.00    -0.248 NA
ATOM     29  C   UNL A   1      42.800  31.240  37.107  1.00  0.00     0.031 C 
ATOM     30  C   UNL A   1      38.271  34.680  34.964  1.00  0.00     0.029 A 
ATOM     31  C   UNL A   1      39.211  33.670  35.097  1.00  0.00     0.049 A 
ATOM     32  H   UNL A   1      39.672  32.106  33.763  1.00  0.00     0.167 HD
ATOM     33  C   UNL A   1      41.053  32.449  36.234  1.00  0.00     0.074 A 
ATOM     34  C   UNL A   1      41.978  32.254  37.333  1.00  0.00     0.031 C 
ATOM     35  C   UNL A   1      40.124  33.436  36.186  1.00  0.00     0.037 A 
BRANCH  22  36
ATOM     36  C   UNL A   1      36.467  33.299  31.195  1.00  0.00     0.058 A 
ATOM     37  C   UNL A   1      35.173  33.394  31.734  1.00  0.00     0.135 A 
ATOM     38  C   UNL A   1      36.685  33.911  29.945  1.00  0.00     0.135 A 
ATOM     39  F   UNL A   1      34.893  32.850  32.928  1.00  0.00    -0.206 F 
ATOM     40  C   UNL A   1      34.139  34.031  31.057  1.00  0.00     0.059 A 
ATOM     41  C   UNL A   1      35.674  34.600  29.272  1.00  0.00     0.059 A 
ATOM     42  F   UNL A   1      37.900  33.874  29.374  1.00  0.00    -0.206 F 
ATOM     43  C   UNL A   1      34.402  34.646  29.834  1.00  0.00     0.060 A 
BRANCH  43  44
ATOM     44  S   UNL A   1      33.054  35.536  29.026  1.00  0.00     0.124 S 
ATOM     45  O   UNL A   1      33.777  36.593  28.327  1.00  0.00    -0.237 OA
ATOM     46  O   UNL A   1      32.471  34.502  28.177  1.00  0.00    -0.237 OA
ATOM     47  O   UNL A   1      32.218  35.977  30.138  1.00  0.00    -0.744 OA
ENDBRANCH  43  44
ENDBRANCH  22  36
BRANCH  23  48
ATOM     48  C   UNL A   1      43.977  28.761  36.059  1.00  0.00     0.058 A 
ATOM     49  C   UNL A   1      45.259  29.250  35.781  1.00  0.00     0.135 A 
ATOM     50  C   UNL A   1      43.856  27.728  37.002  1.00  0.00     0.135 A 
ATOM     51  F   UNL A   1      45.414  30.247  34.897  1.00  0.00    -0.206 F 
ATOM     52  C   UNL A   1      46.390  28.719  36.381  1.00  0.00     0.059 A 
ATOM     53  C   UNL A   1      44.977  27.189  37.634  1.00  0.00     0.059 A 
ATOM     54  F   UNL A   1      42.645  27.251  37.333  1.00  0.00    -0.206 F 
ATOM     55  C   UNL A   1      46.241  27.687  37.307  1.00  0.00     0.060 A 
BRANCH  55  56
ATOM     56  S   UNL A   1      47.735  27.033  38.079  1.00  0.00     0.124 S 
ATOM     57  O   UNL A   1      48.769  27.848  37.453  1.00  0.00    -0.237 OA
ATOM     58  O   UNL A   1      47.482  27.297  39.492  1.00  0.00    -0.237 OA
ATOM     59  O   UNL A   1      47.725  25.624  37.696  1.00  0.00    -0.744 OA
ENDBRANCH  55  56
ENDBRANCH  23  48
BRANCH  35  60
ATOM     60  C   UNL A   1      40.010  34.329  37.389  1.00  0.00     0.058 A 
ATOM     61  C   UNL A   1      40.770  35.501  37.514  1.00  0.00     0.135 A 
ATOM     62  C   UNL A   1      39.101  34.020  38.415  1.00  0.00     0.135 A 
ATOM     63  F   UNL A   1      41.655  35.837  36.562  1.00  0.00    -0.206 F 
ATOM     64  C   UNL A   1      40.668  36.311  38.636  1.00  0.00     0.059 A 
ATOM     65  C   UNL A   1      38.951  34.841  39.527  1.00  0.00     0.059 A 
ATOM     66  F   UNL A   1      38.339  32.917  38.338  1.00  0.00    -0.206 F 
ATOM     67  C   UNL A   1      39.753  35.974  39.635  1.00  0.00     0.060 A 
BRANCH  67  68
ATOM     68  S   UNL A   1      39.631  37.048  41.079  1.00  0.00     0.124 S 
ATOM     69  O   UNL A   1      38.870  38.173  40.543  1.00  0.00    -0.237 OA
ATOM     70  O   UNL A   1      38.923  36.200  42.033  1.00  0.00    -0.237 OA
ATOM     71  O   UNL A   1      41.023  37.334  41.412  1.00  0.00    -0.744 OA
ENDBRANCH  67  68
ENDBRANCH  35  60
ENDBRANCH   9  10
ENDBRANCH   2   4
ENDBRANCH   1   2
BRANCH   1  72
ATOM     72  C   UNL A   1      45.350  26.894  26.739  1.00  0.00     0.275 C 
BRANCH  72  73
ATOM     73  C   UNL A   1      46.749  26.376  26.353  1.00  0.00     0.274 C 
BRANCH  73  74
ATOM     74  O   UNL A   1      46.723  25.360  25.342  1.00  0.00    -0.462 OA
BRANCH  74  75
ATOM     75  C   UNL A   1      46.353  24.118  25.738  1.00  0.00     0.314 C 
ATOM     76  O   UNL A   1      46.552  23.675  26.864  1.00  0.00    -0.252 OA
BRANCH  75  77
ATOM     77  C   UNL A   1      45.609  23.333  24.662  1.00  0.00     0.140 C 
ATOM     78  C   UNL A   1      44.238  24.042  24.530  1.00  0.00     0.095 C 
ATOM     79  C   UNL A   1      45.393  21.746  24.876  1.00  0.00    -0.019 A 
ATOM     80  S   UNL A   1      43.034  23.344  25.699  1.00  0.00    -0.125 SA
ATOM     81  C   UNL A   1      43.714  21.729  25.532  1.00  0.00     0.011 A 
ATOM     82  C   UNL A   1      46.337  19.954  24.716  1.00  0.00     0.006 A 
ATOM     83  C   UNL A   1      42.978  20.208  25.995  1.00  0.00     0.015 A 
ATOM     84  C   UNL A   1      45.473  18.471  25.274  1.00  0.00     0.000 A 
ATOM     85  C   UNL A   1      43.820  18.643  25.876  1.00  0.00     0.001 A 
ENDBRANCH  75  77
ENDBRANCH  74  75
ENDBRANCH  73  74
ENDBRANCH  72  73
ENDBRANCH   1  72
TORSDOF 14
ENDMDL
