MODEL 1
REMARK VINA RESULT:     -11.7      0.000      0.000
REMARK SMILES CCC(CC)(NC(=O)Nc1cc(Cl)cc(Cl)c1)C(=O)OCCOC(=O)c1ccc(-c2c3nc(c(-c4c(F)cc(S(=O)(=O)[O-])cc4F)c4ccc([nH]4)c(-c4c(F)cc(S(=O)(=O)[O-])cc4F)c4nc(c(-c5c(F)cc(S(=O)(=O)[O-])cc5F)c5ccc2[nH]5)C=C4)C=C3)cc1
REMARK SMILES IDX 22 1 21 2 20 3 18 4 19 5 3 6 2 7 1 8 4 9 5 10 6 11 7 12 8 14
REMARK SMILES IDX 9 15 10 17 11 18 17 19 12 20 15 21 13 22 14 23 16 24 23 25
REMARK SMILES IDX 24 26 25 27 26 28 27 29 91 30 28 31 90 32 29 33 30 34 31 35
REMARK SMILES IDX 84 36 32 37 89 38 83 39 85 40 33 41 88 42 82 43 81 44 34 46
REMARK SMILES IDX 68 47 47 48 67 49 48 50 51 51 66 52 86 53 49 54 50 55 65 57
REMARK SMILES IDX 87 58 52 59 35 60 36 61 45 62 37 63 38 64 44 65 46 66 39 67
REMARK SMILES IDX 40 68 41 69 42 70 43 71 69 72 70 73 79 74 71 75 72 76 78 77
REMARK SMILES IDX 80 78 73 79 74 80 75 81 76 82 77 83 53 84 54 85 63 86 55 87
REMARK SMILES IDX 56 88 62 89 64 90 57 91 58 92 59 93 60 94 61 95
REMARK H PARENT 6 13 9 16 85 45 51 56
REMARK Flexibility Score: inf
ROOT
ATOM      1  C   UNL A   1      36.850  21.856  24.391  1.00  0.00     0.275 C 
ENDROOT
BRANCH   1   2
ATOM      2  C   UNL A   1      35.868  20.682  25.042  1.00  0.00     0.274 C 
BRANCH   2   3
ATOM      3  O   UNL A   1      34.432  21.036  25.270  1.00  0.00    -0.460 OA
BRANCH   3   4
ATOM      4  C   UNL A   1      33.953  21.920  26.267  1.00  0.00     0.332 C 
ATOM      5  O   UNL A   1      34.333  21.833  27.432  1.00  0.00    -0.249 OA
BRANCH   4   6
ATOM      6  C   UNL A   1      32.739  23.032  25.736  1.00  0.00     0.139 C 
BRANCH   6   7
ATOM      7  C   UNL A   1      31.815  23.227  24.437  1.00  0.00     0.037 C 
ATOM      8  C   UNL A   1      32.015  22.604  23.085  1.00  0.00     0.007 C 
ENDBRANCH   6   7
BRANCH   6   9
ATOM      9  C   UNL A   1      33.257  24.430  26.170  1.00  0.00     0.037 C 
ATOM     10  C   UNL A   1      34.335  25.117  25.324  1.00  0.00     0.007 C 
ENDBRANCH   6   9
BRANCH   6  11
ATOM     11  N   UNL A   1      31.743  22.440  26.550  1.00  0.00    -0.322 N 
ATOM     12  C   UNL A   1      30.691  23.205  26.896  1.00  0.00     0.320 C 
ATOM     13  H   UNL A   1      31.817  21.505  26.850  1.00  0.00     0.166 HD
ATOM     14  O   UNL A   1      29.822  22.634  27.560  1.00  0.00    -0.248 OA
ATOM     15  N   UNL A   1      30.533  24.541  26.524  1.00  0.00    -0.308 N 
ATOM     16  H   UNL A   1      29.768  24.817  27.078  1.00  0.00     0.171 HD
BRANCH  15  17
ATOM     17  C   UNL A   1      30.834  25.762  25.798  1.00  0.00     0.045 A 
ATOM     18  C   UNL A   1      30.640  26.126  24.467  1.00  0.00     0.046 A 
ATOM     19  C   UNL A   1      31.316  26.815  26.613  1.00  0.00     0.046 A 
ATOM     20  C   UNL A   1      30.886  27.439  23.997  1.00  0.00     0.044 A 
ATOM     21  C   UNL A   1      31.612  28.101  26.143  1.00  0.00     0.044 A 
ATOM     22  Cl  UNL A   1      30.522  27.837  22.358  1.00  0.00    -0.084 Cl
ATOM     23  C   UNL A   1      31.396  28.425  24.824  1.00  0.00     0.041 A 
ATOM     24  Cl  UNL A   1      32.224  29.280  27.236  1.00  0.00    -0.084 Cl
ENDBRANCH  15  17
ENDBRANCH   6  11
ENDBRANCH   4   6
ENDBRANCH   3   4
ENDBRANCH   2   3
ENDBRANCH   1   2
BRANCH   1  25
ATOM     25  O   UNL A   1      37.459  22.889  25.321  1.00  0.00    -0.458 OA
BRANCH  25  26
ATOM     26  C   UNL A   1      38.735  22.813  25.888  1.00  0.00     0.338 C 
ATOM     27  O   UNL A   1      39.456  21.840  25.809  1.00  0.00    -0.246 OA
BRANCH  26  28
ATOM     28  C   UNL A   1      39.120  24.121  26.670  1.00  0.00     0.060 A 
ATOM     29  C   UNL A   1      38.590  24.454  27.937  1.00  0.00     0.016 A 
ATOM     30  C   UNL A   1      40.012  25.065  26.163  1.00  0.00     0.016 A 
ATOM     31  C   UNL A   1      39.073  25.482  28.769  1.00  0.00     0.010 A 
ATOM     32  C   UNL A   1      40.425  26.192  26.950  1.00  0.00     0.010 A 
ATOM     33  C   UNL A   1      39.999  26.387  28.284  1.00  0.00    -0.014 A 
BRANCH  33  34
ATOM     34  C   UNL A   1      40.319  27.618  29.085  1.00  0.00     0.031 A 
ATOM     35  C   UNL A   1      41.572  27.619  29.926  1.00  0.00     0.074 A 
ATOM     36  C   UNL A   1      39.603  28.764  29.033  1.00  0.00     0.049 A 
ATOM     37  N   UNL A   1      41.936  28.432  30.883  1.00  0.00    -0.248 NA
ATOM     38  C   UNL A   1      42.555  26.565  29.627  1.00  0.00     0.031 C 
ATOM     39  C   UNL A   1      38.484  29.037  28.132  1.00  0.00     0.029 A 
ATOM     40  N   UNL A   1      39.704  29.922  29.784  1.00  0.00    -0.354 N 
ATOM     41  C   UNL A   1      43.150  27.944  31.355  1.00  0.00     0.074 A 
ATOM     42  C   UNL A   1      43.485  26.794  30.543  1.00  0.00     0.031 C 
ATOM     43  C   UNL A   1      37.969  30.248  28.423  1.00  0.00     0.029 A 
ATOM     44  C   UNL A   1      38.671  30.814  29.577  1.00  0.00     0.049 A 
ATOM     45  H   UNL A   1      40.446  30.094  30.409  1.00  0.00     0.167 HD
ATOM     46  C   UNL A   1      43.899  28.394  32.388  1.00  0.00     0.037 A 
ATOM     47  C   UNL A   1      38.283  31.906  30.277  1.00  0.00     0.037 A 
ATOM     48  C   UNL A   1      43.596  29.568  33.166  1.00  0.00     0.049 A 
ATOM     49  C   UNL A   1      39.058  32.322  31.514  1.00  0.00     0.074 A 
ATOM     50  C   UNL A   1      44.307  30.097  34.231  1.00  0.00     0.029 A 
ATOM     51  N   UNL A   1      42.500  30.390  32.970  1.00  0.00    -0.354 N 
ATOM     52  N   UNL A   1      40.163  31.815  32.006  1.00  0.00    -0.248 NA
ATOM     53  C   UNL A   1      38.517  33.441  32.306  1.00  0.00     0.031 C 
ATOM     54  C   UNL A   1      43.604  31.201  34.720  1.00  0.00     0.029 A 
ATOM     55  C   UNL A   1      42.490  31.398  33.921  1.00  0.00     0.049 A 
ATOM     56  H   UNL A   1      41.829  30.277  32.259  1.00  0.00     0.167 HD
ATOM     57  C   UNL A   1      40.452  32.560  33.149  1.00  0.00     0.074 A 
ATOM     58  C   UNL A   1      39.423  33.568  33.266  1.00  0.00     0.031 C 
ATOM     59  C   UNL A   1      41.475  32.414  34.027  1.00  0.00     0.037 A 
BRANCH  46  60
ATOM     60  C   UNL A   1      45.083  27.572  32.815  1.00  0.00     0.058 A 
ATOM     61  C   UNL A   1      44.975  26.496  33.705  1.00  0.00     0.135 A 
ATOM     62  C   UNL A   1      46.340  27.827  32.238  1.00  0.00     0.135 A 
ATOM     63  F   UNL A   1      43.803  26.224  34.300  1.00  0.00    -0.206 F 
ATOM     64  C   UNL A   1      46.073  25.696  34.008  1.00  0.00     0.059 A 
ATOM     65  C   UNL A   1      47.444  27.027  32.507  1.00  0.00     0.059 A 
ATOM     66  F   UNL A   1      46.495  28.851  31.385  1.00  0.00    -0.206 F 
ATOM     67  C   UNL A   1      47.301  25.964  33.396  1.00  0.00     0.060 A 
BRANCH  67  68
ATOM     68  S   UNL A   1      48.704  24.886  33.759  1.00  0.00     0.124 S 
ATOM     69  O   UNL A   1      49.358  24.812  32.456  1.00  0.00    -0.237 OA
ATOM     70  O   UNL A   1      49.416  25.640  34.785  1.00  0.00    -0.237 OA
ATOM     71  O   UNL A   1      48.075  23.650  34.215  1.00  0.00    -0.744 OA
ENDBRANCH  67  68
ENDBRANCH  46  60
BRANCH  47  72
ATOM     72  C   UNL A   1      37.019  32.630  29.931  1.00  0.00     0.058 A 
ATOM     73  C   UNL A   1      37.008  33.734  29.063  1.00  0.00     0.135 A 
ATOM     74  C   UNL A   1      35.802  32.285  30.543  1.00  0.00     0.135 A 
ATOM     75  F   UNL A   1      38.146  34.136  28.475  1.00  0.00    -0.206 F 
ATOM     76  C   UNL A   1      35.851  34.478  28.831  1.00  0.00     0.059 A 
ATOM     77  C   UNL A   1      34.625  32.989  30.302  1.00  0.00     0.059 A 
ATOM     78  F   UNL A   1      35.748  31.249  31.397  1.00  0.00    -0.206 F 
ATOM     79  C   UNL A   1      34.662  34.095  29.456  1.00  0.00     0.060 A 
BRANCH  79  80
ATOM     80  S   UNL A   1      33.159  35.046  29.136  1.00  0.00     0.124 S 
ATOM     81  O   UNL A   1      32.504  34.231  28.120  1.00  0.00    -0.237 OA
ATOM     82  O   UNL A   1      32.523  35.063  30.450  1.00  0.00    -0.237 OA
ATOM     83  O   UNL A   1      33.670  36.335  28.680  1.00  0.00    -0.744 OA
ENDBRANCH  79  80
ENDBRANCH  47  72
BRANCH  59  84
ATOM     84  C   UNL A   1      41.570  33.375  35.184  1.00  0.00     0.058 A 
ATOM     85  C   UNL A   1      42.139  34.650  35.040  1.00  0.00     0.135 A 
ATOM     86  C   UNL A   1      41.002  33.052  36.429  1.00  0.00     0.135 A 
ATOM     87  F   UNL A   1      42.701  35.011  33.875  1.00  0.00    -0.206 F 
ATOM     88  C   UNL A   1      42.149  35.567  36.088  1.00  0.00     0.059 A 
ATOM     89  C   UNL A   1      40.976  33.962  37.481  1.00  0.00     0.059 A 
ATOM     90  F   UNL A   1      40.435  31.849  36.620  1.00  0.00    -0.206 F 
ATOM     91  C   UNL A   1      41.557  35.216  37.303  1.00  0.00     0.060 A 
BRANCH  91  92
ATOM     92  S   UNL A   1      41.524  36.437  38.634  1.00  0.00     0.124 S 
ATOM     93  O   UNL A   1      40.331  37.207  38.300  1.00  0.00    -0.237 OA
ATOM     94  O   UNL A   1      41.425  35.599  39.824  1.00  0.00    -0.237 OA
ATOM     95  O   UNL A   1      42.791  37.146  38.478  1.00  0.00    -0.744 OA
ENDBRANCH  91  92
ENDBRANCH  59  84
ENDBRANCH  33  34
ENDBRANCH  26  28
ENDBRANCH  25  26
ENDBRANCH   1  25
TORSDOF 18
ENDMDL
MODEL 2
REMARK VINA RESULT:     -11.6      4.309     10.129
REMARK SMILES CCC(CC)(NC(=O)Nc1cc(Cl)cc(Cl)c1)C(=O)OCCOC(=O)c1ccc(-c2c3nc(c(-c4c(F)cc(S(=O)(=O)[O-])cc4F)c4ccc([nH]4)c(-c4c(F)cc(S(=O)(=O)[O-])cc4F)c4nc(c(-c5c(F)cc(S(=O)(=O)[O-])cc5F)c5ccc2[nH]5)C=C4)C=C3)cc1
REMARK SMILES IDX 22 1 21 2 20 3 18 4 19 5 3 6 2 7 1 8 4 9 5 10 6 11 7 12 8 14
REMARK SMILES IDX 9 15 10 17 11 18 17 19 12 20 15 21 13 22 14 23 16 24 23 25
REMARK SMILES IDX 24 26 25 27 26 28 27 29 91 30 28 31 90 32 29 33 30 34 31 35
REMARK SMILES IDX 84 36 32 37 89 38 83 39 85 40 33 41 88 42 82 43 81 44 34 46
REMARK SMILES IDX 68 47 47 48 67 49 48 50 51 51 66 52 86 53 49 54 50 55 65 57
REMARK SMILES IDX 87 58 52 59 35 60 36 61 45 62 37 63 38 64 44 65 46 66 39 67
REMARK SMILES IDX 40 68 41 69 42 70 43 71 69 72 70 73 79 74 71 75 72 76 78 77
REMARK SMILES IDX 80 78 73 79 74 80 75 81 76 82 77 83 53 84 54 85 63 86 55 87
REMARK SMILES IDX 56 88 62 89 64 90 57 91 58 92 59 93 60 94 61 95
REMARK H PARENT 6 13 9 16 85 45 51 56
REMARK Flexibility Score: inf
ROOT
ATOM      1  C   UNL A   1      32.142  29.387  27.167  1.00  0.00     0.275 C 
ENDROOT
BRANCH   1   2
ATOM      2  C   UNL A   1      31.484  28.305  26.090  1.00  0.00     0.274 C 
BRANCH   2   3
ATOM      3  O   UNL A   1      31.334  26.886  26.544  1.00  0.00    -0.460 OA
BRANCH   3   4
ATOM      4  C   UNL A   1      32.027  25.775  26.004  1.00  0.00     0.332 C 
ATOM      5  O   UNL A   1      33.221  25.598  26.230  1.00  0.00    -0.249 OA
BRANCH   4   6
ATOM      6  C   UNL A   1      31.094  24.781  24.939  1.00  0.00     0.139 C 
BRANCH   6   7
ATOM      7  C   UNL A   1      31.208  23.308  24.310  1.00  0.00     0.037 C 
ATOM      8  C   UNL A   1      31.710  22.947  22.940  1.00  0.00     0.007 C 
ENDBRANCH   6   7
BRANCH   6   9
ATOM      9  C   UNL A   1      30.598  25.741  23.825  1.00  0.00     0.037 C 
ATOM     10  C   UNL A   1      29.174  26.299  23.907  1.00  0.00     0.007 C 
ENDBRANCH   6   9
BRANCH   6  11
ATOM     11  N   UNL A   1      30.165  24.446  25.954  1.00  0.00    -0.322 N 
ATOM     12  C   UNL A   1      30.477  23.417  26.764  1.00  0.00     0.320 C 
ATOM     13  H   UNL A   1      29.324  24.947  26.064  1.00  0.00     0.166 HD
ATOM     14  O   UNL A   1      29.666  23.194  27.667  1.00  0.00    -0.248 OA
ATOM     15  N   UNL A   1      31.638  22.652  26.652  1.00  0.00    -0.308 N 
ATOM     16  H   UNL A   1      31.454  21.910  27.274  1.00  0.00     0.171 HD
BRANCH  15  17
ATOM     17  C   UNL A   1      32.959  22.307  26.159  1.00  0.00     0.045 A 
ATOM     18  C   UNL A   1      34.176  22.987  26.201  1.00  0.00     0.046 A 
ATOM     19  C   UNL A   1      33.056  20.996  25.632  1.00  0.00     0.046 A 
ATOM     20  C   UNL A   1      35.389  22.396  25.772  1.00  0.00     0.044 A 
ATOM     21  C   UNL A   1      34.244  20.425  25.157  1.00  0.00     0.044 A 
ATOM     22  Cl  UNL A   1      36.868  23.265  25.953  1.00  0.00    -0.084 Cl
ATOM     23  C   UNL A   1      35.426  21.124  25.226  1.00  0.00     0.041 A 
ATOM     24  Cl  UNL A   1      34.216  18.830  24.511  1.00  0.00    -0.084 Cl
ENDBRANCH  15  17
ENDBRANCH   6  11
ENDBRANCH   4   6
ENDBRANCH   3   4
ENDBRANCH   2   3
ENDBRANCH   1   2
BRANCH   1  25
ATOM     25  O   UNL A   1      33.636  29.645  27.113  1.00  0.00    -0.458 OA
BRANCH  25  26
ATOM     26  C   UNL A   1      34.337  30.514  27.956  1.00  0.00     0.338 C 
ATOM     27  O   UNL A   1      33.873  31.540  28.411  1.00  0.00    -0.246 OA
BRANCH  26  28
ATOM     28  C   UNL A   1      35.808  30.030  28.223  1.00  0.00     0.060 A 
ATOM     29  C   UNL A   1      36.785  29.916  27.210  1.00  0.00     0.016 A 
ATOM     30  C   UNL A   1      36.260  29.663  29.491  1.00  0.00     0.016 A 
ATOM     31  C   UNL A   1      38.161  29.714  27.433  1.00  0.00     0.010 A 
ATOM     32  C   UNL A   1      37.638  29.332  29.718  1.00  0.00     0.010 A 
ATOM     33  C   UNL A   1      38.617  29.402  28.701  1.00  0.00    -0.014 A 
BRANCH  33  34
ATOM     34  C   UNL A   1      40.037  28.945  28.883  1.00  0.00     0.031 A 
ATOM     35  C   UNL A   1      41.062  29.956  29.338  1.00  0.00     0.074 A 
ATOM     36  C   UNL A   1      40.443  27.662  28.753  1.00  0.00     0.049 A 
ATOM     37  N   UNL A   1      42.367  29.886  29.326  1.00  0.00    -0.248 NA
ATOM     38  C   UNL A   1      40.532  31.208  29.901  1.00  0.00     0.031 C 
ATOM     39  C   UNL A   1      39.578  26.507  28.523  1.00  0.00     0.029 A 
ATOM     40  N   UNL A   1      41.715  27.115  28.777  1.00  0.00    -0.354 N 
ATOM     41  C   UNL A   1      42.817  31.113  29.804  1.00  0.00     0.074 A 
ATOM     42  C   UNL A   1      41.644  31.887  30.145  1.00  0.00     0.031 C 
ATOM     43  C   UNL A   1      40.341  25.407  28.368  1.00  0.00     0.029 A 
ATOM     44  C   UNL A   1      41.756  25.784  28.415  1.00  0.00     0.049 A 
ATOM     45  H   UNL A   1      42.517  27.629  29.029  1.00  0.00     0.167 HD
ATOM     46  C   UNL A   1      44.089  31.561  29.918  1.00  0.00     0.037 A 
ATOM     47  C   UNL A   1      42.796  24.983  28.080  1.00  0.00     0.037 A 
ATOM     48  C   UNL A   1      45.261  30.776  29.628  1.00  0.00     0.049 A 
ATOM     49  C   UNL A   1      44.207  25.540  28.085  1.00  0.00     0.074 A 
ATOM     50  C   UNL A   1      46.590  31.155  29.721  1.00  0.00     0.029 A 
ATOM     51  N   UNL A   1      45.250  29.463  29.191  1.00  0.00    -0.354 N 
ATOM     52  N   UNL A   1      44.626  26.724  28.463  1.00  0.00    -0.248 NA
ATOM     53  C   UNL A   1      45.283  24.662  27.591  1.00  0.00     0.031 C 
ATOM     54  C   UNL A   1      47.380  30.092  29.276  1.00  0.00     0.029 A 
ATOM     55  C   UNL A   1      46.546  29.030  28.966  1.00  0.00     0.049 A 
ATOM     56  H   UNL A   1      44.441  28.918  29.060  1.00  0.00     0.167 HD
ATOM     57  C   UNL A   1      46.007  26.723  28.267  1.00  0.00     0.074 A 
ATOM     58  C   UNL A   1      46.360  25.417  27.759  1.00  0.00     0.031 C 
ATOM     59  C   UNL A   1      46.900  27.721  28.479  1.00  0.00     0.037 A 
BRANCH  46  60
ATOM     60  C   UNL A   1      44.300  33.003  30.289  1.00  0.00     0.058 A 
ATOM     61  C   UNL A   1      44.268  34.039  29.347  1.00  0.00     0.135 A 
ATOM     62  C   UNL A   1      44.450  33.349  31.644  1.00  0.00     0.135 A 
ATOM     63  F   UNL A   1      44.150  33.762  28.039  1.00  0.00    -0.206 F 
ATOM     64  C   UNL A   1      44.374  35.372  29.735  1.00  0.00     0.059 A 
ATOM     65  C   UNL A   1      44.532  34.673  32.056  1.00  0.00     0.059 A 
ATOM     66  F   UNL A   1      44.493  32.391  32.583  1.00  0.00    -0.206 F 
ATOM     67  C   UNL A   1      44.496  35.678  31.093  1.00  0.00     0.060 A 
BRANCH  67  68
ATOM     68  S   UNL A   1      44.579  37.414  31.585  1.00  0.00     0.124 S 
ATOM     69  O   UNL A   1      46.005  37.572  31.855  1.00  0.00    -0.237 OA
ATOM     70  O   UNL A   1      44.079  38.096  30.397  1.00  0.00    -0.237 OA
ATOM     71  O   UNL A   1      43.710  37.479  32.755  1.00  0.00    -0.744 OA
ENDBRANCH  67  68
ENDBRANCH  46  60
BRANCH  47  72
ATOM     72  C   UNL A   1      42.562  23.594  27.570  1.00  0.00     0.058 A 
ATOM     73  C   UNL A   1      42.526  22.483  28.429  1.00  0.00     0.135 A 
ATOM     74  C   UNL A   1      42.462  23.342  26.191  1.00  0.00     0.135 A 
ATOM     75  F   UNL A   1      42.652  22.656  29.754  1.00  0.00    -0.206 F 
ATOM     76  C   UNL A   1      42.424  21.180  27.942  1.00  0.00     0.059 A 
ATOM     77  C   UNL A   1      42.323  22.054  25.682  1.00  0.00     0.059 A 
ATOM     78  F   UNL A   1      42.505  24.360  25.317  1.00  0.00    -0.206 F 
ATOM     79  C   UNL A   1      42.321  20.976  26.565  1.00  0.00     0.060 A 
BRANCH  79  80
ATOM     80  S   UNL A   1      42.165  19.288  25.938  1.00  0.00     0.124 S 
ATOM     81  O   UNL A   1      43.039  19.325  24.771  1.00  0.00    -0.237 OA
ATOM     82  O   UNL A   1      42.640  18.497  27.069  1.00  0.00    -0.237 OA
ATOM     83  O   UNL A   1      40.738  19.166  25.655  1.00  0.00    -0.744 OA
ENDBRANCH  79  80
ENDBRANCH  47  72
BRANCH  59  84
ATOM     84  C   UNL A   1      48.356  27.452  28.199  1.00  0.00     0.058 A 
ATOM     85  C   UNL A   1      49.194  26.860  29.156  1.00  0.00     0.135 A 
ATOM     86  C   UNL A   1      48.898  27.706  26.927  1.00  0.00     0.135 A 
ATOM     87  F   UNL A   1      48.733  26.599  30.390  1.00  0.00    -0.206 F 
ATOM     88  C   UNL A   1      50.518  26.535  28.866  1.00  0.00     0.059 A 
ATOM     89  C   UNL A   1      50.208  27.365  26.607  1.00  0.00     0.059 A 
ATOM     90  F   UNL A   1      48.138  28.263  25.969  1.00  0.00    -0.206 F 
ATOM     91  C   UNL A   1      51.013  26.784  27.585  1.00  0.00     0.060 A 
BRANCH  91  92
ATOM     92  S   UNL A   1      52.713  26.303  27.205  1.00  0.00     0.124 S 
ATOM     93  O   UNL A   1      52.523  24.972  26.638  1.00  0.00    -0.237 OA
ATOM     94  O   UNL A   1      53.127  27.339  26.265  1.00  0.00    -0.237 OA
ATOM     95  O   UNL A   1      53.376  26.342  28.505  1.00  0.00    -0.744 OA
ENDBRANCH  91  92
ENDBRANCH  59  84
ENDBRANCH  33  34
ENDBRANCH  26  28
ENDBRANCH  25  26
ENDBRANCH   1  25
TORSDOF 18
ENDMDL
MODEL 3
REMARK VINA RESULT:     -11.3      4.418     10.020
REMARK SMILES CCC(CC)(NC(=O)Nc1cc(Cl)cc(Cl)c1)C(=O)OCCOC(=O)c1ccc(-c2c3nc(c(-c4c(F)cc(S(=O)(=O)[O-])cc4F)c4ccc([nH]4)c(-c4c(F)cc(S(=O)(=O)[O-])cc4F)c4nc(c(-c5c(F)cc(S(=O)(=O)[O-])cc5F)c5ccc2[nH]5)C=C4)C=C3)cc1
REMARK SMILES IDX 22 1 21 2 20 3 18 4 19 5 3 6 2 7 1 8 4 9 5 10 6 11 7 12 8 14
REMARK SMILES IDX 9 15 10 17 11 18 17 19 12 20 15 21 13 22 14 23 16 24 23 25
REMARK SMILES IDX 24 26 25 27 26 28 27 29 91 30 28 31 90 32 29 33 30 34 31 35
REMARK SMILES IDX 84 36 32 37 89 38 83 39 85 40 33 41 88 42 82 43 81 44 34 46
REMARK SMILES IDX 68 47 47 48 67 49 48 50 51 51 66 52 86 53 49 54 50 55 65 57
REMARK SMILES IDX 87 58 52 59 35 60 36 61 45 62 37 63 38 64 44 65 46 66 39 67
REMARK SMILES IDX 40 68 41 69 42 70 43 71 69 72 70 73 79 74 71 75 72 76 78 77
REMARK SMILES IDX 80 78 73 79 74 80 75 81 76 82 77 83 53 84 54 85 63 86 55 87
REMARK SMILES IDX 56 88 62 89 64 90 57 91 58 92 59 93 60 94 61 95
REMARK H PARENT 6 13 9 16 85 45 51 56
REMARK Flexibility Score: inf
ROOT
ATOM      1  C   UNL A   1      32.095  29.534  27.004  1.00  0.00     0.275 C 
ENDROOT
BRANCH   1   2
ATOM      2  C   UNL A   1      31.695  29.846  25.420  1.00  0.00     0.274 C 
BRANCH   2   3
ATOM      3  O   UNL A   1      31.648  28.683  24.480  1.00  0.00    -0.460 OA
BRANCH   3   4
ATOM      4  C   UNL A   1      32.768  28.105  23.834  1.00  0.00     0.332 C 
ATOM      5  O   UNL A   1      33.706  28.797  23.445  1.00  0.00    -0.249 OA
BRANCH   4   6
ATOM      6  C   UNL A   1      32.650  26.403  23.550  1.00  0.00     0.139 C 
BRANCH   6   7
ATOM      7  C   UNL A   1      31.503  25.280  23.611  1.00  0.00     0.037 C 
ATOM      8  C   UNL A   1      30.021  25.508  23.711  1.00  0.00     0.007 C 
ENDBRANCH   6   7
BRANCH   6   9
ATOM      9  C   UNL A   1      33.942  25.803  24.166  1.00  0.00     0.037 C 
ATOM     10  C   UNL A   1      34.016  25.602  25.684  1.00  0.00     0.007 C 
ENDBRANCH   6   9
BRANCH   6  11
ATOM     11  N   UNL A   1      32.631  26.569  22.143  1.00  0.00    -0.322 N 
ATOM     12  C   UNL A   1      33.034  25.527  21.392  1.00  0.00     0.320 C 
ATOM     13  H   UNL A   1      32.336  27.413  21.732  1.00  0.00     0.166 HD
ATOM     14  O   UNL A   1      32.951  25.696  20.172  1.00  0.00    -0.248 OA
ATOM     15  N   UNL A   1      33.484  24.312  21.908  1.00  0.00    -0.308 N 
ATOM     16  H   UNL A   1      33.842  23.869  21.105  1.00  0.00     0.171 HD
BRANCH  15  17
ATOM     17  C   UNL A   1      33.733  23.315  22.934  1.00  0.00     0.045 A 
ATOM     18  C   UNL A   1      32.881  22.448  23.616  1.00  0.00     0.046 A 
ATOM     19  C   UNL A   1      35.105  23.112  23.222  1.00  0.00     0.046 A 
ATOM     20  C   UNL A   1      33.364  21.447  24.494  1.00  0.00     0.044 A 
ATOM     21  C   UNL A   1      35.585  22.159  24.129  1.00  0.00     0.044 A 
ATOM     22  Cl  UNL A   1      32.253  20.344  25.220  1.00  0.00    -0.084 Cl
ATOM     23  C   UNL A   1      34.713  21.313  24.774  1.00  0.00     0.041 A 
ATOM     24  Cl  UNL A   1      37.278  22.038  24.410  1.00  0.00    -0.084 Cl
ENDBRANCH  15  17
ENDBRANCH   6  11
ENDBRANCH   4   6
ENDBRANCH   3   4
ENDBRANCH   2   3
ENDBRANCH   1   2
BRANCH   1  25
ATOM     25  O   UNL A   1      33.563  29.430  27.373  1.00  0.00    -0.458 OA
BRANCH  25  26
ATOM     26  C   UNL A   1      34.325  30.451  27.949  1.00  0.00     0.338 C 
ATOM     27  O   UNL A   1      33.905  31.568  28.171  1.00  0.00    -0.246 OA
BRANCH  26  28
ATOM     28  C   UNL A   1      35.802  30.000  28.246  1.00  0.00     0.060 A 
ATOM     29  C   UNL A   1      36.808  29.933  27.256  1.00  0.00     0.016 A 
ATOM     30  C   UNL A   1      36.230  29.618  29.517  1.00  0.00     0.016 A 
ATOM     31  C   UNL A   1      38.182  29.762  27.512  1.00  0.00     0.010 A 
ATOM     32  C   UNL A   1      37.609  29.318  29.774  1.00  0.00     0.010 A 
ATOM     33  C   UNL A   1      38.612  29.436  28.786  1.00  0.00    -0.014 A 
BRANCH  33  34
ATOM     34  C   UNL A   1      40.039  29.012  28.996  1.00  0.00     0.031 A 
ATOM     35  C   UNL A   1      41.025  30.041  29.493  1.00  0.00     0.074 A 
ATOM     36  C   UNL A   1      40.481  27.741  28.857  1.00  0.00     0.049 A 
ATOM     37  N   UNL A   1      42.332  30.005  29.513  1.00  0.00    -0.248 NA
ATOM     38  C   UNL A   1      40.450  31.270  30.061  1.00  0.00     0.031 C 
ATOM     39  C   UNL A   1      39.651  26.568  28.588  1.00  0.00     0.029 A 
ATOM     40  N   UNL A   1      41.765  27.227  28.905  1.00  0.00    -0.354 N 
ATOM     41  C   UNL A   1      42.738  31.235  30.020  1.00  0.00     0.074 A 
ATOM     42  C   UNL A   1      41.537  31.973  30.343  1.00  0.00     0.031 C 
ATOM     43  C   UNL A   1      40.447  25.491  28.436  1.00  0.00     0.029 A 
ATOM     44  C   UNL A   1      41.850  25.903  28.524  1.00  0.00     0.049 A 
ATOM     45  H   UNL A   1      42.547  27.756  29.185  1.00  0.00     0.167 HD
ATOM     46  C   UNL A   1      43.995  31.713  30.173  1.00  0.00     0.037 A 
ATOM     47  C   UNL A   1      42.918  25.134  28.203  1.00  0.00     0.037 A 
ATOM     48  C   UNL A   1      45.193  30.962  29.901  1.00  0.00     0.049 A 
ATOM     49  C   UNL A   1      44.313  25.726  28.252  1.00  0.00     0.074 A 
ATOM     50  C   UNL A   1      46.510  31.374  30.034  1.00  0.00     0.029 A 
ATOM     51  N   UNL A   1      45.227  29.657  29.444  1.00  0.00    -0.354 N 
ATOM     52  N   UNL A   1      44.693  26.915  28.658  1.00  0.00    -0.248 NA
ATOM     53  C   UNL A   1      45.424  24.884  27.772  1.00  0.00     0.031 C 
ATOM     54  C   UNL A   1      47.338  30.338  29.592  1.00  0.00     0.029 A 
ATOM     55  C   UNL A   1      46.540  29.260  29.245  1.00  0.00     0.049 A 
ATOM     56  H   UNL A   1      44.436  29.094  29.284  1.00  0.00     0.167 HD
ATOM     57  C   UNL A   1      46.078  26.952  28.497  1.00  0.00     0.074 A 
ATOM     58  C   UNL A   1      46.476  25.663  27.979  1.00  0.00     0.031 C 
ATOM     59  C   UNL A   1      46.939  27.969  28.747  1.00  0.00     0.037 A 
BRANCH  46  60
ATOM     60  C   UNL A   1      44.160  33.153  30.571  1.00  0.00     0.058 A 
ATOM     61  C   UNL A   1      44.081  34.206  29.651  1.00  0.00     0.135 A 
ATOM     62  C   UNL A   1      44.312  33.477  31.931  1.00  0.00     0.135 A 
ATOM     63  F   UNL A   1      43.957  33.952  28.339  1.00  0.00    -0.206 F 
ATOM     64  C   UNL A   1      44.144  35.534  30.065  1.00  0.00     0.059 A 
ATOM     65  C   UNL A   1      44.353  34.795  32.370  1.00  0.00     0.059 A 
ATOM     66  F   UNL A   1      44.400  32.503  32.850  1.00  0.00    -0.206 F 
ATOM     67  C   UNL A   1      44.271  35.818  31.428  1.00  0.00     0.060 A 
BRANCH  67  68
ATOM     68  S   UNL A   1      44.299  37.545  31.954  1.00  0.00     0.124 S 
ATOM     69  O   UNL A   1      45.709  37.726  32.284  1.00  0.00    -0.237 OA
ATOM     70  O   UNL A   1      43.833  38.239  30.759  1.00  0.00    -0.237 OA
ATOM     71  O   UNL A   1      43.382  37.571  33.089  1.00  0.00    -0.744 OA
ENDBRANCH  67  68
ENDBRANCH  46  60
BRANCH  47  72
ATOM     72  C   UNL A   1      42.733  23.748  27.666  1.00  0.00     0.058 A 
ATOM     73  C   UNL A   1      42.471  23.506  26.307  1.00  0.00     0.135 A 
ATOM     74  C   UNL A   1      42.721  22.638  28.529  1.00  0.00     0.135 A 
ATOM     75  F   UNL A   1      42.434  24.529  25.439  1.00  0.00    -0.206 F 
ATOM     76  C   UNL A   1      42.185  22.227  25.829  1.00  0.00     0.059 A 
ATOM     77  C   UNL A   1      42.474  21.347  28.070  1.00  0.00     0.059 A 
ATOM     78  F   UNL A   1      42.948  22.805  29.841  1.00  0.00    -0.206 F 
ATOM     79  C   UNL A   1      42.191  21.153  26.720  1.00  0.00     0.060 A 
BRANCH  79  80
ATOM     80  S   UNL A   1      41.842  19.494  26.094  1.00  0.00     0.124 S 
ATOM     81  O   UNL A   1      40.411  19.574  25.826  1.00  0.00    -0.237 OA
ATOM     82  O   UNL A   1      42.709  19.421  24.922  1.00  0.00    -0.237 OA
ATOM     83  O   UNL A   1      42.230  18.629  27.204  1.00  0.00    -0.744 OA
ENDBRANCH  79  80
ENDBRANCH  47  72
BRANCH  59  84
ATOM     84  C   UNL A   1      48.408  27.741  28.500  1.00  0.00     0.058 A 
ATOM     85  C   UNL A   1      49.020  28.115  27.294  1.00  0.00     0.135 A 
ATOM     86  C   UNL A   1      49.232  27.227  29.517  1.00  0.00     0.135 A 
ATOM     87  F   UNL A   1      48.283  28.606  26.286  1.00  0.00    -0.206 F 
ATOM     88  C   UNL A   1      50.394  27.981  27.101  1.00  0.00     0.059 A 
ATOM     89  C   UNL A   1      50.609  27.110  29.356  1.00  0.00     0.059 A 
ATOM     90  F   UNL A   1      48.701  26.863  30.696  1.00  0.00    -0.206 F 
ATOM     91  C   UNL A   1      51.181  27.485  28.142  1.00  0.00     0.060 A 
BRANCH  91  92
ATOM     92  S   UNL A   1      52.967  27.373  27.898  1.00  0.00     0.124 S 
ATOM     93  O   UNL A   1      53.257  28.645  27.244  1.00  0.00    -0.237 OA
ATOM     94  O   UNL A   1      53.461  27.236  29.264  1.00  0.00    -0.237 OA
ATOM     95  O   UNL A   1      53.123  26.187  27.060  1.00  0.00    -0.744 OA
ENDBRANCH  91  92
ENDBRANCH  59  84
ENDBRANCH  33  34
ENDBRANCH  26  28
ENDBRANCH  25  26
ENDBRANCH   1  25
TORSDOF 18
ENDMDL
