MODEL 1
REMARK VINA RESULT:     -11.6      0.000      0.000
REMARK SMILES Cc1cc(C(=O)Nc2cccc(C(=O)NCC(=O)OCCOC(=O)c3ccc(-c4c5nc(c(-c6c(F)cc(S(=O)(=O)[O-])cc6F)c6ccc([nH]6)c(-c6c(F)cc(S(=O)(=O)[O-])cc6F)c6nc(c(-c7c(F)cc(S(=O)(=O)[O-])cc7F)c7ccc4[nH]7)C=C6)C=C5)cc3)c2)no1
REMARK SMILES IDX 20 1 19 2 17 3 18 4 16 5 15 6 13 7 14 8 12 10 8 11 9 12
REMARK SMILES IDX 91 13 10 14 11 15 7 16 5 17 6 18 4 20 1 21 2 22 3 23 93 24
REMARK SMILES IDX 92 25 21 26 22 27 23 28 24 29 25 30 26 31 90 32 27 33 89 34
REMARK SMILES IDX 28 35 29 36 30 37 83 38 31 39 88 40 82 41 84 42 32 43 87 44
REMARK SMILES IDX 81 45 80 46 33 48 67 49 46 50 66 51 47 52 50 53 65 54 85 55
REMARK SMILES IDX 48 56 49 57 64 59 86 60 51 61 34 62 35 63 44 64 36 65 37 66
REMARK SMILES IDX 43 67 45 68 38 69 39 70 40 71 41 72 42 73 68 74 69 75 78 76
REMARK SMILES IDX 70 77 71 78 77 79 79 80 72 81 73 82 74 83 75 84 76 85 52 86
REMARK SMILES IDX 53 87 62 88 54 89 55 90 61 91 63 92 56 93 57 94 58 95 59 96
REMARK SMILES IDX 60 97
REMARK H PARENT 15 9 7 19 84 47 50 58
REMARK Flexibility Score: inf
ROOT
ATOM      1  C   UNL A   1      37.989  21.860  25.553  1.00  0.00     0.274 C 
ENDROOT
BRANCH   1   2
ATOM      2  O   UNL A   1      37.232  23.006  25.125  1.00  0.00    -0.461 OA
BRANCH   2   3
ATOM      3  C   UNL A   1      35.905  22.983  25.430  1.00  0.00     0.325 C 
ATOM      4  O   UNL A   1      35.420  23.478  26.438  1.00  0.00    -0.250 OA
BRANCH   3   5
ATOM      5  C   UNL A   1      35.059  22.425  24.285  1.00  0.00     0.239 C 
BRANCH   5   6
ATOM      6  N   UNL A   1      34.064  21.456  24.696  1.00  0.00    -0.341 N 
ATOM      7  C   UNL A   1      32.723  21.558  24.936  1.00  0.00     0.251 C 
ATOM      8  O   UNL A   1      32.127  20.525  25.250  1.00  0.00    -0.269 OA
ATOM      9  H   UNL A   1      34.423  20.548  24.829  1.00  0.00     0.164 HD
BRANCH   7  10
ATOM     10  C   UNL A   1      31.939  22.828  24.816  1.00  0.00     0.041 A 
ATOM     11  C   UNL A   1      30.968  24.916  25.617  1.00  0.00     0.042 A 
ATOM     12  C   UNL A   1      30.346  25.114  24.387  1.00  0.00     0.026 A 
ATOM     13  C   UNL A   1      31.698  23.741  25.847  1.00  0.00     0.040 A 
ATOM     14  C   UNL A   1      30.556  24.207  23.352  1.00  0.00     0.003 A 
ATOM     15  C   UNL A   1      31.363  23.086  23.561  1.00  0.00     0.014 A 
BRANCH  11  16
ATOM     16  N   UNL A   1      30.815  25.908  26.599  1.00  0.00    -0.321 N 
ATOM     17  C   UNL A   1      31.421  27.151  26.703  1.00  0.00     0.277 C 
ATOM     18  O   UNL A   1      31.383  27.715  27.798  1.00  0.00    -0.267 OA
ATOM     19  H   UNL A   1      30.184  25.688  27.321  1.00  0.00     0.170 HD
BRANCH  17  20
ATOM     20  C   UNL A   1      31.947  27.795  25.491  1.00  0.00     0.171 A 
ATOM     21  C   UNL A   1      34.176  28.784  22.730  1.00  0.00     0.091 C 
ATOM     22  C   UNL A   1      33.190  28.438  23.770  1.00  0.00     0.134 A 
ATOM     23  C   UNL A   1      33.164  27.529  24.797  1.00  0.00     0.082 A 
ATOM     24  O   UNL A   1      32.041  29.160  23.791  1.00  0.00    -0.361 OA
ATOM     25  N   UNL A   1      31.258  28.755  24.854  1.00  0.00    -0.074 NA
ENDBRANCH  17  20
ENDBRANCH  11  16
ENDBRANCH   7  10
ENDBRANCH   5   6
ENDBRANCH   3   5
ENDBRANCH   2   3
ENDBRANCH   1   2
BRANCH   1  26
ATOM     26  C   UNL A   1      39.257  22.292  26.297  1.00  0.00     0.275 C 
BRANCH  26  27
ATOM     27  O   UNL A   1      39.264  23.704  26.588  1.00  0.00    -0.458 OA
BRANCH  27  28
ATOM     28  C   UNL A   1      40.480  24.244  26.819  1.00  0.00     0.338 C 
ATOM     29  O   UNL A   1      41.554  23.873  26.358  1.00  0.00    -0.246 OA
BRANCH  28  30
ATOM     30  C   UNL A   1      40.356  25.443  27.654  1.00  0.00     0.060 A 
ATOM     31  C   UNL A   1      41.344  26.431  27.581  1.00  0.00     0.016 A 
ATOM     32  C   UNL A   1      39.337  25.525  28.602  1.00  0.00     0.016 A 
ATOM     33  C   UNL A   1      41.344  27.485  28.489  1.00  0.00     0.010 A 
ATOM     34  C   UNL A   1      39.320  26.603  29.490  1.00  0.00     0.010 A 
ATOM     35  C   UNL A   1      40.336  27.575  29.457  1.00  0.00    -0.014 A 
BRANCH  35  36
ATOM     36  C   UNL A   1      40.359  28.659  30.468  1.00  0.00     0.031 A 
ATOM     37  C   UNL A   1      41.336  28.588  31.608  1.00  0.00     0.074 A 
ATOM     38  C   UNL A   1      39.500  29.690  30.372  1.00  0.00     0.049 A 
ATOM     39  N   UNL A   1      41.396  29.314  32.692  1.00  0.00    -0.248 NA
ATOM     40  C   UNL A   1      42.380  27.555  31.516  1.00  0.00     0.031 C 
ATOM     41  C   UNL A   1      38.544  29.897  29.282  1.00  0.00     0.029 A 
ATOM     42  N   UNL A   1      39.282  30.751  31.214  1.00  0.00    -0.354 N 
ATOM     43  C   UNL A   1      42.454  28.801  33.433  1.00  0.00     0.074 A 
ATOM     44  C   UNL A   1      43.010  27.702  32.673  1.00  0.00     0.031 C 
ATOM     45  C   UNL A   1      37.840  31.014  29.525  1.00  0.00     0.029 A 
ATOM     46  C   UNL A   1      38.250  31.565  30.812  1.00  0.00     0.049 A 
ATOM     47  H   UNL A   1      39.814  30.914  32.026  1.00  0.00     0.167 HD
ATOM     48  C   UNL A   1      42.912  29.209  34.640  1.00  0.00     0.037 A 
ATOM     49  C   UNL A   1      37.671  32.610  31.434  1.00  0.00     0.037 A 
ATOM     50  C   UNL A   1      42.368  30.323  35.373  1.00  0.00     0.049 A 
ATOM     51  C   UNL A   1      38.174  33.025  32.788  1.00  0.00     0.074 A 
ATOM     52  C   UNL A   1      42.757  30.819  36.605  1.00  0.00     0.029 A 
ATOM     53  N   UNL A   1      41.322  31.121  34.932  1.00  0.00    -0.354 N 
ATOM     54  N   UNL A   1      39.143  32.502  33.502  1.00  0.00    -0.248 NA
ATOM     55  C   UNL A   1      37.499  34.162  33.427  1.00  0.00     0.031 C 
ATOM     56  C   UNL A   1      41.929  31.903  36.920  1.00  0.00     0.029 A 
ATOM     57  C   UNL A   1      41.048  32.103  35.869  1.00  0.00     0.049 A 
ATOM     58  H   UNL A   1      40.845  31.007  34.078  1.00  0.00     0.167 HD
ATOM     59  C   UNL A   1      39.204  33.256  34.668  1.00  0.00     0.074 A 
ATOM     60  C   UNL A   1      38.181  34.276  34.560  1.00  0.00     0.031 C 
ATOM     61  C   UNL A   1      40.030  33.115  35.733  1.00  0.00     0.037 A 
BRANCH  48  62
ATOM     62  C   UNL A   1      44.034  28.424  35.258  1.00  0.00     0.058 A 
ATOM     63  C   UNL A   1      43.800  27.262  36.008  1.00  0.00     0.135 A 
ATOM     64  C   UNL A   1      45.366  28.834  35.082  1.00  0.00     0.135 A 
ATOM     65  F   UNL A   1      42.545  26.838  36.223  1.00  0.00    -0.206 F 
ATOM     66  C   UNL A   1      44.846  26.546  36.586  1.00  0.00     0.059 A 
ATOM     67  C   UNL A   1      46.429  28.122  35.632  1.00  0.00     0.059 A 
ATOM     68  F   UNL A   1      45.645  29.941  34.376  1.00  0.00    -0.206 F 
ATOM     69  C   UNL A   1      46.156  26.988  36.396  1.00  0.00     0.060 A 
BRANCH  69  70
ATOM     70  S   UNL A   1      47.505  26.059  37.156  1.00  0.00     0.124 S 
ATOM     71  O   UNL A   1      48.269  25.647  35.983  1.00  0.00    -0.237 OA
ATOM     72  O   UNL A   1      48.140  27.062  38.006  1.00  0.00    -0.237 OA
ATOM     73  O   UNL A   1      46.818  24.985  37.868  1.00  0.00    -0.744 OA
ENDBRANCH  69  70
ENDBRANCH  48  62
BRANCH  49  74
ATOM     74  C   UNL A   1      36.528  33.308  30.791  1.00  0.00     0.058 A 
ATOM     75  C   UNL A   1      35.225  33.166  31.286  1.00  0.00     0.135 A 
ATOM     76  C   UNL A   1      36.722  34.150  29.686  1.00  0.00     0.135 A 
ATOM     77  F   UNL A   1      34.990  32.363  32.334  1.00  0.00    -0.206 F 
ATOM     78  C   UNL A   1      34.150  33.829  30.703  1.00  0.00     0.059 A 
ATOM     79  C   UNL A   1      35.668  34.842  29.100  1.00  0.00     0.059 A 
ATOM     80  F   UNL A   1      37.955  34.327  29.182  1.00  0.00    -0.206 F 
ATOM     81  C   UNL A   1      34.381  34.668  29.611  1.00  0.00     0.060 A 
BRANCH  81  82
ATOM     82  S   UNL A   1      32.991  35.568  28.891  1.00  0.00     0.124 S 
ATOM     83  O   UNL A   1      33.677  36.613  28.140  1.00  0.00    -0.237 OA
ATOM     84  O   UNL A   1      32.333  34.538  28.093  1.00  0.00    -0.237 OA
ATOM     85  O   UNL A   1      32.243  36.017  30.061  1.00  0.00    -0.744 OA
ENDBRANCH  81  82
ENDBRANCH  49  74
BRANCH  61  86
ATOM     86  C   UNL A   1      39.886  34.109  36.849  1.00  0.00     0.058 A 
ATOM     87  C   UNL A   1      40.526  35.356  36.807  1.00  0.00     0.135 A 
ATOM     88  C   UNL A   1      39.058  33.828  37.946  1.00  0.00     0.135 A 
ATOM     89  F   UNL A   1      41.333  35.668  35.781  1.00  0.00    -0.206 F 
ATOM     90  C   UNL A   1      40.361  36.288  37.826  1.00  0.00     0.059 A 
ATOM     91  C   UNL A   1      38.864  34.752  38.967  1.00  0.00     0.059 A 
ATOM     92  F   UNL A   1      38.419  32.649  38.026  1.00  0.00    -0.206 F 
ATOM     93  C   UNL A   1      39.528  35.977  38.903  1.00  0.00     0.060 A 
BRANCH  93  94
ATOM     94  S   UNL A   1      39.288  37.206  40.203  1.00  0.00     0.124 S 
ATOM     95  O   UNL A   1      38.576  36.431  41.213  1.00  0.00    -0.237 OA
ATOM     96  O   UNL A   1      40.658  37.580  40.540  1.00  0.00    -0.237 OA
ATOM     97  O   UNL A   1      38.508  38.248  39.542  1.00  0.00    -0.744 OA
ENDBRANCH  93  94
ENDBRANCH  61  86
ENDBRANCH  35  36
ENDBRANCH  28  30
ENDBRANCH  27  28
ENDBRANCH  26  27
ENDBRANCH   1  26
TORSDOF 18
ENDMDL
MODEL 2
REMARK VINA RESULT:     -11.6      1.415      8.530
REMARK SMILES Cc1cc(C(=O)Nc2cccc(C(=O)NCC(=O)OCCOC(=O)c3ccc(-c4c5nc(c(-c6c(F)cc(S(=O)(=O)[O-])cc6F)c6ccc([nH]6)c(-c6c(F)cc(S(=O)(=O)[O-])cc6F)c6nc(c(-c7c(F)cc(S(=O)(=O)[O-])cc7F)c7ccc4[nH]7)C=C6)C=C5)cc3)c2)no1
REMARK SMILES IDX 20 1 19 2 17 3 18 4 16 5 15 6 13 7 14 8 12 10 8 11 9 12
REMARK SMILES IDX 91 13 10 14 11 15 7 16 5 17 6 18 4 20 1 21 2 22 3 23 93 24
REMARK SMILES IDX 92 25 21 26 22 27 23 28 24 29 25 30 26 31 90 32 27 33 89 34
REMARK SMILES IDX 28 35 29 36 30 37 83 38 31 39 88 40 82 41 84 42 32 43 87 44
REMARK SMILES IDX 81 45 80 46 33 48 67 49 46 50 66 51 47 52 50 53 65 54 85 55
REMARK SMILES IDX 48 56 49 57 64 59 86 60 51 61 34 62 35 63 44 64 36 65 37 66
REMARK SMILES IDX 43 67 45 68 38 69 39 70 40 71 41 72 42 73 68 74 69 75 78 76
REMARK SMILES IDX 70 77 71 78 77 79 79 80 72 81 73 82 74 83 75 84 76 85 52 86
REMARK SMILES IDX 53 87 62 88 54 89 55 90 61 91 63 92 56 93 57 94 58 95 59 96
REMARK SMILES IDX 60 97
REMARK H PARENT 15 9 7 19 84 47 50 58
REMARK Flexibility Score: inf
ROOT
ATOM      1  C   UNL A   1      42.721  22.041  26.265  1.00  0.00     0.274 C 
ENDROOT
BRANCH   1   2
ATOM      2  O   UNL A   1      41.683  21.248  25.663  1.00  0.00    -0.461 OA
BRANCH   2   3
ATOM      3  C   UNL A   1      40.644  20.921  26.481  1.00  0.00     0.325 C 
ATOM      4  O   UNL A   1      40.762  20.322  27.541  1.00  0.00    -0.250 OA
BRANCH   3   5
ATOM      5  C   UNL A   1      39.326  21.542  26.017  1.00  0.00     0.239 C 
BRANCH   5   6
ATOM      6  N   UNL A   1      39.178  22.945  26.348  1.00  0.00    -0.341 N 
ATOM      7  C   UNL A   1      38.146  23.825  26.187  1.00  0.00     0.251 C 
ATOM      8  O   UNL A   1      38.314  24.971  26.606  1.00  0.00    -0.269 OA
ATOM      9  H   UNL A   1      39.975  23.340  26.770  1.00  0.00     0.164 HD
BRANCH   7  10
ATOM     10  C   UNL A   1      36.830  23.477  25.564  1.00  0.00     0.041 A 
ATOM     11  C   UNL A   1      34.436  23.018  25.553  1.00  0.00     0.042 A 
ATOM     12  C   UNL A   1      34.485  22.720  24.194  1.00  0.00     0.026 A 
ATOM     13  C   UNL A   1      35.618  23.322  26.243  1.00  0.00     0.040 A 
ATOM     14  C   UNL A   1      35.686  22.849  23.501  1.00  0.00     0.003 A 
ATOM     15  C   UNL A   1      36.842  23.245  24.178  1.00  0.00     0.014 A 
BRANCH  11  16
ATOM     16  N   UNL A   1      33.185  22.977  26.190  1.00  0.00    -0.321 N 
ATOM     17  C   UNL A   1      32.339  24.017  26.547  1.00  0.00     0.277 C 
ATOM     18  O   UNL A   1      31.455  23.777  27.371  1.00  0.00    -0.267 OA
ATOM     19  H   UNL A   1      32.861  22.077  26.418  1.00  0.00     0.170 HD
BRANCH  17  20
ATOM     20  C   UNL A   1      32.439  25.298  25.833  1.00  0.00     0.171 A 
ATOM     21  C   UNL A   1      33.490  28.685  24.835  1.00  0.00     0.091 C 
ATOM     22  C   UNL A   1      33.012  27.321  25.124  1.00  0.00     0.134 A 
ATOM     23  C   UNL A   1      33.404  26.335  25.994  1.00  0.00     0.082 A 
ATOM     24  O   UNL A   1      31.928  26.890  24.430  1.00  0.00    -0.361 OA
ATOM     25  N   UNL A   1      31.574  25.625  24.859  1.00  0.00    -0.074 NA
ENDBRANCH  17  20
ENDBRANCH  11  16
ENDBRANCH   7  10
ENDBRANCH   5   6
ENDBRANCH   3   5
ENDBRANCH   2   3
ENDBRANCH   1   2
BRANCH   1  26
ATOM     26  C   UNL A   1      42.745  23.452  25.667  1.00  0.00     0.275 C 
BRANCH  26  27
ATOM     27  O   UNL A   1      41.798  24.330  26.308  1.00  0.00    -0.458 OA
BRANCH  27  28
ATOM     28  C   UNL A   1      42.040  25.651  26.163  1.00  0.00     0.338 C 
ATOM     29  O   UNL A   1      42.248  26.254  25.117  1.00  0.00    -0.246 OA
BRANCH  28  30
ATOM     30  C   UNL A   1      41.929  26.335  27.456  1.00  0.00     0.060 A 
ATOM     31  C   UNL A   1      41.011  25.865  28.401  1.00  0.00     0.016 A 
ATOM     32  C   UNL A   1      42.634  27.518  27.676  1.00  0.00     0.016 A 
ATOM     33  C   UNL A   1      40.760  26.602  29.554  1.00  0.00     0.010 A 
ATOM     34  C   UNL A   1      42.405  28.237  28.851  1.00  0.00     0.010 A 
ATOM     35  C   UNL A   1      41.449  27.798  29.785  1.00  0.00    -0.014 A 
BRANCH  35  36
ATOM     36  C   UNL A   1      41.146  28.623  30.979  1.00  0.00     0.031 A 
ATOM     37  C   UNL A   1      40.025  29.622  30.923  1.00  0.00     0.074 A 
ATOM     38  C   UNL A   1      41.880  28.486  32.098  1.00  0.00     0.049 A 
ATOM     39  N   UNL A   1      39.716  30.568  31.771  1.00  0.00    -0.248 NA
ATOM     40  C   UNL A   1      39.137  29.552  29.752  1.00  0.00     0.031 C 
ATOM     41  C   UNL A   1      42.956  27.511  32.290  1.00  0.00     0.029 A 
ATOM     42  N   UNL A   1      41.841  29.179  33.281  1.00  0.00    -0.354 N 
ATOM     43  C   UNL A   1      38.629  31.233  31.218  1.00  0.00     0.074 A 
ATOM     44  C   UNL A   1      38.328  30.581  29.962  1.00  0.00     0.031 C 
ATOM     45  C   UNL A   1      43.477  27.673  33.517  1.00  0.00     0.029 A 
ATOM     46  C   UNL A   1      42.817  28.797  34.170  1.00  0.00     0.049 A 
ATOM     47  H   UNL A   1      41.177  29.881  33.475  1.00  0.00     0.167 HD
ATOM     48  C   UNL A   1      37.950  32.294  31.715  1.00  0.00     0.037 A 
ATOM     49  C   UNL A   1      43.167  29.325  35.359  1.00  0.00     0.037 A 
ATOM     50  C   UNL A   1      38.241  32.916  32.981  1.00  0.00     0.049 A 
ATOM     51  C   UNL A   1      42.421  30.523  35.875  1.00  0.00     0.074 A 
ATOM     52  C   UNL A   1      37.617  33.997  33.577  1.00  0.00     0.029 A 
ATOM     53  N   UNL A   1      39.239  32.499  33.852  1.00  0.00    -0.354 N 
ATOM     54  N   UNL A   1      41.426  31.175  35.322  1.00  0.00    -0.248 NA
ATOM     55  C   UNL A   1      42.852  31.066  37.171  1.00  0.00     0.031 C 
ATOM     56  C   UNL A   1      38.253  34.250  34.798  1.00  0.00     0.029 A 
ATOM     57  C   UNL A   1      39.250  33.305  34.977  1.00  0.00     0.049 A 
ATOM     58  H   UNL A   1      39.848  31.742  33.693  1.00  0.00     0.167 HD
ATOM     59  C   UNL A   1      41.101  32.196  36.207  1.00  0.00     0.074 A 
ATOM     60  C   UNL A   1      42.000  32.069  37.337  1.00  0.00     0.031 C 
ATOM     61  C   UNL A   1      40.148  33.152  36.095  1.00  0.00     0.037 A 
BRANCH  48  62
ATOM     62  C   UNL A   1      36.850  32.871  30.869  1.00  0.00     0.058 A 
ATOM     63  C   UNL A   1      37.116  33.740  29.801  1.00  0.00     0.135 A 
ATOM     64  C   UNL A   1      35.510  32.536  31.125  1.00  0.00     0.135 A 
ATOM     65  F   UNL A   1      38.377  34.109  29.526  1.00  0.00    -0.206 F 
ATOM     66  C   UNL A   1      36.089  34.278  29.029  1.00  0.00     0.059 A 
ATOM     67  C   UNL A   1      34.469  33.044  30.353  1.00  0.00     0.059 A 
ATOM     68  F   UNL A   1      35.201  31.711  32.138  1.00  0.00    -0.206 F 
ATOM     69  C   UNL A   1      34.769  33.928  29.317  1.00  0.00     0.060 A 
BRANCH  69  70
ATOM     70  S   UNL A   1      33.444  34.638  28.317  1.00  0.00     0.124 S 
ATOM     71  O   UNL A   1      32.610  35.261  29.341  1.00  0.00    -0.237 OA
ATOM     72  O   UNL A   1      34.166  35.558  27.443  1.00  0.00    -0.237 OA
ATOM     73  O   UNL A   1      32.861  33.477  27.653  1.00  0.00    -0.744 OA
ENDBRANCH  69  70
ENDBRANCH  48  62
BRANCH  49  74
ATOM     74  C   UNL A   1      44.301  28.739  36.119  1.00  0.00     0.058 A 
ATOM     75  C   UNL A   1      44.104  27.663  36.995  1.00  0.00     0.135 A 
ATOM     76  C   UNL A   1      45.608  29.228  35.963  1.00  0.00     0.135 A 
ATOM     77  F   UNL A   1      42.871  27.169  37.183  1.00  0.00    -0.206 F 
ATOM     78  C   UNL A   1      45.161  27.094  37.698  1.00  0.00     0.059 A 
ATOM     79  C   UNL A   1      46.685  28.662  36.637  1.00  0.00     0.059 A 
ATOM     80  F   UNL A   1      45.849  30.250  35.127  1.00  0.00    -0.206 F 
ATOM     81  C   UNL A   1      46.450  27.600  37.510  1.00  0.00     0.060 A 
BRANCH  81  82
ATOM     82  S   UNL A   1      47.827  26.825  38.384  1.00  0.00     0.124 S 
ATOM     83  O   UNL A   1      47.702  27.417  39.711  1.00  0.00    -0.237 OA
ATOM     84  O   UNL A   1      47.498  25.406  38.288  1.00  0.00    -0.237 OA
ATOM     85  O   UNL A   1      48.991  27.244  37.610  1.00  0.00    -0.744 OA
ENDBRANCH  81  82
ENDBRANCH  49  74
BRANCH  61  86
ATOM     86  C   UNL A   1      40.005  34.114  37.238  1.00  0.00     0.058 A 
ATOM     87  C   UNL A   1      40.728  35.315  37.282  1.00  0.00     0.135 A 
ATOM     88  C   UNL A   1      39.096  33.853  38.275  1.00  0.00     0.135 A 
ATOM     89  F   UNL A   1      41.614  35.606  36.316  1.00  0.00    -0.206 F 
ATOM     90  C   UNL A   1      40.566  36.220  38.325  1.00  0.00     0.059 A 
ATOM     91  C   UNL A   1      38.904  34.752  39.318  1.00  0.00     0.059 A 
ATOM     92  F   UNL A   1      38.375  32.720  38.272  1.00  0.00    -0.206 F 
ATOM     93  C   UNL A   1      39.651  35.930  39.339  1.00  0.00     0.060 A 
BRANCH  93  94
ATOM     94  S   UNL A   1      39.417  37.127  40.671  1.00  0.00     0.124 S 
ATOM     95  O   UNL A   1      38.327  37.942  40.145  1.00  0.00    -0.237 OA
ATOM     96  O   UNL A   1      39.082  36.274  41.806  1.00  0.00    -0.237 OA
ATOM     97  O   UNL A   1      40.714  37.791  40.758  1.00  0.00    -0.744 OA
ENDBRANCH  93  94
ENDBRANCH  61  86
ENDBRANCH  35  36
ENDBRANCH  28  30
ENDBRANCH  27  28
ENDBRANCH  26  27
ENDBRANCH   1  26
TORSDOF 18
ENDMDL
MODEL 3
REMARK VINA RESULT:     -11.5      3.866      6.267
REMARK SMILES Cc1cc(C(=O)Nc2cccc(C(=O)NCC(=O)OCCOC(=O)c3ccc(-c4c5nc(c(-c6c(F)cc(S(=O)(=O)[O-])cc6F)c6ccc([nH]6)c(-c6c(F)cc(S(=O)(=O)[O-])cc6F)c6nc(c(-c7c(F)cc(S(=O)(=O)[O-])cc7F)c7ccc4[nH]7)C=C6)C=C5)cc3)c2)no1
REMARK SMILES IDX 20 1 19 2 17 3 18 4 16 5 15 6 13 7 14 8 12 10 8 11 9 12
REMARK SMILES IDX 91 13 10 14 11 15 7 16 5 17 6 18 4 20 1 21 2 22 3 23 93 24
REMARK SMILES IDX 92 25 21 26 22 27 23 28 24 29 25 30 26 31 90 32 27 33 89 34
REMARK SMILES IDX 28 35 29 36 30 37 83 38 31 39 88 40 82 41 84 42 32 43 87 44
REMARK SMILES IDX 81 45 80 46 33 48 67 49 46 50 66 51 47 52 50 53 65 54 85 55
REMARK SMILES IDX 48 56 49 57 64 59 86 60 51 61 34 62 35 63 44 64 36 65 37 66
REMARK SMILES IDX 43 67 45 68 38 69 39 70 40 71 41 72 42 73 68 74 69 75 78 76
REMARK SMILES IDX 70 77 71 78 77 79 79 80 72 81 73 82 74 83 75 84 76 85 52 86
REMARK SMILES IDX 53 87 62 88 54 89 55 90 61 91 63 92 56 93 57 94 58 95 59 96
REMARK SMILES IDX 60 97
REMARK H PARENT 15 9 7 19 84 47 50 58
REMARK Flexibility Score: inf
ROOT
ATOM      1  C   UNL A   1      39.612  19.917  25.786  1.00  0.00     0.274 C 
ENDROOT
BRANCH   1   2
ATOM      2  O   UNL A   1      40.720  20.151  26.672  1.00  0.00    -0.461 OA
BRANCH   2   3
ATOM      3  C   UNL A   1      41.957  20.005  26.121  1.00  0.00     0.325 C 
ATOM      4  O   UNL A   1      42.268  19.106  25.351  1.00  0.00    -0.250 OA
BRANCH   3   5
ATOM      5  C   UNL A   1      42.870  21.193  26.427  1.00  0.00     0.239 C 
BRANCH   5   6
ATOM      6  N   UNL A   1      42.865  21.605  27.816  1.00  0.00    -0.341 N 
ATOM      7  C   UNL A   1      43.325  22.728  28.445  1.00  0.00     0.251 C 
ATOM      8  O   UNL A   1      43.145  22.805  29.661  1.00  0.00    -0.269 OA
ATOM      9  H   UNL A   1      42.450  20.951  28.424  1.00  0.00     0.164 HD
BRANCH   7  10
ATOM     10  C   UNL A   1      44.004  23.866  27.748  1.00  0.00     0.041 A 
ATOM     11  C   UNL A   1      44.177  25.698  26.148  1.00  0.00     0.042 A 
ATOM     12  C   UNL A   1      45.505  25.907  26.511  1.00  0.00     0.026 A 
ATOM     13  C   UNL A   1      43.460  24.635  26.715  1.00  0.00     0.040 A 
ATOM     14  C   UNL A   1      46.074  25.140  27.525  1.00  0.00     0.003 A 
ATOM     15  C   UNL A   1      45.321  24.144  28.151  1.00  0.00     0.014 A 
BRANCH  11  16
ATOM     16  N   UNL A   1      43.611  26.562  25.197  1.00  0.00    -0.321 N 
ATOM     17  C   UNL A   1      43.247  27.895  25.318  1.00  0.00     0.277 C 
ATOM     18  O   UNL A   1      42.485  28.358  24.467  1.00  0.00    -0.267 OA
ATOM     19  H   UNL A   1      43.449  26.162  24.313  1.00  0.00     0.170 HD
BRANCH  17  20
ATOM     20  C   UNL A   1      43.885  28.721  26.352  1.00  0.00     0.171 A 
ATOM     21  C   UNL A   1      44.483  30.618  29.453  1.00  0.00     0.091 C 
ATOM     22  C   UNL A   1      44.367  29.864  28.192  1.00  0.00     0.134 A 
ATOM     23  C   UNL A   1      43.423  29.017  27.667  1.00  0.00     0.082 A 
ATOM     24  O   UNL A   1      45.370  30.018  27.290  1.00  0.00    -0.361 OA
ATOM     25  N   UNL A   1      45.081  29.298  26.147  1.00  0.00    -0.074 NA
ENDBRANCH  17  20
ENDBRANCH  11  16
ENDBRANCH   7  10
ENDBRANCH   5   6
ENDBRANCH   3   5
ENDBRANCH   2   3
ENDBRANCH   1   2
BRANCH   1  26
ATOM     26  C   UNL A   1      38.702  21.148  25.716  1.00  0.00     0.275 C 
BRANCH  26  27
ATOM     27  O   UNL A   1      39.441  22.380  25.842  1.00  0.00    -0.458 OA
BRANCH  27  28
ATOM     28  C   UNL A   1      38.699  23.507  25.816  1.00  0.00     0.338 C 
ATOM     29  O   UNL A   1      37.654  23.692  25.202  1.00  0.00    -0.246 OA
BRANCH  28  30
ATOM     30  C   UNL A   1      39.262  24.510  26.726  1.00  0.00     0.060 A 
ATOM     31  C   UNL A   1      38.895  24.491  28.076  1.00  0.00     0.016 A 
ATOM     32  C   UNL A   1      40.043  25.547  26.217  1.00  0.00     0.016 A 
ATOM     33  C   UNL A   1      39.271  25.535  28.916  1.00  0.00     0.010 A 
ATOM     34  C   UNL A   1      40.448  26.576  27.070  1.00  0.00     0.010 A 
ATOM     35  C   UNL A   1      40.044  26.590  28.417  1.00  0.00    -0.014 A 
BRANCH  35  36
ATOM     36  C   UNL A   1      40.398  27.738  29.285  1.00  0.00     0.031 A 
ATOM     37  C   UNL A   1      41.647  27.678  30.120  1.00  0.00     0.074 A 
ATOM     38  C   UNL A   1      39.599  28.819  29.335  1.00  0.00     0.049 A 
ATOM     39  N   UNL A   1      42.040  28.473  31.080  1.00  0.00    -0.248 NA
ATOM     40  C   UNL A   1      42.573  26.568  29.841  1.00  0.00     0.031 C 
ATOM     41  C   UNL A   1      38.392  29.017  28.530  1.00  0.00     0.029 A 
ATOM     42  N   UNL A   1      39.675  29.950  30.108  1.00  0.00    -0.354 N 
ATOM     43  C   UNL A   1      43.233  27.939  31.550  1.00  0.00     0.074 A 
ATOM     44  C   UNL A   1      43.504  26.752  30.767  1.00  0.00     0.031 C 
ATOM     45  C   UNL A   1      37.838  30.196  28.855  1.00  0.00     0.029 A 
ATOM     46  C   UNL A   1      38.613  30.805  29.930  1.00  0.00     0.049 A 
ATOM     47  H   UNL A   1      40.417  30.132  30.728  1.00  0.00     0.167 HD
ATOM     48  C   UNL A   1      44.026  28.398  32.547  1.00  0.00     0.037 A 
ATOM     49  C   UNL A   1      38.281  31.931  30.591  1.00  0.00     0.037 A 
ATOM     50  C   UNL A   1      43.761  29.597  33.299  1.00  0.00     0.049 A 
ATOM     51  C   UNL A   1      39.157  32.403  31.717  1.00  0.00     0.074 A 
ATOM     52  C   UNL A   1      44.498  30.150  34.331  1.00  0.00     0.029 A 
ATOM     53  N   UNL A   1      42.675  30.435  33.088  1.00  0.00    -0.354 N 
ATOM     54  N   UNL A   1      40.258  31.864  32.185  1.00  0.00    -0.248 NA
ATOM     55  C   UNL A   1      38.742  33.629  32.412  1.00  0.00     0.031 C 
ATOM     56  C   UNL A   1      43.843  31.310  34.762  1.00  0.00     0.029 A 
ATOM     57  C   UNL A   1      42.718  31.498  33.975  1.00  0.00     0.049 A 
ATOM     58  H   UNL A   1      41.976  30.295  32.409  1.00  0.00     0.167 HD
ATOM     59  C   UNL A   1      40.675  32.693  33.220  1.00  0.00     0.074 A 
ATOM     60  C   UNL A   1      39.713  33.774  33.303  1.00  0.00     0.031 C 
ATOM     61  C   UNL A   1      41.755  32.569  34.030  1.00  0.00     0.037 A 
BRANCH  48  62
ATOM     62  C   UNL A   1      45.234  27.580  32.905  1.00  0.00     0.058 A 
ATOM     63  C   UNL A   1      45.177  26.553  33.859  1.00  0.00     0.135 A 
ATOM     64  C   UNL A   1      46.464  27.819  32.271  1.00  0.00     0.135 A 
ATOM     65  F   UNL A   1      44.031  26.297  34.510  1.00  0.00    -0.206 F 
ATOM     66  C   UNL A   1      46.305  25.807  34.192  1.00  0.00     0.059 A 
ATOM     67  C   UNL A   1      47.599  27.070  32.571  1.00  0.00     0.059 A 
ATOM     68  F   UNL A   1      46.574  28.791  31.352  1.00  0.00    -0.206 F 
ATOM     69  C   UNL A   1      47.512  26.077  33.546  1.00  0.00     0.060 A 
BRANCH  69  70
ATOM     70  S   UNL A   1      48.971  25.110  33.991  1.00  0.00     0.124 S 
ATOM     71  O   UNL A   1      49.837  25.348  32.841  1.00  0.00    -0.237 OA
ATOM     72  O   UNL A   1      49.394  25.734  35.241  1.00  0.00    -0.237 OA
ATOM     73  O   UNL A   1      48.452  23.752  34.117  1.00  0.00    -0.744 OA
ENDBRANCH  69  70
ENDBRANCH  48  62
BRANCH  49  74
ATOM     74  C   UNL A   1      37.041  32.662  30.222  1.00  0.00     0.058 A 
ATOM     75  C   UNL A   1      35.829  32.402  30.874  1.00  0.00     0.135 A 
ATOM     76  C   UNL A   1      37.053  33.653  29.228  1.00  0.00     0.135 A 
ATOM     77  F   UNL A   1      35.768  31.456  31.823  1.00  0.00    -0.206 F 
ATOM     78  C   UNL A   1      34.666  33.092  30.549  1.00  0.00     0.059 A 
ATOM     79  C   UNL A   1      35.909  34.374  28.902  1.00  0.00     0.059 A 
ATOM     80  F   UNL A   1      38.193  33.946  28.583  1.00  0.00    -0.206 F 
ATOM     81  C   UNL A   1      34.716  34.080  29.563  1.00  0.00     0.060 A 
BRANCH  81  82
ATOM     82  S   UNL A   1      33.217  35.011  29.182  1.00  0.00     0.124 S 
ATOM     83  O   UNL A   1      33.770  36.278  28.717  1.00  0.00    -0.237 OA
ATOM     84  O   UNL A   1      32.585  34.180  28.162  1.00  0.00    -0.237 OA
ATOM     85  O   UNL A   1      32.519  35.058  30.463  1.00  0.00    -0.744 OA
ENDBRANCH  81  82
ENDBRANCH  49  74
BRANCH  61  86
ATOM     86  C   UNL A   1      41.972  33.647  35.051  1.00  0.00     0.058 A 
ATOM     87  C   UNL A   1      41.495  33.521  36.364  1.00  0.00     0.135 A 
ATOM     88  C   UNL A   1      42.710  34.795  34.724  1.00  0.00     0.135 A 
ATOM     89  F   UNL A   1      40.778  32.444  36.723  1.00  0.00    -0.206 F 
ATOM     90  C   UNL A   1      41.729  34.507  37.317  1.00  0.00     0.059 A 
ATOM     91  C   UNL A   1      42.972  35.784  35.666  1.00  0.00     0.059 A 
ATOM     92  F   UNL A   1      43.194  34.956  33.482  1.00  0.00    -0.206 F 
ATOM     93  C   UNL A   1      42.470  35.635  36.958  1.00  0.00     0.060 A 
BRANCH  93  94
ATOM     94  S   UNL A   1      42.803  36.893  38.210  1.00  0.00     0.124 S 
ATOM     95  O   UNL A   1      43.517  36.119  39.221  1.00  0.00    -0.237 OA
ATOM     96  O   UNL A   1      43.603  37.867  37.475  1.00  0.00    -0.237 OA
ATOM     97  O   UNL A   1      41.470  37.349  38.593  1.00  0.00    -0.744 OA
ENDBRANCH  93  94
ENDBRANCH  61  86
ENDBRANCH  35  36
ENDBRANCH  28  30
ENDBRANCH  27  28
ENDBRANCH  26  27
ENDBRANCH   1  26
TORSDOF 18
ENDMDL
