MODEL 1
REMARK VINA RESULT:     -12.6      0.000      0.000
REMARK SMILES O=C(OCCOC(=O)c1ccc2nc(-c3c[nH]nc3-c3ccc(F)cc3F)[nH]c2c1)c1ccc(-c2c3nc(c(-c4c(F)cc(S(=O)(=O)[O-])cc4F)c4ccc([nH]4)c(-c4c(F)cc(S(=O)(=O)[O-])cc4F)c4nc(c(-c5c(F)cc(S(=O)(=O)[O-])cc5F)c5ccc2[nH]5)C=C4)C=C3)cc1
REMARK SMILES IDX 4 1 3 2 2 3 1 4 31 5 32 6 96 7 33 8 95 9 34 10 35 11 36 12
REMARK SMILES IDX 89 13 37 14 94 15 88 16 90 17 38 18 93 19 87 20 86 21 39 23
REMARK SMILES IDX 73 24 52 25 72 26 53 27 56 28 71 29 91 30 54 31 55 32 70 34
REMARK SMILES IDX 92 35 57 36 40 37 41 38 50 39 42 40 43 41 49 42 51 43 44 44
REMARK SMILES IDX 45 45 46 46 47 47 48 48 74 49 75 50 84 51 76 52 77 53 83 54
REMARK SMILES IDX 85 55 78 56 79 57 80 58 81 59 82 60 58 61 59 62 68 63 60 64
REMARK SMILES IDX 61 65 67 66 69 67 62 68 63 69 64 70 65 71 66 72 5 73 6 74
REMARK SMILES IDX 7 75 8 76 9 77 10 78 30 79 11 80 29 81 12 82 28 83 13 84
REMARK SMILES IDX 14 85 15 87 16 88 19 89 17 90 18 91 20 93 21 94 26 95 22 96
REMARK SMILES IDX 25 97 27 98 23 99 24 100
REMARK H PARENT 90 22 56 33 28 86 17 92
REMARK Flexibility Score: inf
ROOT
ATOM      1  C   UNL A   1      41.338  23.337  27.003  1.00  0.00     0.275 C 
ENDROOT
BRANCH   1   2
ATOM      2  O   UNL A   1      41.211  24.362  26.004  1.00  0.00    -0.458 OA
BRANCH   2   3
ATOM      3  C   UNL A   1      41.187  25.708  26.125  1.00  0.00     0.338 C 
ATOM      4  O   UNL A   1      41.448  26.381  25.126  1.00  0.00    -0.246 OA
BRANCH   3   5
ATOM      5  C   UNL A   1      40.974  26.446  27.416  1.00  0.00     0.060 A 
ATOM      6  C   UNL A   1      39.903  26.294  28.302  1.00  0.00     0.016 A 
ATOM      7  C   UNL A   1      41.990  27.351  27.776  1.00  0.00     0.016 A 
ATOM      8  C   UNL A   1      39.869  26.959  29.530  1.00  0.00     0.010 A 
ATOM      9  C   UNL A   1      41.972  28.010  29.006  1.00  0.00     0.010 A 
ATOM     10  C   UNL A   1      40.901  27.819  29.886  1.00  0.00    -0.014 A 
BRANCH  10  11
ATOM     11  C   UNL A   1      40.769  28.693  31.067  1.00  0.00     0.031 A 
ATOM     12  C   UNL A   1      39.765  29.798  30.985  1.00  0.00     0.074 A 
ATOM     13  C   UNL A   1      41.516  28.509  32.168  1.00  0.00     0.049 A 
ATOM     14  N   UNL A   1      39.536  30.769  31.822  1.00  0.00    -0.248 NA
ATOM     15  C   UNL A   1      38.890  29.796  29.799  1.00  0.00     0.031 C 
ATOM     16  C   UNL A   1      42.422  27.387  32.390  1.00  0.00     0.029 A 
ATOM     17  N   UNL A   1      41.663  29.281  33.291  1.00  0.00    -0.354 N 
ATOM     18  C   UNL A   1      38.481  31.483  31.273  1.00  0.00     0.074 A 
ATOM     19  C   UNL A   1      38.159  30.878  30.003  1.00  0.00     0.031 C 
ATOM     20  C   UNL A   1      43.114  27.594  33.522  1.00  0.00     0.029 A 
ATOM     21  C   UNL A   1      42.693  28.864  34.102  1.00  0.00     0.049 A 
ATOM     22  H   UNL A   1      41.091  30.055  33.495  1.00  0.00     0.167 HD
ATOM     23  C   UNL A   1      37.825  32.536  31.807  1.00  0.00     0.037 A 
ATOM     24  C   UNL A   1      43.250  29.464  35.173  1.00  0.00     0.037 A 
ATOM     25  C   UNL A   1      38.189  33.123  33.066  1.00  0.00     0.049 A 
ATOM     26  C   UNL A   1      42.621  30.733  35.676  1.00  0.00     0.074 A 
ATOM     27  C   UNL A   1      37.604  34.189  33.720  1.00  0.00     0.029 A 
ATOM     28  N   UNL A   1      39.258  32.701  33.849  1.00  0.00    -0.354 N 
ATOM     29  N   UNL A   1      41.601  31.391  35.174  1.00  0.00    -0.248 NA
ATOM     30  C   UNL A   1      43.177  31.324  36.898  1.00  0.00     0.031 C 
ATOM     31  C   UNL A   1      38.359  34.452  34.867  1.00  0.00     0.029 A 
ATOM     32  C   UNL A   1      39.374  33.509  34.964  1.00  0.00     0.049 A 
ATOM     33  H   UNL A   1      39.844  31.938  33.641  1.00  0.00     0.167 HD
ATOM     34  C   UNL A   1      41.353  32.440  36.049  1.00  0.00     0.074 A 
ATOM     35  C   UNL A   1      42.352  32.346  37.098  1.00  0.00     0.031 C 
ATOM     36  C   UNL A   1      40.372  33.375  36.001  1.00  0.00     0.037 A 
BRANCH  23  37
ATOM     37  C   UNL A   1      36.701  33.116  31.000  1.00  0.00     0.058 A 
ATOM     38  C   UNL A   1      35.372  32.952  31.419  1.00  0.00     0.135 A 
ATOM     39  C   UNL A   1      36.936  33.887  29.849  1.00  0.00     0.135 A 
ATOM     40  F   UNL A   1      35.093  32.235  32.519  1.00  0.00    -0.206 F 
ATOM     41  C   UNL A   1      34.315  33.549  30.741  1.00  0.00     0.059 A 
ATOM     42  C   UNL A   1      35.898  34.520  29.175  1.00  0.00     0.059 A 
ATOM     43  F   UNL A   1      38.191  34.101  29.420  1.00  0.00    -0.206 F 
ATOM     44  C   UNL A   1      34.590  34.351  29.635  1.00  0.00     0.060 A 
BRANCH  44  45
ATOM     45  S   UNL A   1      33.261  35.228  28.785  1.00  0.00     0.124 S 
ATOM     46  O   UNL A   1      34.011  36.204  28.001  1.00  0.00    -0.237 OA
ATOM     47  O   UNL A   1      32.624  34.159  28.022  1.00  0.00    -0.237 OA
ATOM     48  O   UNL A   1      32.464  35.779  29.876  1.00  0.00    -0.744 OA
ENDBRANCH  44  45
ENDBRANCH  23  37
BRANCH  24  49
ATOM     49  C   UNL A   1      44.438  28.847  35.821  1.00  0.00     0.058 A 
ATOM     50  C   UNL A   1      44.289  27.862  36.814  1.00  0.00     0.135 A 
ATOM     51  C   UNL A   1      45.736  29.289  35.535  1.00  0.00     0.135 A 
ATOM     52  F   UNL A   1      43.067  27.409  37.130  1.00  0.00    -0.206 F 
ATOM     53  C   UNL A   1      45.380  27.358  37.520  1.00  0.00     0.059 A 
ATOM     54  C   UNL A   1      46.844  28.789  36.216  1.00  0.00     0.059 A 
ATOM     55  F   UNL A   1      45.933  30.225  34.594  1.00  0.00    -0.206 F 
ATOM     56  C   UNL A   1      46.654  27.835  37.217  1.00  0.00     0.060 A 
BRANCH  56  57
ATOM     57  S   UNL A   1      48.097  27.266  38.147  1.00  0.00     0.124 S 
ATOM     58  O   UNL A   1      49.113  27.184  37.103  1.00  0.00    -0.237 OA
ATOM     59  O   UNL A   1      48.269  28.343  39.117  1.00  0.00    -0.237 OA
ATOM     60  O   UNL A   1      47.663  25.990  38.705  1.00  0.00    -0.744 OA
ENDBRANCH  56  57
ENDBRANCH  24  49
BRANCH  36  61
ATOM     61  C   UNL A   1      40.276  34.352  37.136  1.00  0.00     0.058 A 
ATOM     62  C   UNL A   1      39.429  34.073  38.222  1.00  0.00     0.135 A 
ATOM     63  C   UNL A   1      40.873  35.617  37.068  1.00  0.00     0.135 A 
ATOM     64  F   UNL A   1      38.828  32.876  38.322  1.00  0.00    -0.206 F 
ATOM     65  C   UNL A   1      39.137  35.035  39.180  1.00  0.00     0.059 A 
ATOM     66  C   UNL A   1      40.615  36.586  38.030  1.00  0.00     0.059 A 
ATOM     67  F   UNL A   1      41.695  35.925  36.052  1.00  0.00    -0.206 F 
ATOM     68  C   UNL A   1      39.729  36.293  39.069  1.00  0.00     0.060 A 
BRANCH  68  69
ATOM     69  S   UNL A   1      39.310  37.602  40.238  1.00  0.00     0.124 S 
ATOM     70  O   UNL A   1      38.215  38.276  39.549  1.00  0.00    -0.237 OA
ATOM     71  O   UNL A   1      38.941  36.845  41.430  1.00  0.00    -0.237 OA
ATOM     72  O   UNL A   1      40.547  38.370  40.349  1.00  0.00    -0.744 OA
ENDBRANCH  68  69
ENDBRANCH  36  61
ENDBRANCH  10  11
ENDBRANCH   3   5
ENDBRANCH   2   3
ENDBRANCH   1   2
BRANCH   1  73
ATOM     73  C   UNL A   1      40.068  22.509  27.233  1.00  0.00     0.275 C 
BRANCH  73  74
ATOM     74  O   UNL A   1      38.917  22.983  26.516  1.00  0.00    -0.458 OA
BRANCH  74  75
ATOM     75  C   UNL A   1      38.303  22.061  25.726  1.00  0.00     0.338 C 
ATOM     76  O   UNL A   1      38.733  20.971  25.408  1.00  0.00    -0.246 OA
BRANCH  75  77
ATOM     77  C   UNL A   1      36.940  22.531  25.394  1.00  0.00     0.062 A 
ATOM     78  C   UNL A   1      36.593  22.806  24.067  1.00  0.00     0.018 A 
ATOM     79  C   UNL A   1      36.019  22.687  26.449  1.00  0.00     0.044 A 
ATOM     80  C   UNL A   1      35.292  23.213  23.752  1.00  0.00     0.031 A 
ATOM     81  C   UNL A   1      34.765  23.203  26.110  1.00  0.00     0.067 A 
ATOM     82  C   UNL A   1      34.377  23.419  24.793  1.00  0.00     0.089 A 
ATOM     83  N   UNL A   1      33.677  23.613  26.850  1.00  0.00    -0.338 N 
ATOM     84  N   UNL A   1      33.066  23.781  24.731  1.00  0.00    -0.228 NA
ATOM     85  C   UNL A   1      32.651  23.869  25.975  1.00  0.00     0.142 A 
ATOM     86  H   UNL A   1      33.642  23.707  27.830  1.00  0.00     0.168 HD
BRANCH  85  87
ATOM     87  C   UNL A   1      31.225  24.042  26.332  1.00  0.00     0.063 A 
ATOM     88  C   UNL A   1      30.283  23.076  26.580  1.00  0.00     0.117 A 
ATOM     89  C   UNL A   1      30.546  25.291  26.443  1.00  0.00     0.106 A 
ATOM     90  N   UNL A   1      29.154  23.768  26.927  1.00  0.00    -0.284 N 
ATOM     91  N   UNL A   1      29.253  25.096  26.753  1.00  0.00    -0.175 NA
ATOM     92  H   UNL A   1      28.344  23.330  27.273  1.00  0.00     0.189 HD
BRANCH  89  93
ATOM     93  C   UNL A   1      31.084  26.602  26.092  1.00  0.00     0.039 A 
ATOM     94  C   UNL A   1      31.780  27.338  27.070  1.00  0.00     0.016 A 
ATOM     95  C   UNL A   1      30.867  27.181  24.840  1.00  0.00     0.135 A 
ATOM     96  C   UNL A   1      32.214  28.635  26.808  1.00  0.00     0.040 A 
ATOM     97  C   UNL A   1      31.309  28.476  24.568  1.00  0.00     0.079 A 
ATOM     98  F   UNL A   1      30.212  26.515  23.877  1.00  0.00    -0.206 F 
ATOM     99  C   UNL A   1      31.972  29.191  25.559  1.00  0.00     0.126 A 
ATOM    100  F   UNL A   1      32.399  30.436  25.310  1.00  0.00    -0.207 F 
ENDBRANCH  89  93
ENDBRANCH  85  87
ENDBRANCH  75  77
ENDBRANCH  74  75
ENDBRANCH  73  74
ENDBRANCH   1  73
TORSDOF 16
ENDMDL
MODEL 2
REMARK VINA RESULT:     -12.5      4.893      9.853
REMARK SMILES O=C(OCCOC(=O)c1ccc2nc(-c3c[nH]nc3-c3ccc(F)cc3F)[nH]c2c1)c1ccc(-c2c3nc(c(-c4c(F)cc(S(=O)(=O)[O-])cc4F)c4ccc([nH]4)c(-c4c(F)cc(S(=O)(=O)[O-])cc4F)c4nc(c(-c5c(F)cc(S(=O)(=O)[O-])cc5F)c5ccc2[nH]5)C=C4)C=C3)cc1
REMARK SMILES IDX 4 1 3 2 2 3 1 4 31 5 32 6 96 7 33 8 95 9 34 10 35 11 36 12
REMARK SMILES IDX 89 13 37 14 94 15 88 16 90 17 38 18 93 19 87 20 86 21 39 23
REMARK SMILES IDX 73 24 52 25 72 26 53 27 56 28 71 29 91 30 54 31 55 32 70 34
REMARK SMILES IDX 92 35 57 36 40 37 41 38 50 39 42 40 43 41 49 42 51 43 44 44
REMARK SMILES IDX 45 45 46 46 47 47 48 48 74 49 75 50 84 51 76 52 77 53 83 54
REMARK SMILES IDX 85 55 78 56 79 57 80 58 81 59 82 60 58 61 59 62 68 63 60 64
REMARK SMILES IDX 61 65 67 66 69 67 62 68 63 69 64 70 65 71 66 72 5 73 6 74
REMARK SMILES IDX 7 75 8 76 9 77 10 78 30 79 11 80 29 81 12 82 28 83 13 84
REMARK SMILES IDX 14 85 15 87 16 88 19 89 17 90 18 91 20 93 21 94 26 95 22 96
REMARK SMILES IDX 25 97 27 98 23 99 24 100
REMARK H PARENT 90 22 56 33 28 86 17 92
REMARK Flexibility Score: inf
ROOT
ATOM      1  C   UNL A   1      32.342  30.174  26.655  1.00  0.00     0.275 C 
ENDROOT
BRANCH   1   2
ATOM      2  O   UNL A   1      33.747  30.063  26.933  1.00  0.00    -0.458 OA
BRANCH   2   3
ATOM      3  C   UNL A   1      34.497  30.627  27.907  1.00  0.00     0.338 C 
ATOM      4  O   UNL A   1      34.081  31.661  28.430  1.00  0.00    -0.246 OA
BRANCH   3   5
ATOM      5  C   UNL A   1      35.858  30.145  28.324  1.00  0.00     0.060 A 
ATOM      6  C   UNL A   1      36.242  29.713  29.597  1.00  0.00     0.016 A 
ATOM      7  C   UNL A   1      36.824  30.089  27.301  1.00  0.00     0.016 A 
ATOM      8  C   UNL A   1      37.512  29.182  29.838  1.00  0.00     0.010 A 
ATOM      9  C   UNL A   1      38.091  29.550  27.529  1.00  0.00     0.010 A 
ATOM     10  C   UNL A   1      38.440  29.099  28.806  1.00  0.00    -0.014 A 
BRANCH  10  11
ATOM     11  C   UNL A   1      39.845  28.755  29.095  1.00  0.00     0.031 A 
ATOM     12  C   UNL A   1      40.722  29.853  29.605  1.00  0.00     0.074 A 
ATOM     13  C   UNL A   1      40.320  27.512  28.908  1.00  0.00     0.049 A 
ATOM     14  N   UNL A   1      42.006  29.852  29.820  1.00  0.00    -0.248 NA
ATOM     15  C   UNL A   1      40.051  31.125  29.929  1.00  0.00     0.031 C 
ATOM     16  C   UNL A   1      39.515  26.353  28.540  1.00  0.00     0.029 A 
ATOM     17  N   UNL A   1      41.599  27.024  28.960  1.00  0.00    -0.354 N 
ATOM     18  C   UNL A   1      42.295  31.113  30.321  1.00  0.00     0.074 A 
ATOM     19  C   UNL A   1      41.069  31.875  30.314  1.00  0.00     0.031 C 
ATOM     20  C   UNL A   1      40.326  25.311  28.293  1.00  0.00     0.029 A 
ATOM     21  C   UNL A   1      41.707  25.737  28.488  1.00  0.00     0.049 A 
ATOM     22  H   UNL A   1      42.363  27.543  29.301  1.00  0.00     0.167 HD
ATOM     23  C   UNL A   1      43.481  31.575  30.772  1.00  0.00     0.037 A 
ATOM     24  C   UNL A   1      42.803  25.002  28.216  1.00  0.00     0.037 A 
ATOM     25  C   UNL A   1      44.684  30.792  30.743  1.00  0.00     0.049 A 
ATOM     26  C   UNL A   1      44.144  25.582  28.566  1.00  0.00     0.074 A 
ATOM     27  C   UNL A   1      45.949  31.140  31.172  1.00  0.00     0.029 A 
ATOM     28  N   UNL A   1      44.769  29.503  30.228  1.00  0.00    -0.354 N 
ATOM     29  N   UNL A   1      44.414  26.764  29.071  1.00  0.00    -0.248 NA
ATOM     30  C   UNL A   1      45.323  24.735  28.353  1.00  0.00     0.031 C 
ATOM     31  C   UNL A   1      46.811  30.086  30.858  1.00  0.00     0.029 A 
ATOM     32  C   UNL A   1      46.074  29.053  30.294  1.00  0.00     0.049 A 
ATOM     33  H   UNL A   1      44.011  28.986  29.870  1.00  0.00     0.167 HD
ATOM     34  C   UNL A   1      45.784  26.784  29.292  1.00  0.00     0.074 A 
ATOM     35  C   UNL A   1      46.293  25.504  28.838  1.00  0.00     0.031 C 
ATOM     36  C   UNL A   1      46.543  27.761  29.848  1.00  0.00     0.037 A 
BRANCH  23  37
ATOM     37  C   UNL A   1      43.510  32.987  31.277  1.00  0.00     0.058 A 
ATOM     38  C   UNL A   1      43.335  33.252  32.644  1.00  0.00     0.135 A 
ATOM     39  C   UNL A   1      43.776  34.074  30.426  1.00  0.00     0.135 A 
ATOM     40  F   UNL A   1      43.092  32.249  33.501  1.00  0.00    -0.206 F 
ATOM     41  C   UNL A   1      43.443  34.541  33.156  1.00  0.00     0.059 A 
ATOM     42  C   UNL A   1      43.920  35.365  30.922  1.00  0.00     0.059 A 
ATOM     43  F   UNL A   1      43.981  33.874  29.115  1.00  0.00    -0.206 F 
ATOM     44  C   UNL A   1      43.760  35.586  32.291  1.00  0.00     0.060 A 
BRANCH  44  45
ATOM     45  S   UNL A   1      44.010  37.257  32.926  1.00  0.00     0.124 S 
ATOM     46  O   UNL A   1      43.935  38.048  31.701  1.00  0.00    -0.237 OA
ATOM     47  O   UNL A   1      42.888  37.409  33.846  1.00  0.00    -0.237 OA
ATOM     48  O   UNL A   1      45.327  37.192  33.550  1.00  0.00    -0.744 OA
ENDBRANCH  44  45
ENDBRANCH  23  37
BRANCH  24  49
ATOM     49  C   UNL A   1      42.648  23.655  27.607  1.00  0.00     0.058 A 
ATOM     50  C   UNL A   1      42.458  22.516  28.410  1.00  0.00     0.135 A 
ATOM     51  C   UNL A   1      42.777  23.460  26.225  1.00  0.00     0.135 A 
ATOM     52  F   UNL A   1      42.334  22.646  29.738  1.00  0.00    -0.206 F 
ATOM     53  C   UNL A   1      42.431  21.231  27.871  1.00  0.00     0.059 A 
ATOM     54  C   UNL A   1      42.738  22.187  25.660  1.00  0.00     0.059 A 
ATOM     55  F   UNL A   1      42.957  24.513  25.414  1.00  0.00    -0.206 F 
ATOM     56  C   UNL A   1      42.580  21.077  26.493  1.00  0.00     0.060 A 
BRANCH  56  57
ATOM     57  S   UNL A   1      42.621  19.431  25.747  1.00  0.00     0.124 S 
ATOM     58  O   UNL A   1      43.563  19.622  24.650  1.00  0.00    -0.237 OA
ATOM     59  O   UNL A   1      43.098  18.613  26.858  1.00  0.00    -0.237 OA
ATOM     60  O   UNL A   1      41.235  19.199  25.354  1.00  0.00    -0.744 OA
ENDBRANCH  56  57
ENDBRANCH  24  49
BRANCH  36  61
ATOM     61  C   UNL A   1      48.003  27.485  30.055  1.00  0.00     0.058 A 
ATOM     62  C   UNL A   1      48.441  26.948  31.278  1.00  0.00     0.135 A 
ATOM     63  C   UNL A   1      48.969  27.905  29.132  1.00  0.00     0.135 A 
ATOM     64  F   UNL A   1      47.550  26.542  32.196  1.00  0.00    -0.206 F 
ATOM     65  C   UNL A   1      49.790  26.883  31.600  1.00  0.00     0.059 A 
ATOM     66  C   UNL A   1      50.325  27.824  29.423  1.00  0.00     0.059 A 
ATOM     67  F   UNL A   1      48.597  28.416  27.948  1.00  0.00    -0.206 F 
ATOM     68  C   UNL A   1      50.725  27.332  30.669  1.00  0.00     0.060 A 
BRANCH  68  69
ATOM     69  S   UNL A   1      52.482  27.350  31.077  1.00  0.00     0.124 S 
ATOM     70  O   UNL A   1      52.971  28.440  30.238  1.00  0.00    -0.237 OA
ATOM     71  O   UNL A   1      52.462  27.613  32.513  1.00  0.00    -0.237 OA
ATOM     72  O   UNL A   1      52.936  26.016  30.696  1.00  0.00    -0.744 OA
ENDBRANCH  68  69
ENDBRANCH  36  61
ENDBRANCH  10  11
ENDBRANCH   3   5
ENDBRANCH   2   3
ENDBRANCH   1   2
BRANCH   1  73
ATOM     73  C   UNL A   1      31.937  29.752  25.238  1.00  0.00     0.275 C 
BRANCH  73  74
ATOM     74  O   UNL A   1      31.014  28.652  25.191  1.00  0.00    -0.458 OA
BRANCH  74  75
ATOM     75  C   UNL A   1      30.567  28.321  23.949  1.00  0.00     0.338 C 
ATOM     76  O   UNL A   1      29.875  28.999  23.218  1.00  0.00    -0.246 OA
BRANCH  75  77
ATOM     77  C   UNL A   1      31.158  27.025  23.547  1.00  0.00     0.062 A 
ATOM     78  C   UNL A   1      31.790  26.893  22.306  1.00  0.00     0.018 A 
ATOM     79  C   UNL A   1      31.063  25.947  24.449  1.00  0.00     0.044 A 
ATOM     80  C   UNL A   1      32.383  25.678  21.946  1.00  0.00     0.031 A 
ATOM     81  C   UNL A   1      31.566  24.719  24.007  1.00  0.00     0.067 A 
ATOM     82  C   UNL A   1      32.256  24.582  22.809  1.00  0.00     0.089 A 
ATOM     83  N   UNL A   1      31.539  23.442  24.525  1.00  0.00    -0.338 N 
ATOM     84  N   UNL A   1      32.766  23.325  22.689  1.00  0.00    -0.228 NA
ATOM     85  C   UNL A   1      32.347  22.658  23.740  1.00  0.00     0.142 A 
ATOM     86  H   UNL A   1      31.030  23.146  25.315  1.00  0.00     0.168 HD
BRANCH  85  87
ATOM     87  C   UNL A   1      32.851  21.309  24.084  1.00  0.00     0.063 A 
ATOM     88  C   UNL A   1      32.173  20.117  24.084  1.00  0.00     0.117 A 
ATOM     89  C   UNL A   1      34.171  21.009  24.533  1.00  0.00     0.106 A 
ATOM     90  N   UNL A   1      33.112  19.178  24.411  1.00  0.00    -0.284 N 
ATOM     91  N   UNL A   1      34.294  19.696  24.786  1.00  0.00    -0.175 NA
ATOM     92  H   UNL A   1      32.938  18.210  24.373  1.00  0.00     0.189 HD
BRANCH  89  93
ATOM     93  C   UNL A   1      35.211  21.978  24.868  1.00  0.00     0.039 A 
ATOM     94  C   UNL A   1      36.368  22.041  24.067  1.00  0.00     0.016 A 
ATOM     95  C   UNL A   1      35.129  22.792  25.999  1.00  0.00     0.135 A 
ATOM     96  C   UNL A   1      37.429  22.874  24.416  1.00  0.00     0.040 A 
ATOM     97  C   UNL A   1      36.184  23.636  26.347  1.00  0.00     0.079 A 
ATOM     98  F   UNL A   1      34.044  22.767  26.788  1.00  0.00    -0.206 F 
ATOM     99  C   UNL A   1      37.325  23.662  25.554  1.00  0.00     0.126 A 
ATOM    100  F   UNL A   1      38.344  24.468  25.880  1.00  0.00    -0.207 F 
ENDBRANCH  89  93
ENDBRANCH  85  87
ENDBRANCH  75  77
ENDBRANCH  74  75
ENDBRANCH  73  74
ENDBRANCH   1  73
TORSDOF 16
ENDMDL
MODEL 3
REMARK VINA RESULT:     -12.5      6.404     11.763
REMARK SMILES O=C(OCCOC(=O)c1ccc2nc(-c3c[nH]nc3-c3ccc(F)cc3F)[nH]c2c1)c1ccc(-c2c3nc(c(-c4c(F)cc(S(=O)(=O)[O-])cc4F)c4ccc([nH]4)c(-c4c(F)cc(S(=O)(=O)[O-])cc4F)c4nc(c(-c5c(F)cc(S(=O)(=O)[O-])cc5F)c5ccc2[nH]5)C=C4)C=C3)cc1
REMARK SMILES IDX 4 1 3 2 2 3 1 4 31 5 32 6 96 7 33 8 95 9 34 10 35 11 36 12
REMARK SMILES IDX 89 13 37 14 94 15 88 16 90 17 38 18 93 19 87 20 86 21 39 23
REMARK SMILES IDX 73 24 52 25 72 26 53 27 56 28 71 29 91 30 54 31 55 32 70 34
REMARK SMILES IDX 92 35 57 36 40 37 41 38 50 39 42 40 43 41 49 42 51 43 44 44
REMARK SMILES IDX 45 45 46 46 47 47 48 48 74 49 75 50 84 51 76 52 77 53 83 54
REMARK SMILES IDX 85 55 78 56 79 57 80 58 81 59 82 60 58 61 59 62 68 63 60 64
REMARK SMILES IDX 61 65 67 66 69 67 62 68 63 69 64 70 65 71 66 72 5 73 6 74
REMARK SMILES IDX 7 75 8 76 9 77 10 78 30 79 11 80 29 81 12 82 28 83 13 84
REMARK SMILES IDX 14 85 15 87 16 88 19 89 17 90 18 91 20 93 21 94 26 95 22 96
REMARK SMILES IDX 25 97 27 98 23 99 24 100
REMARK H PARENT 90 22 56 33 28 86 17 92
REMARK Flexibility Score: inf
ROOT
ATOM      1  C   UNL A   1      35.552  32.143  31.448  1.00  0.00     0.275 C 
ENDROOT
BRANCH   1   2
ATOM      2  O   UNL A   1      35.931  30.896  30.843  1.00  0.00    -0.458 OA
BRANCH   2   3
ATOM      3  C   UNL A   1      36.865  29.990  31.210  1.00  0.00     0.338 C 
ATOM      4  O   UNL A   1      36.659  29.330  32.230  1.00  0.00    -0.246 OA
BRANCH   3   5
ATOM      5  C   UNL A   1      38.190  29.805  30.527  1.00  0.00     0.060 A 
ATOM      6  C   UNL A   1      38.435  29.828  29.151  1.00  0.00     0.016 A 
ATOM      7  C   UNL A   1      39.298  29.635  31.380  1.00  0.00     0.016 A 
ATOM      8  C   UNL A   1      39.732  29.753  28.636  1.00  0.00     0.010 A 
ATOM      9  C   UNL A   1      40.598  29.572  30.876  1.00  0.00     0.010 A 
ATOM     10  C   UNL A   1      40.817  29.624  29.496  1.00  0.00    -0.014 A 
BRANCH  10  11
ATOM     11  C   UNL A   1      42.157  29.319  28.962  1.00  0.00     0.031 A 
ATOM     12  C   UNL A   1      42.417  27.907  28.546  1.00  0.00     0.074 A 
ATOM     13  C   UNL A   1      43.106  30.264  28.855  1.00  0.00     0.049 A 
ATOM     14  N   UNL A   1      43.530  27.351  28.162  1.00  0.00    -0.248 NA
ATOM     15  C   UNL A   1      41.254  27.002  28.550  1.00  0.00     0.031 C 
ATOM     16  C   UNL A   1      42.907  31.686  29.112  1.00  0.00     0.029 A 
ATOM     17  N   UNL A   1      44.437  30.167  28.543  1.00  0.00    -0.354 N 
ATOM     18  C   UNL A   1      43.199  26.037  27.863  1.00  0.00     0.074 A 
ATOM     19  C   UNL A   1      41.800  25.860  28.174  1.00  0.00     0.031 C 
ATOM     20  C   UNL A   1      44.091  32.316  29.055  1.00  0.00     0.029 A 
ATOM     21  C   UNL A   1      45.129  31.337  28.755  1.00  0.00     0.049 A 
ATOM     22  H   UNL A   1      44.855  29.343  28.201  1.00  0.00     0.167 HD
ATOM     23  C   UNL A   1      43.996  25.077  27.347  1.00  0.00     0.037 A 
ATOM     24  C   UNL A   1      46.455  31.575  28.738  1.00  0.00     0.037 A 
ATOM     25  C   UNL A   1      45.390  25.287  27.071  1.00  0.00     0.049 A 
ATOM     26  C   UNL A   1      47.366  30.454  28.322  1.00  0.00     0.074 A 
ATOM     27  C   UNL A   1      46.306  24.400  26.545  1.00  0.00     0.029 A 
ATOM     28  N   UNL A   1      46.071  26.472  27.328  1.00  0.00    -0.354 N 
ATOM     29  N   UNL A   1      47.048  29.220  28.007  1.00  0.00    -0.248 NA
ATOM     30  C   UNL A   1      48.799  30.752  28.215  1.00  0.00     0.031 C 
ATOM     31  C   UNL A   1      47.555  25.027  26.543  1.00  0.00     0.029 A 
ATOM     32  C   UNL A   1      47.407  26.329  27.005  1.00  0.00     0.049 A 
ATOM     33  H   UNL A   1      45.661  27.293  27.685  1.00  0.00     0.167 HD
ATOM     34  C   UNL A   1      48.229  28.607  27.609  1.00  0.00     0.074 A 
ATOM     35  C   UNL A   1      49.276  29.602  27.752  1.00  0.00     0.031 C 
ATOM     36  C   UNL A   1      48.421  27.349  27.143  1.00  0.00     0.037 A 
BRANCH  23  37
ATOM     37  C   UNL A   1      43.372  23.734  27.107  1.00  0.00     0.058 A 
ATOM     38  C   UNL A   1      43.045  23.331  25.804  1.00  0.00     0.135 A 
ATOM     39  C   UNL A   1      43.156  22.819  28.151  1.00  0.00     0.135 A 
ATOM     40  F   UNL A   1      43.244  24.161  24.768  1.00  0.00    -0.206 F 
ATOM     41  C   UNL A   1      42.546  22.060  25.537  1.00  0.00     0.059 A 
ATOM     42  C   UNL A   1      42.689  21.533  27.904  1.00  0.00     0.059 A 
ATOM     43  F   UNL A   1      43.479  23.142  29.414  1.00  0.00    -0.206 F 
ATOM     44  C   UNL A   1      42.395  21.160  26.591  1.00  0.00     0.060 A 
BRANCH  44  45
ATOM     45  S   UNL A   1      41.847  19.469  26.281  1.00  0.00     0.124 S 
ATOM     46  O   UNL A   1      42.601  19.135  25.076  1.00  0.00    -0.237 OA
ATOM     47  O   UNL A   1      42.263  18.781  27.498  1.00  0.00    -0.237 OA
ATOM     48  O   UNL A   1      40.406  19.605  26.100  1.00  0.00    -0.744 OA
ENDBRANCH  44  45
ENDBRANCH  23  37
BRANCH  24  49
ATOM     49  C   UNL A   1      46.962  32.922  29.109  1.00  0.00     0.058 A 
ATOM     50  C   UNL A   1      47.119  33.927  28.138  1.00  0.00     0.135 A 
ATOM     51  C   UNL A   1      47.385  33.208  30.414  1.00  0.00     0.135 A 
ATOM     52  F   UNL A   1      46.735  33.703  26.873  1.00  0.00    -0.206 F 
ATOM     53  C   UNL A   1      47.704  35.156  28.438  1.00  0.00     0.059 A 
ATOM     54  C   UNL A   1      47.959  34.435  30.742  1.00  0.00     0.059 A 
ATOM     55  F   UNL A   1      47.255  32.286  31.378  1.00  0.00    -0.206 F 
ATOM     56  C   UNL A   1      48.128  35.397  29.744  1.00  0.00     0.060 A 
BRANCH  56  57
ATOM     57  S   UNL A   1      48.954  36.946  30.175  1.00  0.00     0.124 S 
ATOM     58  O   UNL A   1      48.507  37.153  31.549  1.00  0.00    -0.237 OA
ATOM     59  O   UNL A   1      50.360  36.589  30.012  1.00  0.00    -0.237 OA
ATOM     60  O   UNL A   1      48.435  37.895  29.196  1.00  0.00    -0.744 OA
ENDBRANCH  56  57
ENDBRANCH  24  49
BRANCH  36  61
ATOM     61  C   UNL A   1      49.801  26.968  26.693  1.00  0.00     0.058 A 
ATOM     62  C   UNL A   1      50.134  27.052  25.330  1.00  0.00     0.135 A 
ATOM     63  C   UNL A   1      50.718  26.368  27.564  1.00  0.00     0.135 A 
ATOM     64  F   UNL A   1      49.280  27.611  24.458  1.00  0.00    -0.206 F 
ATOM     65  C   UNL A   1      51.312  26.506  24.837  1.00  0.00     0.059 A 
ATOM     66  C   UNL A   1      51.915  25.839  27.096  1.00  0.00     0.059 A 
ATOM     67  F   UNL A   1      50.445  26.274  28.875  1.00  0.00    -0.206 F 
ATOM     68  C   UNL A   1      52.192  25.893  25.727  1.00  0.00     0.060 A 
BRANCH  68  69
ATOM     69  S   UNL A   1      53.691  25.093  25.121  1.00  0.00     0.124 S 
ATOM     70  O   UNL A   1      53.366  23.681  25.299  1.00  0.00    -0.237 OA
ATOM     71  O   UNL A   1      53.754  25.561  23.740  1.00  0.00    -0.237 OA
ATOM     72  O   UNL A   1      54.736  25.610  26.001  1.00  0.00    -0.744 OA
ENDBRANCH  68  69
ENDBRANCH  36  61
ENDBRANCH  10  11
ENDBRANCH   3   5
ENDBRANCH   2   3
ENDBRANCH   1   2
BRANCH   1  73
ATOM     73  C   UNL A   1      35.033  33.198  30.463  1.00  0.00     0.275 C 
BRANCH  73  74
ATOM     74  O   UNL A   1      34.000  32.727  29.584  1.00  0.00    -0.458 OA
BRANCH  74  75
ATOM     75  C   UNL A   1      34.297  32.778  28.257  1.00  0.00     0.338 C 
ATOM     76  O   UNL A   1      34.767  33.719  27.651  1.00  0.00    -0.246 OA
BRANCH  75  77
ATOM     77  C   UNL A   1      34.076  31.445  27.654  1.00  0.00     0.062 A 
ATOM     78  C   UNL A   1      35.129  30.530  27.559  1.00  0.00     0.018 A 
ATOM     79  C   UNL A   1      32.781  31.136  27.190  1.00  0.00     0.044 A 
ATOM     80  C   UNL A   1      34.906  29.256  27.025  1.00  0.00     0.031 A 
ATOM     81  C   UNL A   1      32.624  29.898  26.560  1.00  0.00     0.067 A 
ATOM     82  C   UNL A   1      33.638  28.949  26.515  1.00  0.00     0.089 A 
ATOM     83  N   UNL A   1      31.583  29.308  25.877  1.00  0.00    -0.338 N 
ATOM     84  N   UNL A   1      33.182  27.783  25.980  1.00  0.00    -0.228 NA
ATOM     85  C   UNL A   1      31.937  28.006  25.624  1.00  0.00     0.142 A 
ATOM     86  H   UNL A   1      30.739  29.742  25.615  1.00  0.00     0.168 HD
BRANCH  85  87
ATOM     87  C   UNL A   1      31.024  26.925  25.187  1.00  0.00     0.063 A 
ATOM     88  C   UNL A   1      31.011  25.609  25.573  1.00  0.00     0.117 A 
ATOM     89  C   UNL A   1      29.986  27.060  24.219  1.00  0.00     0.106 A 
ATOM     90  N   UNL A   1      29.934  25.064  24.929  1.00  0.00    -0.284 N 
ATOM     91  N   UNL A   1      29.364  25.885  24.030  1.00  0.00    -0.175 NA
ATOM     92  H   UNL A   1      29.607  24.154  25.108  1.00  0.00     0.189 HD
BRANCH  89  93
ATOM     93  C   UNL A   1      29.726  28.233  23.388  1.00  0.00     0.039 A 
ATOM     94  C   UNL A   1      28.456  28.839  23.442  1.00  0.00     0.016 A 
ATOM     95  C   UNL A   1      30.672  28.727  22.488  1.00  0.00     0.135 A 
ATOM     96  C   UNL A   1      28.134  29.890  22.587  1.00  0.00     0.040 A 
ATOM     97  C   UNL A   1      30.358  29.787  21.636  1.00  0.00     0.079 A 
ATOM     98  F   UNL A   1      31.895  28.182  22.405  1.00  0.00    -0.206 F 
ATOM     99  C   UNL A   1      29.090  30.352  21.691  1.00  0.00     0.126 A 
ATOM    100  F   UNL A   1      28.778  31.369  20.878  1.00  0.00    -0.207 F 
ENDBRANCH  89  93
ENDBRANCH  85  87
ENDBRANCH  75  77
ENDBRANCH  74  75
ENDBRANCH  73  74
ENDBRANCH   1  73
TORSDOF 16
ENDMDL
