MODEL 1
REMARK VINA RESULT:     -11.3      0.000      0.000
REMARK SMILES Cn1nc(N2CCC(CC(=O)OCCOC(=O)c3ccc(-c4c5nc(c(-c6c(F)cc(S(=O)(=O)[O-])cc6F)c6ccc([nH]6)c(-c6c(F)cc(S(=O)(=O)[O-])cc6F)c6nc(c(-c7c(F)cc(S(=O)(=O)[O-])cc7F)c7ccc4[nH]7)C=C6)C=C5)cc3)CC2)c(=O)n(C)c1=O
REMARK SMILES IDX 14 1 13 2 12 3 10 4 11 5 9 6 8 7 5 8 6 9 85 10 7 11 84 12
REMARK SMILES IDX 4 13 1 14 2 15 3 16 90 17 88 18 91 19 86 20 89 21 87 22
REMARK SMILES IDX 15 23 16 24 17 25 18 26 19 27 83 28 20 29 82 30 21 31 22 32
REMARK SMILES IDX 23 33 76 34 24 35 81 36 75 37 77 38 25 39 80 40 74 41 73 42
REMARK SMILES IDX 26 44 60 45 39 46 59 47 40 48 43 49 58 50 78 51 41 52 42 53
REMARK SMILES IDX 57 55 79 56 44 57 27 58 28 59 37 60 29 61 30 62 36 63 38 64
REMARK SMILES IDX 31 65 32 66 33 67 34 68 35 69 61 70 62 71 71 72 63 73 64 74
REMARK SMILES IDX 70 75 72 76 65 77 66 78 67 79 68 80 69 81 45 82 46 83 55 84
REMARK SMILES IDX 47 85 48 86 54 87 56 88 49 89 50 90 51 91 52 92 53 93
REMARK H PARENT 77 43 43 54
REMARK Flexibility Score: inf
ROOT
ATOM      1  C   UNL A   1      34.675  31.295  28.140  1.00  0.00     0.275 C 
ENDROOT
BRANCH   1   2
ATOM      2  C   UNL A   1      33.515  30.768  27.292  1.00  0.00     0.274 C 
BRANCH   2   3
ATOM      3  O   UNL A   1      33.864  29.537  26.629  1.00  0.00    -0.462 OA
BRANCH   3   4
ATOM      4  C   UNL A   1      33.162  29.229  25.509  1.00  0.00     0.306 C 
ATOM      5  O   UNL A   1      32.079  29.717  25.211  1.00  0.00    -0.252 OA
BRANCH   4   6
ATOM      6  C   UNL A   1      33.819  28.140  24.683  1.00  0.00     0.126 C 
BRANCH   6   7
ATOM      7  C   UNL A   1      33.084  26.790  24.630  1.00  0.00     0.003 C 
ATOM      8  N   UNL A   1      33.222  23.911  24.746  1.00  0.00    -0.351 N 
ATOM      9  C   UNL A   1      32.960  24.539  23.464  1.00  0.00     0.118 C 
ATOM     10  C   UNL A   1      32.689  24.607  25.907  1.00  0.00     0.118 C 
ATOM     11  C   UNL A   1      33.562  25.936  23.439  1.00  0.00     0.026 C 
ATOM     12  C   UNL A   1      33.288  26.018  25.954  1.00  0.00     0.026 C 
BRANCH   8  13
ATOM     13  C   UNL A   1      34.104  22.850  24.873  1.00  0.00     0.215 A 
ATOM     14  C   UNL A   1      37.601  22.279  25.455  1.00  0.00     0.180 C 
ATOM     15  N   UNL A   1      36.212  21.976  25.163  1.00  0.00    -0.216 N 
ATOM     16  N   UNL A   1      35.381  23.054  25.034  1.00  0.00    -0.145 NA
ATOM     17  C   UNL A   1      35.836  20.647  24.994  1.00  0.00     0.346 A 
ATOM     18  N   UNL A   1      34.495  20.416  24.773  1.00  0.00    -0.259 N 
ATOM     19  O   UNL A   1      36.662  19.731  25.049  1.00  0.00    -0.246 OA
ATOM     20  C   UNL A   1      33.553  21.423  24.779  1.00  0.00     0.299 A 
ATOM     21  C   UNL A   1      34.020  19.067  24.553  1.00  0.00     0.159 C 
ATOM     22  O   UNL A   1      32.344  21.245  24.677  1.00  0.00    -0.265 OA
ENDBRANCH   8  13
ENDBRANCH   6   7
ENDBRANCH   4   6
ENDBRANCH   3   4
ENDBRANCH   2   3
ENDBRANCH   1   2
BRANCH   1  23
ATOM     23  O   UNL A   1      35.559  30.231  28.534  1.00  0.00    -0.458 OA
BRANCH  23  24
ATOM     24  C   UNL A   1      36.300  30.480  29.638  1.00  0.00     0.338 C 
ATOM     25  O   UNL A   1      35.894  30.775  30.748  1.00  0.00    -0.246 OA
BRANCH  24  26
ATOM     26  C   UNL A   1      37.718  30.222  29.343  1.00  0.00     0.060 A 
ATOM     27  C   UNL A   1      38.079  29.930  28.025  1.00  0.00     0.016 A 
ATOM     28  C   UNL A   1      38.665  30.190  30.367  1.00  0.00     0.016 A 
ATOM     29  C   UNL A   1      39.397  29.591  27.726  1.00  0.00     0.010 A 
ATOM     30  C   UNL A   1      39.986  29.848  30.065  1.00  0.00     0.010 A 
ATOM     31  C   UNL A   1      40.355  29.530  28.747  1.00  0.00    -0.014 A 
BRANCH  31  32
ATOM     32  C   UNL A   1      41.727  29.062  28.444  1.00  0.00     0.031 A 
ATOM     33  C   UNL A   1      42.868  30.037  28.492  1.00  0.00     0.074 A 
ATOM     34  C   UNL A   1      41.952  27.767  28.157  1.00  0.00     0.049 A 
ATOM     35  N   UNL A   1      44.126  29.854  28.187  1.00  0.00    -0.248 NA
ATOM     36  C   UNL A   1      42.550  31.401  28.947  1.00  0.00     0.031 C 
ATOM     37  C   UNL A   1      40.934  26.717  28.141  1.00  0.00     0.029 A 
ATOM     38  N   UNL A   1      43.113  27.114  27.829  1.00  0.00    -0.354 N 
ATOM     39  C   UNL A   1      44.751  31.076  28.409  1.00  0.00     0.074 A 
ATOM     40  C   UNL A   1      43.729  32.000  28.853  1.00  0.00     0.031 C 
ATOM     41  C   UNL A   1      41.516  25.549  27.822  1.00  0.00     0.029 A 
ATOM     42  C   UNL A   1      42.938  25.775  27.572  1.00  0.00     0.049 A 
ATOM     43  H   UNL A   1      43.988  27.562  27.780  1.00  0.00     0.167 HD
ATOM     44  C   UNL A   1      46.060  31.394  28.261  1.00  0.00     0.037 A 
ATOM     45  C   UNL A   1      43.820  24.844  27.162  1.00  0.00     0.037 A 
ATOM     46  C   UNL A   1      47.071  30.470  27.816  1.00  0.00     0.049 A 
ATOM     47  C   UNL A   1      45.252  25.241  26.926  1.00  0.00     0.074 A 
ATOM     48  C   UNL A   1      48.419  30.703  27.607  1.00  0.00     0.029 A 
ATOM     49  N   UNL A   1      46.845  29.135  27.516  1.00  0.00    -0.354 N 
ATOM     50  N   UNL A   1      45.822  26.410  27.095  1.00  0.00    -0.248 NA
ATOM     51  C   UNL A   1      46.159  24.196  26.434  1.00  0.00     0.031 C 
ATOM     52  C   UNL A   1      49.003  29.515  27.152  1.00  0.00     0.029 A 
ATOM     53  C   UNL A   1      48.026  28.533  27.113  1.00  0.00     0.049 A 
ATOM     54  H   UNL A   1      45.974  28.681  27.579  1.00  0.00     0.167 HD
ATOM     55  C   UNL A   1      47.156  26.239  26.744  1.00  0.00     0.074 A 
ATOM     56  C   UNL A   1      47.312  24.849  26.364  1.00  0.00     0.031 C 
ATOM     57  C   UNL A   1      48.161  27.149  26.736  1.00  0.00     0.037 A 
BRANCH  44  58
ATOM     58  C   UNL A   1      46.468  32.807  28.565  1.00  0.00     0.058 A 
ATOM     59  C   UNL A   1      46.906  33.184  29.844  1.00  0.00     0.135 A 
ATOM     60  C   UNL A   1      46.451  33.787  27.561  1.00  0.00     0.135 A 
ATOM     61  F   UNL A   1      46.921  32.291  30.845  1.00  0.00    -0.206 F 
ATOM     62  C   UNL A   1      47.298  34.491  30.121  1.00  0.00     0.059 A 
ATOM     63  C   UNL A   1      46.858  35.094  27.810  1.00  0.00     0.059 A 
ATOM     64  F   UNL A   1      46.034  33.478  26.323  1.00  0.00    -0.206 F 
ATOM     65  C   UNL A   1      47.269  35.439  29.096  1.00  0.00     0.060 A 
BRANCH  65  66
ATOM     66  S   UNL A   1      47.787  37.129  29.469  1.00  0.00     0.124 S 
ATOM     67  O   UNL A   1      47.133  37.355  30.754  1.00  0.00    -0.237 OA
ATOM     68  O   UNL A   1      49.240  37.008  29.510  1.00  0.00    -0.237 OA
ATOM     69  O   UNL A   1      47.256  37.902  28.351  1.00  0.00    -0.744 OA
ENDBRANCH  65  66
ENDBRANCH  44  58
BRANCH  45  70
ATOM     70  C   UNL A   1      43.370  23.446  26.938  1.00  0.00     0.058 A 
ATOM     71  C   UNL A   1      43.186  22.948  25.640  1.00  0.00     0.135 A 
ATOM     72  C   UNL A   1      43.135  22.575  28.013  1.00  0.00     0.135 A 
ATOM     73  F   UNL A   1      43.386  23.748  24.580  1.00  0.00    -0.206 F 
ATOM     74  C   UNL A   1      42.782  21.637  25.414  1.00  0.00     0.059 A 
ATOM     75  C   UNL A   1      42.752  21.253  27.812  1.00  0.00     0.059 A 
ATOM     76  F   UNL A   1      43.305  23.003  29.273  1.00  0.00    -0.206 F 
ATOM     77  C   UNL A   1      42.571  20.794  26.507  1.00  0.00     0.060 A 
BRANCH  77  78
ATOM     78  S   UNL A   1      42.109  19.076  26.201  1.00  0.00     0.124 S 
ATOM     79  O   UNL A   1      42.387  18.462  27.494  1.00  0.00    -0.237 OA
ATOM     80  O   UNL A   1      40.699  19.197  25.842  1.00  0.00    -0.237 OA
ATOM     81  O   UNL A   1      42.994  18.680  25.110  1.00  0.00    -0.744 OA
ENDBRANCH  77  78
ENDBRANCH  45  70
BRANCH  57  82
ATOM     82  C   UNL A   1      49.523  26.667  26.321  1.00  0.00     0.058 A 
ATOM     83  C   UNL A   1      50.009  26.877  25.021  1.00  0.00     0.135 A 
ATOM     84  C   UNL A   1      50.366  26.032  27.245  1.00  0.00     0.135 A 
ATOM     85  F   UNL A   1      49.238  27.475  24.099  1.00  0.00    -0.206 F 
ATOM     86  C   UNL A   1      51.279  26.453  24.646  1.00  0.00     0.059 A 
ATOM     87  C   UNL A   1      51.649  25.619  26.898  1.00  0.00     0.059 A 
ATOM     88  F   UNL A   1      49.951  25.817  28.504  1.00  0.00    -0.206 F 
ATOM     89  C   UNL A   1      52.092  25.825  25.592  1.00  0.00     0.060 A 
BRANCH  89  90
ATOM     90  S   UNL A   1      53.750  25.305  25.100  1.00  0.00     0.124 S 
ATOM     91  O   UNL A   1      53.763  25.665  23.687  1.00  0.00    -0.237 OA
ATOM     92  O   UNL A   1      54.603  26.111  25.968  1.00  0.00    -0.237 OA
ATOM     93  O   UNL A   1      53.754  23.872  25.383  1.00  0.00    -0.744 OA
ENDBRANCH  89  90
ENDBRANCH  57  82
ENDBRANCH  31  32
ENDBRANCH  24  26
ENDBRANCH  23  24
ENDBRANCH   1  23
TORSDOF 16
ENDMDL
MODEL 2
REMARK VINA RESULT:     -11.3      6.610     12.227
REMARK SMILES Cn1nc(N2CCC(CC(=O)OCCOC(=O)c3ccc(-c4c5nc(c(-c6c(F)cc(S(=O)(=O)[O-])cc6F)c6ccc([nH]6)c(-c6c(F)cc(S(=O)(=O)[O-])cc6F)c6nc(c(-c7c(F)cc(S(=O)(=O)[O-])cc7F)c7ccc4[nH]7)C=C6)C=C5)cc3)CC2)c(=O)n(C)c1=O
REMARK SMILES IDX 14 1 13 2 12 3 10 4 11 5 9 6 8 7 5 8 6 9 85 10 7 11 84 12
REMARK SMILES IDX 4 13 1 14 2 15 3 16 90 17 88 18 91 19 86 20 89 21 87 22
REMARK SMILES IDX 15 23 16 24 17 25 18 26 19 27 83 28 20 29 82 30 21 31 22 32
REMARK SMILES IDX 23 33 76 34 24 35 81 36 75 37 77 38 25 39 80 40 74 41 73 42
REMARK SMILES IDX 26 44 60 45 39 46 59 47 40 48 43 49 58 50 78 51 41 52 42 53
REMARK SMILES IDX 57 55 79 56 44 57 27 58 28 59 37 60 29 61 30 62 36 63 38 64
REMARK SMILES IDX 31 65 32 66 33 67 34 68 35 69 61 70 62 71 71 72 63 73 64 74
REMARK SMILES IDX 70 75 72 76 65 77 66 78 67 79 68 80 69 81 45 82 46 83 55 84
REMARK SMILES IDX 47 85 48 86 54 87 56 88 49 89 50 90 51 91 52 92 53 93
REMARK H PARENT 77 43 43 54
REMARK Flexibility Score: inf
ROOT
ATOM      1  C   UNL A   1      40.628  22.377  26.725  1.00  0.00     0.275 C 
ENDROOT
BRANCH   1   2
ATOM      2  C   UNL A   1      39.551  21.486  26.101  1.00  0.00     0.274 C 
BRANCH   2   3
ATOM      3  O   UNL A   1      38.385  22.248  25.730  1.00  0.00    -0.462 OA
BRANCH   3   4
ATOM      4  C   UNL A   1      37.498  21.639  24.904  1.00  0.00     0.306 C 
ATOM      5  O   UNL A   1      37.331  20.427  24.833  1.00  0.00    -0.252 OA
BRANCH   4   6
ATOM      6  C   UNL A   1      36.774  22.614  23.996  1.00  0.00     0.126 C 
BRANCH   6   7
ATOM      7  C   UNL A   1      35.256  22.744  24.212  1.00  0.00     0.003 C 
ATOM      8  N   UNL A   1      32.874  24.359  24.011  1.00  0.00    -0.351 N 
ATOM      9  C   UNL A   1      33.427  24.105  25.328  1.00  0.00     0.118 C 
ATOM     10  C   UNL A   1      33.047  23.289  23.039  1.00  0.00     0.118 C 
ATOM     11  C   UNL A   1      34.926  23.860  25.223  1.00  0.00     0.026 C 
ATOM     12  C   UNL A   1      34.546  23.018  22.866  1.00  0.00     0.026 C 
BRANCH   8  13
ATOM     13  C   UNL A   1      32.417  25.613  23.640  1.00  0.00     0.215 A 
ATOM     14  C   UNL A   1      33.734  28.794  22.622  1.00  0.00     0.180 C 
ATOM     15  N   UNL A   1      32.750  27.801  23.010  1.00  0.00    -0.216 N 
ATOM     16  N   UNL A   1      33.249  26.581  23.379  1.00  0.00    -0.145 NA
ATOM     17  C   UNL A   1      31.405  28.155  23.021  1.00  0.00     0.346 A 
ATOM     18  N   UNL A   1      30.514  27.155  23.345  1.00  0.00    -0.259 N 
ATOM     19  O   UNL A   1      31.038  29.302  22.749  1.00  0.00    -0.246 OA
ATOM     20  C   UNL A   1      30.904  25.854  23.583  1.00  0.00     0.299 A 
ATOM     21  C   UNL A   1      29.097  27.443  23.414  1.00  0.00     0.159 C 
ATOM     22  O   UNL A   1      30.133  24.921  23.782  1.00  0.00    -0.265 OA
ENDBRANCH   8  13
ENDBRANCH   6   7
ENDBRANCH   4   6
ENDBRANCH   3   4
ENDBRANCH   2   3
ENDBRANCH   1   2
BRANCH   1  23
ATOM     23  O   UNL A   1      40.192  23.746  26.801  1.00  0.00    -0.458 OA
BRANCH  23  24
ATOM     24  C   UNL A   1      41.177  24.668  26.707  1.00  0.00     0.338 C 
ATOM     25  O   UNL A   1      42.098  24.685  25.908  1.00  0.00    -0.246 OA
BRANCH  24  26
ATOM     26  C   UNL A   1      40.917  25.759  27.658  1.00  0.00     0.060 A 
ATOM     27  C   UNL A   1      41.824  26.821  27.713  1.00  0.00     0.016 A 
ATOM     28  C   UNL A   1      39.836  25.696  28.538  1.00  0.00     0.016 A 
ATOM     29  C   UNL A   1      41.659  27.826  28.665  1.00  0.00     0.010 A 
ATOM     30  C   UNL A   1      39.673  26.703  29.493  1.00  0.00     0.010 A 
ATOM     31  C   UNL A   1      40.593  27.764  29.573  1.00  0.00    -0.014 A 
BRANCH  31  32
ATOM     32  C   UNL A   1      40.483  28.772  30.652  1.00  0.00     0.031 A 
ATOM     33  C   UNL A   1      41.420  28.706  31.824  1.00  0.00     0.074 A 
ATOM     34  C   UNL A   1      39.570  29.756  30.567  1.00  0.00     0.049 A 
ATOM     35  N   UNL A   1      41.443  29.438  32.907  1.00  0.00    -0.248 NA
ATOM     36  C   UNL A   1      42.474  27.680  31.767  1.00  0.00     0.031 C 
ATOM     37  C   UNL A   1      38.648  29.958  29.449  1.00  0.00     0.029 A 
ATOM     38  N   UNL A   1      39.270  30.773  31.437  1.00  0.00    -0.354 N 
ATOM     39  C   UNL A   1      42.508  28.962  33.663  1.00  0.00     0.074 A 
ATOM     40  C   UNL A   1      43.093  27.863  32.925  1.00  0.00     0.031 C 
ATOM     41  C   UNL A   1      37.887  31.037  29.700  1.00  0.00     0.029 A 
ATOM     42  C   UNL A   1      38.239  31.577  31.012  1.00  0.00     0.049 A 
ATOM     43  H   UNL A   1      39.747  30.914  32.286  1.00  0.00     0.167 HD
ATOM     44  C   UNL A   1      42.958  29.408  34.861  1.00  0.00     0.037 A 
ATOM     45  C   UNL A   1      37.634  32.614  31.621  1.00  0.00     0.037 A 
ATOM     46  C   UNL A   1      42.368  30.500  35.591  1.00  0.00     0.049 A 
ATOM     47  C   UNL A   1      38.100  33.038  32.987  1.00  0.00     0.074 A 
ATOM     48  C   UNL A   1      42.734  31.008  36.825  1.00  0.00     0.029 A 
ATOM     49  N   UNL A   1      41.292  31.255  35.151  1.00  0.00    -0.354 N 
ATOM     50  N   UNL A   1      39.079  32.551  33.712  1.00  0.00    -0.248 NA
ATOM     51  C   UNL A   1      37.373  34.145  33.623  1.00  0.00     0.031 C 
ATOM     52  C   UNL A   1      41.859  32.052  37.145  1.00  0.00     0.029 A 
ATOM     53  C   UNL A   1      40.972  32.219  36.093  1.00  0.00     0.049 A 
ATOM     54  H   UNL A   1      40.823  31.126  34.295  1.00  0.00     0.167 HD
ATOM     55  C   UNL A   1      39.095  33.300  34.883  1.00  0.00     0.074 A 
ATOM     56  C   UNL A   1      38.035  34.282  34.765  1.00  0.00     0.031 C 
ATOM     57  C   UNL A   1      39.912  33.186  35.959  1.00  0.00     0.037 A 
BRANCH  44  58
ATOM     58  C   UNL A   1      44.135  28.698  35.465  1.00  0.00     0.058 A 
ATOM     59  C   UNL A   1      45.453  29.086  35.177  1.00  0.00     0.135 A 
ATOM     60  C   UNL A   1      43.946  27.639  36.367  1.00  0.00     0.135 A 
ATOM     61  F   UNL A   1      45.690  30.079  34.304  1.00  0.00    -0.206 F 
ATOM     62  C   UNL A   1      46.543  28.437  35.748  1.00  0.00     0.059 A 
ATOM     63  C   UNL A   1      45.020  26.990  36.967  1.00  0.00     0.059 A 
ATOM     64  F   UNL A   1      42.705  27.225  36.671  1.00  0.00    -0.206 F 
ATOM     65  C   UNL A   1      46.316  27.388  36.643  1.00  0.00     0.060 A 
BRANCH  65  66
ATOM     66  S   UNL A   1      47.740  26.561  37.381  1.00  0.00     0.124 S 
ATOM     67  O   UNL A   1      47.320  25.164  37.337  1.00  0.00    -0.237 OA
ATOM     68  O   UNL A   1      48.820  26.926  36.472  1.00  0.00    -0.237 OA
ATOM     69  O   UNL A   1      47.821  27.148  38.715  1.00  0.00    -0.744 OA
ENDBRANCH  65  66
ENDBRANCH  44  58
BRANCH  45  70
ATOM     70  C   UNL A   1      36.514  33.318  30.945  1.00  0.00     0.058 A 
ATOM     71  C   UNL A   1      35.193  33.161  31.388  1.00  0.00     0.135 A 
ATOM     72  C   UNL A   1      36.743  34.177  29.858  1.00  0.00     0.135 A 
ATOM     73  F   UNL A   1      34.924  32.340  32.416  1.00  0.00    -0.206 F 
ATOM     74  C   UNL A   1      34.136  33.826  30.777  1.00  0.00     0.059 A 
ATOM     75  C   UNL A   1      35.705  34.870  29.244  1.00  0.00     0.059 A 
ATOM     76  F   UNL A   1      37.990  34.365  29.402  1.00  0.00    -0.206 F 
ATOM     77  C   UNL A   1      34.402  34.684  29.708  1.00  0.00     0.060 A 
BRANCH  77  78
ATOM     78  S   UNL A   1      33.031  35.593  28.962  1.00  0.00     0.124 S 
ATOM     79  O   UNL A   1      32.411  34.563  28.137  1.00  0.00    -0.237 OA
ATOM     80  O   UNL A   1      32.271  36.016  30.134  1.00  0.00    -0.237 OA
ATOM     81  O   UNL A   1      33.699  36.669  28.235  1.00  0.00    -0.744 OA
ENDBRANCH  77  78
ENDBRANCH  45  70
BRANCH  57  82
ATOM     82  C   UNL A   1      39.705  34.157  37.087  1.00  0.00     0.058 A 
ATOM     83  C   UNL A   1      38.930  33.824  38.208  1.00  0.00     0.135 A 
ATOM     84  C   UNL A   1      40.326  35.415  37.066  1.00  0.00     0.135 A 
ATOM     85  F   UNL A   1      38.312  32.634  38.273  1.00  0.00    -0.206 F 
ATOM     86  C   UNL A   1      38.761  34.715  39.263  1.00  0.00     0.059 A 
ATOM     87  C   UNL A   1      40.189  36.314  38.120  1.00  0.00     0.059 A 
ATOM     88  F   UNL A   1      41.086  35.778  36.020  1.00  0.00    -0.206 F 
ATOM     89  C   UNL A   1      39.394  35.958  39.209  1.00  0.00     0.060 A 
BRANCH  89  90
ATOM     90  S   UNL A   1      39.190  37.095  40.597  1.00  0.00     0.124 S 
ATOM     91  O   UNL A   1      40.567  37.517  40.835  1.00  0.00    -0.237 OA
ATOM     92  O   UNL A   1      38.302  38.112  40.042  1.00  0.00    -0.237 OA
ATOM     93  O   UNL A   1      38.602  36.258  41.638  1.00  0.00    -0.744 OA
ENDBRANCH  89  90
ENDBRANCH  57  82
ENDBRANCH  31  32
ENDBRANCH  24  26
ENDBRANCH  23  24
ENDBRANCH   1  23
TORSDOF 16
ENDMDL
MODEL 3
REMARK VINA RESULT:     -11.1      2.669      3.471
REMARK SMILES Cn1nc(N2CCC(CC(=O)OCCOC(=O)c3ccc(-c4c5nc(c(-c6c(F)cc(S(=O)(=O)[O-])cc6F)c6ccc([nH]6)c(-c6c(F)cc(S(=O)(=O)[O-])cc6F)c6nc(c(-c7c(F)cc(S(=O)(=O)[O-])cc7F)c7ccc4[nH]7)C=C6)C=C5)cc3)CC2)c(=O)n(C)c1=O
REMARK SMILES IDX 14 1 13 2 12 3 10 4 11 5 9 6 8 7 5 8 6 9 85 10 7 11 84 12
REMARK SMILES IDX 4 13 1 14 2 15 3 16 90 17 88 18 91 19 86 20 89 21 87 22
REMARK SMILES IDX 15 23 16 24 17 25 18 26 19 27 83 28 20 29 82 30 21 31 22 32
REMARK SMILES IDX 23 33 76 34 24 35 81 36 75 37 77 38 25 39 80 40 74 41 73 42
REMARK SMILES IDX 26 44 60 45 39 46 59 47 40 48 43 49 58 50 78 51 41 52 42 53
REMARK SMILES IDX 57 55 79 56 44 57 27 58 28 59 37 60 29 61 30 62 36 63 38 64
REMARK SMILES IDX 31 65 32 66 33 67 34 68 35 69 61 70 62 71 71 72 63 73 64 74
REMARK SMILES IDX 70 75 72 76 65 77 66 78 67 79 68 80 69 81 45 82 46 83 55 84
REMARK SMILES IDX 47 85 48 86 54 87 56 88 49 89 50 90 51 91 52 92 53 93
REMARK H PARENT 77 43 43 54
REMARK Flexibility Score: inf
ROOT
ATOM      1  C   UNL A   1      32.335  30.238  26.904  1.00  0.00     0.275 C 
ENDROOT
BRANCH   1   2
ATOM      2  C   UNL A   1      31.797  29.453  25.705  1.00  0.00     0.274 C 
BRANCH   2   3
ATOM      3  O   UNL A   1      32.849  29.123  24.776  1.00  0.00    -0.462 OA
BRANCH   3   4
ATOM      4  C   UNL A   1      32.593  28.119  23.900  1.00  0.00     0.306 C 
ATOM      5  O   UNL A   1      33.432  27.596  23.177  1.00  0.00    -0.252 OA
BRANCH   4   6
ATOM      6  C   UNL A   1      31.124  27.750  23.840  1.00  0.00     0.126 C 
BRANCH   6   7
ATOM      7  C   UNL A   1      30.772  26.296  24.198  1.00  0.00     0.003 C 
ATOM      8  N   UNL A   1      31.677  23.610  24.735  1.00  0.00    -0.351 N 
ATOM      9  C   UNL A   1      30.994  23.871  23.482  1.00  0.00     0.118 C 
ATOM     10  C   UNL A   1      31.241  24.414  25.868  1.00  0.00     0.118 C 
ATOM     11  C   UNL A   1      31.192  25.325  23.076  1.00  0.00     0.026 C 
ATOM     12  C   UNL A   1      31.448  25.895  25.530  1.00  0.00     0.026 C 
BRANCH   8  13
ATOM     13  C   UNL A   1      32.811  22.817  24.797  1.00  0.00     0.215 A 
ATOM     14  C   UNL A   1      36.382  23.164  24.652  1.00  0.00     0.180 C 
ATOM     15  N   UNL A   1      35.090  22.508  24.719  1.00  0.00    -0.216 N 
ATOM     16  N   UNL A   1      33.998  23.329  24.641  1.00  0.00    -0.145 NA
ATOM     17  C   UNL A   1      35.045  21.121  24.812  1.00  0.00     0.346 A 
ATOM     18  N   UNL A   1      33.792  20.557  24.927  1.00  0.00    -0.259 N 
ATOM     19  O   UNL A   1      36.075  20.440  24.799  1.00  0.00    -0.246 OA
ATOM     20  C   UNL A   1      32.640  21.309  25.014  1.00  0.00     0.299 A 
ATOM     21  C   UNL A   1      33.650  19.118  24.995  1.00  0.00     0.159 C 
ATOM     22  O   UNL A   1      31.520  20.847  25.209  1.00  0.00    -0.265 OA
ENDBRANCH   8  13
ENDBRANCH   6   7
ENDBRANCH   4   6
ENDBRANCH   3   4
ENDBRANCH   2   3
ENDBRANCH   1   2
BRANCH   1  23
ATOM     23  O   UNL A   1      33.645  29.782  27.281  1.00  0.00    -0.458 OA
BRANCH  23  24
ATOM     24  C   UNL A   1      34.374  30.662  28.005  1.00  0.00     0.338 C 
ATOM     25  O   UNL A   1      33.983  31.694  28.522  1.00  0.00    -0.246 OA
BRANCH  24  26
ATOM     26  C   UNL A   1      35.732  30.132  28.196  1.00  0.00     0.060 A 
ATOM     27  C   UNL A   1      36.103  29.701  29.473  1.00  0.00     0.016 A 
ATOM     28  C   UNL A   1      36.652  30.133  27.147  1.00  0.00     0.016 A 
ATOM     29  C   UNL A   1      37.410  29.279  29.711  1.00  0.00     0.010 A 
ATOM     30  C   UNL A   1      37.963  29.711  27.388  1.00  0.00     0.010 A 
ATOM     31  C   UNL A   1      38.352  29.299  28.674  1.00  0.00    -0.014 A 
BRANCH  31  32
ATOM     32  C   UNL A   1      39.765  28.955  28.955  1.00  0.00     0.031 A 
ATOM     33  C   UNL A   1      40.659  29.972  29.605  1.00  0.00     0.074 A 
ATOM     34  C   UNL A   1      40.235  27.730  28.656  1.00  0.00     0.049 A 
ATOM     35  N   UNL A   1      41.938  29.903  29.865  1.00  0.00    -0.248 NA
ATOM     36  C   UNL A   1      40.026  31.234  30.021  1.00  0.00     0.031 C 
ATOM     37  C   UNL A   1      39.447  26.641  28.079  1.00  0.00     0.029 A 
ATOM     38  N   UNL A   1      41.490  27.196  28.800  1.00  0.00    -0.354 N 
ATOM     39  C   UNL A   1      42.267  31.110  30.471  1.00  0.00     0.074 A 
ATOM     40  C   UNL A   1      41.057  31.902  30.520  1.00  0.00     0.031 C 
ATOM     41  C   UNL A   1      40.237  25.565  27.922  1.00  0.00     0.029 A 
ATOM     42  C   UNL A   1      41.594  25.902  28.348  1.00  0.00     0.049 A 
ATOM     43  H   UNL A   1      42.246  27.692  29.189  1.00  0.00     0.167 HD
ATOM     44  C   UNL A   1      43.469  31.516  30.948  1.00  0.00     0.037 A 
ATOM     45  C   UNL A   1      42.665  25.090  28.267  1.00  0.00     0.037 A 
ATOM     46  C   UNL A   1      44.669  30.723  30.893  1.00  0.00     0.049 A 
ATOM     47  C   UNL A   1      44.006  25.593  28.728  1.00  0.00     0.074 A 
ATOM     48  C   UNL A   1      45.942  31.056  31.323  1.00  0.00     0.029 A 
ATOM     49  N   UNL A   1      44.746  29.437  30.379  1.00  0.00    -0.354 N 
ATOM     50  N   UNL A   1      44.313  26.754  29.256  1.00  0.00    -0.248 NA
ATOM     51  C   UNL A   1      45.147  24.682  28.572  1.00  0.00     0.031 C 
ATOM     52  C   UNL A   1      46.794  29.982  31.043  1.00  0.00     0.029 A 
ATOM     53  C   UNL A   1      46.044  28.965  30.472  1.00  0.00     0.049 A 
ATOM     54  H   UNL A   1      43.987  28.933  30.004  1.00  0.00     0.167 HD
ATOM     55  C   UNL A   1      45.679  26.708  29.510  1.00  0.00     0.074 A 
ATOM     56  C   UNL A   1      46.138  25.399  29.087  1.00  0.00     0.031 C 
ATOM     57  C   UNL A   1      46.483  27.661  30.043  1.00  0.00     0.037 A 
BRANCH  44  58
ATOM     58  C   UNL A   1      43.546  32.888  31.553  1.00  0.00     0.058 A 
ATOM     59  C   UNL A   1      43.863  34.014  30.778  1.00  0.00     0.135 A 
ATOM     60  C   UNL A   1      43.268  33.085  32.914  1.00  0.00     0.135 A 
ATOM     61  F   UNL A   1      44.158  33.878  29.476  1.00  0.00    -0.206 F 
ATOM     62  C   UNL A   1      43.920  35.287  31.337  1.00  0.00     0.059 A 
ATOM     63  C   UNL A   1      43.298  34.351  33.490  1.00  0.00     0.059 A 
ATOM     64  F   UNL A   1      42.964  32.039  33.700  1.00  0.00    -0.206 F 
ATOM     65  C   UNL A   1      43.636  35.446  32.695  1.00  0.00     0.060 A 
BRANCH  65  66
ATOM     66  S   UNL A   1      43.707  37.105  33.404  1.00  0.00     0.124 S 
ATOM     67  O   UNL A   1      43.673  37.935  32.204  1.00  0.00    -0.237 OA
ATOM     68  O   UNL A   1      42.508  37.141  34.234  1.00  0.00    -0.237 OA
ATOM     69  O   UNL A   1      44.971  37.109  34.133  1.00  0.00    -0.744 OA
ENDBRANCH  65  66
ENDBRANCH  44  58
BRANCH  45  70
ATOM     70  C   UNL A   1      42.515  23.718  27.716  1.00  0.00     0.058 A 
ATOM     71  C   UNL A   1      42.569  23.487  26.334  1.00  0.00     0.135 A 
ATOM     72  C   UNL A   1      42.333  22.611  28.559  1.00  0.00     0.135 A 
ATOM     73  F   UNL A   1      42.728  24.517  25.488  1.00  0.00    -0.206 F 
ATOM     74  C   UNL A   1      42.447  22.207  25.805  1.00  0.00     0.059 A 
ATOM     75  C   UNL A   1      42.231  21.318  28.055  1.00  0.00     0.059 A 
ATOM     76  F   UNL A   1      42.281  22.780  29.889  1.00  0.00    -0.206 F 
ATOM     77  C   UNL A   1      42.283  21.127  26.674  1.00  0.00     0.060 A 
BRANCH  77  78
ATOM     78  S   UNL A   1      42.189  19.462  25.981  1.00  0.00     0.124 S 
ATOM     79  O   UNL A   1      43.089  19.568  24.839  1.00  0.00    -0.237 OA
ATOM     80  O   UNL A   1      42.661  18.641  27.092  1.00  0.00    -0.237 OA
ATOM     81  O   UNL A   1      40.773  19.312  25.659  1.00  0.00    -0.744 OA
ENDBRANCH  77  78
ENDBRANCH  45  70
BRANCH  57  82
ATOM     82  C   UNL A   1      47.935  27.319  30.217  1.00  0.00     0.058 A 
ATOM     83  C   UNL A   1      48.858  27.492  29.174  1.00  0.00     0.135 A 
ATOM     84  C   UNL A   1      48.416  26.860  31.453  1.00  0.00     0.135 A 
ATOM     85  F   UNL A   1      48.446  27.924  27.972  1.00  0.00    -0.206 F 
ATOM     86  C   UNL A   1      50.207  27.200  29.345  1.00  0.00     0.059 A 
ATOM     87  C   UNL A   1      49.765  26.582  31.653  1.00  0.00     0.059 A 
ATOM     88  F   UNL A   1      47.575  26.688  32.485  1.00  0.00    -0.206 F 
ATOM     89  C   UNL A   1      50.651  26.744  30.588  1.00  0.00     0.060 A 
BRANCH  89  90
ATOM     90  S   UNL A   1      52.410  26.395  30.806  1.00  0.00     0.124 S 
ATOM     91  O   UNL A   1      52.872  26.346  29.422  1.00  0.00    -0.237 OA
ATOM     92  O   UNL A   1      52.864  27.543  31.585  1.00  0.00    -0.237 OA
ATOM     93  O   UNL A   1      52.417  25.120  31.516  1.00  0.00    -0.744 OA
ENDBRANCH  89  90
ENDBRANCH  57  82
ENDBRANCH  31  32
ENDBRANCH  24  26
ENDBRANCH  23  24
ENDBRANCH   1  23
TORSDOF 16
ENDMDL
