MODEL 1
REMARK VINA RESULT:     -13.7      0.000      0.000
REMARK SMILES O=C(C[C@H]1C[N@@H+](Cc2ccncc2)CCO1)OCCOC(=O)c1ccc(-c2c3nc(c(-c4c(F)cc(S(=O)(=O)[O-])cc4F)c4ccc([nH]4)c(-c4c(F)cc(S(=O)(=O)[O-])cc4F)c4nc(c(-c5c(F)cc(S(=O)(=O)[O-])cc5F)c5ccc2[nH]5)C=C4)C=C3)cc1
REMARK SMILES IDX 18 1 17 2 2 3 1 4 3 5 4 6 5 7 16 8 6 9 15 10 14 11 7 13 8 14
REMARK SMILES IDX 9 15 13 16 10 17 12 18 11 19 19 20 20 21 21 22 22 23 23 24
REMARK SMILES IDX 24 25 88 26 25 27 87 28 26 29 27 30 28 31 81 32 29 33 86 34
REMARK SMILES IDX 80 35 82 36 30 37 85 38 79 39 78 40 31 42 65 43 44 44 64 45
REMARK SMILES IDX 45 46 48 47 63 48 83 49 46 50 47 51 62 53 84 54 49 55 32 56
REMARK SMILES IDX 33 57 42 58 34 59 35 60 41 61 43 62 36 63 37 64 38 65 39 66
REMARK SMILES IDX 40 67 66 68 67 69 76 70 68 71 69 72 75 73 77 74 70 75 71 76
REMARK SMILES IDX 72 77 73 78 74 79 50 80 51 81 60 82 52 83 53 84 59 85 61 86
REMARK SMILES IDX 54 87 55 88 56 89 57 90 58 91
REMARK H PARENT 6 12 82 41 48 52
REMARK Flexibility Score: inf
ROOT
ATOM      1  C   UNL A   1      33.494  28.115  24.472  1.00  0.00     0.274 C 
ENDROOT
BRANCH   1   2
ATOM      2  O   UNL A   1      33.430  26.963  23.162  1.00  0.00    -0.462 OA
BRANCH   2   3
ATOM      3  C   UNL A   1      33.432  25.836  22.314  1.00  0.00     0.308 C 
ATOM      4  O   UNL A   1      33.522  26.070  21.097  1.00  0.00    -0.252 OA
BRANCH   3   5
ATOM      5  C   UNL A   1      33.233  24.118  22.668  1.00  0.00     0.160 C 
BRANCH   5   6
ATOM      6  C   UNL A   1      32.086  23.216  23.434  1.00  0.00     0.184 C 
ATOM      7  C   UNL A   1      32.241  21.787  22.978  1.00  0.00     0.295 C 
ATOM      8  O   UNL A   1      32.016  23.237  24.922  1.00  0.00    -0.366 OA
ATOM      9  N   UNL A   1      33.152  21.192  23.973  1.00  0.00    -0.327 N 
ATOM     10  C   UNL A   1      31.562  21.950  25.545  1.00  0.00     0.222 C 
ATOM     11  C   UNL A   1      32.390  20.745  25.093  1.00  0.00     0.291 C 
ATOM     12  H   UNL A   1      33.594  20.357  23.585  1.00  0.00     0.348 HD
BRANCH   9  13
ATOM     13  C   UNL A   1      34.370  22.014  24.253  1.00  0.00     0.299 C 
BRANCH  13  14
ATOM     14  C   UNL A   1      35.830  22.414  25.016  1.00  0.00     0.009 A 
ATOM     15  C   UNL A   1      37.010  21.581  24.999  1.00  0.00     0.029 A 
ATOM     16  C   UNL A   1      36.160  23.634  25.621  1.00  0.00     0.029 A 
ATOM     17  C   UNL A   1      38.241  21.872  25.588  1.00  0.00     0.111 A 
ATOM     18  C   UNL A   1      37.463  23.905  26.112  1.00  0.00     0.111 A 
ATOM     19  N   UNL A   1      38.499  23.047  26.131  1.00  0.00    -0.265 NA
ENDBRANCH  13  14
ENDBRANCH   9  13
ENDBRANCH   5   6
ENDBRANCH   3   5
ENDBRANCH   2   3
ENDBRANCH   1   2
BRANCH   1  20
ATOM     20  C   UNL A   1      33.607  27.946  26.321  1.00  0.00     0.275 C 
BRANCH  20  21
ATOM     21  O   UNL A   1      33.404  29.239  27.330  1.00  0.00    -0.458 OA
BRANCH  21  22
ATOM     22  C   UNL A   1      34.192  30.322  27.738  1.00  0.00     0.338 C 
ATOM     23  O   UNL A   1      33.699  31.396  27.963  1.00  0.00    -0.246 OA
BRANCH  22  24
ATOM     24  C   UNL A   1      35.761  30.048  28.091  1.00  0.00     0.060 A 
ATOM     25  C   UNL A   1      36.838  30.054  27.201  1.00  0.00     0.016 A 
ATOM     26  C   UNL A   1      36.172  29.625  29.365  1.00  0.00     0.016 A 
ATOM     27  C   UNL A   1      38.160  29.554  27.443  1.00  0.00     0.010 A 
ATOM     28  C   UNL A   1      37.539  29.224  29.672  1.00  0.00     0.010 A 
ATOM     29  C   UNL A   1      38.569  29.165  28.710  1.00  0.00    -0.014 A 
BRANCH  29  30
ATOM     30  C   UNL A   1      40.030  28.872  29.042  1.00  0.00     0.031 A 
ATOM     31  C   UNL A   1      41.029  29.957  29.425  1.00  0.00     0.074 A 
ATOM     32  C   UNL A   1      40.531  27.612  28.970  1.00  0.00     0.049 A 
ATOM     33  N   UNL A   1      42.343  29.947  29.350  1.00  0.00    -0.248 NA
ATOM     34  C   UNL A   1      40.484  31.186  30.015  1.00  0.00     0.031 C 
ATOM     35  C   UNL A   1      39.748  26.388  28.803  1.00  0.00     0.029 A 
ATOM     36  N   UNL A   1      41.841  27.153  28.973  1.00  0.00    -0.354 N 
ATOM     37  C   UNL A   1      42.780  31.187  29.815  1.00  0.00     0.074 A 
ATOM     38  C   UNL A   1      41.587  31.905  30.224  1.00  0.00     0.031 C 
ATOM     39  C   UNL A   1      40.577  25.345  28.638  1.00  0.00     0.029 A 
ATOM     40  C   UNL A   1      41.952  25.830  28.593  1.00  0.00     0.049 A 
ATOM     41  H   UNL A   1      42.611  27.714  29.221  1.00  0.00     0.167 HD
ATOM     42  C   UNL A   1      44.044  31.689  29.871  1.00  0.00     0.037 A 
ATOM     43  C   UNL A   1      42.999  25.097  28.149  1.00  0.00     0.037 A 
ATOM     44  C   UNL A   1      45.245  30.963  29.511  1.00  0.00     0.049 A 
ATOM     45  C   UNL A   1      44.371  25.711  28.036  1.00  0.00     0.074 A 
ATOM     46  C   UNL A   1      46.561  31.403  29.538  1.00  0.00     0.029 A 
ATOM     47  N   UNL A   1      45.283  29.655  29.056  1.00  0.00    -0.354 N 
ATOM     48  N   UNL A   1      44.763  26.912  28.378  1.00  0.00    -0.248 NA
ATOM     49  C   UNL A   1      45.437  24.877  27.454  1.00  0.00     0.031 C 
ATOM     50  C   UNL A   1      47.383  30.386  29.037  1.00  0.00     0.029 A 
ATOM     51  C   UNL A   1      46.587  29.292  28.751  1.00  0.00     0.049 A 
ATOM     52  H   UNL A   1      44.498  29.067  28.963  1.00  0.00     0.167 HD
ATOM     53  C   UNL A   1      46.120  26.972  28.065  1.00  0.00     0.074 A 
ATOM     54  C   UNL A   1      46.488  25.685  27.522  1.00  0.00     0.031 C 
ATOM     55  C   UNL A   1      46.975  28.012  28.214  1.00  0.00     0.037 A 
BRANCH  42  56
ATOM     56  C   UNL A   1      44.239  33.140  30.251  1.00  0.00     0.058 A 
ATOM     57  C   UNL A   1      44.144  34.189  29.327  1.00  0.00     0.135 A 
ATOM     58  C   UNL A   1      44.385  33.482  31.609  1.00  0.00     0.135 A 
ATOM     59  F   UNL A   1      43.990  33.926  28.019  1.00  0.00    -0.206 F 
ATOM     60  C   UNL A   1      44.199  35.524  29.732  1.00  0.00     0.059 A 
ATOM     61  C   UNL A   1      44.422  34.806  32.038  1.00  0.00     0.059 A 
ATOM     62  F   UNL A   1      44.457  32.518  32.542  1.00  0.00    -0.206 F 
ATOM     63  C   UNL A   1      44.338  35.823  31.091  1.00  0.00     0.060 A 
BRANCH  63  64
ATOM     64  S   UNL A   1      44.389  37.555  31.605  1.00  0.00     0.124 S 
ATOM     65  O   UNL A   1      43.604  37.519  32.835  1.00  0.00    -0.237 OA
ATOM     66  O   UNL A   1      45.819  37.793  31.772  1.00  0.00    -0.237 OA
ATOM     67  O   UNL A   1      43.766  38.262  30.489  1.00  0.00    -0.744 OA
ENDBRANCH  63  64
ENDBRANCH  42  56
BRANCH  43  68
ATOM     68  C   UNL A   1      42.766  23.719  27.619  1.00  0.00     0.058 A 
ATOM     69  C   UNL A   1      42.397  23.490  26.286  1.00  0.00     0.135 A 
ATOM     70  C   UNL A   1      42.874  22.599  28.465  1.00  0.00     0.135 A 
ATOM     71  F   UNL A   1      42.248  24.525  25.445  1.00  0.00    -0.206 F 
ATOM     72  C   UNL A   1      42.140  22.206  25.811  1.00  0.00     0.059 A 
ATOM     73  C   UNL A   1      42.654  21.306  28.005  1.00  0.00     0.059 A 
ATOM     74  F   UNL A   1      43.216  22.758  29.753  1.00  0.00    -0.206 F 
ATOM     75  C   UNL A   1      42.275  21.120  26.677  1.00  0.00     0.060 A 
BRANCH  75  76
ATOM     76  S   UNL A   1      41.993  19.452  26.042  1.00  0.00     0.124 S 
ATOM     77  O   UNL A   1      42.829  19.448  24.847  1.00  0.00    -0.237 OA
ATOM     78  O   UNL A   1      42.455  18.619  27.148  1.00  0.00    -0.237 OA
ATOM     79  O   UNL A   1      40.552  19.424  25.807  1.00  0.00    -0.744 OA
ENDBRANCH  75  76
ENDBRANCH  43  68
BRANCH  55  80
ATOM     80  C   UNL A   1      48.412  27.809  27.813  1.00  0.00     0.058 A 
ATOM     81  C   UNL A   1      48.845  28.023  26.495  1.00  0.00     0.135 A 
ATOM     82  C   UNL A   1      49.380  27.450  28.764  1.00  0.00     0.135 A 
ATOM     83  F   UNL A   1      47.961  28.354  25.539  1.00  0.00    -0.206 F 
ATOM     84  C   UNL A   1      50.183  27.882  26.133  1.00  0.00     0.059 A 
ATOM     85  C   UNL A   1      50.727  27.324  28.431  1.00  0.00     0.059 A 
ATOM     86  F   UNL A   1      49.025  27.234  30.041  1.00  0.00    -0.206 F 
ATOM     87  C   UNL A   1      51.118  27.536  27.109  1.00  0.00     0.060 A 
BRANCH  87  88
ATOM     88  S   UNL A   1      52.859  27.407  26.639  1.00  0.00     0.124 S 
ATOM     89  O   UNL A   1      52.758  26.908  25.271  1.00  0.00    -0.237 OA
ATOM     90  O   UNL A   1      53.324  28.783  26.778  1.00  0.00    -0.237 OA
ATOM     91  O   UNL A   1      53.405  26.464  27.611  1.00  0.00    -0.744 OA
ENDBRANCH  87  88
ENDBRANCH  55  80
ENDBRANCH  29  30
ENDBRANCH  22  24
ENDBRANCH  21  22
ENDBRANCH  20  21
ENDBRANCH   1  20
TORSDOF 17
ENDMDL
MODEL 2
REMARK VINA RESULT:     -13.6      1.191      2.586
REMARK SMILES O=C(C[C@H]1C[N@@H+](Cc2ccncc2)CCO1)OCCOC(=O)c1ccc(-c2c3nc(c(-c4c(F)cc(S(=O)(=O)[O-])cc4F)c4ccc([nH]4)c(-c4c(F)cc(S(=O)(=O)[O-])cc4F)c4nc(c(-c5c(F)cc(S(=O)(=O)[O-])cc5F)c5ccc2[nH]5)C=C4)C=C3)cc1
REMARK SMILES IDX 18 1 17 2 2 3 1 4 3 5 4 6 5 7 16 8 6 9 15 10 14 11 7 13 8 14
REMARK SMILES IDX 9 15 13 16 10 17 12 18 11 19 19 20 20 21 21 22 22 23 23 24
REMARK SMILES IDX 24 25 88 26 25 27 87 28 26 29 27 30 28 31 81 32 29 33 86 34
REMARK SMILES IDX 80 35 82 36 30 37 85 38 79 39 78 40 31 42 65 43 44 44 64 45
REMARK SMILES IDX 45 46 48 47 63 48 83 49 46 50 47 51 62 53 84 54 49 55 32 56
REMARK SMILES IDX 33 57 42 58 34 59 35 60 41 61 43 62 36 63 37 64 38 65 39 66
REMARK SMILES IDX 40 67 66 68 67 69 76 70 68 71 69 72 75 73 77 74 70 75 71 76
REMARK SMILES IDX 72 77 73 78 74 79 50 80 51 81 60 82 52 83 53 84 59 85 61 86
REMARK SMILES IDX 54 87 55 88 56 89 57 90 58 91
REMARK H PARENT 6 12 82 41 48 52
REMARK Flexibility Score: inf
ROOT
ATOM      1  C   UNL A   1      31.127  27.070  26.552  1.00  0.00     0.274 C 
ENDROOT
BRANCH   1   2
ATOM      2  O   UNL A   1      31.184  25.331  26.428  1.00  0.00    -0.462 OA
BRANCH   2   3
ATOM      3  C   UNL A   1      31.066  23.933  26.572  1.00  0.00     0.308 C 
ATOM      4  O   UNL A   1      30.148  23.536  27.310  1.00  0.00    -0.252 OA
BRANCH   3   5
ATOM      5  C   UNL A   1      32.065  22.615  25.953  1.00  0.00     0.160 C 
BRANCH   5   6
ATOM      6  C   UNL A   1      33.568  22.037  26.300  1.00  0.00     0.184 C 
ATOM      7  C   UNL A   1      33.969  21.095  25.193  1.00  0.00     0.295 C 
ATOM      8  O   UNL A   1      34.682  22.997  26.536  1.00  0.00    -0.366 OA
ATOM      9  N   UNL A   1      34.690  21.955  24.236  1.00  0.00    -0.327 N 
ATOM     10  C   UNL A   1      36.032  22.510  26.098  1.00  0.00     0.222 C 
ATOM     11  C   UNL A   1      36.055  22.054  24.636  1.00  0.00     0.291 C 
ATOM     12  H   UNL A   1      34.700  21.518  23.314  1.00  0.00     0.348 HD
BRANCH   9  13
ATOM     13  C   UNL A   1      33.975  23.227  23.903  1.00  0.00     0.299 C 
BRANCH  13  14
ATOM     14  C   UNL A   1      33.832  24.880  23.555  1.00  0.00     0.009 A 
ATOM     15  C   UNL A   1      33.318  25.407  22.313  1.00  0.00     0.029 A 
ATOM     16  C   UNL A   1      34.031  25.949  24.440  1.00  0.00     0.029 A 
ATOM     17  C   UNL A   1      33.157  26.754  21.986  1.00  0.00     0.111 A 
ATOM     18  C   UNL A   1      33.751  27.291  24.076  1.00  0.00     0.111 A 
ATOM     19  N   UNL A   1      33.344  27.718  22.867  1.00  0.00    -0.265 NA
ENDBRANCH  13  14
ENDBRANCH   9  13
ENDBRANCH   5   6
ENDBRANCH   3   5
ENDBRANCH   2   3
ENDBRANCH   1   2
BRANCH   1  20
ATOM     20  C   UNL A   1      32.006  28.307  27.629  1.00  0.00     0.275 C 
BRANCH  20  21
ATOM     21  O   UNL A   1      33.244  29.240  27.057  1.00  0.00    -0.458 OA
BRANCH  21  22
ATOM     22  C   UNL A   1      33.994  30.316  27.547  1.00  0.00     0.338 C 
ATOM     23  O   UNL A   1      33.469  31.366  27.812  1.00  0.00    -0.246 OA
BRANCH  22  24
ATOM     24  C   UNL A   1      35.557  30.057  27.935  1.00  0.00     0.060 A 
ATOM     25  C   UNL A   1      36.647  30.026  27.062  1.00  0.00     0.016 A 
ATOM     26  C   UNL A   1      35.947  29.687  29.231  1.00  0.00     0.016 A 
ATOM     27  C   UNL A   1      37.965  29.536  27.346  1.00  0.00     0.010 A 
ATOM     28  C   UNL A   1      37.309  29.299  29.577  1.00  0.00     0.010 A 
ATOM     29  C   UNL A   1      38.354  29.199  28.634  1.00  0.00    -0.014 A 
BRANCH  29  30
ATOM     30  C   UNL A   1      39.810  28.921  29.000  1.00  0.00     0.031 A 
ATOM     31  C   UNL A   1      40.789  30.015  29.405  1.00  0.00     0.074 A 
ATOM     32  C   UNL A   1      40.323  27.665  28.941  1.00  0.00     0.049 A 
ATOM     33  N   UNL A   1      42.104  30.017  29.361  1.00  0.00    -0.248 NA
ATOM     34  C   UNL A   1      40.220  31.240  29.980  1.00  0.00     0.031 C 
ATOM     35  C   UNL A   1      39.555  26.433  28.758  1.00  0.00     0.029 A 
ATOM     36  N   UNL A   1      41.637  27.218  28.975  1.00  0.00    -0.354 N 
ATOM     37  C   UNL A   1      42.519  31.262  29.834  1.00  0.00     0.074 A 
ATOM     38  C   UNL A   1      41.310  31.970  30.214  1.00  0.00     0.031 C 
ATOM     39  C   UNL A   1      40.398  25.398  28.613  1.00  0.00     0.029 A 
ATOM     40  C   UNL A   1      41.769  25.896  28.600  1.00  0.00     0.049 A 
ATOM     41  H   UNL A   1      42.396  27.787  29.241  1.00  0.00     0.167 HD
ATOM     42  C   UNL A   1      43.777  31.775  29.919  1.00  0.00     0.037 A 
ATOM     43  C   UNL A   1      42.833  25.172  28.182  1.00  0.00     0.037 A 
ATOM     44  C   UNL A   1      44.992  31.060  29.588  1.00  0.00     0.049 A 
ATOM     45  C   UNL A   1      44.201  25.798  28.100  1.00  0.00     0.074 A 
ATOM     46  C   UNL A   1      46.304  31.512  29.645  1.00  0.00     0.029 A 
ATOM     47  N   UNL A   1      45.053  29.752  29.136  1.00  0.00    -0.354 N 
ATOM     48  N   UNL A   1      44.575  27.003  28.449  1.00  0.00    -0.248 NA
ATOM     49  C   UNL A   1      45.288  24.974  27.543  1.00  0.00     0.031 C 
ATOM     50  C   UNL A   1      47.146  30.503  29.165  1.00  0.00     0.029 A 
ATOM     51  C   UNL A   1      46.367  29.401  28.862  1.00  0.00     0.049 A 
ATOM     52  H   UNL A   1      44.276  29.157  29.025  1.00  0.00     0.167 HD
ATOM     53  C   UNL A   1      45.938  27.076  28.168  1.00  0.00     0.074 A 
ATOM     54  C   UNL A   1      46.329  25.792  27.635  1.00  0.00     0.031 C 
ATOM     55  C   UNL A   1      46.779  28.124  28.336  1.00  0.00     0.037 A 
BRANCH  42  56
ATOM     56  C   UNL A   1      43.950  33.228  30.301  1.00  0.00     0.058 A 
ATOM     57  C   UNL A   1      44.291  33.640  31.597  1.00  0.00     0.135 A 
ATOM     58  C   UNL A   1      43.907  34.214  29.297  1.00  0.00     0.135 A 
ATOM     59  F   UNL A   1      44.361  32.744  32.595  1.00  0.00    -0.206 F 
ATOM     60  C   UNL A   1      44.570  34.977  31.887  1.00  0.00     0.059 A 
ATOM     61  C   UNL A   1      44.201  35.549  29.559  1.00  0.00     0.059 A 
ATOM     62  F   UNL A   1      43.610  33.874  28.032  1.00  0.00    -0.206 F 
ATOM     63  C   UNL A   1      44.523  35.925  30.861  1.00  0.00     0.060 A 
BRANCH  63  64
ATOM     64  S   UNL A   1      44.906  37.650  31.244  1.00  0.00     0.124 S 
ATOM     65  O   UNL A   1      46.214  37.525  31.880  1.00  0.00    -0.237 OA
ATOM     66  O   UNL A   1      44.899  38.275  29.926  1.00  0.00    -0.237 OA
ATOM     67  O   UNL A   1      43.817  38.053  32.131  1.00  0.00    -0.744 OA
ENDBRANCH  63  64
ENDBRANCH  42  56
BRANCH  43  68
ATOM     68  C   UNL A   1      42.625  23.791  27.648  1.00  0.00     0.058 A 
ATOM     69  C   UNL A   1      42.382  23.551  26.289  1.00  0.00     0.135 A 
ATOM     70  C   UNL A   1      42.628  22.682  28.513  1.00  0.00     0.135 A 
ATOM     71  F   UNL A   1      42.337  24.576  25.425  1.00  0.00    -0.206 F 
ATOM     72  C   UNL A   1      42.147  22.266  25.805  1.00  0.00     0.059 A 
ATOM     73  C   UNL A   1      42.428  21.387  28.050  1.00  0.00     0.059 A 
ATOM     74  F   UNL A   1      42.847  22.852  29.827  1.00  0.00    -0.206 F 
ATOM     75  C   UNL A   1      42.176  21.189  26.694  1.00  0.00     0.060 A 
BRANCH  75  76
ATOM     76  S   UNL A   1      41.924  19.518  26.055  1.00  0.00     0.124 S 
ATOM     77  O   UNL A   1      42.308  18.704  27.202  1.00  0.00    -0.237 OA
ATOM     78  O   UNL A   1      40.503  19.527  25.723  1.00  0.00    -0.237 OA
ATOM     79  O   UNL A   1      42.826  19.461  24.907  1.00  0.00    -0.744 OA
ENDBRANCH  75  76
ENDBRANCH  43  68
BRANCH  55  80
ATOM     80  C   UNL A   1      48.227  27.933  27.968  1.00  0.00     0.058 A 
ATOM     81  C   UNL A   1      49.171  27.482  28.904  1.00  0.00     0.135 A 
ATOM     82  C   UNL A   1      48.669  28.150  26.653  1.00  0.00     0.135 A 
ATOM     83  F   UNL A   1      48.808  27.273  30.180  1.00  0.00    -0.206 F 
ATOM     84  C   UNL A   1      50.500  27.260  28.553  1.00  0.00     0.059 A 
ATOM     85  C   UNL A   1      49.989  27.914  26.273  1.00  0.00     0.059 A 
ATOM     86  F   UNL A   1      47.811  28.580  25.714  1.00  0.00    -0.206 F 
ATOM     87  C   UNL A   1      50.899  27.474  27.233  1.00  0.00     0.060 A 
BRANCH  87  88
ATOM     88  S   UNL A   1      52.615  27.133  26.778  1.00  0.00     0.124 S 
ATOM     89  O   UNL A   1      52.487  26.821  25.358  1.00  0.00    -0.237 OA
ATOM     90  O   UNL A   1      53.280  28.394  27.091  1.00  0.00    -0.237 OA
ATOM     91  O   UNL A   1      52.978  26.009  27.636  1.00  0.00    -0.744 OA
ENDBRANCH  87  88
ENDBRANCH  55  80
ENDBRANCH  29  30
ENDBRANCH  22  24
ENDBRANCH  21  22
ENDBRANCH  20  21
ENDBRANCH   1  20
TORSDOF 17
ENDMDL
MODEL 3
REMARK VINA RESULT:     -13.2      5.113      9.392
REMARK SMILES O=C(C[C@H]1C[N@@H+](Cc2ccncc2)CCO1)OCCOC(=O)c1ccc(-c2c3nc(c(-c4c(F)cc(S(=O)(=O)[O-])cc4F)c4ccc([nH]4)c(-c4c(F)cc(S(=O)(=O)[O-])cc4F)c4nc(c(-c5c(F)cc(S(=O)(=O)[O-])cc5F)c5ccc2[nH]5)C=C4)C=C3)cc1
REMARK SMILES IDX 18 1 17 2 2 3 1 4 3 5 4 6 5 7 16 8 6 9 15 10 14 11 7 13 8 14
REMARK SMILES IDX 9 15 13 16 10 17 12 18 11 19 19 20 20 21 21 22 22 23 23 24
REMARK SMILES IDX 24 25 88 26 25 27 87 28 26 29 27 30 28 31 81 32 29 33 86 34
REMARK SMILES IDX 80 35 82 36 30 37 85 38 79 39 78 40 31 42 65 43 44 44 64 45
REMARK SMILES IDX 45 46 48 47 63 48 83 49 46 50 47 51 62 53 84 54 49 55 32 56
REMARK SMILES IDX 33 57 42 58 34 59 35 60 41 61 43 62 36 63 37 64 38 65 39 66
REMARK SMILES IDX 40 67 66 68 67 69 76 70 68 71 69 72 75 73 77 74 70 75 71 76
REMARK SMILES IDX 72 77 73 78 74 79 50 80 51 81 60 82 52 83 53 84 59 85 61 86
REMARK SMILES IDX 54 87 55 88 56 89 57 90 58 91
REMARK H PARENT 6 12 82 41 48 52
REMARK Flexibility Score: inf
ROOT
ATOM      1  C   UNL A   1      31.660  27.813  27.384  1.00  0.00     0.274 C 
ENDROOT
BRANCH   1   2
ATOM      2  O   UNL A   1      31.454  26.121  27.009  1.00  0.00    -0.462 OA
BRANCH   2   3
ATOM      3  C   UNL A   1      31.234  24.852  26.435  1.00  0.00     0.308 C 
ATOM      4  O   UNL A   1      31.017  23.924  27.232  1.00  0.00    -0.252 OA
BRANCH   3   5
ATOM      5  C   UNL A   1      31.304  24.311  24.755  1.00  0.00     0.160 C 
BRANCH   5   6
ATOM      6  C   UNL A   1      31.269  25.064  23.291  1.00  0.00     0.184 C 
ATOM      7  C   UNL A   1      31.625  26.514  23.509  1.00  0.00     0.295 C 
ATOM      8  O   UNL A   1      32.099  24.532  22.176  1.00  0.00    -0.366 OA
ATOM      9  N   UNL A   1      33.087  26.554  23.320  1.00  0.00    -0.327 N 
ATOM     10  C   UNL A   1      32.614  25.572  21.225  1.00  0.00     0.222 C 
ATOM     11  C   UNL A   1      33.373  26.699  21.931  1.00  0.00     0.291 C 
ATOM     12  H   UNL A   1      33.473  27.383  23.773  1.00  0.00     0.348 HD
BRANCH   9  13
ATOM     13  C   UNL A   1      33.827  25.491  24.069  1.00  0.00     0.299 C 
BRANCH  13  14
ATOM     14  C   UNL A   1      35.048  24.346  24.335  1.00  0.00     0.009 A 
ATOM     15  C   UNL A   1      35.700  24.133  25.606  1.00  0.00     0.029 A 
ATOM     16  C   UNL A   1      35.488  23.358  23.443  1.00  0.00     0.029 A 
ATOM     17  C   UNL A   1      36.690  23.192  25.885  1.00  0.00     0.111 A 
ATOM     18  C   UNL A   1      36.427  22.364  23.821  1.00  0.00     0.111 A 
ATOM     19  N   UNL A   1      37.054  22.274  25.009  1.00  0.00    -0.265 NA
ENDBRANCH  13  14
ENDBRANCH   9  13
ENDBRANCH   5   6
ENDBRANCH   3   5
ENDBRANCH   2   3
ENDBRANCH   1   2
BRANCH   1  20
ATOM     20  C   UNL A   1      31.808  29.347  26.342  1.00  0.00     0.275 C 
BRANCH  20  21
ATOM     21  O   UNL A   1      33.181  30.268  26.333  1.00  0.00    -0.458 OA
BRANCH  21  22
ATOM     22  C   UNL A   1      33.751  31.221  27.185  1.00  0.00     0.338 C 
ATOM     23  O   UNL A   1      33.128  32.190  27.534  1.00  0.00    -0.246 OA
BRANCH  22  24
ATOM     24  C   UNL A   1      35.203  30.894  27.852  1.00  0.00     0.060 A 
ATOM     25  C   UNL A   1      35.589  29.714  28.491  1.00  0.00     0.016 A 
ATOM     26  C   UNL A   1      36.202  31.873  27.971  1.00  0.00     0.016 A 
ATOM     27  C   UNL A   1      36.750  29.515  29.309  1.00  0.00     0.010 A 
ATOM     28  C   UNL A   1      37.449  31.660  28.696  1.00  0.00     0.010 A 
ATOM     29  C   UNL A   1      37.748  30.475  29.399  1.00  0.00    -0.014 A 
BRANCH  29  30
ATOM     30  C   UNL A   1      39.098  30.188  30.053  1.00  0.00     0.031 A 
ATOM     31  C   UNL A   1      40.102  29.193  29.486  1.00  0.00     0.074 A 
ATOM     32  C   UNL A   1      39.459  30.788  31.217  1.00  0.00     0.049 A 
ATOM     33  N   UNL A   1      41.079  28.553  30.093  1.00  0.00    -0.248 NA
ATOM     34  C   UNL A   1      40.032  28.924  28.044  1.00  0.00     0.031 C 
ATOM     35  C   UNL A   1      38.760  31.901  31.860  1.00  0.00     0.029 A 
ATOM     36  N   UNL A   1      40.487  30.503  32.105  1.00  0.00    -0.354 N 
ATOM     37  C   UNL A   1      41.695  27.755  29.129  1.00  0.00     0.074 A 
ATOM     38  C   UNL A   1      41.013  28.037  27.880  1.00  0.00     0.031 C 
ATOM     39  C   UNL A   1      39.316  32.147  33.057  1.00  0.00     0.029 A 
ATOM     40  C   UNL A   1      40.352  31.153  33.316  1.00  0.00     0.049 A 
ATOM     41  H   UNL A   1      41.236  29.900  31.892  1.00  0.00     0.167 HD
ATOM     42  C   UNL A   1      42.709  26.858  29.274  1.00  0.00     0.037 A 
ATOM     43  C   UNL A   1      40.899  30.930  34.533  1.00  0.00     0.037 A 
ATOM     44  C   UNL A   1      43.427  26.606  30.507  1.00  0.00     0.049 A 
ATOM     45  C   UNL A   1      41.888  29.811  34.735  1.00  0.00     0.074 A 
ATOM     46  C   UNL A   1      44.463  25.710  30.734  1.00  0.00     0.029 A 
ATOM     47  N   UNL A   1      43.188  27.238  31.716  1.00  0.00    -0.354 N 
ATOM     48  N   UNL A   1      42.393  28.992  33.848  1.00  0.00    -0.248 NA
ATOM     49  C   UNL A   1      42.364  29.571  36.108  1.00  0.00     0.031 C 
ATOM     50  C   UNL A   1      44.802  25.754  32.092  1.00  0.00     0.029 A 
ATOM     51  C   UNL A   1      44.017  26.717  32.700  1.00  0.00     0.049 A 
ATOM     52  H   UNL A   1      42.525  27.953  31.857  1.00  0.00     0.167 HD
ATOM     53  C   UNL A   1      43.252  28.151  34.552  1.00  0.00     0.074 A 
ATOM     54  C   UNL A   1      43.215  28.568  35.934  1.00  0.00     0.031 C 
ATOM     55  C   UNL A   1      43.998  27.123  34.082  1.00  0.00     0.037 A 
BRANCH  42  56
ATOM     56  C   UNL A   1      43.080  25.978  28.102  1.00  0.00     0.058 A 
ATOM     57  C   UNL A   1      44.175  26.243  27.267  1.00  0.00     0.135 A 
ATOM     58  C   UNL A   1      42.394  24.764  27.908  1.00  0.00     0.135 A 
ATOM     59  F   UNL A   1      44.876  27.378  27.412  1.00  0.00    -0.206 F 
ATOM     60  C   UNL A   1      44.568  25.343  26.275  1.00  0.00     0.059 A 
ATOM     61  C   UNL A   1      42.781  23.843  26.938  1.00  0.00     0.059 A 
ATOM     62  F   UNL A   1      41.352  24.446  28.694  1.00  0.00    -0.206 F 
ATOM     63  C   UNL A   1      43.865  24.145  26.118  1.00  0.00     0.060 A 
BRANCH  63  64
ATOM     64  S   UNL A   1      44.397  22.980  24.842  1.00  0.00     0.124 S 
ATOM     65  O   UNL A   1      45.339  23.791  24.078  1.00  0.00    -0.237 OA
ATOM     66  O   UNL A   1      44.984  21.898  25.627  1.00  0.00    -0.237 OA
ATOM     67  O   UNL A   1      43.157  22.643  24.147  1.00  0.00    -0.744 OA
ENDBRANCH  63  64
ENDBRANCH  42  56
BRANCH  43  68
ATOM     68  C   UNL A   1      40.402  31.693  35.718  1.00  0.00     0.058 A 
ATOM     69  C   UNL A   1      41.167  32.699  36.326  1.00  0.00     0.135 A 
ATOM     70  C   UNL A   1      39.153  31.393  36.291  1.00  0.00     0.135 A 
ATOM     71  F   UNL A   1      42.380  33.004  35.840  1.00  0.00    -0.206 F 
ATOM     72  C   UNL A   1      40.717  33.377  37.456  1.00  0.00     0.059 A 
ATOM     73  C   UNL A   1      38.668  32.077  37.400  1.00  0.00     0.059 A 
ATOM     74  F   UNL A   1      38.380  30.434  35.758  1.00  0.00    -0.206 F 
ATOM     75  C   UNL A   1      39.463  33.061  37.983  1.00  0.00     0.060 A 
BRANCH  75  76
ATOM     76  S   UNL A   1      38.859  33.980  39.417  1.00  0.00     0.124 S 
ATOM     77  O   UNL A   1      37.531  33.404  39.596  1.00  0.00    -0.237 OA
ATOM     78  O   UNL A   1      39.846  33.642  40.438  1.00  0.00    -0.237 OA
ATOM     79  O   UNL A   1      38.892  35.367  38.962  1.00  0.00    -0.744 OA
ENDBRANCH  75  76
ENDBRANCH  43  68
BRANCH  55  80
ATOM     80  C   UNL A   1      44.869  26.377  35.060  1.00  0.00     0.058 A 
ATOM     81  C   UNL A   1      44.427  25.204  35.692  1.00  0.00     0.135 A 
ATOM     82  C   UNL A   1      46.179  26.806  35.328  1.00  0.00     0.135 A 
ATOM     83  F   UNL A   1      43.179  24.755  35.484  1.00  0.00    -0.206 F 
ATOM     84  C   UNL A   1      45.249  24.487  36.559  1.00  0.00     0.059 A 
ATOM     85  C   UNL A   1      47.026  26.094  36.175  1.00  0.00     0.059 A 
ATOM     86  F   UNL A   1      46.656  27.920  34.751  1.00  0.00    -0.206 F 
ATOM     87  C   UNL A   1      46.549  24.938  36.791  1.00  0.00     0.060 A 
BRANCH  87  88
ATOM     88  S   UNL A   1      47.623  23.971  37.878  1.00  0.00     0.124 S 
ATOM     89  O   UNL A   1      48.160  22.977  36.954  1.00  0.00    -0.237 OA
ATOM     90  O   UNL A   1      48.572  24.973  38.352  1.00  0.00    -0.237 OA
ATOM     91  O   UNL A   1      46.706  23.455  38.891  1.00  0.00    -0.744 OA
ENDBRANCH  87  88
ENDBRANCH  55  80
ENDBRANCH  29  30
ENDBRANCH  22  24
ENDBRANCH  21  22
ENDBRANCH  20  21
ENDBRANCH   1  20
TORSDOF 17
ENDMDL
