MODEL 1
REMARK VINA RESULT:     -11.1      0.000      0.000
REMARK SMILES CN(c1ccc(C(=O)OCCOC(=O)c2ccc(-c3c4nc(c(-c5c(F)cc(S(=O)(=O)[O-])cc5F)c5ccc([nH]5)c(-c5c(F)cc(S(=O)(=O)[O-])cc5F)c5nc(c(-c6c(F)cc(S(=O)(=O)[O-])cc6F)c6ccc3[nH]6)C=C5)C=C4)cc2)cc1)S(C)(=O)=O
REMARK SMILES IDX 11 1 10 2 9 3 7 4 8 5 6 6 3 7 4 8 82 9 5 10 81 11 2 12 1 13
REMARK SMILES IDX 83 14 84 15 85 16 86 17 12 18 13 19 14 20 15 21 16 22 80 23
REMARK SMILES IDX 17 24 79 25 18 26 19 27 20 28 73 29 21 30 78 31 72 32 74 33
REMARK SMILES IDX 22 34 77 35 71 36 70 37 23 39 57 40 36 41 56 42 37 43 40 44
REMARK SMILES IDX 55 45 75 46 38 47 39 48 54 50 76 51 41 52 24 53 25 54 34 55
REMARK SMILES IDX 26 56 27 57 33 58 35 59 28 60 29 61 30 62 31 63 32 64 58 65
REMARK SMILES IDX 59 66 68 67 60 68 61 69 67 70 69 71 62 72 63 73 64 74 65 75
REMARK SMILES IDX 66 76 42 77 43 78 52 79 44 80 45 81 51 82 53 83 46 84 47 85
REMARK SMILES IDX 48 86 49 87 50 88
REMARK H PARENT 74 38 40 49
REMARK Flexibility Score: inf
ROOT
ATOM      1  C   UNL A   1      40.745  22.269  26.551  1.00  0.00     0.275 C 
ENDROOT
BRANCH   1   2
ATOM      2  C   UNL A   1      39.678  21.228  26.203  1.00  0.00     0.275 C 
BRANCH   2   3
ATOM      3  O   UNL A   1      38.566  21.805  25.483  1.00  0.00    -0.458 OA
BRANCH   3   4
ATOM      4  C   UNL A   1      37.683  20.913  24.965  1.00  0.00     0.338 C 
ATOM      5  O   UNL A   1      37.804  19.698  24.967  1.00  0.00    -0.246 OA
BRANCH   4   6
ATOM      6  C   UNL A   1      36.456  21.584  24.461  1.00  0.00     0.060 A 
ATOM      7  C   UNL A   1      34.221  22.901  23.364  1.00  0.00     0.051 A 
ATOM      8  C   UNL A   1      35.508  23.319  23.039  1.00  0.00     0.028 A 
ATOM      9  C   UNL A   1      34.059  21.882  24.315  1.00  0.00     0.028 A 
ATOM     10  C   UNL A   1      36.613  22.674  23.595  1.00  0.00     0.018 A 
ATOM     11  C   UNL A   1      35.169  21.205  24.845  1.00  0.00     0.018 A 
BRANCH   7  12
ATOM     12  N   UNL A   1      33.056  23.594  22.883  1.00  0.00    -0.274 N 
ATOM     13  C   UNL A   1      31.745  22.987  23.199  1.00  0.00     0.163 C 
BRANCH  12  14
ATOM     14  S   UNL A   1      33.095  25.309  22.845  1.00  0.00     0.231 S 
ATOM     15  C   UNL A   1      31.359  25.663  22.741  1.00  0.00     0.183 C 
ATOM     16  O   UNL A   1      33.568  25.784  24.130  1.00  0.00    -0.207 OA
ATOM     17  O   UNL A   1      33.680  25.766  21.606  1.00  0.00    -0.207 OA
ENDBRANCH  12  14
ENDBRANCH   7  12
ENDBRANCH   4   6
ENDBRANCH   3   4
ENDBRANCH   2   3
ENDBRANCH   1   2
BRANCH   1  18
ATOM     18  O   UNL A   1      40.165  23.577  26.717  1.00  0.00    -0.458 OA
BRANCH  18  19
ATOM     19  C   UNL A   1      41.044  24.600  26.620  1.00  0.00     0.338 C 
ATOM     20  O   UNL A   1      41.997  24.683  25.862  1.00  0.00    -0.246 OA
BRANCH  19  21
ATOM     21  C   UNL A   1      40.654  25.710  27.502  1.00  0.00     0.060 A 
ATOM     22  C   UNL A   1      41.439  26.852  27.466  1.00  0.00     0.016 A 
ATOM     23  C   UNL A   1      39.704  25.552  28.508  1.00  0.00     0.016 A 
ATOM     24  C   UNL A   1      41.394  27.768  28.510  1.00  0.00     0.010 A 
ATOM     25  C   UNL A   1      39.560  26.552  29.484  1.00  0.00     0.010 A 
ATOM     26  C   UNL A   1      40.438  27.652  29.531  1.00  0.00    -0.014 A 
BRANCH  26  27
ATOM     27  C   UNL A   1      40.389  28.669  30.630  1.00  0.00     0.031 A 
ATOM     28  C   UNL A   1      41.357  28.609  31.792  1.00  0.00     0.074 A 
ATOM     29  C   UNL A   1      39.491  29.678  30.579  1.00  0.00     0.049 A 
ATOM     30  N   UNL A   1      41.374  29.318  32.894  1.00  0.00    -0.248 NA
ATOM     31  C   UNL A   1      42.435  27.609  31.717  1.00  0.00     0.031 C 
ATOM     32  C   UNL A   1      38.510  29.885  29.510  1.00  0.00     0.029 A 
ATOM     33  N   UNL A   1      39.260  30.729  31.435  1.00  0.00    -0.354 N 
ATOM     34  C   UNL A   1      42.425  28.819  33.660  1.00  0.00     0.074 A 
ATOM     35  C   UNL A   1      43.007  27.730  32.907  1.00  0.00     0.031 C 
ATOM     36  C   UNL A   1      37.835  31.020  29.736  1.00  0.00     0.029 A 
ATOM     37  C   UNL A   1      38.245  31.563  31.023  1.00  0.00     0.049 A 
ATOM     38  H   UNL A   1      39.773  30.871  32.263  1.00  0.00     0.167 HD
ATOM     39  C   UNL A   1      42.867  29.234  34.875  1.00  0.00     0.037 A 
ATOM     40  C   UNL A   1      37.664  32.620  31.626  1.00  0.00     0.037 A 
ATOM     41  C   UNL A   1      42.314  30.356  35.596  1.00  0.00     0.049 A 
ATOM     42  C   UNL A   1      38.144  33.035  32.988  1.00  0.00     0.074 A 
ATOM     43  C   UNL A   1      42.706  30.869  36.822  1.00  0.00     0.029 A 
ATOM     44  N   UNL A   1      41.263  31.148  35.156  1.00  0.00    -0.354 N 
ATOM     45  N   UNL A   1      39.110  32.524  33.711  1.00  0.00    -0.248 NA
ATOM     46  C   UNL A   1      37.442  34.158  33.622  1.00  0.00     0.031 C 
ATOM     47  C   UNL A   1      41.857  31.932  37.147  1.00  0.00     0.029 A 
ATOM     48  C   UNL A   1      40.976  32.126  36.097  1.00  0.00     0.049 A 
ATOM     49  H   UNL A   1      40.789  31.032  34.301  1.00  0.00     0.167 HD
ATOM     50  C   UNL A   1      39.146  33.274  34.881  1.00  0.00     0.074 A 
ATOM     51  C   UNL A   1      38.119  34.289  34.754  1.00  0.00     0.031 C 
ATOM     52  C   UNL A   1      39.951  33.132  35.962  1.00  0.00     0.037 A 
BRANCH  39  53
ATOM     53  C   UNL A   1      43.984  28.456  35.527  1.00  0.00     0.058 A 
ATOM     54  C   UNL A   1      45.338  28.771  35.323  1.00  0.00     0.135 A 
ATOM     55  C   UNL A   1      43.690  27.402  36.409  1.00  0.00     0.135 A 
ATOM     56  F   UNL A   1      45.683  29.760  34.484  1.00  0.00    -0.206 F 
ATOM     57  C   UNL A   1      46.356  28.050  35.944  1.00  0.00     0.059 A 
ATOM     58  C   UNL A   1      44.691  26.691  37.067  1.00  0.00     0.059 A 
ATOM     59  F   UNL A   1      42.415  27.057  36.650  1.00  0.00    -0.206 F 
ATOM     60  C   UNL A   1      46.023  27.012  36.815  1.00  0.00     0.060 A 
BRANCH  60  61
ATOM     61  S   UNL A   1      47.355  26.092  37.616  1.00  0.00     0.124 S 
ATOM     62  O   UNL A   1      48.173  25.705  36.469  1.00  0.00    -0.237 OA
ATOM     63  O   UNL A   1      47.939  27.095  38.501  1.00  0.00    -0.237 OA
ATOM     64  O   UNL A   1      46.661  24.997  38.286  1.00  0.00    -0.744 OA
ENDBRANCH  60  61
ENDBRANCH  39  53
BRANCH  40  65
ATOM     65  C   UNL A   1      36.534  33.328  30.961  1.00  0.00     0.058 A 
ATOM     66  C   UNL A   1      35.215  33.174  31.412  1.00  0.00     0.135 A 
ATOM     67  C   UNL A   1      36.754  34.188  29.872  1.00  0.00     0.135 A 
ATOM     68  F   UNL A   1      34.948  32.354  32.439  1.00  0.00    -0.206 F 
ATOM     69  C   UNL A   1      34.154  33.837  30.801  1.00  0.00     0.059 A 
ATOM     70  C   UNL A   1      35.715  34.890  29.269  1.00  0.00     0.059 A 
ATOM     71  F   UNL A   1      37.998  34.381  29.407  1.00  0.00    -0.206 F 
ATOM     72  C   UNL A   1      34.417  34.699  29.734  1.00  0.00     0.060 A 
BRANCH  72  73
ATOM     73  S   UNL A   1      33.040  35.593  28.981  1.00  0.00     0.124 S 
ATOM     74  O   UNL A   1      32.413  34.547  28.181  1.00  0.00    -0.237 OA
ATOM     75  O   UNL A   1      32.289  36.040  30.150  1.00  0.00    -0.237 OA
ATOM     76  O   UNL A   1      33.701  36.653  28.226  1.00  0.00    -0.744 OA
ENDBRANCH  72  73
ENDBRANCH  40  65
BRANCH  52  77
ATOM     77  C   UNL A   1      39.775  34.123  37.081  1.00  0.00     0.058 A 
ATOM     78  C   UNL A   1      38.862  33.906  38.126  1.00  0.00     0.135 A 
ATOM     79  C   UNL A   1      40.541  35.300  37.115  1.00  0.00     0.135 A 
ATOM     80  F   UNL A   1      38.099  32.802  38.139  1.00  0.00    -0.206 F 
ATOM     81  C   UNL A   1      38.688  34.839  39.143  1.00  0.00     0.059 A 
ATOM     82  C   UNL A   1      40.407  36.230  38.141  1.00  0.00     0.059 A 
ATOM     83  F   UNL A   1      41.436  35.553  36.147  1.00  0.00    -0.206 F 
ATOM     84  C   UNL A   1      39.464  35.999  39.142  1.00  0.00     0.060 A 
BRANCH  84  85
ATOM     85  S   UNL A   1      39.233  37.196  40.472  1.00  0.00     0.124 S 
ATOM     86  O   UNL A   1      38.779  36.341  41.563  1.00  0.00    -0.237 OA
ATOM     87  O   UNL A   1      40.572  37.757  40.622  1.00  0.00    -0.237 OA
ATOM     88  O   UNL A   1      38.233  38.114  39.935  1.00  0.00    -0.744 OA
ENDBRANCH  84  85
ENDBRANCH  52  77
ENDBRANCH  26  27
ENDBRANCH  19  21
ENDBRANCH  18  19
ENDBRANCH   1  18
TORSDOF 16
ENDMDL
MODEL 2
REMARK VINA RESULT:     -11.0      0.304      1.603
REMARK SMILES CN(c1ccc(C(=O)OCCOC(=O)c2ccc(-c3c4nc(c(-c5c(F)cc(S(=O)(=O)[O-])cc5F)c5ccc([nH]5)c(-c5c(F)cc(S(=O)(=O)[O-])cc5F)c5nc(c(-c6c(F)cc(S(=O)(=O)[O-])cc6F)c6ccc3[nH]6)C=C5)C=C4)cc2)cc1)S(C)(=O)=O
REMARK SMILES IDX 11 1 10 2 9 3 7 4 8 5 6 6 3 7 4 8 82 9 5 10 81 11 2 12 1 13
REMARK SMILES IDX 83 14 84 15 85 16 86 17 12 18 13 19 14 20 15 21 16 22 80 23
REMARK SMILES IDX 17 24 79 25 18 26 19 27 20 28 73 29 21 30 78 31 72 32 74 33
REMARK SMILES IDX 22 34 77 35 71 36 70 37 23 39 57 40 36 41 56 42 37 43 40 44
REMARK SMILES IDX 55 45 75 46 38 47 39 48 54 50 76 51 41 52 24 53 25 54 34 55
REMARK SMILES IDX 26 56 27 57 33 58 35 59 28 60 29 61 30 62 31 63 32 64 58 65
REMARK SMILES IDX 59 66 68 67 60 68 61 69 67 70 69 71 62 72 63 73 64 74 65 75
REMARK SMILES IDX 66 76 42 77 43 78 52 79 44 80 45 81 51 82 53 83 46 84 47 85
REMARK SMILES IDX 48 86 49 87 50 88
REMARK H PARENT 74 38 40 49
REMARK Flexibility Score: inf
ROOT
ATOM      1  C   UNL A   1      40.688  22.040  26.907  1.00  0.00     0.275 C 
ENDROOT
BRANCH   1   2
ATOM      2  C   UNL A   1      39.731  21.030  26.269  1.00  0.00     0.275 C 
BRANCH   2   3
ATOM      3  O   UNL A   1      38.578  21.669  25.679  1.00  0.00    -0.458 OA
BRANCH   3   4
ATOM      4  C   UNL A   1      37.761  20.851  24.966  1.00  0.00     0.338 C 
ATOM      5  O   UNL A   1      37.887  19.643  24.841  1.00  0.00    -0.246 OA
BRANCH   4   6
ATOM      6  C   UNL A   1      36.595  21.586  24.411  1.00  0.00     0.060 A 
ATOM      7  C   UNL A   1      34.299  22.942  23.505  1.00  0.00     0.051 A 
ATOM      8  C   UNL A   1      34.177  21.878  24.393  1.00  0.00     0.028 A 
ATOM      9  C   UNL A   1      35.569  23.263  22.999  1.00  0.00     0.028 A 
ATOM     10  C   UNL A   1      35.315  21.199  24.829  1.00  0.00     0.018 A 
ATOM     11  C   UNL A   1      36.719  22.607  23.467  1.00  0.00     0.018 A 
BRANCH   7  12
ATOM     12  N   UNL A   1      33.147  23.612  22.963  1.00  0.00    -0.274 N 
ATOM     13  C   UNL A   1      31.832  22.992  23.230  1.00  0.00     0.163 C 
BRANCH  12  14
ATOM     14  S   UNL A   1      33.165  25.327  22.901  1.00  0.00     0.231 S 
ATOM     15  C   UNL A   1      31.422  25.662  22.916  1.00  0.00     0.183 C 
ATOM     16  O   UNL A   1      33.722  25.823  24.144  1.00  0.00    -0.207 OA
ATOM     17  O   UNL A   1      33.657  25.774  21.619  1.00  0.00    -0.207 OA
ENDBRANCH  12  14
ENDBRANCH   7  12
ENDBRANCH   4   6
ENDBRANCH   3   4
ENDBRANCH   2   3
ENDBRANCH   1   2
BRANCH   1  18
ATOM     18  O   UNL A   1      40.120  23.364  26.917  1.00  0.00    -0.458 OA
BRANCH  18  19
ATOM     19  C   UNL A   1      41.014  24.362  26.739  1.00  0.00     0.338 C 
ATOM     20  O   UNL A   1      41.948  24.383  25.953  1.00  0.00    -0.246 OA
BRANCH  19  21
ATOM     21  C   UNL A   1      40.669  25.528  27.566  1.00  0.00     0.060 A 
ATOM     22  C   UNL A   1      41.593  26.560  27.621  1.00  0.00     0.016 A 
ATOM     23  C   UNL A   1      39.595  25.509  28.452  1.00  0.00     0.016 A 
ATOM     24  C   UNL A   1      41.543  27.492  28.651  1.00  0.00     0.010 A 
ATOM     25  C   UNL A   1      39.467  26.536  29.402  1.00  0.00     0.010 A 
ATOM     26  C   UNL A   1      40.467  27.517  29.551  1.00  0.00    -0.014 A 
BRANCH  26  27
ATOM     27  C   UNL A   1      40.420  28.550  30.634  1.00  0.00     0.031 A 
ATOM     28  C   UNL A   1      41.385  28.504  31.799  1.00  0.00     0.074 A 
ATOM     29  C   UNL A   1      39.525  29.561  30.567  1.00  0.00     0.049 A 
ATOM     30  N   UNL A   1      41.403  29.230  32.890  1.00  0.00    -0.248 NA
ATOM     31  C   UNL A   1      42.459  27.499  31.742  1.00  0.00     0.031 C 
ATOM     32  C   UNL A   1      38.548  29.756  29.492  1.00  0.00     0.029 A 
ATOM     33  N   UNL A   1      39.297  30.627  31.406  1.00  0.00    -0.354 N 
ATOM     34  C   UNL A   1      42.450  28.738  33.666  1.00  0.00     0.074 A 
ATOM     35  C   UNL A   1      43.029  27.636  32.931  1.00  0.00     0.031 C 
ATOM     36  C   UNL A   1      37.877  30.897  29.700  1.00  0.00     0.029 A 
ATOM     37  C   UNL A   1      38.286  31.459  30.980  1.00  0.00     0.049 A 
ATOM     38  H   UNL A   1      39.809  30.779  32.232  1.00  0.00     0.167 HD
ATOM     39  C   UNL A   1      42.890  29.170  34.876  1.00  0.00     0.037 A 
ATOM     40  C   UNL A   1      37.709  32.526  31.564  1.00  0.00     0.037 A 
ATOM     41  C   UNL A   1      42.341  30.305  35.579  1.00  0.00     0.049 A 
ATOM     42  C   UNL A   1      38.187  32.960  32.921  1.00  0.00     0.074 A 
ATOM     43  C   UNL A   1      42.733  30.834  36.798  1.00  0.00     0.029 A 
ATOM     44  N   UNL A   1      41.294  31.094  35.124  1.00  0.00    -0.354 N 
ATOM     45  N   UNL A   1      39.149  32.456  33.655  1.00  0.00    -0.248 NA
ATOM     46  C   UNL A   1      37.489  34.096  33.537  1.00  0.00     0.031 C 
ATOM     47  C   UNL A   1      41.887  31.905  37.105  1.00  0.00     0.029 A 
ATOM     48  C   UNL A   1      41.009  32.087  36.050  1.00  0.00     0.049 A 
ATOM     49  H   UNL A   1      40.822  30.967  34.270  1.00  0.00     0.167 HD
ATOM     50  C   UNL A   1      39.186  33.224  34.812  1.00  0.00     0.074 A 
ATOM     51  C   UNL A   1      38.163  34.241  34.668  1.00  0.00     0.031 C 
ATOM     52  C   UNL A   1      39.988  33.095  35.897  1.00  0.00     0.037 A 
BRANCH  39  53
ATOM     53  C   UNL A   1      44.003  28.397  35.542  1.00  0.00     0.058 A 
ATOM     54  C   UNL A   1      43.756  27.333  36.425  1.00  0.00     0.135 A 
ATOM     55  C   UNL A   1      45.346  28.701  35.253  1.00  0.00     0.135 A 
ATOM     56  F   UNL A   1      42.497  27.002  36.749  1.00  0.00    -0.206 F 
ATOM     57  C   UNL A   1      44.796  26.621  37.020  1.00  0.00     0.059 A 
ATOM     58  C   UNL A   1      46.400  27.981  35.810  1.00  0.00     0.059 A 
ATOM     59  F   UNL A   1      45.646  29.702  34.412  1.00  0.00    -0.206 F 
ATOM     60  C   UNL A   1      46.115  26.953  36.706  1.00  0.00     0.060 A 
BRANCH  60  61
ATOM     61  S   UNL A   1      47.451  26.017  37.482  1.00  0.00     0.124 S 
ATOM     62  O   UNL A   1      47.018  25.991  38.876  1.00  0.00    -0.237 OA
ATOM     63  O   UNL A   1      47.389  24.741  36.776  1.00  0.00    -0.237 OA
ATOM     64  O   UNL A   1      48.637  26.823  37.210  1.00  0.00    -0.744 OA
ENDBRANCH  60  61
ENDBRANCH  39  53
BRANCH  40  65
ATOM     65  C   UNL A   1      36.582  33.228  30.887  1.00  0.00     0.058 A 
ATOM     66  C   UNL A   1      35.260  33.078  31.329  1.00  0.00     0.135 A 
ATOM     67  C   UNL A   1      36.810  34.081  29.793  1.00  0.00     0.135 A 
ATOM     68  F   UNL A   1      34.987  32.266  32.361  1.00  0.00    -0.206 F 
ATOM     69  C   UNL A   1      34.203  33.736  30.707  1.00  0.00     0.059 A 
ATOM     70  C   UNL A   1      35.775  34.777  29.177  1.00  0.00     0.059 A 
ATOM     71  F   UNL A   1      38.057  34.271  29.334  1.00  0.00    -0.206 F 
ATOM     72  C   UNL A   1      34.473  34.589  29.634  1.00  0.00     0.060 A 
BRANCH  72  73
ATOM     73  S   UNL A   1      33.101  35.476  28.865  1.00  0.00     0.124 S 
ATOM     74  O   UNL A   1      32.368  35.953  30.033  1.00  0.00    -0.237 OA
ATOM     75  O   UNL A   1      33.795  36.497  28.086  1.00  0.00    -0.237 OA
ATOM     76  O   UNL A   1      32.432  34.445  28.079  1.00  0.00    -0.744 OA
ENDBRANCH  72  73
ENDBRANCH  40  65
BRANCH  52  77
ATOM     77  C   UNL A   1      39.813  34.103  37.001  1.00  0.00     0.058 A 
ATOM     78  C   UNL A   1      40.411  35.372  36.946  1.00  0.00     0.135 A 
ATOM     79  C   UNL A   1      39.026  33.799  38.124  1.00  0.00     0.135 A 
ATOM     80  F   UNL A   1      41.181  35.713  35.900  1.00  0.00    -0.206 F 
ATOM     81  C   UNL A   1      40.265  36.290  37.982  1.00  0.00     0.059 A 
ATOM     82  C   UNL A   1      38.839  34.713  39.155  1.00  0.00     0.059 A 
ATOM     83  F   UNL A   1      38.423  32.604  38.223  1.00  0.00    -0.206 F 
ATOM     84  C   UNL A   1      39.478  35.951  39.084  1.00  0.00     0.060 A 
BRANCH  84  85
ATOM     85  S   UNL A   1      39.291  37.153  40.417  1.00  0.00     0.124 S 
ATOM     86  O   UNL A   1      40.682  37.470  40.724  1.00  0.00    -0.237 OA
ATOM     87  O   UNL A   1      38.527  38.216  39.772  1.00  0.00    -0.237 OA
ATOM     88  O   UNL A   1      38.574  36.410  41.448  1.00  0.00    -0.744 OA
ENDBRANCH  84  85
ENDBRANCH  52  77
ENDBRANCH  26  27
ENDBRANCH  19  21
ENDBRANCH  18  19
ENDBRANCH   1  18
TORSDOF 16
ENDMDL
MODEL 3
REMARK VINA RESULT:     -10.6      6.719     11.431
REMARK SMILES CN(c1ccc(C(=O)OCCOC(=O)c2ccc(-c3c4nc(c(-c5c(F)cc(S(=O)(=O)[O-])cc5F)c5ccc([nH]5)c(-c5c(F)cc(S(=O)(=O)[O-])cc5F)c5nc(c(-c6c(F)cc(S(=O)(=O)[O-])cc6F)c6ccc3[nH]6)C=C5)C=C4)cc2)cc1)S(C)(=O)=O
REMARK SMILES IDX 11 1 10 2 9 3 7 4 8 5 6 6 3 7 4 8 82 9 5 10 81 11 2 12 1 13
REMARK SMILES IDX 83 14 84 15 85 16 86 17 12 18 13 19 14 20 15 21 16 22 80 23
REMARK SMILES IDX 17 24 79 25 18 26 19 27 20 28 73 29 21 30 78 31 72 32 74 33
REMARK SMILES IDX 22 34 77 35 71 36 70 37 23 39 57 40 36 41 56 42 37 43 40 44
REMARK SMILES IDX 55 45 75 46 38 47 39 48 54 50 76 51 41 52 24 53 25 54 34 55
REMARK SMILES IDX 26 56 27 57 33 58 35 59 28 60 29 61 30 62 31 63 32 64 58 65
REMARK SMILES IDX 59 66 68 67 60 68 61 69 67 70 69 71 62 72 63 73 64 74 65 75
REMARK SMILES IDX 66 76 42 77 43 78 52 79 44 80 45 81 51 82 53 83 46 84 47 85
REMARK SMILES IDX 48 86 49 87 50 88
REMARK H PARENT 74 38 40 49
REMARK Flexibility Score: inf
ROOT
ATOM      1  C   UNL A   1      39.562  20.344  25.799  1.00  0.00     0.275 C 
ENDROOT
BRANCH   1   2
ATOM      2  C   UNL A   1      39.165  21.789  26.111  1.00  0.00     0.275 C 
BRANCH   2   3
ATOM      3  O   UNL A   1      37.778  22.052  25.804  1.00  0.00    -0.458 OA
BRANCH   3   4
ATOM      4  C   UNL A   1      37.422  23.362  25.796  1.00  0.00     0.338 C 
ATOM      5  O   UNL A   1      38.005  24.268  26.371  1.00  0.00    -0.246 OA
BRANCH   4   6
ATOM      6  C   UNL A   1      36.262  23.611  24.901  1.00  0.00     0.060 A 
ATOM      7  C   UNL A   1      34.042  24.237  23.285  1.00  0.00     0.051 A 
ATOM      8  C   UNL A   1      34.142  24.763  24.569  1.00  0.00     0.028 A 
ATOM      9  C   UNL A   1      35.011  23.320  22.850  1.00  0.00     0.028 A 
ATOM     10  C   UNL A   1      35.236  24.441  25.372  1.00  0.00     0.018 A 
ATOM     11  C   UNL A   1      36.133  23.025  23.641  1.00  0.00     0.018 A 
BRANCH   7  12
ATOM     12  N   UNL A   1      32.889  24.473  22.457  1.00  0.00    -0.274 N 
ATOM     13  C   UNL A   1      31.568  24.220  23.071  1.00  0.00     0.163 C 
BRANCH  12  14
ATOM     14  S   UNL A   1      32.955  25.769  21.335  1.00  0.00     0.231 S 
ATOM     15  C   UNL A   1      31.416  26.578  21.695  1.00  0.00     0.183 C 
ATOM     16  O   UNL A   1      34.027  26.662  21.729  1.00  0.00    -0.207 OA
ATOM     17  O   UNL A   1      32.845  25.265  19.985  1.00  0.00    -0.207 OA
ENDBRANCH  12  14
ENDBRANCH   7  12
ENDBRANCH   4   6
ENDBRANCH   3   4
ENDBRANCH   2   3
ENDBRANCH   1   2
BRANCH   1  18
ATOM     18  O   UNL A   1      40.510  19.843  26.761  1.00  0.00    -0.458 OA
BRANCH  18  19
ATOM     19  C   UNL A   1      41.746  19.609  26.267  1.00  0.00     0.338 C 
ATOM     20  O   UNL A   1      42.128  18.608  25.683  1.00  0.00    -0.246 OA
BRANCH  19  21
ATOM     21  C   UNL A   1      42.605  20.791  26.426  1.00  0.00     0.060 A 
ATOM     22  C   UNL A   1      42.779  21.278  27.712  1.00  0.00     0.016 A 
ATOM     23  C   UNL A   1      43.027  21.546  25.335  1.00  0.00     0.016 A 
ATOM     24  C   UNL A   1      43.229  22.578  27.916  1.00  0.00     0.010 A 
ATOM     25  C   UNL A   1      43.618  22.802  25.552  1.00  0.00     0.010 A 
ATOM     26  C   UNL A   1      43.681  23.361  26.844  1.00  0.00    -0.014 A 
BRANCH  26  27
ATOM     27  C   UNL A   1      44.190  24.748  27.092  1.00  0.00     0.031 A 
ATOM     28  C   UNL A   1      43.267  25.841  27.585  1.00  0.00     0.074 A 
ATOM     29  C   UNL A   1      45.499  25.032  26.905  1.00  0.00     0.049 A 
ATOM     30  N   UNL A   1      43.502  27.124  27.723  1.00  0.00    -0.248 NA
ATOM     31  C   UNL A   1      41.897  25.449  27.952  1.00  0.00     0.031 C 
ATOM     32  C   UNL A   1      46.517  24.077  26.459  1.00  0.00     0.029 A 
ATOM     33  N   UNL A   1      46.207  26.198  27.079  1.00  0.00    -0.354 N 
ATOM     34  C   UNL A   1      42.302  27.694  28.141  1.00  0.00     0.074 A 
ATOM     35  C   UNL A   1      41.334  26.621  28.211  1.00  0.00     0.031 C 
ATOM     36  C   UNL A   1      47.718  24.671  26.457  1.00  0.00     0.029 A 
ATOM     37  C   UNL A   1      47.547  26.079  26.786  1.00  0.00     0.049 A 
ATOM     38  H   UNL A   1      45.793  27.038  27.384  1.00  0.00     0.167 HD
ATOM     39  C   UNL A   1      42.033  28.990  28.444  1.00  0.00     0.037 A 
ATOM     40  C   UNL A   1      48.529  27.000  26.735  1.00  0.00     0.037 A 
ATOM     41  C   UNL A   1      43.018  30.046  28.423  1.00  0.00     0.049 A 
ATOM     42  C   UNL A   1      48.199  28.435  27.035  1.00  0.00     0.074 A 
ATOM     43  C   UNL A   1      42.850  31.385  28.735  1.00  0.00     0.029 A 
ATOM     44  N   UNL A   1      44.354  29.884  28.086  1.00  0.00    -0.354 N 
ATOM     45  N   UNL A   1      47.050  28.958  27.387  1.00  0.00    -0.248 NA
ATOM     46  C   UNL A   1      49.294  29.405  26.913  1.00  0.00     0.031 C 
ATOM     47  C   UNL A   1      44.069  32.041  28.531  1.00  0.00     0.029 A 
ATOM     48  C   UNL A   1      45.014  31.102  28.155  1.00  0.00     0.049 A 
ATOM     49  H   UNL A   1      44.772  29.029  27.833  1.00  0.00     0.167 HD
ATOM     50  C   UNL A   1      47.287  30.318  27.547  1.00  0.00     0.074 A 
ATOM     51  C   UNL A   1      48.694  30.530  27.277  1.00  0.00     0.031 C 
ATOM     52  C   UNL A   1      46.417  31.302  27.882  1.00  0.00     0.037 A 
BRANCH  39  53
ATOM     53  C   UNL A   1      40.612  29.356  28.794  1.00  0.00     0.058 A 
ATOM     54  C   UNL A   1      39.602  29.467  27.824  1.00  0.00     0.135 A 
ATOM     55  C   UNL A   1      40.243  29.556  30.137  1.00  0.00     0.135 A 
ATOM     56  F   UNL A   1      39.892  29.299  26.524  1.00  0.00    -0.206 F 
ATOM     57  C   UNL A   1      38.291  29.793  28.167  1.00  0.00     0.059 A 
ATOM     58  C   UNL A   1      38.932  29.849  30.505  1.00  0.00     0.059 A 
ATOM     59  F   UNL A   1      41.161  29.458  31.111  1.00  0.00    -0.206 F 
ATOM     60  C   UNL A   1      37.966  29.981  29.512  1.00  0.00     0.060 A 
BRANCH  60  61
ATOM     61  S   UNL A   1      36.261  30.397  29.939  1.00  0.00     0.124 S 
ATOM     62  O   UNL A   1      35.538  29.907  28.769  1.00  0.00    -0.237 OA
ATOM     63  O   UNL A   1      36.055  29.642  31.172  1.00  0.00    -0.237 OA
ATOM     64  O   UNL A   1      36.291  31.848  30.094  1.00  0.00    -0.744 OA
ENDBRANCH  60  61
ENDBRANCH  39  53
BRANCH  40  65
ATOM     65  C   UNL A   1      49.908  26.596  26.339  1.00  0.00     0.058 A 
ATOM     66  C   UNL A   1      50.783  25.999  27.259  1.00  0.00     0.135 A 
ATOM     67  C   UNL A   1      50.372  26.782  25.026  1.00  0.00     0.135 A 
ATOM     68  F   UNL A   1      50.394  25.810  28.529  1.00  0.00    -0.206 F 
ATOM     69  C   UNL A   1      52.070  25.612  26.896  1.00  0.00     0.059 A 
ATOM     70  C   UNL A   1      51.641  26.371  24.630  1.00  0.00     0.059 A 
ATOM     71  F   UNL A   1      49.573  27.339  24.101  1.00  0.00    -0.206 F 
ATOM     72  C   UNL A   1      52.487  25.797  25.576  1.00  0.00     0.060 A 
BRANCH  72  73
ATOM     73  S   UNL A   1      54.140  25.247  25.103  1.00  0.00     0.124 S 
ATOM     74  O   UNL A   1      53.952  23.803  25.005  1.00  0.00    -0.237 OA
ATOM     75  O   UNL A   1      54.349  25.951  23.842  1.00  0.00    -0.237 OA
ATOM     76  O   UNL A   1      54.975  25.699  26.211  1.00  0.00    -0.744 OA
ENDBRANCH  72  73
ENDBRANCH  40  65
BRANCH  52  77
ATOM     77  C   UNL A   1      46.974  32.695  28.008  1.00  0.00     0.058 A 
ATOM     78  C   UNL A   1      47.609  33.135  29.180  1.00  0.00     0.135 A 
ATOM     79  C   UNL A   1      46.882  33.597  26.935  1.00  0.00     0.135 A 
ATOM     80  F   UNL A   1      47.717  32.318  30.239  1.00  0.00    -0.206 F 
ATOM     81  C   UNL A   1      48.099  34.432  29.297  1.00  0.00     0.059 A 
ATOM     82  C   UNL A   1      47.395  34.887  27.019  1.00  0.00     0.059 A 
ATOM     83  F   UNL A   1      46.294  33.225  25.787  1.00  0.00    -0.206 F 
ATOM     84  C   UNL A   1      47.987  35.302  28.211  1.00  0.00     0.060 A 
BRANCH  84  85
ATOM     85  S   UNL A   1      48.634  36.978  28.375  1.00  0.00     0.124 S 
ATOM     86  O   UNL A   1      49.473  37.087  27.186  1.00  0.00    -0.237 OA
ATOM     87  O   UNL A   1      47.417  37.784  28.366  1.00  0.00    -0.237 OA
ATOM     88  O   UNL A   1      49.347  36.946  29.647  1.00  0.00    -0.744 OA
ENDBRANCH  84  85
ENDBRANCH  52  77
ENDBRANCH  26  27
ENDBRANCH  19  21
ENDBRANCH  18  19
ENDBRANCH   1  18
TORSDOF 16
ENDMDL
