MODEL 1
REMARK VINA RESULT:     -12.4      0.000      0.000
REMARK SMILES Cc1n[nH]c(C)c1C(=O)N1CC(n2cc(C(=O)OCCOC(=O)c3ccc(-c4c5nc(c(-c6c(F)cc(S(=O)(=O)[O-])cc6F)c6ccc([nH]6)c(-c6c(F)cc(S(=O)(=O)[O-])cc6F)c6nc(c(-c7c(F)cc(S(=O)(=O)[O-])cc7F)c7ccc4[nH]7)C=C6)C=C5)cc3)nn2)C1
REMARK SMILES IDX 20 1 19 2 18 3 16 4 17 5 15 6 13 7 14 8 91 9 90 10 12 11
REMARK SMILES IDX 8 12 9 13 10 14 11 15 92 16 7 17 1 18 2 19 3 20 4 21 5 22
REMARK SMILES IDX 6 24 21 25 22 26 23 27 24 28 25 29 89 30 26 31 88 32 27 33
REMARK SMILES IDX 28 34 29 35 82 36 30 37 87 38 81 39 83 40 31 41 86 42 80 43
REMARK SMILES IDX 79 44 32 46 66 47 45 48 65 49 46 50 49 51 64 52 84 53 47 54
REMARK SMILES IDX 48 55 63 57 85 58 50 59 33 60 34 61 43 62 35 63 36 64 42 65
REMARK SMILES IDX 44 66 37 67 38 68 39 69 40 70 41 71 67 72 68 73 77 74 69 75
REMARK SMILES IDX 70 76 76 77 78 78 71 79 72 80 73 81 74 82 75 83 51 84 52 85
REMARK SMILES IDX 61 86 53 87 54 88 60 89 62 90 55 91 56 92 57 93 58 94 59 95
REMARK H PARENT 4 23 83 45 49 56
REMARK Flexibility Score: inf
ROOT
ATOM      1  C   UNL A   1      43.236  19.222  25.691  1.00  0.00     0.275 C 
ENDROOT
BRANCH   1   2
ATOM      2  C   UNL A   1      41.775  19.303  26.104  1.00  0.00     0.275 C 
BRANCH   2   3
ATOM      3  O   UNL A   1      41.211  20.583  25.772  1.00  0.00    -0.457 OA
BRANCH   3   4
ATOM      4  C   UNL A   1      40.464  21.172  26.757  1.00  0.00     0.360 C 
ATOM      5  O   UNL A   1      40.749  21.123  27.953  1.00  0.00    -0.244 OA
BRANCH   4   6
ATOM      6  C   UNL A   1      39.299  21.868  26.241  1.00  0.00     0.190 A 
ATOM      7  N   UNL A   1      37.437  22.444  25.293  1.00  0.00    -0.245 N 
ATOM      8  C   UNL A   1      38.296  21.389  25.417  1.00  0.00     0.147 A 
ATOM      9  N   UNL A   1      37.878  23.513  25.975  1.00  0.00    -0.066 NA
ATOM     10  N   UNL A   1      39.030  23.183  26.539  1.00  0.00    -0.123 NA
BRANCH   7  11
ATOM     11  C   UNL A   1      36.138  22.349  24.694  1.00  0.00     0.148 C 
ATOM     12  C   UNL A   1      33.210  23.758  24.392  1.00  0.00     0.257 C 
ATOM     13  O   UNL A   1      32.854  23.382  23.276  1.00  0.00    -0.269 OA
ATOM     14  N   UNL A   1      34.526  23.675  24.797  1.00  0.00    -0.334 N 
ATOM     15  C   UNL A   1      35.683  23.572  23.898  1.00  0.00     0.149 C 
ATOM     16  C   UNL A   1      35.057  22.683  25.733  1.00  0.00     0.149 C 
BRANCH  12  17
ATOM     17  C   UNL A   1      32.274  24.378  25.332  1.00  0.00     0.083 A 
ATOM     18  C   UNL A   1      33.342  26.774  25.489  1.00  0.00     0.069 C 
ATOM     19  C   UNL A   1      32.347  25.721  25.826  1.00  0.00     0.072 A 
ATOM     20  N   UNL A   1      31.381  25.990  26.712  1.00  0.00    -0.180 NA
ATOM     21  N   UNL A   1      30.716  24.838  26.822  1.00  0.00    -0.282 N 
ATOM     22  C   UNL A   1      31.191  23.837  26.019  1.00  0.00     0.045 A 
ATOM     23  H   UNL A   1      29.949  24.719  27.426  1.00  0.00     0.190 HD
ATOM     24  C   UNL A   1      30.557  22.499  26.053  1.00  0.00     0.067 C 
ENDBRANCH  12  17
ENDBRANCH   7  11
ENDBRANCH   4   6
ENDBRANCH   3   4
ENDBRANCH   2   3
ENDBRANCH   1   2
BRANCH   1  25
ATOM     25  O   UNL A   1      43.542  20.148  24.648  1.00  0.00    -0.458 OA
BRANCH  25  26
ATOM     26  C   UNL A   1      44.821  20.590  24.632  1.00  0.00     0.338 C 
ATOM     27  O   UNL A   1      45.826  19.906  24.533  1.00  0.00    -0.246 OA
BRANCH  26  28
ATOM     28  C   UNL A   1      44.844  22.007  25.010  1.00  0.00     0.060 A 
ATOM     29  C   UNL A   1      45.679  22.385  26.064  1.00  0.00     0.016 A 
ATOM     30  C   UNL A   1      43.847  22.862  24.516  1.00  0.00     0.016 A 
ATOM     31  C   UNL A   1      45.403  23.560  26.733  1.00  0.00     0.010 A 
ATOM     32  C   UNL A   1      43.561  24.023  25.195  1.00  0.00     0.010 A 
ATOM     33  C   UNL A   1      44.297  24.324  26.337  1.00  0.00    -0.014 A 
BRANCH  33  34
ATOM     34  C   UNL A   1      44.009  25.549  27.054  1.00  0.00     0.031 A 
ATOM     35  C   UNL A   1      45.022  26.595  26.783  1.00  0.00     0.074 A 
ATOM     36  C   UNL A   1      42.883  25.744  27.767  1.00  0.00     0.049 A 
ATOM     37  N   UNL A   1      45.973  26.987  27.563  1.00  0.00    -0.248 NA
ATOM     38  C   UNL A   1      45.138  27.096  25.402  1.00  0.00     0.031 C 
ATOM     39  C   UNL A   1      41.695  24.889  27.840  1.00  0.00     0.029 A 
ATOM     40  N   UNL A   1      42.528  26.816  28.525  1.00  0.00    -0.354 N 
ATOM     41  C   UNL A   1      46.637  27.983  26.857  1.00  0.00     0.074 A 
ATOM     42  C   UNL A   1      46.250  27.827  25.481  1.00  0.00     0.031 C 
ATOM     43  C   UNL A   1      40.679  25.580  28.411  1.00  0.00     0.029 A 
ATOM     44  C   UNL A   1      41.180  26.865  28.869  1.00  0.00     0.049 A 
ATOM     45  H   UNL A   1      43.174  27.503  28.809  1.00  0.00     0.167 HD
ATOM     46  C   UNL A   1      47.201  29.037  27.507  1.00  0.00     0.037 A 
ATOM     47  C   UNL A   1      40.535  27.920  29.436  1.00  0.00     0.037 A 
ATOM     48  C   UNL A   1      47.332  28.757  28.915  1.00  0.00     0.049 A 
ATOM     49  C   UNL A   1      41.581  28.769  30.067  1.00  0.00     0.074 A 
ATOM     50  C   UNL A   1      48.015  27.829  29.675  1.00  0.00     0.029 A 
ATOM     51  N   UNL A   1      46.359  29.280  29.730  1.00  0.00    -0.354 N 
ATOM     52  N   UNL A   1      42.316  28.389  31.078  1.00  0.00    -0.248 NA
ATOM     53  C   UNL A   1      42.123  29.867  29.284  1.00  0.00     0.031 C 
ATOM     54  C   UNL A   1      47.151  27.535  30.771  1.00  0.00     0.029 A 
ATOM     55  C   UNL A   1      46.016  28.341  30.666  1.00  0.00     0.049 A 
ATOM     56  H   UNL A   1      45.972  30.182  29.655  1.00  0.00     0.167 HD
ATOM     57  C   UNL A   1      43.583  28.885  30.804  1.00  0.00     0.074 A 
ATOM     58  C   UNL A   1      43.379  29.865  29.739  1.00  0.00     0.031 C 
ATOM     59  C   UNL A   1      44.699  28.249  31.266  1.00  0.00     0.037 A 
BRANCH  46  60
ATOM     60  C   UNL A   1      47.215  30.453  26.970  1.00  0.00     0.058 A 
ATOM     61  C   UNL A   1      48.418  31.186  27.021  1.00  0.00     0.135 A 
ATOM     62  C   UNL A   1      46.057  31.211  26.680  1.00  0.00     0.135 A 
ATOM     63  F   UNL A   1      49.581  30.576  27.301  1.00  0.00    -0.206 F 
ATOM     64  C   UNL A   1      48.457  32.572  26.866  1.00  0.00     0.059 A 
ATOM     65  C   UNL A   1      46.081  32.583  26.468  1.00  0.00     0.059 A 
ATOM     66  F   UNL A   1      44.828  30.684  26.685  1.00  0.00    -0.206 F 
ATOM     67  C   UNL A   1      47.278  33.262  26.599  1.00  0.00     0.060 A 
BRANCH  67  68
ATOM     68  S   UNL A   1      47.310  35.057  26.469  1.00  0.00     0.124 S 
ATOM     69  O   UNL A   1      47.934  35.430  27.733  1.00  0.00    -0.237 OA
ATOM     70  O   UNL A   1      48.118  35.256  25.270  1.00  0.00    -0.237 OA
ATOM     71  O   UNL A   1      45.899  35.408  26.332  1.00  0.00    -0.744 OA
ENDBRANCH  67  68
ENDBRANCH  46  60
BRANCH  47  72
ATOM     72  C   UNL A   1      39.179  28.450  29.114  1.00  0.00     0.058 A 
ATOM     73  C   UNL A   1      38.195  28.601  30.113  1.00  0.00     0.135 A 
ATOM     74  C   UNL A   1      38.919  29.104  27.893  1.00  0.00     0.135 A 
ATOM     75  F   UNL A   1      38.366  28.034  31.317  1.00  0.00    -0.206 F 
ATOM     76  C   UNL A   1      37.053  29.394  29.930  1.00  0.00     0.059 A 
ATOM     77  C   UNL A   1      37.787  29.894  27.686  1.00  0.00     0.059 A 
ATOM     78  F   UNL A   1      39.809  29.074  26.891  1.00  0.00    -0.206 F 
ATOM     79  C   UNL A   1      36.869  30.056  28.717  1.00  0.00     0.060 A 
BRANCH  79  80
ATOM     80  S   UNL A   1      35.491  31.215  28.529  1.00  0.00     0.124 S 
ATOM     81  O   UNL A   1      35.139  31.493  29.917  1.00  0.00    -0.237 OA
ATOM     82  O   UNL A   1      36.108  32.314  27.794  1.00  0.00    -0.237 OA
ATOM     83  O   UNL A   1      34.501  30.445  27.777  1.00  0.00    -0.744 OA
ENDBRANCH  79  80
ENDBRANCH  47  72
BRANCH  59  84
ATOM     84  C   UNL A   1      44.535  27.239  32.375  1.00  0.00     0.058 A 
ATOM     85  C   UNL A   1      44.407  27.545  33.742  1.00  0.00     0.135 A 
ATOM     86  C   UNL A   1      44.357  25.898  32.000  1.00  0.00     0.135 A 
ATOM     87  F   UNL A   1      44.471  28.812  34.176  1.00  0.00    -0.206 F 
ATOM     88  C   UNL A   1      44.149  26.552  34.694  1.00  0.00     0.059 A 
ATOM     89  C   UNL A   1      44.067  24.901  32.925  1.00  0.00     0.059 A 
ATOM     90  F   UNL A   1      44.413  25.550  30.704  1.00  0.00    -0.206 F 
ATOM     91  C   UNL A   1      43.977  25.233  34.273  1.00  0.00     0.060 A 
BRANCH  91  92
ATOM     92  S   UNL A   1      43.577  23.958  35.489  1.00  0.00     0.124 S 
ATOM     93  O   UNL A   1      43.975  24.591  36.742  1.00  0.00    -0.237 OA
ATOM     94  O   UNL A   1      42.140  23.777  35.298  1.00  0.00    -0.237 OA
ATOM     95  O   UNL A   1      44.398  22.822  35.077  1.00  0.00    -0.744 OA
ENDBRANCH  91  92
ENDBRANCH  59  84
ENDBRANCH  33  34
ENDBRANCH  26  28
ENDBRANCH  25  26
ENDBRANCH   1  25
TORSDOF 16
ENDMDL
MODEL 2
REMARK VINA RESULT:     -12.3      1.856      2.423
REMARK SMILES Cc1n[nH]c(C)c1C(=O)N1CC(n2cc(C(=O)OCCOC(=O)c3ccc(-c4c5nc(c(-c6c(F)cc(S(=O)(=O)[O-])cc6F)c6ccc([nH]6)c(-c6c(F)cc(S(=O)(=O)[O-])cc6F)c6nc(c(-c7c(F)cc(S(=O)(=O)[O-])cc7F)c7ccc4[nH]7)C=C6)C=C5)cc3)nn2)C1
REMARK SMILES IDX 20 1 19 2 18 3 16 4 17 5 15 6 13 7 14 8 91 9 90 10 12 11
REMARK SMILES IDX 8 12 9 13 10 14 11 15 92 16 7 17 1 18 2 19 3 20 4 21 5 22
REMARK SMILES IDX 6 24 21 25 22 26 23 27 24 28 25 29 89 30 26 31 88 32 27 33
REMARK SMILES IDX 28 34 29 35 82 36 30 37 87 38 81 39 83 40 31 41 86 42 80 43
REMARK SMILES IDX 79 44 32 46 66 47 45 48 65 49 46 50 49 51 64 52 84 53 47 54
REMARK SMILES IDX 48 55 63 57 85 58 50 59 33 60 34 61 43 62 35 63 36 64 42 65
REMARK SMILES IDX 44 66 37 67 38 68 39 69 40 70 41 71 67 72 68 73 77 74 69 75
REMARK SMILES IDX 70 76 76 77 78 78 71 79 72 80 73 81 74 82 75 83 51 84 52 85
REMARK SMILES IDX 61 86 53 87 54 88 60 89 62 90 55 91 56 92 57 93 58 94 59 95
REMARK H PARENT 4 23 83 45 49 56
REMARK Flexibility Score: inf
ROOT
ATOM      1  C   UNL A   1      42.190  19.196  25.863  1.00  0.00     0.275 C 
ENDROOT
BRANCH   1   2
ATOM      2  C   UNL A   1      40.794  19.553  26.349  1.00  0.00     0.275 C 
BRANCH   2   3
ATOM      3  O   UNL A   1      40.319  20.757  25.723  1.00  0.00    -0.457 OA
BRANCH   3   4
ATOM      4  C   UNL A   1      39.957  21.763  26.578  1.00  0.00     0.360 C 
ATOM      5  O   UNL A   1      40.643  22.131  27.531  1.00  0.00    -0.244 OA
BRANCH   4   6
ATOM      6  C   UNL A   1      38.675  22.357  26.241  1.00  0.00     0.190 A 
ATOM      7  N   UNL A   1      36.609  22.757  25.724  1.00  0.00    -0.245 N 
ATOM      8  C   UNL A   1      37.497  21.731  25.876  1.00  0.00     0.147 A 
ATOM      9  N   UNL A   1      37.192  23.944  25.959  1.00  0.00    -0.066 NA
ATOM     10  N   UNL A   1      38.464  23.716  26.251  1.00  0.00    -0.123 NA
BRANCH   7  11
ATOM     11  C   UNL A   1      35.198  22.573  25.550  1.00  0.00     0.148 C 
ATOM     12  C   UNL A   1      32.817  20.404  25.026  1.00  0.00     0.257 C 
ATOM     13  O   UNL A   1      31.853  20.938  25.572  1.00  0.00    -0.269 OA
ATOM     14  N   UNL A   1      34.110  20.809  25.284  1.00  0.00    -0.334 N 
ATOM     15  C   UNL A   1      34.542  21.549  26.476  1.00  0.00     0.149 C 
ATOM     16  C   UNL A   1      34.936  21.611  24.381  1.00  0.00     0.149 C 
BRANCH  12  17
ATOM     17  C   UNL A   1      32.657  19.263  24.122  1.00  0.00     0.083 A 
ATOM     18  C   UNL A   1      32.006  20.541  21.921  1.00  0.00     0.069 C 
ATOM     19  C   UNL A   1      32.283  19.332  22.741  1.00  0.00     0.072 A 
ATOM     20  N   UNL A   1      32.167  18.120  22.185  1.00  0.00    -0.180 NA
ATOM     21  N   UNL A   1      32.422  17.280  23.189  1.00  0.00    -0.282 N 
ATOM     22  C   UNL A   1      32.731  17.895  24.371  1.00  0.00     0.045 A 
ATOM     23  H   UNL A   1      32.393  16.302  23.088  1.00  0.00     0.190 HD
ATOM     24  C   UNL A   1      33.020  17.081  25.575  1.00  0.00     0.067 C 
ENDBRANCH  12  17
ENDBRANCH   7  11
ENDBRANCH   4   6
ENDBRANCH   3   4
ENDBRANCH   2   3
ENDBRANCH   1   2
BRANCH   1  25
ATOM     25  O   UNL A   1      43.158  20.156  26.289  1.00  0.00    -0.458 OA
BRANCH  25  26
ATOM     26  C   UNL A   1      43.807  20.795  25.289  1.00  0.00     0.338 C 
ATOM     27  O   UNL A   1      44.393  20.277  24.352  1.00  0.00    -0.246 OA
BRANCH  26  28
ATOM     28  C   UNL A   1      43.924  22.218  25.626  1.00  0.00     0.060 A 
ATOM     29  C   UNL A   1      44.668  22.558  26.759  1.00  0.00     0.016 A 
ATOM     30  C   UNL A   1      43.077  23.142  24.995  1.00  0.00     0.016 A 
ATOM     31  C   UNL A   1      44.434  23.780  27.357  1.00  0.00     0.010 A 
ATOM     32  C   UNL A   1      42.830  24.351  25.604  1.00  0.00     0.010 A 
ATOM     33  C   UNL A   1      43.458  24.626  26.814  1.00  0.00    -0.014 A 
BRANCH  33  34
ATOM     34  C   UNL A   1      43.212  25.901  27.458  1.00  0.00     0.031 A 
ATOM     35  C   UNL A   1      44.257  26.896  27.125  1.00  0.00     0.074 A 
ATOM     36  C   UNL A   1      42.093  26.173  28.158  1.00  0.00     0.049 A 
ATOM     37  N   UNL A   1      45.221  27.302  27.881  1.00  0.00    -0.248 NA
ATOM     38  C   UNL A   1      44.386  27.310  25.717  1.00  0.00     0.031 C 
ATOM     39  C   UNL A   1      40.879  25.362  28.281  1.00  0.00     0.029 A 
ATOM     40  N   UNL A   1      41.774  27.298  28.852  1.00  0.00    -0.354 N 
ATOM     41  C   UNL A   1      45.916  28.233  27.117  1.00  0.00     0.074 A 
ATOM     42  C   UNL A   1      45.521  28.009  25.753  1.00  0.00     0.031 C 
ATOM     43  C   UNL A   1      39.887  26.119  28.810  1.00  0.00     0.029 A 
ATOM     44  C   UNL A   1      40.430  27.412  29.192  1.00  0.00     0.049 A 
ATOM     45  H   UNL A   1      42.443  27.980  29.095  1.00  0.00     0.167 HD
ATOM     46  C   UNL A   1      46.514  29.305  27.704  1.00  0.00     0.037 A 
ATOM     47  C   UNL A   1      39.820  28.518  29.696  1.00  0.00     0.037 A 
ATOM     48  C   UNL A   1      46.639  29.104  29.127  1.00  0.00     0.049 A 
ATOM     49  C   UNL A   1      40.893  29.369  30.276  1.00  0.00     0.074 A 
ATOM     50  C   UNL A   1      47.294  28.201  29.939  1.00  0.00     0.029 A 
ATOM     51  N   UNL A   1      45.685  29.704  29.909  1.00  0.00    -0.354 N 
ATOM     52  N   UNL A   1      41.618  29.025  31.307  1.00  0.00    -0.248 NA
ATOM     53  C   UNL A   1      41.469  30.401  29.430  1.00  0.00     0.031 C 
ATOM     54  C   UNL A   1      46.422  27.999  31.051  1.00  0.00     0.029 A 
ATOM     55  C   UNL A   1      45.314  28.834  30.899  1.00  0.00     0.049 A 
ATOM     56  H   UNL A   1      45.327  30.613  29.781  1.00  0.00     0.167 HD
ATOM     57  C   UNL A   1      42.900  29.463  31.004  1.00  0.00     0.074 A 
ATOM     58  C   UNL A   1      42.725  30.385  29.883  1.00  0.00     0.031 C 
ATOM     59  C   UNL A   1      43.996  28.820  31.504  1.00  0.00     0.037 A 
BRANCH  46  60
ATOM     60  C   UNL A   1      46.573  30.685  27.085  1.00  0.00     0.058 A 
ATOM     61  C   UNL A   1      47.817  31.344  27.013  1.00  0.00     0.135 A 
ATOM     62  C   UNL A   1      45.444  31.495  26.827  1.00  0.00     0.135 A 
ATOM     63  F   UNL A   1      48.959  30.680  27.252  1.00  0.00    -0.206 F 
ATOM     64  C   UNL A   1      47.925  32.715  26.775  1.00  0.00     0.059 A 
ATOM     65  C   UNL A   1      45.532  32.850  26.533  1.00  0.00     0.059 A 
ATOM     66  F   UNL A   1      44.189  31.046  26.944  1.00  0.00    -0.206 F 
ATOM     67  C   UNL A   1      46.772  33.460  26.545  1.00  0.00     0.060 A 
BRANCH  67  68
ATOM     68  S   UNL A   1      46.899  35.239  26.307  1.00  0.00     0.124 S 
ATOM     69  O   UNL A   1      48.008  35.330  25.366  1.00  0.00    -0.237 OA
ATOM     70  O   UNL A   1      45.579  35.566  25.779  1.00  0.00    -0.237 OA
ATOM     71  O   UNL A   1      47.169  35.739  27.653  1.00  0.00    -0.744 OA
ENDBRANCH  67  68
ENDBRANCH  46  60
BRANCH  47  72
ATOM     72  C   UNL A   1      38.480  29.072  29.343  1.00  0.00     0.058 A 
ATOM     73  C   UNL A   1      37.538  29.400  30.340  1.00  0.00     0.135 A 
ATOM     74  C   UNL A   1      38.213  29.576  28.055  1.00  0.00     0.135 A 
ATOM     75  F   UNL A   1      37.721  28.984  31.602  1.00  0.00    -0.206 F 
ATOM     76  C   UNL A   1      36.430  30.221  30.085  1.00  0.00     0.059 A 
ATOM     77  C   UNL A   1      37.114  30.390  27.777  1.00  0.00     0.059 A 
ATOM     78  F   UNL A   1      39.068  29.372  27.043  1.00  0.00    -0.206 F 
ATOM     79  C   UNL A   1      36.238  30.730  28.801  1.00  0.00     0.060 A 
BRANCH  79  80
ATOM     80  S   UNL A   1      34.912  31.925  28.501  1.00  0.00     0.124 S 
ATOM     81  O   UNL A   1      33.910  31.103  27.831  1.00  0.00    -0.237 OA
ATOM     82  O   UNL A   1      34.578  32.365  29.852  1.00  0.00    -0.237 OA
ATOM     83  O   UNL A   1      35.551  32.936  27.661  1.00  0.00    -0.744 OA
ENDBRANCH  79  80
ENDBRANCH  47  72
BRANCH  59  84
ATOM     84  C   UNL A   1      43.801  27.882  32.669  1.00  0.00     0.058 A 
ATOM     85  C   UNL A   1      43.582  28.276  34.002  1.00  0.00     0.135 A 
ATOM     86  C   UNL A   1      43.693  26.513  32.381  1.00  0.00     0.135 A 
ATOM     87  F   UNL A   1      43.576  29.571  34.348  1.00  0.00    -0.206 F 
ATOM     88  C   UNL A   1      43.302  27.342  35.006  1.00  0.00     0.059 A 
ATOM     89  C   UNL A   1      43.383  25.572  33.356  1.00  0.00     0.059 A 
ATOM     90  F   UNL A   1      43.838  26.080  31.118  1.00  0.00    -0.206 F 
ATOM     91  C   UNL A   1      43.202  25.992  34.671  1.00  0.00     0.060 A 
BRANCH  91  92
ATOM     92  S   UNL A   1      42.774  24.789  35.949  1.00  0.00     0.124 S 
ATOM     93  O   UNL A   1      43.155  23.527  35.324  1.00  0.00    -0.237 OA
ATOM     94  O   UNL A   1      43.602  25.215  37.075  1.00  0.00    -0.237 OA
ATOM     95  O   UNL A   1      41.338  24.983  36.135  1.00  0.00    -0.744 OA
ENDBRANCH  91  92
ENDBRANCH  59  84
ENDBRANCH  33  34
ENDBRANCH  26  28
ENDBRANCH  25  26
ENDBRANCH   1  25
TORSDOF 16
ENDMDL
MODEL 3
REMARK VINA RESULT:     -12.3      4.210     11.700
REMARK SMILES Cc1n[nH]c(C)c1C(=O)N1CC(n2cc(C(=O)OCCOC(=O)c3ccc(-c4c5nc(c(-c6c(F)cc(S(=O)(=O)[O-])cc6F)c6ccc([nH]6)c(-c6c(F)cc(S(=O)(=O)[O-])cc6F)c6nc(c(-c7c(F)cc(S(=O)(=O)[O-])cc7F)c7ccc4[nH]7)C=C6)C=C5)cc3)nn2)C1
REMARK SMILES IDX 20 1 19 2 18 3 16 4 17 5 15 6 13 7 14 8 91 9 90 10 12 11
REMARK SMILES IDX 8 12 9 13 10 14 11 15 92 16 7 17 1 18 2 19 3 20 4 21 5 22
REMARK SMILES IDX 6 24 21 25 22 26 23 27 24 28 25 29 89 30 26 31 88 32 27 33
REMARK SMILES IDX 28 34 29 35 82 36 30 37 87 38 81 39 83 40 31 41 86 42 80 43
REMARK SMILES IDX 79 44 32 46 66 47 45 48 65 49 46 50 49 51 64 52 84 53 47 54
REMARK SMILES IDX 48 55 63 57 85 58 50 59 33 60 34 61 43 62 35 63 36 64 42 65
REMARK SMILES IDX 44 66 37 67 38 68 39 69 40 70 41 71 67 72 68 73 77 74 69 75
REMARK SMILES IDX 70 76 76 77 78 78 71 79 72 80 73 81 74 82 75 83 51 84 52 85
REMARK SMILES IDX 61 86 53 87 54 88 60 89 62 90 55 91 56 92 57 93 58 94 59 95
REMARK H PARENT 4 23 83 45 49 56
REMARK Flexibility Score: inf
ROOT
ATOM      1  C   UNL A   1      33.793  33.758  28.068  1.00  0.00     0.275 C 
ENDROOT
BRANCH   1   2
ATOM      2  C   UNL A   1      33.629  35.100  28.766  1.00  0.00     0.275 C 
BRANCH   2   3
ATOM      3  O   UNL A   1      32.845  34.970  29.964  1.00  0.00    -0.457 OA
BRANCH   3   4
ATOM      4  C   UNL A   1      33.085  35.909  30.930  1.00  0.00     0.360 C 
ATOM      5  O   UNL A   1      32.531  37.007  30.970  1.00  0.00    -0.244 OA
BRANCH   4   6
ATOM      6  C   UNL A   1      34.062  35.473  31.912  1.00  0.00     0.190 A 
ATOM      7  N   UNL A   1      35.663  34.503  33.004  1.00  0.00    -0.245 N 
ATOM      8  C   UNL A   1      34.965  34.427  31.833  1.00  0.00     0.147 A 
ATOM      9  N   UNL A   1      35.220  35.511  33.771  1.00  0.00    -0.066 NA
ATOM     10  N   UNL A   1      34.222  36.098  33.126  1.00  0.00    -0.123 NA
BRANCH   7  11
ATOM     11  C   UNL A   1      36.849  33.745  33.277  1.00  0.00     0.148 C 
ATOM     12  C   UNL A   1      40.093  33.858  33.613  1.00  0.00     0.257 C 
ATOM     13  O   UNL A   1      40.306  32.936  34.398  1.00  0.00    -0.269 OA
ATOM     14  N   UNL A   1      38.831  34.388  33.444  1.00  0.00    -0.334 N 
ATOM     15  C   UNL A   1      37.730  34.272  34.409  1.00  0.00     0.149 C 
ATOM     16  C   UNL A   1      37.961  34.139  32.294  1.00  0.00     0.149 C 
BRANCH  12  17
ATOM     17  C   UNL A   1      41.175  34.496  32.859  1.00  0.00     0.083 A 
ATOM     18  C   UNL A   1      42.201  35.994  34.758  1.00  0.00     0.069 C 
ATOM     19  C   UNL A   1      42.104  35.457  33.375  1.00  0.00     0.072 A 
ATOM     20  N   UNL A   1      42.950  35.900  32.438  1.00  0.00    -0.180 NA
ATOM     21  N   UNL A   1      42.558  35.271  31.328  1.00  0.00    -0.282 N 
ATOM     22  C   UNL A   1      41.510  34.411  31.511  1.00  0.00     0.045 A 
ATOM     23  H   UNL A   1      42.987  35.413  30.454  1.00  0.00     0.190 HD
ATOM     24  C   UNL A   1      40.961  33.660  30.358  1.00  0.00     0.067 C 
ENDBRANCH  12  17
ENDBRANCH   7  11
ENDBRANCH   4   6
ENDBRANCH   3   4
ENDBRANCH   2   3
ENDBRANCH   1   2
BRANCH   1  25
ATOM     25  O   UNL A   1      34.920  33.038  28.568  1.00  0.00    -0.458 OA
BRANCH  25  26
ATOM     26  C   UNL A   1      34.943  31.723  28.253  1.00  0.00     0.338 C 
ATOM     27  O   UNL A   1      34.046  31.084  27.726  1.00  0.00    -0.246 OA
BRANCH  26  28
ATOM     28  C   UNL A   1      36.120  31.102  28.871  1.00  0.00     0.060 A 
ATOM     29  C   UNL A   1      37.197  31.931  29.194  1.00  0.00     0.016 A 
ATOM     30  C   UNL A   1      36.245  29.704  28.851  1.00  0.00     0.016 A 
ATOM     31  C   UNL A   1      38.445  31.361  29.338  1.00  0.00     0.010 A 
ATOM     32  C   UNL A   1      37.493  29.140  28.974  1.00  0.00     0.010 A 
ATOM     33  C   UNL A   1      38.588  29.980  29.146  1.00  0.00    -0.014 A 
BRANCH  33  34
ATOM     34  C   UNL A   1      39.906  29.394  29.287  1.00  0.00     0.031 A 
ATOM     35  C   UNL A   1      40.247  29.143  30.706  1.00  0.00     0.074 A 
ATOM     36  C   UNL A   1      40.659  29.005  28.240  1.00  0.00     0.049 A 
ATOM     37  N   UNL A   1      41.052  29.824  31.451  1.00  0.00    -0.248 NA
ATOM     38  C   UNL A   1      39.425  28.171  31.448  1.00  0.00     0.031 C 
ATOM     39  C   UNL A   1      40.281  28.932  26.827  1.00  0.00     0.029 A 
ATOM     40  N   UNL A   1      41.923  28.502  28.239  1.00  0.00    -0.354 N 
ATOM     41  C   UNL A   1      41.034  29.186  32.686  1.00  0.00     0.074 A 
ATOM     42  C   UNL A   1      39.857  28.361  32.695  1.00  0.00     0.031 C 
ATOM     43  C   UNL A   1      41.207  28.209  26.151  1.00  0.00     0.029 A 
ATOM     44  C   UNL A   1      42.306  27.892  27.048  1.00  0.00     0.049 A 
ATOM     45  H   UNL A   1      42.520  28.565  29.019  1.00  0.00     0.167 HD
ATOM     46  C   UNL A   1      42.148  29.154  33.467  1.00  0.00     0.037 A 
ATOM     47  C   UNL A   1      43.422  27.140  26.854  1.00  0.00     0.037 A 
ATOM     48  C   UNL A   1      43.108  30.135  33.027  1.00  0.00     0.049 A 
ATOM     49  C   UNL A   1      44.372  27.500  27.941  1.00  0.00     0.074 A 
ATOM     50  C   UNL A   1      43.132  31.511  32.923  1.00  0.00     0.029 A 
ATOM     51  N   UNL A   1      44.129  29.672  32.234  1.00  0.00    -0.354 N 
ATOM     52  N   UNL A   1      44.918  28.680  28.069  1.00  0.00    -0.248 NA
ATOM     53  C   UNL A   1      44.359  26.689  29.147  1.00  0.00     0.031 C 
ATOM     54  C   UNL A   1      43.890  31.783  31.745  1.00  0.00     0.029 A 
ATOM     55  C   UNL A   1      44.347  30.571  31.226  1.00  0.00     0.049 A 
ATOM     56  H   UNL A   1      44.623  28.831  32.370  1.00  0.00     0.167 HD
ATOM     57  C   UNL A   1      44.919  28.926  29.435  1.00  0.00     0.074 A 
ATOM     58  C   UNL A   1      44.652  27.628  30.050  1.00  0.00     0.031 C 
ATOM     59  C   UNL A   1      44.851  30.203  29.917  1.00  0.00     0.037 A 
BRANCH  46  60
ATOM     60  C   UNL A   1      42.551  27.967  34.316  1.00  0.00     0.058 A 
ATOM     61  C   UNL A   1      42.636  28.130  35.714  1.00  0.00     0.135 A 
ATOM     62  C   UNL A   1      43.129  26.780  33.810  1.00  0.00     0.135 A 
ATOM     63  F   UNL A   1      42.134  29.225  36.308  1.00  0.00    -0.206 F 
ATOM     64  C   UNL A   1      43.304  27.221  36.535  1.00  0.00     0.059 A 
ATOM     65  C   UNL A   1      43.749  25.834  34.615  1.00  0.00     0.059 A 
ATOM     66  F   UNL A   1      43.213  26.517  32.501  1.00  0.00    -0.206 F 
ATOM     67  C   UNL A   1      43.866  26.079  35.971  1.00  0.00     0.060 A 
BRANCH  67  68
ATOM     68  S   UNL A   1      44.789  24.938  37.013  1.00  0.00     0.124 S 
ATOM     69  O   UNL A   1      44.196  25.191  38.320  1.00  0.00    -0.237 OA
ATOM     70  O   UNL A   1      44.474  23.652  36.401  1.00  0.00    -0.237 OA
ATOM     71  O   UNL A   1      46.171  25.380  36.850  1.00  0.00    -0.744 OA
ENDBRANCH  67  68
ENDBRANCH  46  60
BRANCH  47  72
ATOM     72  C   UNL A   1      43.554  25.870  26.083  1.00  0.00     0.058 A 
ATOM     73  C   UNL A   1      44.697  25.604  25.301  1.00  0.00     0.135 A 
ATOM     74  C   UNL A   1      42.714  24.768  26.337  1.00  0.00     0.135 A 
ATOM     75  F   UNL A   1      45.568  26.586  25.026  1.00  0.00    -0.206 F 
ATOM     76  C   UNL A   1      45.012  24.316  24.845  1.00  0.00     0.059 A 
ATOM     77  C   UNL A   1      43.004  23.479  25.889  1.00  0.00     0.059 A 
ATOM     78  F   UNL A   1      41.628  24.893  27.114  1.00  0.00    -0.206 F 
ATOM     79  C   UNL A   1      44.168  23.253  25.164  1.00  0.00     0.060 A 
BRANCH  79  80
ATOM     80  S   UNL A   1      44.652  21.563  24.730  1.00  0.00     0.124 S 
ATOM     81  O   UNL A   1      44.656  21.616  23.272  1.00  0.00    -0.237 OA
ATOM     82  O   UNL A   1      45.959  21.441  25.368  1.00  0.00    -0.237 OA
ATOM     83  O   UNL A   1      43.594  20.746  25.321  1.00  0.00    -0.744 OA
ENDBRANCH  79  80
ENDBRANCH  47  72
BRANCH  59  84
ATOM     84  C   UNL A   1      45.156  31.337  28.970  1.00  0.00     0.058 A 
ATOM     85  C   UNL A   1      46.442  31.811  28.656  1.00  0.00     0.135 A 
ATOM     86  C   UNL A   1      44.081  31.870  28.241  1.00  0.00     0.135 A 
ATOM     87  F   UNL A   1      47.532  31.291  29.239  1.00  0.00    -0.206 F 
ATOM     88  C   UNL A   1      46.643  32.797  27.684  1.00  0.00     0.059 A 
ATOM     89  C   UNL A   1      44.262  32.826  27.247  1.00  0.00     0.059 A 
ATOM     90  F   UNL A   1      42.835  31.420  28.456  1.00  0.00    -0.206 F 
ATOM     91  C   UNL A   1      45.545  33.296  26.982  1.00  0.00     0.060 A 
BRANCH  91  92
ATOM     92  S   UNL A   1      45.804  34.520  25.679  1.00  0.00     0.124 S 
ATOM     93  O   UNL A   1      47.222  34.353  25.378  1.00  0.00    -0.237 OA
ATOM     94  O   UNL A   1      44.878  34.077  24.639  1.00  0.00    -0.237 OA
ATOM     95  O   UNL A   1      45.448  35.783  26.320  1.00  0.00    -0.744 OA
ENDBRANCH  91  92
ENDBRANCH  59  84
ENDBRANCH  33  34
ENDBRANCH  26  28
ENDBRANCH  25  26
ENDBRANCH   1  25
TORSDOF 16
ENDMDL
