MODEL 1
REMARK VINA RESULT:     -10.5      0.000      0.000
REMARK SMILES O=C(OCCOC(=O)c1ccccc1Nc1cccc(C(F)(F)F)c1)c1ccc(-c2c3nc(c(-c4c(F)cc(S(=O)(=O)[O-])cc4F)c4ccc([nH]4)c(-c4c(F)cc(S(=O)(=O)[O-])cc4F)c4nc(c(-c5c(F)cc(S(=O)(=O)[O-])cc5F)c5ccc2[nH]5)C=C4)C=C3)cc1
REMARK SMILES IDX 4 1 3 2 2 3 1 4 26 5 27 6 91 7 28 8 90 9 29 10 30 11 31 12
REMARK SMILES IDX 84 13 32 14 89 15 83 16 85 17 33 18 88 19 82 20 81 21 34 23
REMARK SMILES IDX 68 24 47 25 67 26 48 27 51 28 66 29 86 30 49 31 50 32 65 34
REMARK SMILES IDX 87 35 52 36 35 37 36 38 45 39 37 40 38 41 44 42 46 43 39 44
REMARK SMILES IDX 40 45 41 46 42 47 43 48 69 49 70 50 79 51 71 52 72 53 78 54
REMARK SMILES IDX 80 55 73 56 74 57 75 58 76 59 77 60 53 61 54 62 63 63 55 64
REMARK SMILES IDX 56 65 62 66 64 67 57 68 58 69 59 70 60 71 61 72 5 73 6 74
REMARK SMILES IDX 7 75 8 76 9 77 10 78 14 79 11 80 13 81 12 82 15 83 16 85
REMARK SMILES IDX 17 86 25 87 18 88 20 89 19 90 21 91 22 92 23 93 24 94
REMARK H PARENT 85 22 51 33 15 84
REMARK Flexibility Score: inf
ROOT
ATOM      1  C   UNL A   1      46.287  26.076  25.691  1.00  0.00     0.275 C 
ENDROOT
BRANCH   1   2
ATOM      2  O   UNL A   1      44.960  25.979  25.146  1.00  0.00    -0.458 OA
BRANCH   2   3
ATOM      3  C   UNL A   1      43.746  25.959  25.745  1.00  0.00     0.338 C 
ATOM      4  O   UNL A   1      42.923  25.145  25.320  1.00  0.00    -0.246 OA
BRANCH   3   5
ATOM      5  C   UNL A   1      43.284  26.902  26.827  1.00  0.00     0.060 A 
ATOM      6  C   UNL A   1      43.490  28.283  26.886  1.00  0.00     0.016 A 
ATOM      7  C   UNL A   1      42.545  26.324  27.882  1.00  0.00     0.016 A 
ATOM      8  C   UNL A   1      42.987  29.053  27.949  1.00  0.00     0.010 A 
ATOM      9  C   UNL A   1      42.024  27.090  28.935  1.00  0.00     0.010 A 
ATOM     10  C   UNL A   1      42.261  28.466  28.988  1.00  0.00    -0.014 A 
BRANCH  10  11
ATOM     11  C   UNL A   1      41.864  29.284  30.165  1.00  0.00     0.031 A 
ATOM     12  C   UNL A   1      42.710  29.249  31.396  1.00  0.00     0.074 A 
ATOM     13  C   UNL A   1      40.731  30.015  30.173  1.00  0.00     0.049 A 
ATOM     14  N   UNL A   1      42.557  29.924  32.503  1.00  0.00    -0.248 NA
ATOM     15  C   UNL A   1      43.827  28.291  31.414  1.00  0.00     0.031 C 
ATOM     16  C   UNL A   1      39.694  29.904  29.160  1.00  0.00     0.029 A 
ATOM     17  N   UNL A   1      40.216  30.923  31.075  1.00  0.00    -0.354 N 
ATOM     18  C   UNL A   1      43.562  29.487  33.346  1.00  0.00     0.074 A 
ATOM     19  C   UNL A   1      44.271  28.431  32.654  1.00  0.00     0.031 C 
ATOM     20  C   UNL A   1      38.665  30.693  29.514  1.00  0.00     0.029 A 
ATOM     21  C   UNL A   1      38.992  31.449  30.706  1.00  0.00     0.049 A 
ATOM     22  H   UNL A   1      40.680  31.175  31.905  1.00  0.00     0.167 HD
ATOM     23  C   UNL A   1      43.882  29.951  34.574  1.00  0.00     0.037 A 
ATOM     24  C   UNL A   1      38.236  32.428  31.254  1.00  0.00     0.037 A 
ATOM     25  C   UNL A   1      43.140  30.963  35.277  1.00  0.00     0.049 A 
ATOM     26  C   UNL A   1      38.693  33.001  32.552  1.00  0.00     0.074 A 
ATOM     27  C   UNL A   1      43.401  31.516  36.518  1.00  0.00     0.029 A 
ATOM     28  N   UNL A   1      41.981  31.564  34.807  1.00  0.00    -0.354 N 
ATOM     29  N   UNL A   1      39.704  32.628  33.294  1.00  0.00    -0.248 NA
ATOM     30  C   UNL A   1      37.892  34.103  33.104  1.00  0.00     0.031 C 
ATOM     31  C   UNL A   1      42.386  32.433  36.811  1.00  0.00     0.029 A 
ATOM     32  C   UNL A   1      41.522  32.489  35.731  1.00  0.00     0.049 A 
ATOM     33  H   UNL A   1      41.550  31.364  33.945  1.00  0.00     0.167 HD
ATOM     34  C   UNL A   1      39.624  33.409  34.431  1.00  0.00     0.074 A 
ATOM     35  C   UNL A   1      38.520  34.329  34.245  1.00  0.00     0.031 C 
ATOM     36  C   UNL A   1      40.380  33.342  35.549  1.00  0.00     0.037 A 
BRANCH  23  37
ATOM     37  C   UNL A   1      45.115  29.374  35.199  1.00  0.00     0.058 A 
ATOM     38  C   UNL A   1      46.373  29.952  34.961  1.00  0.00     0.135 A 
ATOM     39  C   UNL A   1      45.051  28.240  36.020  1.00  0.00     0.135 A 
ATOM     40  F   UNL A   1      46.487  31.021  34.156  1.00  0.00    -0.206 F 
ATOM     41  C   UNL A   1      47.532  29.408  35.494  1.00  0.00     0.059 A 
ATOM     42  C   UNL A   1      46.197  27.695  36.588  1.00  0.00     0.059 A 
ATOM     43  F   UNL A   1      43.873  27.645  36.264  1.00  0.00    -0.206 F 
ATOM     44  C   UNL A   1      47.433  28.279  36.309  1.00  0.00     0.060 A 
BRANCH  44  45
ATOM     45  S   UNL A   1      48.951  27.596  37.001  1.00  0.00     0.124 S 
ATOM     46  O   UNL A   1      49.811  28.774  37.034  1.00  0.00    -0.237 OA
ATOM     47  O   UNL A   1      48.502  27.100  38.299  1.00  0.00    -0.237 OA
ATOM     48  O   UNL A   1      49.330  26.567  36.037  1.00  0.00    -0.744 OA
ENDBRANCH  44  45
ENDBRANCH  23  37
BRANCH  24  49
ATOM     49  C   UNL A   1      37.010  33.020  30.633  1.00  0.00     0.058 A 
ATOM     50  C   UNL A   1      35.738  32.660  31.123  1.00  0.00     0.135 A 
ATOM     51  C   UNL A   1      37.050  33.890  29.531  1.00  0.00     0.135 A 
ATOM     52  F   UNL A   1      35.633  31.778  32.130  1.00  0.00    -0.206 F 
ATOM     53  C   UNL A   1      34.560  33.195  30.598  1.00  0.00     0.059 A 
ATOM     54  C   UNL A   1      35.880  34.455  28.997  1.00  0.00     0.059 A 
ATOM     55  F   UNL A   1      38.232  34.273  29.024  1.00  0.00    -0.206 F 
ATOM     56  C   UNL A   1      34.641  34.123  29.559  1.00  0.00     0.060 A 
BRANCH  56  57
ATOM     57  S   UNL A   1      33.153  35.066  29.119  1.00  0.00     0.124 S 
ATOM     58  O   UNL A   1      32.514  34.186  28.149  1.00  0.00    -0.237 OA
ATOM     59  O   UNL A   1      32.469  35.197  30.406  1.00  0.00    -0.237 OA
ATOM     60  O   UNL A   1      33.692  36.312  28.585  1.00  0.00    -0.744 OA
ENDBRANCH  56  57
ENDBRANCH  24  49
BRANCH  36  61
ATOM     61  C   UNL A   1      39.989  34.286  36.637  1.00  0.00     0.058 A 
ATOM     62  C   UNL A   1      40.420  35.623  36.635  1.00  0.00     0.135 A 
ATOM     63  C   UNL A   1      39.248  33.823  37.732  1.00  0.00     0.135 A 
ATOM     64  F   UNL A   1      41.166  36.093  35.621  1.00  0.00    -0.206 F 
ATOM     65  C   UNL A   1      40.157  36.464  37.707  1.00  0.00     0.059 A 
ATOM     66  C   UNL A   1      38.949  34.655  38.800  1.00  0.00     0.059 A 
ATOM     67  F   UNL A   1      38.835  32.547  37.780  1.00  0.00    -0.206 F 
ATOM     68  C   UNL A   1      39.422  35.967  38.786  1.00  0.00     0.060 A 
BRANCH  68  69
ATOM     69  S   UNL A   1      39.085  37.065  40.174  1.00  0.00     0.124 S 
ATOM     70  O   UNL A   1      38.421  38.182  39.511  1.00  0.00    -0.237 OA
ATOM     71  O   UNL A   1      38.238  36.237  41.027  1.00  0.00    -0.237 OA
ATOM     72  O   UNL A   1      40.413  37.350  40.708  1.00  0.00    -0.744 OA
ENDBRANCH  68  69
ENDBRANCH  36  61
ENDBRANCH  10  11
ENDBRANCH   3   5
ENDBRANCH   2   3
ENDBRANCH   1   2
BRANCH   1  73
ATOM     73  C   UNL A   1      47.053  24.750  25.722  1.00  0.00     0.275 C 
BRANCH  73  74
ATOM     74  O   UNL A   1      46.925  24.064  26.972  1.00  0.00    -0.458 OA
BRANCH  74  75
ATOM     75  C   UNL A   1      45.760  23.376  27.124  1.00  0.00     0.340 C 
ATOM     76  O   UNL A   1      45.309  22.535  26.376  1.00  0.00    -0.246 OA
BRANCH  75  77
ATOM     77  C   UNL A   1      45.166  23.725  28.429  1.00  0.00     0.083 A 
ATOM     78  C   UNL A   1      45.787  24.783  29.123  1.00  0.00     0.018 A 
ATOM     79  C   UNL A   1      44.069  23.027  28.965  1.00  0.00     0.053 A 
ATOM     80  C   UNL A   1      45.300  25.200  30.355  1.00  0.00     0.001 A 
ATOM     81  C   UNL A   1      43.737  23.369  30.288  1.00  0.00     0.027 A 
ATOM     82  C   UNL A   1      44.283  24.477  30.948  1.00  0.00     0.002 A 
BRANCH  79  83
ATOM     83  N   UNL A   1      43.384  22.041  28.203  1.00  0.00    -0.355 N 
ATOM     84  H   UNL A   1      43.882  21.196  28.122  1.00  0.00     0.167 HD
BRANCH  83  85
ATOM     85  C   UNL A   1      42.143  22.020  27.541  1.00  0.00     0.039 A 
ATOM     86  C   UNL A   1      41.568  20.829  27.080  1.00  0.00     0.026 A 
ATOM     87  C   UNL A   1      41.383  23.161  27.387  1.00  0.00     0.039 A 
ATOM     88  C   UNL A   1      40.277  20.810  26.520  1.00  0.00     0.003 A 
ATOM     89  C   UNL A   1      40.044  23.132  27.019  1.00  0.00     0.058 A 
ATOM     90  C   UNL A   1      39.499  21.960  26.516  1.00  0.00     0.013 A 
BRANCH  89  91
ATOM     91  C   UNL A   1      39.283  24.411  27.063  1.00  0.00     0.416 C 
ATOM     92  F   UNL A   1      39.846  25.247  26.183  1.00  0.00    -0.166 F 
ATOM     93  F   UNL A   1      37.975  24.304  26.767  1.00  0.00    -0.166 F 
ATOM     94  F   UNL A   1      39.347  25.042  28.274  1.00  0.00    -0.166 F 
ENDBRANCH  89  91
ENDBRANCH  83  85
ENDBRANCH  79  83
ENDBRANCH  75  77
ENDBRANCH  74  75
ENDBRANCH  73  74
ENDBRANCH   1  73
TORSDOF 17
ENDMDL
MODEL 2
REMARK VINA RESULT:     -10.5      3.594      5.222
REMARK SMILES O=C(OCCOC(=O)c1ccccc1Nc1cccc(C(F)(F)F)c1)c1ccc(-c2c3nc(c(-c4c(F)cc(S(=O)(=O)[O-])cc4F)c4ccc([nH]4)c(-c4c(F)cc(S(=O)(=O)[O-])cc4F)c4nc(c(-c5c(F)cc(S(=O)(=O)[O-])cc5F)c5ccc2[nH]5)C=C4)C=C3)cc1
REMARK SMILES IDX 4 1 3 2 2 3 1 4 26 5 27 6 91 7 28 8 90 9 29 10 30 11 31 12
REMARK SMILES IDX 84 13 32 14 89 15 83 16 85 17 33 18 88 19 82 20 81 21 34 23
REMARK SMILES IDX 68 24 47 25 67 26 48 27 51 28 66 29 86 30 49 31 50 32 65 34
REMARK SMILES IDX 87 35 52 36 35 37 36 38 45 39 37 40 38 41 44 42 46 43 39 44
REMARK SMILES IDX 40 45 41 46 42 47 43 48 69 49 70 50 79 51 71 52 72 53 78 54
REMARK SMILES IDX 80 55 73 56 74 57 75 58 76 59 77 60 53 61 54 62 63 63 55 64
REMARK SMILES IDX 56 65 62 66 64 67 57 68 58 69 59 70 60 71 61 72 5 73 6 74
REMARK SMILES IDX 7 75 8 76 9 77 10 78 14 79 11 80 13 81 12 82 15 83 16 85
REMARK SMILES IDX 17 86 25 87 18 88 20 89 19 90 21 91 22 92 23 93 24 94
REMARK H PARENT 85 22 51 33 15 84
REMARK Flexibility Score: inf
ROOT
ATOM      1  C   UNL A   1      39.635  22.348  26.436  1.00  0.00     0.275 C 
ENDROOT
BRANCH   1   2
ATOM      2  O   UNL A   1      40.166  23.649  26.130  1.00  0.00    -0.458 OA
BRANCH   2   3
ATOM      3  C   UNL A   1      41.200  24.341  26.664  1.00  0.00     0.338 C 
ATOM      4  O   UNL A   1      42.338  23.969  26.370  1.00  0.00    -0.246 OA
BRANCH   3   5
ATOM      5  C   UNL A   1      41.083  25.473  27.654  1.00  0.00     0.060 A 
ATOM      6  C   UNL A   1      42.010  26.492  27.883  1.00  0.00     0.016 A 
ATOM      7  C   UNL A   1      39.894  25.512  28.416  1.00  0.00     0.016 A 
ATOM      8  C   UNL A   1      41.768  27.503  28.829  1.00  0.00     0.010 A 
ATOM      9  C   UNL A   1      39.639  26.529  29.348  1.00  0.00     0.010 A 
ATOM     10  C   UNL A   1      40.589  27.526  29.578  1.00  0.00    -0.014 A 
BRANCH  10  11
ATOM     11  C   UNL A   1      40.427  28.527  30.667  1.00  0.00     0.031 A 
ATOM     12  C   UNL A   1      41.290  28.428  31.883  1.00  0.00     0.074 A 
ATOM     13  C   UNL A   1      39.484  29.489  30.613  1.00  0.00     0.049 A 
ATOM     14  N   UNL A   1      41.331  29.228  32.913  1.00  0.00    -0.248 NA
ATOM     15  C   UNL A   1      42.168  27.252  31.987  1.00  0.00     0.031 C 
ATOM     16  C   UNL A   1      38.411  29.510  29.633  1.00  0.00     0.029 A 
ATOM     17  N   UNL A   1      39.216  30.575  31.420  1.00  0.00    -0.354 N 
ATOM     18  C   UNL A   1      42.246  28.665  33.784  1.00  0.00     0.074 A 
ATOM     19  C   UNL A   1      42.679  27.414  33.199  1.00  0.00     0.031 C 
ATOM     20  C   UNL A   1      37.595  30.540  29.915  1.00  0.00     0.029 A 
ATOM     21  C   UNL A   1      38.124  31.321  31.015  1.00  0.00     0.049 A 
ATOM     22  H   UNL A   1      39.754  30.799  32.213  1.00  0.00     0.167 HD
ATOM     23  C   UNL A   1      42.706  29.167  34.951  1.00  0.00     0.037 A 
ATOM     24  C   UNL A   1      37.623  32.494  31.467  1.00  0.00     0.037 A 
ATOM     25  C   UNL A   1      42.232  30.385  35.552  1.00  0.00     0.049 A 
ATOM     26  C   UNL A   1      38.244  33.078  32.690  1.00  0.00     0.074 A 
ATOM     27  C   UNL A   1      42.654  30.988  36.724  1.00  0.00     0.029 A 
ATOM     28  N   UNL A   1      41.217  31.179  35.038  1.00  0.00    -0.354 N 
ATOM     29  N   UNL A   1      39.175  32.566  33.453  1.00  0.00    -0.248 NA
ATOM     30  C   UNL A   1      37.726  34.380  33.132  1.00  0.00     0.031 C 
ATOM     31  C   UNL A   1      41.878  32.133  36.931  1.00  0.00     0.029 A 
ATOM     32  C   UNL A   1      41.008  32.271  35.864  1.00  0.00     0.049 A 
ATOM     33  H   UNL A   1      40.720  30.994  34.208  1.00  0.00     0.167 HD
ATOM     34  C   UNL A   1      39.311  33.455  34.501  1.00  0.00     0.074 A 
ATOM     35  C   UNL A   1      38.431  34.575  34.234  1.00  0.00     0.031 C 
ATOM     36  C   UNL A   1      40.075  33.334  35.609  1.00  0.00     0.037 A 
BRANCH  23  37
ATOM     37  C   UNL A   1      43.804  28.397  35.616  1.00  0.00     0.058 A 
ATOM     38  C   UNL A   1      43.506  27.382  36.540  1.00  0.00     0.135 A 
ATOM     39  C   UNL A   1      45.151  28.674  35.348  1.00  0.00     0.135 A 
ATOM     40  F   UNL A   1      42.230  27.101  36.852  1.00  0.00    -0.206 F 
ATOM     41  C   UNL A   1      44.508  26.685  37.200  1.00  0.00     0.059 A 
ATOM     42  C   UNL A   1      46.172  27.969  35.977  1.00  0.00     0.059 A 
ATOM     43  F   UNL A   1      45.485  29.645  34.484  1.00  0.00    -0.206 F 
ATOM     44  C   UNL A   1      45.840  26.986  36.909  1.00  0.00     0.060 A 
BRANCH  44  45
ATOM     45  S   UNL A   1      47.127  26.061  37.768  1.00  0.00     0.124 S 
ATOM     46  O   UNL A   1      48.221  27.026  37.777  1.00  0.00    -0.237 OA
ATOM     47  O   UNL A   1      46.505  25.794  39.060  1.00  0.00    -0.237 OA
ATOM     48  O   UNL A   1      47.328  24.891  36.917  1.00  0.00    -0.744 OA
ENDBRANCH  44  45
ENDBRANCH  23  37
BRANCH  24  49
ATOM     49  C   UNL A   1      36.536  33.278  30.803  1.00  0.00     0.058 A 
ATOM     50  C   UNL A   1      35.260  33.343  31.401  1.00  0.00     0.135 A 
ATOM     51  C   UNL A   1      36.697  33.923  29.566  1.00  0.00     0.135 A 
ATOM     52  F   UNL A   1      35.024  32.689  32.550  1.00  0.00    -0.206 F 
ATOM     53  C   UNL A   1      34.213  34.076  30.841  1.00  0.00     0.059 A 
ATOM     54  C   UNL A   1      35.665  34.681  28.991  1.00  0.00     0.059 A 
ATOM     55  F   UNL A   1      37.890  33.901  28.951  1.00  0.00    -0.206 F 
ATOM     56  C   UNL A   1      34.434  34.776  29.653  1.00  0.00     0.060 A 
BRANCH  56  57
ATOM     57  S   UNL A   1      33.195  35.991  29.118  1.00  0.00     0.124 S 
ATOM     58  O   UNL A   1      32.674  36.470  30.392  1.00  0.00    -0.237 OA
ATOM     59  O   UNL A   1      33.999  36.949  28.358  1.00  0.00    -0.237 OA
ATOM     60  O   UNL A   1      32.272  35.197  28.314  1.00  0.00    -0.744 OA
ENDBRANCH  56  57
ENDBRANCH  24  49
BRANCH  36  61
ATOM     61  C   UNL A   1      39.943  34.446  36.596  1.00  0.00     0.058 A 
ATOM     62  C   UNL A   1      40.774  35.577  36.539  1.00  0.00     0.135 A 
ATOM     63  C   UNL A   1      39.034  34.336  37.656  1.00  0.00     0.135 A 
ATOM     64  F   UNL A   1      41.686  35.699  35.560  1.00  0.00    -0.206 F 
ATOM     65  C   UNL A   1      40.731  36.550  37.527  1.00  0.00     0.059 A 
ATOM     66  C   UNL A   1      38.954  35.313  38.637  1.00  0.00     0.059 A 
ATOM     67  F   UNL A   1      38.236  33.262  37.755  1.00  0.00    -0.206 F 
ATOM     68  C   UNL A   1      39.818  36.405  38.573  1.00  0.00     0.060 A 
BRANCH  68  69
ATOM     69  S   UNL A   1      39.768  37.673  39.852  1.00  0.00     0.124 S 
ATOM     70  O   UNL A   1      38.504  38.339  39.558  1.00  0.00    -0.237 OA
ATOM     71  O   UNL A   1      39.799  36.879  41.078  1.00  0.00    -0.237 OA
ATOM     72  O   UNL A   1      40.970  38.461  39.593  1.00  0.00    -0.744 OA
ENDBRANCH  68  69
ENDBRANCH  36  61
ENDBRANCH  10  11
ENDBRANCH   3   5
ENDBRANCH   2   3
ENDBRANCH   1   2
BRANCH   1  73
ATOM     73  C   UNL A   1      38.321  22.021  25.721  1.00  0.00     0.275 C 
BRANCH  73  74
ATOM     74  O   UNL A   1      37.458  23.158  25.598  1.00  0.00    -0.458 OA
BRANCH  74  75
ATOM     75  C   UNL A   1      36.503  23.042  24.634  1.00  0.00     0.340 C 
ATOM     76  O   UNL A   1      36.639  22.559  23.531  1.00  0.00    -0.246 OA
BRANCH  75  77
ATOM     77  C   UNL A   1      35.211  23.493  25.186  1.00  0.00     0.083 A 
ATOM     78  C   UNL A   1      35.032  24.889  25.265  1.00  0.00     0.018 A 
ATOM     79  C   UNL A   1      34.231  22.592  25.636  1.00  0.00     0.053 A 
ATOM     80  C   UNL A   1      33.847  25.422  25.757  1.00  0.00     0.001 A 
ATOM     81  C   UNL A   1      33.136  23.183  26.291  1.00  0.00     0.027 A 
ATOM     82  C   UNL A   1      32.904  24.564  26.291  1.00  0.00     0.002 A 
BRANCH  79  83
ATOM     83  N   UNL A   1      34.379  21.190  25.443  1.00  0.00    -0.355 N 
ATOM     84  H   UNL A   1      35.131  20.806  25.948  1.00  0.00     0.167 HD
BRANCH  83  85
ATOM     85  C   UNL A   1      33.677  20.239  24.682  1.00  0.00     0.039 A 
ATOM     86  C   UNL A   1      32.751  20.613  23.700  1.00  0.00     0.026 A 
ATOM     87  C   UNL A   1      33.927  18.888  24.799  1.00  0.00     0.039 A 
ATOM     88  C   UNL A   1      32.139  19.655  22.870  1.00  0.00     0.003 A 
ATOM     89  C   UNL A   1      33.485  17.955  23.869  1.00  0.00     0.058 A 
ATOM     90  C   UNL A   1      32.529  18.323  22.934  1.00  0.00     0.013 A 
BRANCH  89  91
ATOM     91  C   UNL A   1      33.970  16.554  24.005  1.00  0.00     0.416 C 
ATOM     92  F   UNL A   1      34.424  16.166  22.808  1.00  0.00    -0.166 F 
ATOM     93  F   UNL A   1      34.952  16.379  24.907  1.00  0.00    -0.166 F 
ATOM     94  F   UNL A   1      32.986  15.667  24.339  1.00  0.00    -0.166 F 
ENDBRANCH  89  91
ENDBRANCH  83  85
ENDBRANCH  79  83
ENDBRANCH  75  77
ENDBRANCH  74  75
ENDBRANCH  73  74
ENDBRANCH   1  73
TORSDOF 17
ENDMDL
MODEL 3
REMARK VINA RESULT:     -10.3      1.658      2.541
REMARK SMILES O=C(OCCOC(=O)c1ccccc1Nc1cccc(C(F)(F)F)c1)c1ccc(-c2c3nc(c(-c4c(F)cc(S(=O)(=O)[O-])cc4F)c4ccc([nH]4)c(-c4c(F)cc(S(=O)(=O)[O-])cc4F)c4nc(c(-c5c(F)cc(S(=O)(=O)[O-])cc5F)c5ccc2[nH]5)C=C4)C=C3)cc1
REMARK SMILES IDX 4 1 3 2 2 3 1 4 26 5 27 6 91 7 28 8 90 9 29 10 30 11 31 12
REMARK SMILES IDX 84 13 32 14 89 15 83 16 85 17 33 18 88 19 82 20 81 21 34 23
REMARK SMILES IDX 68 24 47 25 67 26 48 27 51 28 66 29 86 30 49 31 50 32 65 34
REMARK SMILES IDX 87 35 52 36 35 37 36 38 45 39 37 40 38 41 44 42 46 43 39 44
REMARK SMILES IDX 40 45 41 46 42 47 43 48 69 49 70 50 79 51 71 52 72 53 78 54
REMARK SMILES IDX 80 55 73 56 74 57 75 58 76 59 77 60 53 61 54 62 63 63 55 64
REMARK SMILES IDX 56 65 62 66 64 67 57 68 58 69 59 70 60 71 61 72 5 73 6 74
REMARK SMILES IDX 7 75 8 76 9 77 10 78 14 79 11 80 13 81 12 82 15 83 16 85
REMARK SMILES IDX 17 86 25 87 18 88 20 89 19 90 21 91 22 92 23 93 24 94
REMARK H PARENT 85 22 51 33 15 84
REMARK Flexibility Score: inf
ROOT
ATOM      1  C   UNL A   1      45.674  25.130  25.889  1.00  0.00     0.275 C 
ENDROOT
BRANCH   1   2
ATOM      2  O   UNL A   1      44.505  25.596  25.194  1.00  0.00    -0.458 OA
BRANCH   2   3
ATOM      3  C   UNL A   1      43.241  25.823  25.621  1.00  0.00     0.338 C 
ATOM      4  O   UNL A   1      42.328  25.284  24.990  1.00  0.00    -0.246 OA
BRANCH   3   5
ATOM      5  C   UNL A   1      42.845  26.743  26.748  1.00  0.00     0.060 A 
ATOM      6  C   UNL A   1      43.374  28.005  27.031  1.00  0.00     0.016 A 
ATOM      7  C   UNL A   1      41.813  26.283  27.595  1.00  0.00     0.016 A 
ATOM      8  C   UNL A   1      42.901  28.773  28.109  1.00  0.00     0.010 A 
ATOM      9  C   UNL A   1      41.323  27.052  28.660  1.00  0.00     0.010 A 
ATOM     10  C   UNL A   1      41.881  28.302  28.940  1.00  0.00    -0.014 A 
BRANCH  10  11
ATOM     11  C   UNL A   1      41.501  29.076  30.152  1.00  0.00     0.031 A 
ATOM     12  C   UNL A   1      42.318  28.932  31.396  1.00  0.00     0.074 A 
ATOM     13  C   UNL A   1      40.407  29.863  30.178  1.00  0.00     0.049 A 
ATOM     14  N   UNL A   1      42.175  29.554  32.534  1.00  0.00    -0.248 NA
ATOM     15  C   UNL A   1      43.384  27.917  31.383  1.00  0.00     0.031 C 
ATOM     16  C   UNL A   1      39.388  29.860  29.141  1.00  0.00     0.029 A 
ATOM     17  N   UNL A   1      39.920  30.748  31.118  1.00  0.00    -0.354 N 
ATOM     18  C   UNL A   1      43.138  29.021  33.371  1.00  0.00     0.074 A 
ATOM     19  C   UNL A   1      43.808  27.968  32.637  1.00  0.00     0.031 C 
ATOM     20  C   UNL A   1      38.393  30.681  29.517  1.00  0.00     0.029 A 
ATOM     21  C   UNL A   1      38.732  31.355  30.755  1.00  0.00     0.049 A 
ATOM     22  H   UNL A   1      40.377  30.930  31.969  1.00  0.00     0.167 HD
ATOM     23  C   UNL A   1      43.454  29.402  34.628  1.00  0.00     0.037 A 
ATOM     24  C   UNL A   1      38.015  32.342  31.341  1.00  0.00     0.037 A 
ATOM     25  C   UNL A   1      42.750  30.412  35.370  1.00  0.00     0.049 A 
ATOM     26  C   UNL A   1      38.473  32.821  32.677  1.00  0.00     0.074 A 
ATOM     27  C   UNL A   1      43.011  30.884  36.644  1.00  0.00     0.029 A 
ATOM     28  N   UNL A   1      41.633  31.097  34.912  1.00  0.00    -0.354 N 
ATOM     29  N   UNL A   1      39.446  32.357  33.416  1.00  0.00    -0.248 NA
ATOM     30  C   UNL A   1      37.716  33.931  33.272  1.00  0.00     0.031 C 
ATOM     31  C   UNL A   1      42.038  31.836  36.967  1.00  0.00     0.029 A 
ATOM     32  C   UNL A   1      41.202  31.994  35.876  1.00  0.00     0.049 A 
ATOM     33  H   UNL A   1      41.211  30.966  34.032  1.00  0.00     0.167 HD
ATOM     34  C   UNL A   1      39.382  33.079  34.592  1.00  0.00     0.074 A 
ATOM     35  C   UNL A   1      38.330  34.064  34.435  1.00  0.00     0.031 C 
ATOM     36  C   UNL A   1      40.109  32.914  35.719  1.00  0.00     0.037 A 
BRANCH  23  37
ATOM     37  C   UNL A   1      44.642  28.730  35.244  1.00  0.00     0.058 A 
ATOM     38  C   UNL A   1      44.486  27.562  36.008  1.00  0.00     0.135 A 
ATOM     39  C   UNL A   1      45.933  29.253  35.089  1.00  0.00     0.135 A 
ATOM     40  F   UNL A   1      43.264  27.041  36.209  1.00  0.00    -0.206 F 
ATOM     41  C   UNL A   1      45.568  26.948  36.623  1.00  0.00     0.059 A 
ATOM     42  C   UNL A   1      47.036  28.638  35.673  1.00  0.00     0.059 A 
ATOM     43  F   UNL A   1      46.130  30.375  34.381  1.00  0.00    -0.206 F 
ATOM     44  C   UNL A   1      46.840  27.493  36.447  1.00  0.00     0.060 A 
BRANCH  44  45
ATOM     45  S   UNL A   1      48.233  26.673  37.245  1.00  0.00     0.124 S 
ATOM     46  O   UNL A   1      47.964  26.947  38.653  1.00  0.00    -0.237 OA
ATOM     47  O   UNL A   1      48.059  25.288  36.822  1.00  0.00    -0.237 OA
ATOM     48  O   UNL A   1      49.395  27.357  36.683  1.00  0.00    -0.744 OA
ENDBRANCH  44  45
ENDBRANCH  23  37
BRANCH  24  49
ATOM     49  C   UNL A   1      36.835  33.028  30.729  1.00  0.00     0.058 A 
ATOM     50  C   UNL A   1      35.541  32.766  31.228  1.00  0.00     0.135 A 
ATOM     51  C   UNL A   1      36.934  33.896  29.630  1.00  0.00     0.135 A 
ATOM     52  F   UNL A   1      35.375  31.892  32.233  1.00  0.00    -0.206 F 
ATOM     53  C   UNL A   1      34.405  33.393  30.712  1.00  0.00     0.059 A 
ATOM     54  C   UNL A   1      35.809  34.552  29.105  1.00  0.00     0.059 A 
ATOM     55  F   UNL A   1      38.139  34.188  29.116  1.00  0.00    -0.206 F 
ATOM     56  C   UNL A   1      34.551  34.315  29.674  1.00  0.00     0.060 A 
BRANCH  56  57
ATOM     57  S   UNL A   1      33.137  35.372  29.247  1.00  0.00     0.124 S 
ATOM     58  O   UNL A   1      32.491  34.599  28.195  1.00  0.00    -0.237 OA
ATOM     59  O   UNL A   1      32.410  35.455  30.514  1.00  0.00    -0.237 OA
ATOM     60  O   UNL A   1      33.767  36.617  28.822  1.00  0.00    -0.744 OA
ENDBRANCH  56  57
ENDBRANCH  24  49
BRANCH  36  61
ATOM     61  C   UNL A   1      39.743  33.817  36.849  1.00  0.00     0.058 A 
ATOM     62  C   UNL A   1      40.336  35.082  36.995  1.00  0.00     0.135 A 
ATOM     63  C   UNL A   1      38.854  33.376  37.838  1.00  0.00     0.135 A 
ATOM     64  F   UNL A   1      41.224  35.523  36.088  1.00  0.00    -0.206 F 
ATOM     65  C   UNL A   1      40.085  35.868  38.111  1.00  0.00     0.059 A 
ATOM     66  C   UNL A   1      38.566  34.159  38.946  1.00  0.00     0.059 A 
ATOM     67  F   UNL A   1      38.282  32.166  37.744  1.00  0.00    -0.206 F 
ATOM     68  C   UNL A   1      39.200  35.394  39.081  1.00  0.00     0.060 A 
BRANCH  68  69
ATOM     69  S   UNL A   1      38.879  36.421  40.526  1.00  0.00     0.124 S 
ATOM     70  O   UNL A   1      38.032  35.545  41.328  1.00  0.00    -0.237 OA
ATOM     71  O   UNL A   1      40.224  36.655  41.046  1.00  0.00    -0.237 OA
ATOM     72  O   UNL A   1      38.218  37.596  39.966  1.00  0.00    -0.744 OA
ENDBRANCH  68  69
ENDBRANCH  36  61
ENDBRANCH  10  11
ENDBRANCH   3   5
ENDBRANCH   2   3
ENDBRANCH   1   2
BRANCH   1  73
ATOM     73  C   UNL A   1      46.701  24.430  24.994  1.00  0.00     0.275 C 
BRANCH  73  74
ATOM     74  O   UNL A   1      46.623  23.002  25.071  1.00  0.00    -0.458 OA
BRANCH  74  75
ATOM     75  C   UNL A   1      45.610  22.452  24.346  1.00  0.00     0.340 C 
ATOM     76  O   UNL A   1      45.011  22.966  23.426  1.00  0.00    -0.246 OA
BRANCH  75  77
ATOM     77  C   UNL A   1      45.421  21.053  24.777  1.00  0.00     0.083 A 
ATOM     78  C   UNL A   1      46.576  20.246  24.765  1.00  0.00     0.018 A 
ATOM     79  C   UNL A   1      44.163  20.545  25.146  1.00  0.00     0.053 A 
ATOM     80  C   UNL A   1      46.512  18.916  25.164  1.00  0.00     0.001 A 
ATOM     81  C   UNL A   1      44.124  19.155  25.360  1.00  0.00     0.027 A 
ATOM     82  C   UNL A   1      45.277  18.364  25.443  1.00  0.00     0.002 A 
BRANCH  79  83
ATOM     83  N   UNL A   1      43.032  21.399  25.262  1.00  0.00    -0.355 N 
ATOM     84  H   UNL A   1      42.566  21.546  24.408  1.00  0.00     0.167 HD
BRANCH  83  85
ATOM     85  C   UNL A   1      42.441  22.078  26.342  1.00  0.00     0.039 A 
ATOM     86  C   UNL A   1      41.051  22.163  26.494  1.00  0.00     0.026 A 
ATOM     87  C   UNL A   1      43.198  22.623  27.359  1.00  0.00     0.039 A 
ATOM     88  C   UNL A   1      40.476  22.748  27.638  1.00  0.00     0.003 A 
ATOM     89  C   UNL A   1      42.655  23.027  28.572  1.00  0.00     0.058 A 
ATOM     90  C   UNL A   1      41.279  23.156  28.695  1.00  0.00     0.013 A 
BRANCH  89  91
ATOM     91  C   UNL A   1      43.594  23.428  29.656  1.00  0.00     0.416 C 
ATOM     92  F   UNL A   1      43.528  24.759  29.774  1.00  0.00    -0.166 F 
ATOM     93  F   UNL A   1      43.338  22.884  30.859  1.00  0.00    -0.166 F 
ATOM     94  F   UNL A   1      44.900  23.139  29.379  1.00  0.00    -0.166 F 
ENDBRANCH  89  91
ENDBRANCH  83  85
ENDBRANCH  79  83
ENDBRANCH  75  77
ENDBRANCH  74  75
ENDBRANCH  73  74
ENDBRANCH   1  73
TORSDOF 17
ENDMDL
