MODEL 1
REMARK VINA RESULT:     -11.0      0.000      0.000
REMARK SMILES CC1(C(=O)N2CC(CC(=O)OCCOC(=O)c3ccc(-c4c5nc(c(-c6c(F)cc(S(=O)(=O)[O-])cc6F)c6ccc([nH]6)c(-c6c(F)cc(S(=O)(=O)[O-])cc6F)c6nc(c(-c7c(F)cc(S(=O)(=O)[O-])cc7F)c7ccc4[nH]7)C=C6)C=C5)cc3)C2)CCCC1
REMARK SMILES IDX 13 1 12 2 11 3 9 4 10 5 8 6 7 7 3 8 4 9 5 10 6 11 83 12 2 13
REMARK SMILES IDX 1 14 84 15 87 16 85 17 86 18 14 19 15 20 16 21 17 22 18 23
REMARK SMILES IDX 82 24 19 25 81 26 20 27 21 28 22 29 75 30 23 31 80 32 74 33
REMARK SMILES IDX 76 34 24 35 79 36 73 37 72 38 25 40 59 41 38 42 58 43 39 44
REMARK SMILES IDX 42 45 57 46 77 47 40 48 41 49 56 51 78 52 43 53 26 54 27 55
REMARK SMILES IDX 36 56 28 57 29 58 35 59 37 60 30 61 31 62 32 63 33 64 34 65
REMARK SMILES IDX 60 66 61 67 70 68 62 69 63 70 69 71 71 72 64 73 65 74 66 75
REMARK SMILES IDX 67 76 68 77 44 78 45 79 54 80 46 81 47 82 53 83 55 84 48 85
REMARK SMILES IDX 49 86 50 87 51 88 52 89
REMARK H PARENT 76 39 42 50
REMARK Flexibility Score: inf
ROOT
ATOM      1  C   UNL A   1      39.953  22.777  26.649  1.00  0.00     0.275 C 
ENDROOT
BRANCH   1   2
ATOM      2  C   UNL A   1      38.897  21.888  25.989  1.00  0.00     0.274 C 
BRANCH   2   3
ATOM      3  O   UNL A   1      37.658  22.600  25.806  1.00  0.00    -0.462 OA
BRANCH   3   4
ATOM      4  C   UNL A   1      36.809  22.094  24.873  1.00  0.00     0.306 C 
ATOM      5  O   UNL A   1      36.928  22.239  23.664  1.00  0.00    -0.252 OA
BRANCH   4   6
ATOM      6  C   UNL A   1      35.647  21.361  25.492  1.00  0.00     0.130 C 
BRANCH   6   7
ATOM      7  C   UNL A   1      34.771  22.192  26.422  1.00  0.00     0.039 C 
ATOM      8  C   UNL A   1      31.978  23.994  26.574  1.00  0.00     0.228 C 
ATOM      9  O   UNL A   1      31.328  23.637  27.557  1.00  0.00    -0.274 OA
ATOM     10  N   UNL A   1      33.002  23.226  26.069  1.00  0.00    -0.342 N 
ATOM     11  C   UNL A   1      33.284  21.840  26.423  1.00  0.00     0.125 C 
ATOM     12  C   UNL A   1      34.406  23.596  25.929  1.00  0.00     0.125 C 
BRANCH   8  13
ATOM     13  C   UNL A   1      31.563  25.203  25.715  1.00  0.00     0.047 C 
ATOM     14  C   UNL A   1      32.432  26.445  25.939  1.00  0.00     0.022 C 
ATOM     15  C   UNL A   1      30.076  25.553  25.925  1.00  0.00     0.016 C 
ATOM     16  C   UNL A   1      31.567  24.767  24.237  1.00  0.00     0.016 C 
ATOM     17  C   UNL A   1      29.619  26.193  24.619  1.00  0.00     0.001 C 
ATOM     18  C   UNL A   1      30.537  25.643  23.532  1.00  0.00     0.001 C 
ENDBRANCH   8  13
ENDBRANCH   6   7
ENDBRANCH   4   6
ENDBRANCH   3   4
ENDBRANCH   2   3
ENDBRANCH   1   2
BRANCH   1  19
ATOM     19  O   UNL A   1      39.587  24.167  26.574  1.00  0.00    -0.458 OA
BRANCH  19  20
ATOM     20  C   UNL A   1      40.629  25.027  26.482  1.00  0.00     0.338 C 
ATOM     21  O   UNL A   1      41.394  25.157  25.542  1.00  0.00    -0.246 OA
BRANCH  20  22
ATOM     22  C   UNL A   1      40.658  25.896  27.667  1.00  0.00     0.060 A 
ATOM     23  C   UNL A   1      39.614  25.800  28.590  1.00  0.00     0.016 A 
ATOM     24  C   UNL A   1      41.655  26.862  27.817  1.00  0.00     0.016 A 
ATOM     25  C   UNL A   1      39.550  26.687  29.663  1.00  0.00     0.010 A 
ATOM     26  C   UNL A   1      41.592  27.748  28.898  1.00  0.00     0.010 A 
ATOM     27  C   UNL A   1      40.530  27.677  29.816  1.00  0.00    -0.014 A 
BRANCH  27  28
ATOM     28  C   UNL A   1      40.403  28.672  30.910  1.00  0.00     0.031 A 
ATOM     29  C   UNL A   1      41.314  28.595  32.102  1.00  0.00     0.074 A 
ATOM     30  C   UNL A   1      39.493  29.660  30.816  1.00  0.00     0.049 A 
ATOM     31  N   UNL A   1      41.351  29.356  33.166  1.00  0.00    -0.248 NA
ATOM     32  C   UNL A   1      42.315  27.517  32.098  1.00  0.00     0.031 C 
ATOM     33  C   UNL A   1      38.575  29.857  29.694  1.00  0.00     0.029 A 
ATOM     34  N   UNL A   1      39.198  30.685  31.677  1.00  0.00    -0.354 N 
ATOM     35  C   UNL A   1      42.368  28.845  33.964  1.00  0.00     0.074 A 
ATOM     36  C   UNL A   1      42.908  27.695  33.270  1.00  0.00     0.031 C 
ATOM     37  C   UNL A   1      37.825  30.947  29.930  1.00  0.00     0.029 A 
ATOM     38  C   UNL A   1      38.188  31.503  31.232  1.00  0.00     0.049 A 
ATOM     39  H   UNL A   1      39.665  30.822  32.532  1.00  0.00     0.167 HD
ATOM     40  C   UNL A   1      42.815  29.299  35.160  1.00  0.00     0.037 A 
ATOM     41  C   UNL A   1      37.612  32.575  31.813  1.00  0.00     0.037 A 
ATOM     42  C   UNL A   1      42.282  30.449  35.843  1.00  0.00     0.049 A 
ATOM     43  C   UNL A   1      38.098  33.033  33.160  1.00  0.00     0.074 A 
ATOM     44  C   UNL A   1      42.675  30.993  37.054  1.00  0.00     0.029 A 
ATOM     45  N   UNL A   1      41.238  31.233  35.375  1.00  0.00    -0.354 N 
ATOM     46  N   UNL A   1      39.063  32.541  33.901  1.00  0.00    -0.248 NA
ATOM     47  C   UNL A   1      37.415  34.192  33.752  1.00  0.00     0.031 C 
ATOM     48  C   UNL A   1      41.848  32.088  37.332  1.00  0.00     0.029 A 
ATOM     49  C   UNL A   1      40.964  32.248  36.278  1.00  0.00     0.049 A 
ATOM     50  H   UNL A   1      40.762  31.091  34.525  1.00  0.00     0.167 HD
ATOM     51  C   UNL A   1      39.117  33.343  35.035  1.00  0.00     0.074 A 
ATOM     52  C   UNL A   1      38.094  34.357  34.879  1.00  0.00     0.031 C 
ATOM     53  C   UNL A   1      39.942  33.251  36.108  1.00  0.00     0.037 A 
BRANCH  40  54
ATOM     54  C   UNL A   1      43.923  28.524  35.816  1.00  0.00     0.058 A 
ATOM     55  C   UNL A   1      43.660  27.480  36.717  1.00  0.00     0.135 A 
ATOM     56  C   UNL A   1      45.265  28.829  35.539  1.00  0.00     0.135 A 
ATOM     57  F   UNL A   1      42.395  27.159  37.028  1.00  0.00    -0.206 F 
ATOM     58  C   UNL A   1      44.690  26.787  37.347  1.00  0.00     0.059 A 
ATOM     59  C   UNL A   1      46.310  28.135  36.140  1.00  0.00     0.059 A 
ATOM     60  F   UNL A   1      45.571  29.819  34.686  1.00  0.00    -0.206 F 
ATOM     61  C   UNL A   1      46.013  27.129  37.058  1.00  0.00     0.060 A 
BRANCH  61  62
ATOM     62  S   UNL A   1      47.343  26.241  37.896  1.00  0.00     0.124 S 
ATOM     63  O   UNL A   1      48.237  27.336  38.261  1.00  0.00    -0.237 OA
ATOM     64  O   UNL A   1      46.645  25.598  39.005  1.00  0.00    -0.237 OA
ATOM     65  O   UNL A   1      47.846  25.336  36.868  1.00  0.00    -0.744 OA
ENDBRANCH  61  62
ENDBRANCH  40  54
BRANCH  41  66
ATOM     66  C   UNL A   1      36.516  33.294  31.114  1.00  0.00     0.058 A 
ATOM     67  C   UNL A   1      36.784  34.119  30.014  1.00  0.00     0.135 A 
ATOM     68  C   UNL A   1      35.180  33.158  31.524  1.00  0.00     0.135 A 
ATOM     69  F   UNL A   1      38.046  34.286  29.591  1.00  0.00    -0.206 F 
ATOM     70  C   UNL A   1      35.767  34.792  29.345  1.00  0.00     0.059 A 
ATOM     71  C   UNL A   1      34.144  33.805  30.860  1.00  0.00     0.059 A 
ATOM     72  F   UNL A   1      34.874  32.371  32.567  1.00  0.00    -0.206 F 
ATOM     73  C   UNL A   1      34.448  34.626  29.774  1.00  0.00     0.060 A 
BRANCH  73  74
ATOM     74  S   UNL A   1      33.127  35.456  28.866  1.00  0.00     0.124 S 
ATOM     75  O   UNL A   1      33.881  36.387  28.035  1.00  0.00    -0.237 OA
ATOM     76  O   UNL A   1      32.489  34.345  28.163  1.00  0.00    -0.237 OA
ATOM     77  O   UNL A   1      32.324  36.060  29.924  1.00  0.00    -0.744 OA
ENDBRANCH  73  74
ENDBRANCH  41  66
BRANCH  53  78
ATOM     78  C   UNL A   1      39.789  34.291  37.180  1.00  0.00     0.058 A 
ATOM     79  C   UNL A   1      40.351  35.571  37.049  1.00  0.00     0.135 A 
ATOM     80  C   UNL A   1      39.052  34.012  38.342  1.00  0.00     0.135 A 
ATOM     81  F   UNL A   1      41.069  35.884  35.959  1.00  0.00    -0.206 F 
ATOM     82  C   UNL A   1      40.210  36.531  38.046  1.00  0.00     0.059 A 
ATOM     83  C   UNL A   1      38.882  34.964  39.342  1.00  0.00     0.059 A 
ATOM     84  F   UNL A   1      38.488  32.807  38.511  1.00  0.00    -0.206 F 
ATOM     85  C   UNL A   1      39.477  36.216  39.192  1.00  0.00     0.060 A 
BRANCH  85  86
ATOM     86  S   UNL A   1      39.286  37.471  40.477  1.00  0.00     0.124 S 
ATOM     87  O   UNL A   1      38.262  38.331  39.896  1.00  0.00    -0.237 OA
ATOM     88  O   UNL A   1      38.871  36.682  41.632  1.00  0.00    -0.237 OA
ATOM     89  O   UNL A   1      40.620  38.058  40.575  1.00  0.00    -0.744 OA
ENDBRANCH  85  86
ENDBRANCH  53  78
ENDBRANCH  27  28
ENDBRANCH  20  22
ENDBRANCH  19  20
ENDBRANCH   1  19
TORSDOF 16
ENDMDL
MODEL 2
REMARK VINA RESULT:     -11.0      6.991     12.368
REMARK SMILES CC1(C(=O)N2CC(CC(=O)OCCOC(=O)c3ccc(-c4c5nc(c(-c6c(F)cc(S(=O)(=O)[O-])cc6F)c6ccc([nH]6)c(-c6c(F)cc(S(=O)(=O)[O-])cc6F)c6nc(c(-c7c(F)cc(S(=O)(=O)[O-])cc7F)c7ccc4[nH]7)C=C6)C=C5)cc3)C2)CCCC1
REMARK SMILES IDX 13 1 12 2 11 3 9 4 10 5 8 6 7 7 3 8 4 9 5 10 6 11 83 12 2 13
REMARK SMILES IDX 1 14 84 15 87 16 85 17 86 18 14 19 15 20 16 21 17 22 18 23
REMARK SMILES IDX 82 24 19 25 81 26 20 27 21 28 22 29 75 30 23 31 80 32 74 33
REMARK SMILES IDX 76 34 24 35 79 36 73 37 72 38 25 40 59 41 38 42 58 43 39 44
REMARK SMILES IDX 42 45 57 46 77 47 40 48 41 49 56 51 78 52 43 53 26 54 27 55
REMARK SMILES IDX 36 56 28 57 29 58 35 59 37 60 30 61 31 62 32 63 33 64 34 65
REMARK SMILES IDX 60 66 61 67 70 68 62 69 63 70 69 71 71 72 64 73 65 74 66 75
REMARK SMILES IDX 67 76 68 77 44 78 45 79 54 80 46 81 47 82 53 83 55 84 48 85
REMARK SMILES IDX 49 86 50 87 51 88 52 89
REMARK H PARENT 76 39 42 50
REMARK Flexibility Score: inf
ROOT
ATOM      1  C   UNL A   1      34.896  32.050  29.482  1.00  0.00     0.275 C 
ENDROOT
BRANCH   1   2
ATOM      2  C   UNL A   1      34.682  31.792  27.989  1.00  0.00     0.274 C 
BRANCH   2   3
ATOM      3  O   UNL A   1      33.672  30.787  27.773  1.00  0.00    -0.462 OA
BRANCH   3   4
ATOM      4  C   UNL A   1      34.114  29.580  27.334  1.00  0.00     0.306 C 
ATOM      5  O   UNL A   1      35.275  29.317  27.051  1.00  0.00    -0.252 OA
BRANCH   4   6
ATOM      6  C   UNL A   1      32.994  28.583  27.173  1.00  0.00     0.130 C 
BRANCH   6   7
ATOM      7  C   UNL A   1      32.657  28.207  25.735  1.00  0.00     0.039 C 
ATOM      8  C   UNL A   1      31.029  29.216  23.014  1.00  0.00     0.228 C 
ATOM      9  O   UNL A   1      31.775  29.108  22.041  1.00  0.00    -0.274 OA
ATOM     10  N   UNL A   1      31.513  29.187  24.301  1.00  0.00    -0.342 N 
ATOM     11  C   UNL A   1      32.914  29.292  24.689  1.00  0.00     0.125 C 
ATOM     12  C   UNL A   1      31.172  28.243  25.360  1.00  0.00     0.125 C 
BRANCH   8  13
ATOM     13  C   UNL A   1      29.545  29.601  22.866  1.00  0.00     0.047 C 
ATOM     14  C   UNL A   1      28.579  28.431  23.090  1.00  0.00     0.022 C 
ATOM     15  C   UNL A   1      29.272  30.257  21.497  1.00  0.00     0.016 C 
ATOM     16  C   UNL A   1      29.253  30.769  23.826  1.00  0.00     0.016 C 
ATOM     17  C   UNL A   1      28.086  31.189  21.720  1.00  0.00     0.001 C 
ATOM     18  C   UNL A   1      28.112  31.561  23.199  1.00  0.00     0.001 C 
ENDBRANCH   8  13
ENDBRANCH   6   7
ENDBRANCH   4   6
ENDBRANCH   3   4
ENDBRANCH   2   3
ENDBRANCH   1   2
BRANCH   1  19
ATOM     19  O   UNL A   1      35.710  31.023  30.077  1.00  0.00    -0.458 OA
BRANCH  19  20
ATOM     20  C   UNL A   1      36.770  31.475  30.788  1.00  0.00     0.338 C 
ATOM     21  O   UNL A   1      36.746  32.234  31.740  1.00  0.00    -0.246 OA
BRANCH  20  22
ATOM     22  C   UNL A   1      37.999  30.823  30.311  1.00  0.00     0.060 A 
ATOM     23  C   UNL A   1      39.001  30.530  31.239  1.00  0.00     0.016 A 
ATOM     24  C   UNL A   1      38.199  30.592  28.949  1.00  0.00     0.016 A 
ATOM     25  C   UNL A   1      40.222  30.019  30.806  1.00  0.00     0.010 A 
ATOM     26  C   UNL A   1      39.425  30.073  28.516  1.00  0.00     0.010 A 
ATOM     27  C   UNL A   1      40.449  29.801  29.440  1.00  0.00    -0.014 A 
BRANCH  27  28
ATOM     28  C   UNL A   1      41.784  29.342  28.982  1.00  0.00     0.031 A 
ATOM     29  C   UNL A   1      42.942  30.299  28.973  1.00  0.00     0.074 A 
ATOM     30  C   UNL A   1      41.961  28.062  28.606  1.00  0.00     0.049 A 
ATOM     31  N   UNL A   1      44.179  30.098  28.595  1.00  0.00    -0.248 NA
ATOM     32  C   UNL A   1      42.674  31.664  29.451  1.00  0.00     0.031 C 
ATOM     33  C   UNL A   1      40.921  27.033  28.602  1.00  0.00     0.029 A 
ATOM     34  N   UNL A   1      43.082  27.409  28.161  1.00  0.00    -0.354 N 
ATOM     35  C   UNL A   1      44.834  31.310  28.777  1.00  0.00     0.074 A 
ATOM     36  C   UNL A   1      43.851  32.248  29.279  1.00  0.00     0.031 C 
ATOM     37  C   UNL A   1      41.457  25.873  28.187  1.00  0.00     0.029 A 
ATOM     38  C   UNL A   1      42.866  26.085  27.865  1.00  0.00     0.049 A 
ATOM     39  H   UNL A   1      43.957  27.848  28.064  1.00  0.00     0.167 HD
ATOM     40  C   UNL A   1      46.136  31.612  28.553  1.00  0.00     0.037 A 
ATOM     41  C   UNL A   1      43.708  25.152  27.379  1.00  0.00     0.037 A 
ATOM     42  C   UNL A   1      47.113  30.674  28.062  1.00  0.00     0.049 A 
ATOM     43  C   UNL A   1      45.138  25.521  27.099  1.00  0.00     0.074 A 
ATOM     44  C   UNL A   1      48.459  30.882  27.813  1.00  0.00     0.029 A 
ATOM     45  N   UNL A   1      46.849  29.350  27.744  1.00  0.00    -0.354 N 
ATOM     46  N   UNL A   1      45.743  26.672  27.279  1.00  0.00    -0.248 NA
ATOM     47  C   UNL A   1      46.000  24.466  26.548  1.00  0.00     0.031 C 
ATOM     48  C   UNL A   1      49.002  29.691  27.315  1.00  0.00     0.029 A 
ATOM     49  C   UNL A   1      48.003  28.733  27.287  1.00  0.00     0.049 A 
ATOM     50  H   UNL A   1      45.971  28.913  27.830  1.00  0.00     0.167 HD
ATOM     51  C   UNL A   1      47.061  26.473  26.885  1.00  0.00     0.074 A 
ATOM     52  C   UNL A   1      47.167  25.090  26.465  1.00  0.00     0.031 C 
ATOM     53  C   UNL A   1      48.092  27.354  26.874  1.00  0.00     0.037 A 
BRANCH  40  54
ATOM     54  C   UNL A   1      46.567  33.027  28.815  1.00  0.00     0.058 A 
ATOM     55  C   UNL A   1      47.052  33.430  30.070  1.00  0.00     0.135 A 
ATOM     56  C   UNL A   1      46.496  33.992  27.799  1.00  0.00     0.135 A 
ATOM     57  F   UNL A   1      47.125  32.550  31.080  1.00  0.00    -0.206 F 
ATOM     58  C   UNL A   1      47.419  34.750  30.317  1.00  0.00     0.059 A 
ATOM     59  C   UNL A   1      46.879  35.312  28.017  1.00  0.00     0.059 A 
ATOM     60  F   UNL A   1      46.040  33.659  26.581  1.00  0.00    -0.206 F 
ATOM     61  C   UNL A   1      47.320  35.685  29.285  1.00  0.00     0.060 A 
BRANCH  61  62
ATOM     62  S   UNL A   1      47.776  37.400  29.620  1.00  0.00     0.124 S 
ATOM     63  O   UNL A   1      48.721  37.239  30.722  1.00  0.00    -0.237 OA
ATOM     64  O   UNL A   1      48.352  37.829  28.350  1.00  0.00    -0.237 OA
ATOM     65  O   UNL A   1      46.504  38.026  29.969  1.00  0.00    -0.744 OA
ENDBRANCH  61  62
ENDBRANCH  40  54
BRANCH  41  66
ATOM     66  C   UNL A   1      43.218  23.771  27.136  1.00  0.00     0.058 A 
ATOM     67  C   UNL A   1      42.911  23.335  25.839  1.00  0.00     0.135 A 
ATOM     68  C   UNL A   1      43.061  22.858  28.190  1.00  0.00     0.135 A 
ATOM     69  F   UNL A   1      43.036  24.175  24.802  1.00  0.00    -0.206 F 
ATOM     70  C   UNL A   1      42.459  22.042  25.595  1.00  0.00     0.059 A 
ATOM     71  C   UNL A   1      42.630  21.554  27.969  1.00  0.00     0.059 A 
ATOM     72  F   UNL A   1      43.352  23.227  29.448  1.00  0.00    -0.206 F 
ATOM     73  C   UNL A   1      42.324  21.157  26.667  1.00  0.00     0.060 A 
BRANCH  73  74
ATOM     74  S   UNL A   1      41.793  19.464  26.336  1.00  0.00     0.124 S 
ATOM     75  O   UNL A   1      42.266  18.770  27.529  1.00  0.00    -0.237 OA
ATOM     76  O   UNL A   1      40.345  19.610  26.215  1.00  0.00    -0.237 OA
ATOM     77  O   UNL A   1      42.487  19.134  25.095  1.00  0.00    -0.744 OA
ENDBRANCH  73  74
ENDBRANCH  41  66
BRANCH  53  78
ATOM     78  C   UNL A   1      49.429  26.839  26.421  1.00  0.00     0.058 A 
ATOM     79  C   UNL A   1      50.294  26.169  27.298  1.00  0.00     0.135 A 
ATOM     80  C   UNL A   1      49.837  26.998  25.087  1.00  0.00     0.135 A 
ATOM     81  F   UNL A   1      49.952  25.997  28.585  1.00  0.00    -0.206 F 
ATOM     82  C   UNL A   1      51.534  25.696  26.875  1.00  0.00     0.059 A 
ATOM     83  C   UNL A   1      51.062  26.516  24.638  1.00  0.00     0.059 A 
ATOM     84  F   UNL A   1      49.041  27.624  24.206  1.00  0.00    -0.206 F 
ATOM     85  C   UNL A   1      51.910  25.879  25.543  1.00  0.00     0.060 A 
BRANCH  85  86
ATOM     86  S   UNL A   1      53.513  25.251  24.997  1.00  0.00     0.124 S 
ATOM     87  O   UNL A   1      53.487  25.579  23.576  1.00  0.00    -0.237 OA
ATOM     88  O   UNL A   1      54.449  26.022  25.809  1.00  0.00    -0.237 OA
ATOM     89  O   UNL A   1      53.444  23.827  25.316  1.00  0.00    -0.744 OA
ENDBRANCH  85  86
ENDBRANCH  53  78
ENDBRANCH  27  28
ENDBRANCH  20  22
ENDBRANCH  19  20
ENDBRANCH   1  19
TORSDOF 16
ENDMDL
MODEL 3
REMARK VINA RESULT:     -10.9      1.108      2.268
REMARK SMILES CC1(C(=O)N2CC(CC(=O)OCCOC(=O)c3ccc(-c4c5nc(c(-c6c(F)cc(S(=O)(=O)[O-])cc6F)c6ccc([nH]6)c(-c6c(F)cc(S(=O)(=O)[O-])cc6F)c6nc(c(-c7c(F)cc(S(=O)(=O)[O-])cc7F)c7ccc4[nH]7)C=C6)C=C5)cc3)C2)CCCC1
REMARK SMILES IDX 13 1 12 2 11 3 9 4 10 5 8 6 7 7 3 8 4 9 5 10 6 11 83 12 2 13
REMARK SMILES IDX 1 14 84 15 87 16 85 17 86 18 14 19 15 20 16 21 17 22 18 23
REMARK SMILES IDX 82 24 19 25 81 26 20 27 21 28 22 29 75 30 23 31 80 32 74 33
REMARK SMILES IDX 76 34 24 35 79 36 73 37 72 38 25 40 59 41 38 42 58 43 39 44
REMARK SMILES IDX 42 45 57 46 77 47 40 48 41 49 56 51 78 52 43 53 26 54 27 55
REMARK SMILES IDX 36 56 28 57 29 58 35 59 37 60 30 61 31 62 32 63 33 64 34 65
REMARK SMILES IDX 60 66 61 67 70 68 62 69 63 70 69 71 71 72 64 73 65 74 66 75
REMARK SMILES IDX 67 76 68 77 44 78 45 79 54 80 46 81 47 82 53 83 55 84 48 85
REMARK SMILES IDX 49 86 50 87 51 88 52 89
REMARK H PARENT 76 39 42 50
REMARK Flexibility Score: inf
ROOT
ATOM      1  C   UNL A   1      40.542  22.296  26.149  1.00  0.00     0.275 C 
ENDROOT
BRANCH   1   2
ATOM      2  C   UNL A   1      39.227  21.513  26.141  1.00  0.00     0.274 C 
BRANCH   2   3
ATOM      3  O   UNL A   1      38.304  22.052  25.175  1.00  0.00    -0.462 OA
BRANCH   3   4
ATOM      4  C   UNL A   1      37.279  22.791  25.673  1.00  0.00     0.306 C 
ATOM      5  O   UNL A   1      37.369  23.951  26.052  1.00  0.00    -0.252 OA
BRANCH   4   6
ATOM      6  C   UNL A   1      35.996  22.005  25.765  1.00  0.00     0.130 C 
BRANCH   6   7
ATOM      7  C   UNL A   1      34.971  22.300  24.678  1.00  0.00     0.039 C 
ATOM      8  C   UNL A   1      33.699  24.718  22.779  1.00  0.00     0.228 C 
ATOM      9  O   UNL A   1      33.670  24.332  21.610  1.00  0.00    -0.274 OA
ATOM     10  N   UNL A   1      34.459  24.079  23.731  1.00  0.00    -0.342 N 
ATOM     11  C   UNL A   1      35.490  23.082  23.472  1.00  0.00     0.125 C 
ATOM     12  C   UNL A   1      33.997  23.448  24.963  1.00  0.00     0.125 C 
BRANCH   8  13
ATOM     13  C   UNL A   1      33.066  26.054  23.215  1.00  0.00     0.047 C 
ATOM     14  C   UNL A   1      31.553  25.972  23.448  1.00  0.00     0.022 C 
ATOM     15  C   UNL A   1      33.386  27.177  22.208  1.00  0.00     0.016 C 
ATOM     16  C   UNL A   1      33.808  26.550  24.470  1.00  0.00     0.016 C 
ATOM     17  C   UNL A   1      33.372  28.468  23.019  1.00  0.00     0.001 C 
ATOM     18  C   UNL A   1      33.700  28.070  24.455  1.00  0.00     0.001 C 
ENDBRANCH   8  13
ENDBRANCH   6   7
ENDBRANCH   4   6
ENDBRANCH   3   4
ENDBRANCH   2   3
ENDBRANCH   1   2
BRANCH   1  19
ATOM     19  O   UNL A   1      40.497  23.382  27.093  1.00  0.00    -0.458 OA
BRANCH  19  20
ATOM     20  C   UNL A   1      41.186  24.487  26.724  1.00  0.00     0.338 C 
ATOM     21  O   UNL A   1      41.865  24.630  25.723  1.00  0.00    -0.246 OA
BRANCH  20  22
ATOM     22  C   UNL A   1      40.914  25.578  27.672  1.00  0.00     0.060 A 
ATOM     23  C   UNL A   1      41.875  26.580  27.828  1.00  0.00     0.016 A 
ATOM     24  C   UNL A   1      39.768  25.559  28.469  1.00  0.00     0.016 A 
ATOM     25  C   UNL A   1      41.702  27.564  28.799  1.00  0.00     0.010 A 
ATOM     26  C   UNL A   1      39.594  26.552  29.440  1.00  0.00     0.010 A 
ATOM     27  C   UNL A   1      40.568  27.549  29.622  1.00  0.00    -0.014 A 
BRANCH  27  28
ATOM     28  C   UNL A   1      40.439  28.548  30.712  1.00  0.00     0.031 A 
ATOM     29  C   UNL A   1      41.349  28.476  31.905  1.00  0.00     0.074 A 
ATOM     30  C   UNL A   1      39.529  29.534  30.614  1.00  0.00     0.049 A 
ATOM     31  N   UNL A   1      41.385  29.241  32.966  1.00  0.00    -0.248 NA
ATOM     32  C   UNL A   1      42.352  27.400  31.906  1.00  0.00     0.031 C 
ATOM     33  C   UNL A   1      38.611  29.726  29.491  1.00  0.00     0.029 A 
ATOM     34  N   UNL A   1      39.231  30.562  31.471  1.00  0.00    -0.354 N 
ATOM     35  C   UNL A   1      42.402  28.735  33.766  1.00  0.00     0.074 A 
ATOM     36  C   UNL A   1      42.944  27.582  33.078  1.00  0.00     0.031 C 
ATOM     37  C   UNL A   1      37.859  30.815  29.722  1.00  0.00     0.029 A 
ATOM     38  C   UNL A   1      38.220  31.377  31.022  1.00  0.00     0.049 A 
ATOM     39  H   UNL A   1      39.697  30.703  32.326  1.00  0.00     0.167 HD
ATOM     40  C   UNL A   1      42.848  29.193  34.962  1.00  0.00     0.037 A 
ATOM     41  C   UNL A   1      37.643  32.450  31.599  1.00  0.00     0.037 A 
ATOM     42  C   UNL A   1      42.313  30.345  35.640  1.00  0.00     0.049 A 
ATOM     43  C   UNL A   1      38.127  32.914  32.944  1.00  0.00     0.074 A 
ATOM     44  C   UNL A   1      42.705  30.894  36.849  1.00  0.00     0.029 A 
ATOM     45  N   UNL A   1      41.268  31.127  35.168  1.00  0.00    -0.354 N 
ATOM     46  N   UNL A   1      39.092  32.425  33.688  1.00  0.00    -0.248 NA
ATOM     47  C   UNL A   1      37.442  34.074  33.531  1.00  0.00     0.031 C 
ATOM     48  C   UNL A   1      41.876  31.989  37.123  1.00  0.00     0.029 A 
ATOM     49  C   UNL A   1      40.992  32.144  36.068  1.00  0.00     0.049 A 
ATOM     50  H   UNL A   1      40.793  30.980  34.318  1.00  0.00     0.167 HD
ATOM     51  C   UNL A   1      39.145  33.232  34.819  1.00  0.00     0.074 A 
ATOM     52  C   UNL A   1      38.121  34.244  34.658  1.00  0.00     0.031 C 
ATOM     53  C   UNL A   1      39.969  33.145  35.892  1.00  0.00     0.037 A 
BRANCH  40  54
ATOM     54  C   UNL A   1      43.956  28.423  35.621  1.00  0.00     0.058 A 
ATOM     55  C   UNL A   1      45.307  28.689  35.343  1.00  0.00     0.135 A 
ATOM     56  C   UNL A   1      43.666  27.406  36.543  1.00  0.00     0.135 A 
ATOM     57  F   UNL A   1      45.639  29.641  34.457  1.00  0.00    -0.206 F 
ATOM     58  C   UNL A   1      46.329  27.951  35.932  1.00  0.00     0.059 A 
ATOM     59  C   UNL A   1      44.672  26.670  37.161  1.00  0.00     0.059 A 
ATOM     60  F   UNL A   1      42.391  27.110  36.844  1.00  0.00    -0.206 F 
ATOM     61  C   UNL A   1      46.000  26.937  36.833  1.00  0.00     0.060 A 
BRANCH  61  62
ATOM     62  S   UNL A   1      47.331  25.967  37.575  1.00  0.00     0.124 S 
ATOM     63  O   UNL A   1      47.857  26.905  38.563  1.00  0.00    -0.237 OA
ATOM     64  O   UNL A   1      46.620  24.812  38.113  1.00  0.00    -0.237 OA
ATOM     65  O   UNL A   1      48.213  25.685  36.447  1.00  0.00    -0.744 OA
ENDBRANCH  61  62
ENDBRANCH  40  54
BRANCH  41  66
ATOM     66  C   UNL A   1      36.546  33.165  30.897  1.00  0.00     0.058 A 
ATOM     67  C   UNL A   1      35.219  33.046  31.329  1.00  0.00     0.135 A 
ATOM     68  C   UNL A   1      36.806  33.990  29.792  1.00  0.00     0.135 A 
ATOM     69  F   UNL A   1      34.921  32.261  32.375  1.00  0.00    -0.206 F 
ATOM     70  C   UNL A   1      34.182  33.715  30.687  1.00  0.00     0.059 A 
ATOM     71  C   UNL A   1      35.790  34.686  29.146  1.00  0.00     0.059 A 
ATOM     72  F   UNL A   1      38.064  34.143  29.348  1.00  0.00    -0.206 F 
ATOM     73  C   UNL A   1      34.479  34.536  29.597  1.00  0.00     0.060 A 
BRANCH  73  74
ATOM     74  S   UNL A   1      33.137  35.449  28.805  1.00  0.00     0.124 S 
ATOM     75  O   UNL A   1      32.410  35.963  29.960  1.00  0.00    -0.237 OA
ATOM     76  O   UNL A   1      33.861  36.440  28.013  1.00  0.00    -0.237 OA
ATOM     77  O   UNL A   1      32.449  34.422  28.028  1.00  0.00    -0.744 OA
ENDBRANCH  73  74
ENDBRANCH  41  66
BRANCH  53  78
ATOM     78  C   UNL A   1      39.814  34.189  36.961  1.00  0.00     0.058 A 
ATOM     79  C   UNL A   1      39.067  33.947  38.123  1.00  0.00     0.135 A 
ATOM     80  C   UNL A   1      40.440  35.439  36.830  1.00  0.00     0.135 A 
ATOM     81  F   UNL A   1      38.443  32.769  38.292  1.00  0.00    -0.206 F 
ATOM     82  C   UNL A   1      38.922  34.918  39.110  1.00  0.00     0.059 A 
ATOM     83  C   UNL A   1      40.326  36.417  37.813  1.00  0.00     0.059 A 
ATOM     84  F   UNL A   1      41.174  35.717  35.742  1.00  0.00    -0.206 F 
ATOM     85  C   UNL A   1      39.552  36.153  38.942  1.00  0.00     0.060 A 
BRANCH  85  86
ATOM     86  S   UNL A   1      39.372  37.404  40.232  1.00  0.00     0.124 S 
ATOM     87  O   UNL A   1      38.472  38.357  39.592  1.00  0.00    -0.237 OA
ATOM     88  O   UNL A   1      38.804  36.641  41.338  1.00  0.00    -0.237 OA
ATOM     89  O   UNL A   1      40.740  37.872  40.441  1.00  0.00    -0.744 OA
ENDBRANCH  85  86
ENDBRANCH  53  78
ENDBRANCH  27  28
ENDBRANCH  20  22
ENDBRANCH  19  20
ENDBRANCH   1  19
TORSDOF 16
ENDMDL
