MODEL 1
REMARK VINA RESULT:     -10.9      0.000      0.000
REMARK SMILES C[C@H]1CC[C@@]1(C(=O)OCCOC(=O)c1ccc(-c2c3nc(c(-c4c(F)cc(S(=O)(=O)[O-])cc4F)c4ccc([nH]4)c(-c4c(F)cc(S(=O)(=O)[O-])cc4F)c4nc(c(-c5c(F)cc(S(=O)(=O)[O-])cc5F)c5ccc2[nH]5)C=C4)C=C3)cc1)c1cc(F)cc(F)c1
REMARK SMILES IDX 10 1 9 2 8 3 6 4 7 5 5 6 1 7 2 8 3 9 4 10 80 11 81 12 87 13
REMARK SMILES IDX 82 14 85 15 83 16 84 17 86 18 11 19 12 20 13 21 14 22 15 23
REMARK SMILES IDX 79 24 16 25 78 26 17 27 18 28 19 29 72 30 20 31 77 32 71 33
REMARK SMILES IDX 73 34 21 35 76 36 70 37 69 38 22 40 56 41 35 42 55 43 36 44
REMARK SMILES IDX 39 45 54 46 74 47 37 48 38 49 53 51 75 52 40 53 23 54 24 55
REMARK SMILES IDX 33 56 25 57 26 58 32 59 34 60 27 61 28 62 29 63 30 64 31 65
REMARK SMILES IDX 57 66 58 67 67 68 59 69 60 70 66 71 68 72 61 73 62 74 63 75
REMARK SMILES IDX 64 76 65 77 41 78 42 79 51 80 43 81 44 82 50 83 52 84 45 85
REMARK SMILES IDX 46 86 47 87 48 88 49 89
REMARK H PARENT 73 39 39 50
REMARK Flexibility Score: inf
ROOT
ATOM      1  C   UNL A   1      32.736  29.994  26.469  1.00  0.00     0.275 C 
ENDROOT
BRANCH   1   2
ATOM      2  C   UNL A   1      32.988  29.438  25.061  1.00  0.00     0.274 C 
BRANCH   2   3
ATOM      3  O   UNL A   1      33.729  28.197  25.128  1.00  0.00    -0.461 OA
BRANCH   3   4
ATOM      4  C   UNL A   1      33.475  27.317  24.106  1.00  0.00     0.316 C 
ATOM      5  O   UNL A   1      33.749  27.602  22.938  1.00  0.00    -0.251 OA
BRANCH   4   6
ATOM      6  C   UNL A   1      32.778  25.926  24.570  1.00  0.00     0.096 C 
ATOM      7  C   UNL A   1      30.829  24.356  23.321  1.00  0.00     0.009 C 
ATOM      8  C   UNL A   1      31.413  25.700  23.727  1.00  0.00     0.008 C 
ATOM      9  C   UNL A   1      30.663  26.410  24.877  1.00  0.00     0.006 C 
ATOM     10  C   UNL A   1      31.839  26.097  25.819  1.00  0.00     0.024 C 
BRANCH   6  11
ATOM     11  C   UNL A   1      33.846  24.650  24.675  1.00  0.00    -0.025 A 
ATOM     12  C   UNL A   1      34.009  23.925  25.881  1.00  0.00     0.044 A 
ATOM     13  C   UNL A   1      34.705  24.209  23.645  1.00  0.00     0.044 A 
ATOM     14  C   UNL A   1      34.898  22.852  26.021  1.00  0.00     0.126 A 
ATOM     15  C   UNL A   1      35.617  23.155  23.799  1.00  0.00     0.126 A 
ATOM     16  F   UNL A   1      34.971  22.212  27.197  1.00  0.00    -0.207 F 
ATOM     17  C   UNL A   1      35.712  22.455  24.983  1.00  0.00     0.078 A 
ATOM     18  F   UNL A   1      36.425  22.839  22.779  1.00  0.00    -0.207 F 
ENDBRANCH   6  11
ENDBRANCH   4   6
ENDBRANCH   3   4
ENDBRANCH   2   3
ENDBRANCH   1   2
BRANCH   1  19
ATOM     19  O   UNL A   1      33.762  29.525  27.360  1.00  0.00    -0.458 OA
BRANCH  19  20
ATOM     20  C   UNL A   1      34.403  30.467  28.088  1.00  0.00     0.338 C 
ATOM     21  O   UNL A   1      33.929  31.525  28.480  1.00  0.00    -0.246 OA
BRANCH  20  22
ATOM     22  C   UNL A   1      35.806  30.049  28.315  1.00  0.00     0.060 A 
ATOM     23  C   UNL A   1      36.248  29.653  29.582  1.00  0.00     0.016 A 
ATOM     24  C   UNL A   1      36.709  30.084  27.251  1.00  0.00     0.016 A 
ATOM     25  C   UNL A   1      37.585  29.304  29.792  1.00  0.00     0.010 A 
ATOM     26  C   UNL A   1      38.037  29.688  27.451  1.00  0.00     0.010 A 
ATOM     27  C   UNL A   1      38.493  29.309  28.726  1.00  0.00    -0.014 A 
BRANCH  27  28
ATOM     28  C   UNL A   1      39.929  28.973  28.937  1.00  0.00     0.031 A 
ATOM     29  C   UNL A   1      40.871  30.029  29.451  1.00  0.00     0.074 A 
ATOM     30  C   UNL A   1      40.399  27.742  28.654  1.00  0.00     0.049 A 
ATOM     31  N   UNL A   1      42.176  30.009  29.531  1.00  0.00    -0.248 NA
ATOM     32  C   UNL A   1      40.258  31.278  29.930  1.00  0.00     0.031 C 
ATOM     33  C   UNL A   1      39.595  26.612  28.188  1.00  0.00     0.029 A 
ATOM     34  N   UNL A   1      41.678  27.240  28.707  1.00  0.00    -0.354 N 
ATOM     35  C   UNL A   1      42.545  31.256  30.024  1.00  0.00     0.074 A 
ATOM     36  C   UNL A   1      41.325  32.009  30.223  1.00  0.00     0.031 C 
ATOM     37  C   UNL A   1      40.396  25.549  28.003  1.00  0.00     0.029 A 
ATOM     38  C   UNL A   1      41.777  25.937  28.279  1.00  0.00     0.049 A 
ATOM     39  H   UNL A   1      42.450  27.764  29.021  1.00  0.00     0.167 HD
ATOM     40  C   UNL A   1      43.787  31.731  30.283  1.00  0.00     0.037 A 
ATOM     41  C   UNL A   1      42.858  25.153  28.094  1.00  0.00     0.037 A 
ATOM     42  C   UNL A   1      44.998  30.968  30.121  1.00  0.00     0.049 A 
ATOM     43  C   UNL A   1      44.230  25.706  28.373  1.00  0.00     0.074 A 
ATOM     44  C   UNL A   1      46.304  31.361  30.364  1.00  0.00     0.029 A 
ATOM     45  N   UNL A   1      45.052  29.652  29.687  1.00  0.00    -0.354 N 
ATOM     46  N   UNL A   1      44.566  26.902  28.794  1.00  0.00    -0.248 NA
ATOM     47  C   UNL A   1      45.370  24.809  28.138  1.00  0.00     0.031 C 
ATOM     48  C   UNL A   1      47.149  30.290  30.053  1.00  0.00     0.029 A 
ATOM     49  C   UNL A   1      46.367  29.219  29.650  1.00  0.00     0.049 A 
ATOM     50  H   UNL A   1      44.270  29.107  29.441  1.00  0.00     0.167 HD
ATOM     51  C   UNL A   1      45.954  26.896  28.885  1.00  0.00     0.074 A 
ATOM     52  C   UNL A   1      46.394  25.574  28.491  1.00  0.00     0.031 C 
ATOM     53  C   UNL A   1      46.788  27.898  29.260  1.00  0.00     0.037 A 
BRANCH  40  54
ATOM     54  C   UNL A   1      43.900  33.158  30.741  1.00  0.00     0.058 A 
ATOM     55  C   UNL A   1      44.009  34.223  29.834  1.00  0.00     0.135 A 
ATOM     56  C   UNL A   1      43.880  33.464  32.112  1.00  0.00     0.135 A 
ATOM     57  F   UNL A   1      44.051  33.984  28.513  1.00  0.00    -0.206 F 
ATOM     58  C   UNL A   1      44.124  35.539  30.270  1.00  0.00     0.059 A 
ATOM     59  C   UNL A   1      43.971  34.774  32.569  1.00  0.00     0.059 A 
ATOM     60  F   UNL A   1      43.779  32.482  33.022  1.00  0.00    -0.206 F 
ATOM     61  C   UNL A   1      44.109  35.805  31.640  1.00  0.00     0.060 A 
BRANCH  61  62
ATOM     62  S   UNL A   1      44.266  37.516  32.195  1.00  0.00     0.124 S 
ATOM     63  O   UNL A   1      43.842  38.246  31.005  1.00  0.00    -0.237 OA
ATOM     64  O   UNL A   1      43.348  37.564  33.329  1.00  0.00    -0.237 OA
ATOM     65  O   UNL A   1      45.680  37.633  32.534  1.00  0.00    -0.744 OA
ENDBRANCH  61  62
ENDBRANCH  40  54
BRANCH  41  66
ATOM     66  C   UNL A   1      42.688  23.764  27.592  1.00  0.00     0.058 A 
ATOM     67  C   UNL A   1      42.585  22.683  28.480  1.00  0.00     0.135 A 
ATOM     68  C   UNL A   1      42.609  23.493  26.217  1.00  0.00     0.135 A 
ATOM     69  F   UNL A   1      42.671  22.891  29.802  1.00  0.00    -0.206 F 
ATOM     70  C   UNL A   1      42.412  21.380  28.022  1.00  0.00     0.059 A 
ATOM     71  C   UNL A   1      42.414  22.202  25.737  1.00  0.00     0.059 A 
ATOM     72  F   UNL A   1      42.695  24.494  25.328  1.00  0.00    -0.206 F 
ATOM     73  C   UNL A   1      42.322  21.150  26.649  1.00  0.00     0.060 A 
BRANCH  73  74
ATOM     74  S   UNL A   1      42.026  19.467  26.064  1.00  0.00     0.124 S 
ATOM     75  O   UNL A   1      42.405  18.680  27.233  1.00  0.00    -0.237 OA
ATOM     76  O   UNL A   1      40.602  19.494  25.747  1.00  0.00    -0.237 OA
ATOM     77  O   UNL A   1      42.914  19.354  24.911  1.00  0.00    -0.744 OA
ENDBRANCH  73  74
ENDBRANCH  41  66
BRANCH  53  78
ATOM     78  C   UNL A   1      48.259  27.593  29.288  1.00  0.00     0.058 A 
ATOM     79  C   UNL A   1      49.098  27.923  28.213  1.00  0.00     0.135 A 
ATOM     80  C   UNL A   1      48.840  26.996  30.418  1.00  0.00     0.135 A 
ATOM     81  F   UNL A   1      48.590  28.490  27.109  1.00  0.00    -0.206 F 
ATOM     82  C   UNL A   1      50.464  27.653  28.249  1.00  0.00     0.059 A 
ATOM     83  C   UNL A   1      50.205  26.735  30.484  1.00  0.00     0.059 A 
ATOM     84  F   UNL A   1      48.081  26.670  31.476  1.00  0.00    -0.206 F 
ATOM     85  C   UNL A   1      51.007  27.056  29.388  1.00  0.00     0.060 A 
BRANCH  85  86
ATOM     86  S   UNL A   1      52.782  26.729  29.438  1.00  0.00     0.124 S 
ATOM     87  O   UNL A   1      52.909  25.987  30.689  1.00  0.00    -0.237 OA
ATOM     88  O   UNL A   1      52.995  25.954  28.219  1.00  0.00    -0.237 OA
ATOM     89  O   UNL A   1      53.373  28.063  29.435  1.00  0.00    -0.744 OA
ENDBRANCH  85  86
ENDBRANCH  53  78
ENDBRANCH  27  28
ENDBRANCH  20  22
ENDBRANCH  19  20
ENDBRANCH   1  19
TORSDOF 15
ENDMDL
MODEL 2
REMARK VINA RESULT:     -10.8      2.119      2.853
REMARK SMILES C[C@H]1CC[C@@]1(C(=O)OCCOC(=O)c1ccc(-c2c3nc(c(-c4c(F)cc(S(=O)(=O)[O-])cc4F)c4ccc([nH]4)c(-c4c(F)cc(S(=O)(=O)[O-])cc4F)c4nc(c(-c5c(F)cc(S(=O)(=O)[O-])cc5F)c5ccc2[nH]5)C=C4)C=C3)cc1)c1cc(F)cc(F)c1
REMARK SMILES IDX 10 1 9 2 8 3 6 4 7 5 5 6 1 7 2 8 3 9 4 10 80 11 81 12 87 13
REMARK SMILES IDX 82 14 85 15 83 16 84 17 86 18 11 19 12 20 13 21 14 22 15 23
REMARK SMILES IDX 79 24 16 25 78 26 17 27 18 28 19 29 72 30 20 31 77 32 71 33
REMARK SMILES IDX 73 34 21 35 76 36 70 37 69 38 22 40 56 41 35 42 55 43 36 44
REMARK SMILES IDX 39 45 54 46 74 47 37 48 38 49 53 51 75 52 40 53 23 54 24 55
REMARK SMILES IDX 33 56 25 57 26 58 32 59 34 60 27 61 28 62 29 63 30 64 31 65
REMARK SMILES IDX 57 66 58 67 67 68 59 69 60 70 66 71 68 72 61 73 62 74 63 75
REMARK SMILES IDX 64 76 65 77 41 78 42 79 51 80 43 81 44 82 50 83 52 84 45 85
REMARK SMILES IDX 46 86 47 87 48 88 49 89
REMARK H PARENT 73 39 39 50
REMARK Flexibility Score: inf
ROOT
ATOM      1  C   UNL A   1      34.159  30.547  27.436  1.00  0.00     0.275 C 
ENDROOT
BRANCH   1   2
ATOM      2  C   UNL A   1      33.037  29.630  26.929  1.00  0.00     0.274 C 
BRANCH   2   3
ATOM      3  O   UNL A   1      33.541  28.296  26.681  1.00  0.00    -0.461 OA
BRANCH   3   4
ATOM      4  C   UNL A   1      33.424  27.867  25.383  1.00  0.00     0.316 C 
ATOM      5  O   UNL A   1      33.879  28.531  24.450  1.00  0.00    -0.251 OA
BRANCH   4   6
ATOM      6  C   UNL A   1      32.629  26.462  25.205  1.00  0.00     0.096 C 
ATOM      7  C   UNL A   1      31.638  25.202  22.913  1.00  0.00     0.009 C 
ATOM      8  C   UNL A   1      31.893  26.437  23.762  1.00  0.00     0.008 C 
ATOM      9  C   UNL A   1      30.641  27.008  24.466  1.00  0.00     0.006 C 
ATOM     10  C   UNL A   1      31.179  26.496  25.812  1.00  0.00     0.024 C 
BRANCH   6  11
ATOM     11  C   UNL A   1      33.532  25.129  25.639  1.00  0.00    -0.025 A 
ATOM     12  C   UNL A   1      33.004  24.129  26.492  1.00  0.00     0.044 A 
ATOM     13  C   UNL A   1      34.874  24.888  25.272  1.00  0.00     0.044 A 
ATOM     14  C   UNL A   1      33.724  22.996  26.891  1.00  0.00     0.126 A 
ATOM     15  C   UNL A   1      35.602  23.769  25.699  1.00  0.00     0.126 A 
ATOM     16  F   UNL A   1      33.134  22.092  27.686  1.00  0.00    -0.207 F 
ATOM     17  C   UNL A   1      35.032  22.804  26.500  1.00  0.00     0.078 A 
ATOM     18  F   UNL A   1      36.887  23.651  25.338  1.00  0.00    -0.207 F 
ENDBRANCH   6  11
ENDBRANCH   4   6
ENDBRANCH   3   4
ENDBRANCH   2   3
ENDBRANCH   1   2
BRANCH   1  19
ATOM     19  O   UNL A   1      35.099  29.774  28.203  1.00  0.00    -0.458 OA
BRANCH  19  20
ATOM     20  C   UNL A   1      35.925  30.468  29.018  1.00  0.00     0.338 C 
ATOM     21  O   UNL A   1      35.607  31.397  29.749  1.00  0.00    -0.246 OA
BRANCH  20  22
ATOM     22  C   UNL A   1      37.309  29.963  28.868  1.00  0.00     0.060 A 
ATOM     23  C   UNL A   1      38.088  29.641  29.985  1.00  0.00     0.016 A 
ATOM     24  C   UNL A   1      37.856  29.839  27.590  1.00  0.00     0.016 A 
ATOM     25  C   UNL A   1      39.408  29.207  29.832  1.00  0.00     0.010 A 
ATOM     26  C   UNL A   1      39.161  29.358  27.434  1.00  0.00     0.010 A 
ATOM     27  C   UNL A   1      39.957  29.053  28.553  1.00  0.00    -0.014 A 
BRANCH  27  28
ATOM     28  C   UNL A   1      41.372  28.625  28.370  1.00  0.00     0.031 A 
ATOM     29  C   UNL A   1      42.473  29.649  28.448  1.00  0.00     0.074 A 
ATOM     30  C   UNL A   1      41.677  27.338  28.115  1.00  0.00     0.049 A 
ATOM     31  N   UNL A   1      43.739  29.532  28.141  1.00  0.00    -0.248 NA
ATOM     32  C   UNL A   1      42.092  30.987  28.928  1.00  0.00     0.031 C 
ATOM     33  C   UNL A   1      40.718  26.235  28.052  1.00  0.00     0.029 A 
ATOM     34  N   UNL A   1      42.887  26.742  27.850  1.00  0.00    -0.354 N 
ATOM     35  C   UNL A   1      44.297  30.789  28.344  1.00  0.00     0.074 A 
ATOM     36  C   UNL A   1      43.230  31.655  28.800  1.00  0.00     0.031 C 
ATOM     37  C   UNL A   1      41.376  25.096  27.771  1.00  0.00     0.029 A 
ATOM     38  C   UNL A   1      42.792  25.397  27.576  1.00  0.00     0.049 A 
ATOM     39  H   UNL A   1      43.741  27.231  27.855  1.00  0.00     0.167 HD
ATOM     40  C   UNL A   1      45.580  31.186  28.164  1.00  0.00     0.037 A 
ATOM     41  C   UNL A   1      43.729  24.513  27.178  1.00  0.00     0.037 A 
ATOM     42  C   UNL A   1      46.648  30.315  27.747  1.00  0.00     0.049 A 
ATOM     43  C   UNL A   1      45.144  24.979  26.969  1.00  0.00     0.074 A 
ATOM     44  C   UNL A   1      47.983  30.623  27.543  1.00  0.00     0.029 A 
ATOM     45  N   UNL A   1      46.507  28.960  27.483  1.00  0.00    -0.354 N 
ATOM     46  N   UNL A   1      45.647  26.181  27.120  1.00  0.00    -0.248 NA
ATOM     47  C   UNL A   1      46.116  23.973  26.521  1.00  0.00     0.031 C 
ATOM     48  C   UNL A   1      48.644  29.460  27.131  1.00  0.00     0.029 A 
ATOM     49  C   UNL A   1      47.728  28.420  27.113  1.00  0.00     0.049 A 
ATOM     50  H   UNL A   1      45.663  28.457  27.548  1.00  0.00     0.167 HD
ATOM     51  C   UNL A   1      46.995  26.072  26.798  1.00  0.00     0.074 A 
ATOM     52  C   UNL A   1      47.234  24.685  26.458  1.00  0.00     0.031 C 
ATOM     53  C   UNL A   1      47.949  27.036  26.782  1.00  0.00     0.037 A 
BRANCH  40  54
ATOM     54  C   UNL A   1      45.892  32.639  28.388  1.00  0.00     0.058 A 
ATOM     55  C   UNL A   1      45.780  33.589  27.362  1.00  0.00     0.135 A 
ATOM     56  C   UNL A   1      46.292  33.088  29.657  1.00  0.00     0.135 A 
ATOM     57  F   UNL A   1      45.418  33.210  26.126  1.00  0.00    -0.206 F 
ATOM     58  C   UNL A   1      46.082  34.930  27.578  1.00  0.00     0.059 A 
ATOM     59  C   UNL A   1      46.578  34.428  29.902  1.00  0.00     0.059 A 
ATOM     60  F   UNL A   1      46.416  32.219  30.674  1.00  0.00    -0.206 F 
ATOM     61  C   UNL A   1      46.485  35.339  28.850  1.00  0.00     0.060 A 
BRANCH  61  62
ATOM     62  S   UNL A   1      46.882  37.080  29.119  1.00  0.00     0.124 S 
ATOM     63  O   UNL A   1      48.279  37.126  28.702  1.00  0.00    -0.237 OA
ATOM     64  O   UNL A   1      45.936  37.758  28.238  1.00  0.00    -0.237 OA
ATOM     65  O   UNL A   1      46.645  37.265  30.547  1.00  0.00    -0.744 OA
ENDBRANCH  61  62
ENDBRANCH  40  54
BRANCH  41  66
ATOM     66  C   UNL A   1      43.350  23.097  26.925  1.00  0.00     0.058 A 
ATOM     67  C   UNL A   1      43.289  22.589  25.620  1.00  0.00     0.135 A 
ATOM     68  C   UNL A   1      43.060  22.223  27.983  1.00  0.00     0.135 A 
ATOM     69  F   UNL A   1      43.542  23.391  24.574  1.00  0.00    -0.206 F 
ATOM     70  C   UNL A   1      42.949  21.263  25.371  1.00  0.00     0.059 A 
ATOM     71  C   UNL A   1      42.741  20.887  27.761  1.00  0.00     0.059 A 
ATOM     72  F   UNL A   1      43.113  22.660  29.251  1.00  0.00    -0.206 F 
ATOM     73  C   UNL A   1      42.682  20.418  26.449  1.00  0.00     0.060 A 
BRANCH  73  74
ATOM     74  S   UNL A   1      42.312  18.680  26.124  1.00  0.00     0.124 S 
ATOM     75  O   UNL A   1      42.615  18.070  27.413  1.00  0.00    -0.237 OA
ATOM     76  O   UNL A   1      40.901  18.726  25.755  1.00  0.00    -0.237 OA
ATOM     77  O   UNL A   1      43.224  18.344  25.035  1.00  0.00    -0.744 OA
ENDBRANCH  73  74
ENDBRANCH  41  66
BRANCH  53  78
ATOM     78  C   UNL A   1      49.343  26.617  26.412  1.00  0.00     0.058 A 
ATOM     79  C   UNL A   1      50.204  26.020  27.347  1.00  0.00     0.135 A 
ATOM     80  C   UNL A   1      49.811  26.782  25.099  1.00  0.00     0.135 A 
ATOM     81  F   UNL A   1      49.806  25.846  28.616  1.00  0.00    -0.206 F 
ATOM     82  C   UNL A   1      51.490  25.620  26.996  1.00  0.00     0.059 A 
ATOM     83  C   UNL A   1      51.085  26.371  24.721  1.00  0.00     0.059 A 
ATOM     84  F   UNL A   1      49.022  27.339  24.166  1.00  0.00    -0.206 F 
ATOM     85  C   UNL A   1      51.922  25.802  25.681  1.00  0.00     0.060 A 
BRANCH  85  86
ATOM     86  S   UNL A   1      53.584  25.259  25.227  1.00  0.00     0.124 S 
ATOM     87  O   UNL A   1      54.414  26.163  26.019  1.00  0.00    -0.237 OA
ATOM     88  O   UNL A   1      53.587  23.862  25.651  1.00  0.00    -0.237 OA
ATOM     89  O   UNL A   1      53.626  25.470  23.783  1.00  0.00    -0.744 OA
ENDBRANCH  85  86
ENDBRANCH  53  78
ENDBRANCH  27  28
ENDBRANCH  20  22
ENDBRANCH  19  20
ENDBRANCH   1  19
TORSDOF 15
ENDMDL
MODEL 3
REMARK VINA RESULT:     -10.8      5.326     10.782
REMARK SMILES C[C@H]1CC[C@@]1(C(=O)OCCOC(=O)c1ccc(-c2c3nc(c(-c4c(F)cc(S(=O)(=O)[O-])cc4F)c4ccc([nH]4)c(-c4c(F)cc(S(=O)(=O)[O-])cc4F)c4nc(c(-c5c(F)cc(S(=O)(=O)[O-])cc5F)c5ccc2[nH]5)C=C4)C=C3)cc1)c1cc(F)cc(F)c1
REMARK SMILES IDX 10 1 9 2 8 3 6 4 7 5 5 6 1 7 2 8 3 9 4 10 80 11 81 12 87 13
REMARK SMILES IDX 82 14 85 15 83 16 84 17 86 18 11 19 12 20 13 21 14 22 15 23
REMARK SMILES IDX 79 24 16 25 78 26 17 27 18 28 19 29 72 30 20 31 77 32 71 33
REMARK SMILES IDX 73 34 21 35 76 36 70 37 69 38 22 40 56 41 35 42 55 43 36 44
REMARK SMILES IDX 39 45 54 46 74 47 37 48 38 49 53 51 75 52 40 53 23 54 24 55
REMARK SMILES IDX 33 56 25 57 26 58 32 59 34 60 27 61 28 62 29 63 30 64 31 65
REMARK SMILES IDX 57 66 58 67 67 68 59 69 60 70 66 71 68 72 61 73 62 74 63 75
REMARK SMILES IDX 64 76 65 77 41 78 42 79 51 80 43 81 44 82 50 83 52 84 45 85
REMARK SMILES IDX 46 86 47 87 48 88 49 89
REMARK H PARENT 73 39 39 50
REMARK Flexibility Score: inf
ROOT
ATOM      1  C   UNL A   1      38.878  22.447  26.267  1.00  0.00     0.275 C 
ENDROOT
BRANCH   1   2
ATOM      2  C   UNL A   1      37.785  22.108  25.243  1.00  0.00     0.274 C 
BRANCH   2   3
ATOM      3  O   UNL A   1      37.005  23.283  24.921  1.00  0.00    -0.461 OA
BRANCH   3   4
ATOM      4  C   UNL A   1      36.171  23.143  23.840  1.00  0.00     0.316 C 
ATOM      5  O   UNL A   1      36.621  22.952  22.710  1.00  0.00    -0.251 OA
BRANCH   4   6
ATOM      6  C   UNL A   1      34.589  23.279  24.185  1.00  0.00     0.096 C 
ATOM      7  C   UNL A   1      33.267  23.469  26.641  1.00  0.00     0.009 C 
ATOM      8  C   UNL A   1      34.340  22.886  25.737  1.00  0.00     0.008 C 
ATOM      9  C   UNL A   1      34.068  21.442  25.257  1.00  0.00     0.006 C 
ATOM     10  C   UNL A   1      33.774  21.979  23.847  1.00  0.00     0.024 C 
BRANCH   6  11
ATOM     11  C   UNL A   1      33.906  24.692  23.622  1.00  0.00    -0.025 A 
ATOM     12  C   UNL A   1      34.093  25.921  24.301  1.00  0.00     0.044 A 
ATOM     13  C   UNL A   1      33.060  24.806  22.497  1.00  0.00     0.044 A 
ATOM     14  C   UNL A   1      33.535  27.132  23.872  1.00  0.00     0.126 A 
ATOM     15  C   UNL A   1      32.477  26.014  22.089  1.00  0.00     0.126 A 
ATOM     16  F   UNL A   1      33.783  28.250  24.568  1.00  0.00    -0.207 F 
ATOM     17  C   UNL A   1      32.719  27.192  22.762  1.00  0.00     0.078 A 
ATOM     18  F   UNL A   1      31.649  26.015  21.036  1.00  0.00    -0.207 F 
ENDBRANCH   6  11
ENDBRANCH   4   6
ENDBRANCH   3   4
ENDBRANCH   2   3
ENDBRANCH   1   2
BRANCH   1  19
ATOM     19  O   UNL A   1      39.030  23.875  26.349  1.00  0.00    -0.458 OA
BRANCH  19  20
ATOM     20  C   UNL A   1      40.285  24.335  26.547  1.00  0.00     0.338 C 
ATOM     21  O   UNL A   1      41.308  23.885  26.049  1.00  0.00    -0.246 OA
BRANCH  20  22
ATOM     22  C   UNL A   1      40.255  25.463  27.507  1.00  0.00     0.060 A 
ATOM     23  C   UNL A   1      41.125  26.551  27.375  1.00  0.00     0.016 A 
ATOM     24  C   UNL A   1      39.363  25.422  28.580  1.00  0.00     0.016 A 
ATOM     25  C   UNL A   1      41.116  27.588  28.312  1.00  0.00     0.010 A 
ATOM     26  C   UNL A   1      39.321  26.484  29.492  1.00  0.00     0.010 A 
ATOM     27  C   UNL A   1      40.207  27.569  29.377  1.00  0.00    -0.014 A 
BRANCH  27  28
ATOM     28  C   UNL A   1      40.206  28.647  30.406  1.00  0.00     0.031 A 
ATOM     29  C   UNL A   1      41.168  28.573  31.561  1.00  0.00     0.074 A 
ATOM     30  C   UNL A   1      39.340  29.677  30.325  1.00  0.00     0.049 A 
ATOM     31  N   UNL A   1      41.213  29.293  32.652  1.00  0.00    -0.248 NA
ATOM     32  C   UNL A   1      42.214  27.541  31.478  1.00  0.00     0.031 C 
ATOM     33  C   UNL A   1      38.382  29.899  29.243  1.00  0.00     0.029 A 
ATOM     34  N   UNL A   1      39.122  30.729  31.183  1.00  0.00    -0.354 N 
ATOM     35  C   UNL A   1      42.258  28.774  33.407  1.00  0.00     0.074 A 
ATOM     36  C   UNL A   1      42.821  27.675  32.649  1.00  0.00     0.031 C 
ATOM     37  C   UNL A   1      37.681  31.017  29.497  1.00  0.00     0.029 A 
ATOM     38  C   UNL A   1      38.098  31.559  30.788  1.00  0.00     0.049 A 
ATOM     39  H   UNL A   1      39.646  30.874  32.003  1.00  0.00     0.167 HD
ATOM     40  C   UNL A   1      42.706  29.173  34.622  1.00  0.00     0.037 A 
ATOM     41  C   UNL A   1      37.534  32.615  31.408  1.00  0.00     0.037 A 
ATOM     42  C   UNL A   1      42.171  30.289  35.357  1.00  0.00     0.049 A 
ATOM     43  C   UNL A   1      38.036  33.031  32.765  1.00  0.00     0.074 A 
ATOM     44  C   UNL A   1      42.563  30.775  36.594  1.00  0.00     0.029 A 
ATOM     45  N   UNL A   1      41.137  31.103  34.919  1.00  0.00    -0.354 N 
ATOM     46  N   UNL A   1      38.994  32.502  33.487  1.00  0.00    -0.248 NA
ATOM     47  C   UNL A   1      37.371  34.179  33.397  1.00  0.00     0.031 C 
ATOM     48  C   UNL A   1      41.749  31.868  36.914  1.00  0.00     0.029 A 
ATOM     49  C   UNL A   1      40.873  32.084  35.861  1.00  0.00     0.049 A 
ATOM     50  H   UNL A   1      40.660  30.998  34.064  1.00  0.00     0.167 HD
ATOM     51  C   UNL A   1      39.055  33.259  34.651  1.00  0.00     0.074 A 
ATOM     52  C   UNL A   1      38.048  34.292  34.532  1.00  0.00     0.031 C 
ATOM     53  C   UNL A   1      39.871  33.108  35.725  1.00  0.00     0.037 A 
BRANCH  40  54
ATOM     54  C   UNL A   1      43.814  28.373  35.247  1.00  0.00     0.058 A 
ATOM     55  C   UNL A   1      45.165  28.705  35.060  1.00  0.00     0.135 A 
ATOM     56  C   UNL A   1      43.517  27.267  36.059  1.00  0.00     0.135 A 
ATOM     57  F   UNL A   1      45.504  29.742  34.278  1.00  0.00    -0.206 F 
ATOM     58  C   UNL A   1      46.183  27.950  35.635  1.00  0.00     0.059 A 
ATOM     59  C   UNL A   1      44.518  26.512  36.662  1.00  0.00     0.059 A 
ATOM     60  F   UNL A   1      42.240  26.906  36.269  1.00  0.00    -0.206 F 
ATOM     61  C   UNL A   1      45.851  26.852  36.430  1.00  0.00     0.060 A 
BRANCH  61  62
ATOM     62  S   UNL A   1      47.180  25.876  37.164  1.00  0.00     0.124 S 
ATOM     63  O   UNL A   1      47.196  24.706  36.292  1.00  0.00    -0.237 OA
ATOM     64  O   UNL A   1      48.328  26.769  37.047  1.00  0.00    -0.237 OA
ATOM     65  O   UNL A   1      46.712  25.639  38.526  1.00  0.00    -0.744 OA
ENDBRANCH  61  62
ENDBRANCH  40  54
BRANCH  41  66
ATOM     66  C   UNL A   1      36.407  33.338  30.762  1.00  0.00     0.058 A 
ATOM     67  C   UNL A   1      35.096  33.208  31.241  1.00  0.00     0.135 A 
ATOM     68  C   UNL A   1      36.622  34.185  29.664  1.00  0.00     0.135 A 
ATOM     69  F   UNL A   1      34.838  32.397  32.279  1.00  0.00    -0.206 F 
ATOM     70  C   UNL A   1      34.035  33.890  30.653  1.00  0.00     0.059 A 
ATOM     71  C   UNL A   1      35.582  34.895  29.074  1.00  0.00     0.059 A 
ATOM     72  F   UNL A   1      37.860  34.349  29.174  1.00  0.00    -0.206 F 
ATOM     73  C   UNL A   1      34.289  34.736  29.572  1.00  0.00     0.060 A 
BRANCH  73  74
ATOM     74  S   UNL A   1      32.920  35.674  28.859  1.00  0.00     0.124 S 
ATOM     75  O   UNL A   1      32.300  34.675  27.994  1.00  0.00    -0.237 OA
ATOM     76  O   UNL A   1      32.155  36.056  30.041  1.00  0.00    -0.237 OA
ATOM     77  O   UNL A   1      33.591  36.774  28.174  1.00  0.00    -0.744 OA
ENDBRANCH  73  74
ENDBRANCH  41  66
BRANCH  53  78
ATOM     78  C   UNL A   1      39.726  34.102  36.842  1.00  0.00     0.058 A 
ATOM     79  C   UNL A   1      39.015  33.794  38.012  1.00  0.00     0.135 A 
ATOM     80  C   UNL A   1      40.336  35.363  36.756  1.00  0.00     0.135 A 
ATOM     81  F   UNL A   1      38.410  32.603  38.141  1.00  0.00    -0.206 F 
ATOM     82  C   UNL A   1      38.896  34.712  39.052  1.00  0.00     0.059 A 
ATOM     83  C   UNL A   1      40.246  36.289  37.791  1.00  0.00     0.059 A 
ATOM     84  F   UNL A   1      41.034  35.703  35.660  1.00  0.00    -0.206 F 
ATOM     85  C   UNL A   1      39.513  35.958  38.930  1.00  0.00     0.060 A 
BRANCH  85  86
ATOM     86  S   UNL A   1      39.374  37.136  40.292  1.00  0.00     0.124 S 
ATOM     87  O   UNL A   1      38.446  36.446  41.183  1.00  0.00    -0.237 OA
ATOM     88  O   UNL A   1      40.751  37.235  40.767  1.00  0.00    -0.237 OA
ATOM     89  O   UNL A   1      38.852  38.337  39.648  1.00  0.00    -0.744 OA
ENDBRANCH  85  86
ENDBRANCH  53  78
ENDBRANCH  27  28
ENDBRANCH  20  22
ENDBRANCH  19  20
ENDBRANCH   1  19
TORSDOF 15
ENDMDL
