MODEL 1
REMARK VINA RESULT:     -11.2      0.000      0.000
REMARK SMILES COc1ncccc1C[N@@H+]1CCC[C@H]1C(=O)OCCOC(=O)c1ccc(-c2c3nc(c(-c4c(F)cc(S(=O)(=O)[O-])cc4F)c4ccc([nH]4)c(-c4c(F)cc(S(=O)(=O)[O-])cc4F)c4nc(c(-c5c(F)cc(S(=O)(=O)[O-])cc5F)c5ccc2[nH]5)C=C4)C=C3)cc1
REMARK SMILES IDX 18 1 17 2 15 3 16 4 14 5 10 6 11 7 12 9 13 10 9 11 8 12 3 13
REMARK SMILES IDX 4 14 5 15 7 16 6 17 2 18 1 19 19 20 20 21 21 22 22 23 23 24
REMARK SMILES IDX 24 25 88 26 25 27 87 28 26 29 27 30 28 31 81 32 29 33 86 34
REMARK SMILES IDX 80 35 82 36 30 37 85 38 79 39 78 40 31 42 65 43 44 44 64 45
REMARK SMILES IDX 45 46 48 47 63 48 83 49 46 50 47 51 62 53 84 54 49 55 32 56
REMARK SMILES IDX 33 57 42 58 34 59 35 60 41 61 43 62 36 63 37 64 38 65 39 66
REMARK SMILES IDX 40 67 66 68 67 69 76 70 68 71 69 72 75 73 77 74 70 75 71 76
REMARK SMILES IDX 72 77 73 78 74 79 50 80 51 81 60 82 52 83 53 84 59 85 61 86
REMARK SMILES IDX 54 87 55 88 56 89 57 90 58 91
REMARK H PARENT 10 8 82 41 48 52
REMARK Flexibility Score: inf
ROOT
ATOM      1  C   UNL A   1      33.315  31.298  27.656  1.00  0.00     0.274 C 
ENDROOT
BRANCH   1   2
ATOM      2  O   UNL A   1      32.852  30.127  26.958  1.00  0.00    -0.458 OA
BRANCH   2   3
ATOM      3  C   UNL A   1      31.871  30.344  26.032  1.00  0.00     0.365 C 
ATOM      4  O   UNL A   1      31.290  31.413  25.883  1.00  0.00    -0.245 OA
BRANCH   3   5
ATOM      5  C   UNL A   1      31.619  29.071  25.194  1.00  0.00     0.295 C 
ATOM      6  N   UNL A   1      31.901  29.362  23.773  1.00  0.00    -0.319 N 
ATOM      7  C   UNL A   1      33.343  29.154  23.600  1.00  0.00     0.263 C 
ATOM      8  H   UNL A   1      31.650  30.326  23.556  1.00  0.00     0.349 HD
ATOM      9  C   UNL A   1      33.744  28.061  24.582  1.00  0.00     0.068 C 
ATOM     10  C   UNL A   1      32.600  27.972  25.587  1.00  0.00     0.083 C 
BRANCH   6  11
ATOM     11  C   UNL A   1      31.049  28.659  22.800  1.00  0.00     0.305 C 
BRANCH  11  12
ATOM     12  C   UNL A   1      29.572  28.548  23.089  1.00  0.00     0.068 A 
ATOM     13  C   UNL A   1      28.706  29.627  22.917  1.00  0.00     0.221 A 
ATOM     14  N   UNL A   1      27.366  29.570  23.092  1.00  0.00    -0.222 NA
ATOM     15  C   UNL A   1      26.853  28.370  23.438  1.00  0.00     0.115 A 
ATOM     16  C   UNL A   1      28.998  27.339  23.505  1.00  0.00     0.017 A 
ATOM     17  C   UNL A   1      27.620  27.240  23.663  1.00  0.00     0.021 A 
BRANCH  13  18
ATOM     18  O   UNL A   1      29.259  30.854  22.627  1.00  0.00    -0.481 OA
ATOM     19  C   UNL A   1      28.711  31.881  23.445  1.00  0.00     0.280 C 
ENDBRANCH  13  18
ENDBRANCH  11  12
ENDBRANCH   6  11
ENDBRANCH   3   5
ENDBRANCH   2   3
ENDBRANCH   1   2
BRANCH   1  20
ATOM     20  C   UNL A   1      34.840  31.385  27.662  1.00  0.00     0.275 C 
BRANCH  20  21
ATOM     21  O   UNL A   1      35.428  30.266  28.353  1.00  0.00    -0.458 OA
BRANCH  21  22
ATOM     22  C   UNL A   1      36.132  30.585  29.460  1.00  0.00     0.338 C 
ATOM     23  O   UNL A   1      35.692  30.910  30.550  1.00  0.00    -0.246 OA
BRANCH  22  24
ATOM     24  C   UNL A   1      37.574  30.439  29.207  1.00  0.00     0.060 A 
ATOM     25  C   UNL A   1      37.988  30.029  27.943  1.00  0.00     0.016 A 
ATOM     26  C   UNL A   1      38.489  30.515  30.255  1.00  0.00     0.016 A 
ATOM     27  C   UNL A   1      39.285  29.565  27.753  1.00  0.00     0.010 A 
ATOM     28  C   UNL A   1      39.825  30.163  30.027  1.00  0.00     0.010 A 
ATOM     29  C   UNL A   1      40.231  29.640  28.785  1.00  0.00    -0.014 A 
BRANCH  29  30
ATOM     30  C   UNL A   1      41.622  29.151  28.564  1.00  0.00     0.031 A 
ATOM     31  C   UNL A   1      42.795  30.085  28.714  1.00  0.00     0.074 A 
ATOM     32  C   UNL A   1      41.845  27.860  28.246  1.00  0.00     0.049 A 
ATOM     33  N   UNL A   1      44.049  29.897  28.386  1.00  0.00    -0.248 NA
ATOM     34  C   UNL A   1      42.522  31.411  29.290  1.00  0.00     0.031 C 
ATOM     35  C   UNL A   1      40.814  26.829  28.105  1.00  0.00     0.029 A 
ATOM     36  N   UNL A   1      43.016  27.188  27.993  1.00  0.00    -0.354 N 
ATOM     37  C   UNL A   1      44.696  31.101  28.641  1.00  0.00     0.074 A 
ATOM     38  C   UNL A   1      43.700  32.009  29.169  1.00  0.00     0.031 C 
ATOM     39  C   UNL A   1      41.397  25.652  27.840  1.00  0.00     0.029 A 
ATOM     40  C   UNL A   1      42.834  25.858  27.696  1.00  0.00     0.049 A 
ATOM     41  H   UNL A   1      43.902  27.617  28.022  1.00  0.00     0.167 HD
ATOM     42  C   UNL A   1      45.998  31.422  28.444  1.00  0.00     0.037 A 
ATOM     43  C   UNL A   1      43.710  24.913  27.303  1.00  0.00     0.037 A 
ATOM     44  C   UNL A   1      47.002  30.493  27.989  1.00  0.00     0.049 A 
ATOM     45  C   UNL A   1      45.150  25.281  27.111  1.00  0.00     0.074 A 
ATOM     46  C   UNL A   1      48.353  30.716  27.783  1.00  0.00     0.029 A 
ATOM     47  N   UNL A   1      46.768  29.159  27.687  1.00  0.00    -0.354 N 
ATOM     48  N   UNL A   1      45.731  26.443  27.285  1.00  0.00    -0.248 NA
ATOM     49  C   UNL A   1      46.048  24.219  26.639  1.00  0.00     0.031 C 
ATOM     50  C   UNL A   1      48.931  29.522  27.334  1.00  0.00     0.029 A 
ATOM     51  C   UNL A   1      47.947  28.549  27.289  1.00  0.00     0.049 A 
ATOM     52  H   UNL A   1      45.892  28.713  27.747  1.00  0.00     0.167 HD
ATOM     53  C   UNL A   1      47.061  26.257  26.935  1.00  0.00     0.074 A 
ATOM     54  C   UNL A   1      47.206  24.863  26.565  1.00  0.00     0.031 C 
ATOM     55  C   UNL A   1      48.069  27.164  26.910  1.00  0.00     0.037 A 
BRANCH  42  56
ATOM     56  C   UNL A   1      46.399  32.852  28.672  1.00  0.00     0.058 A 
ATOM     57  C   UNL A   1      46.841  33.318  29.918  1.00  0.00     0.135 A 
ATOM     58  C   UNL A   1      46.341  33.772  27.610  1.00  0.00     0.135 A 
ATOM     59  F   UNL A   1      46.900  32.485  30.969  1.00  0.00    -0.206 F 
ATOM     60  C   UNL A   1      47.177  34.655  30.117  1.00  0.00     0.059 A 
ATOM     61  C   UNL A   1      46.692  35.109  27.780  1.00  0.00     0.059 A 
ATOM     62  F   UNL A   1      45.928  33.378  26.396  1.00  0.00    -0.206 F 
ATOM     63  C   UNL A   1      47.089  35.545  29.043  1.00  0.00     0.060 A 
BRANCH  63  64
ATOM     64  S   UNL A   1      47.497  37.283  29.314  1.00  0.00     0.124 S 
ATOM     65  O   UNL A   1      47.903  37.269  30.717  1.00  0.00    -0.237 OA
ATOM     66  O   UNL A   1      48.567  37.513  28.348  1.00  0.00    -0.237 OA
ATOM     67  O   UNL A   1      46.242  37.973  29.031  1.00  0.00    -0.744 OA
ENDBRANCH  63  64
ENDBRANCH  42  56
BRANCH  43  68
ATOM     68  C   UNL A   1      43.216  23.541  27.024  1.00  0.00     0.058 A 
ATOM     69  C   UNL A   1      43.014  23.100  25.709  1.00  0.00     0.135 A 
ATOM     70  C   UNL A   1      43.015  22.618  28.064  1.00  0.00     0.135 A 
ATOM     71  F   UNL A   1      43.182  23.950  24.684  1.00  0.00    -0.206 F 
ATOM     72  C   UNL A   1      42.648  21.787  25.431  1.00  0.00     0.059 A 
ATOM     73  C   UNL A   1      42.672  21.296  27.811  1.00  0.00     0.059 A 
ATOM     74  F   UNL A   1      43.209  22.991  29.339  1.00  0.00    -0.206 F 
ATOM     75  C   UNL A   1      42.491  20.889  26.489  1.00  0.00     0.060 A 
BRANCH  75  76
ATOM     76  S   UNL A   1      42.132  19.157  26.120  1.00  0.00     0.124 S 
ATOM     77  O   UNL A   1      42.554  18.502  27.353  1.00  0.00    -0.237 OA
ATOM     78  O   UNL A   1      40.694  19.184  25.871  1.00  0.00    -0.237 OA
ATOM     79  O   UNL A   1      42.957  18.889  24.946  1.00  0.00    -0.744 OA
ENDBRANCH  75  76
ENDBRANCH  43  68
BRANCH  55  80
ATOM     80  C   UNL A   1      49.415  26.672  26.466  1.00  0.00     0.058 A 
ATOM     81  C   UNL A   1      50.258  25.967  27.338  1.00  0.00     0.135 A 
ATOM     82  C   UNL A   1      49.854  26.880  25.149  1.00  0.00     0.135 A 
ATOM     83  F   UNL A   1      49.885  25.752  28.610  1.00  0.00    -0.206 F 
ATOM     84  C   UNL A   1      51.503  25.503  26.927  1.00  0.00     0.059 A 
ATOM     85  C   UNL A   1      51.088  26.408  24.712  1.00  0.00     0.059 A 
ATOM     86  F   UNL A   1      49.081  27.543  24.275  1.00  0.00    -0.206 F 
ATOM     87  C   UNL A   1      51.911  25.732  25.612  1.00  0.00     0.060 A 
BRANCH  87  88
ATOM     88  S   UNL A   1      53.518  25.107  25.078  1.00  0.00     0.124 S 
ATOM     89  O   UNL A   1      54.424  25.847  25.951  1.00  0.00    -0.237 OA
ATOM     90  O   UNL A   1      53.408  23.677  25.347  1.00  0.00    -0.237 OA
ATOM     91  O   UNL A   1      53.569  25.470  23.665  1.00  0.00    -0.744 OA
ENDBRANCH  87  88
ENDBRANCH  55  80
ENDBRANCH  29  30
ENDBRANCH  22  24
ENDBRANCH  21  22
ENDBRANCH  20  21
ENDBRANCH   1  20
TORSDOF 17
ENDMDL
MODEL 2
REMARK VINA RESULT:     -10.9      1.660      2.774
REMARK SMILES COc1ncccc1C[N@@H+]1CCC[C@H]1C(=O)OCCOC(=O)c1ccc(-c2c3nc(c(-c4c(F)cc(S(=O)(=O)[O-])cc4F)c4ccc([nH]4)c(-c4c(F)cc(S(=O)(=O)[O-])cc4F)c4nc(c(-c5c(F)cc(S(=O)(=O)[O-])cc5F)c5ccc2[nH]5)C=C4)C=C3)cc1
REMARK SMILES IDX 18 1 17 2 15 3 16 4 14 5 10 6 11 7 12 9 13 10 9 11 8 12 3 13
REMARK SMILES IDX 4 14 5 15 7 16 6 17 2 18 1 19 19 20 20 21 21 22 22 23 23 24
REMARK SMILES IDX 24 25 88 26 25 27 87 28 26 29 27 30 28 31 81 32 29 33 86 34
REMARK SMILES IDX 80 35 82 36 30 37 85 38 79 39 78 40 31 42 65 43 44 44 64 45
REMARK SMILES IDX 45 46 48 47 63 48 83 49 46 50 47 51 62 53 84 54 49 55 32 56
REMARK SMILES IDX 33 57 42 58 34 59 35 60 41 61 43 62 36 63 37 64 38 65 39 66
REMARK SMILES IDX 40 67 66 68 67 69 76 70 68 71 69 72 75 73 77 74 70 75 71 76
REMARK SMILES IDX 72 77 73 78 74 79 50 80 51 81 60 82 52 83 53 84 59 85 61 86
REMARK SMILES IDX 54 87 55 88 56 89 57 90 58 91
REMARK H PARENT 10 8 82 41 48 52
REMARK Flexibility Score: inf
ROOT
ATOM      1  C   UNL A   1      33.375  30.552  26.902  1.00  0.00     0.274 C 
ENDROOT
BRANCH   1   2
ATOM      2  O   UNL A   1      32.060  30.078  27.250  1.00  0.00    -0.458 OA
BRANCH   2   3
ATOM      3  C   UNL A   1      31.778  28.796  26.874  1.00  0.00     0.365 C 
ATOM      4  O   UNL A   1      31.230  27.972  27.596  1.00  0.00    -0.245 OA
BRANCH   3   5
ATOM      5  C   UNL A   1      32.221  28.545  25.416  1.00  0.00     0.295 C 
ATOM      6  N   UNL A   1      32.442  27.097  25.217  1.00  0.00    -0.319 N 
ATOM      7  C   UNL A   1      31.129  26.535  24.882  1.00  0.00     0.263 C 
ATOM      8  H   UNL A   1      32.804  26.678  26.073  1.00  0.00     0.349 HD
ATOM      9  C   UNL A   1      30.366  27.625  24.142  1.00  0.00     0.068 C 
ATOM     10  C   UNL A   1      31.106  28.924  24.447  1.00  0.00     0.083 C 
BRANCH   6  11
ATOM     11  C   UNL A   1      33.528  26.742  24.288  1.00  0.00     0.305 C 
BRANCH  11  12
ATOM     12  C   UNL A   1      33.568  25.339  23.735  1.00  0.00     0.068 A 
ATOM     13  C   UNL A   1      33.898  24.244  24.533  1.00  0.00     0.221 A 
ATOM     14  N   UNL A   1      33.885  22.958  24.114  1.00  0.00    -0.222 NA
ATOM     15  C   UNL A   1      33.503  22.743  22.837  1.00  0.00     0.115 A 
ATOM     16  C   UNL A   1      33.235  25.068  22.402  1.00  0.00     0.017 A 
ATOM     17  C   UNL A   1      33.181  23.755  21.949  1.00  0.00     0.021 A 
BRANCH  13  18
ATOM     18  O   UNL A   1      34.346  24.493  25.812  1.00  0.00    -0.481 OA
ATOM     19  C   UNL A   1      35.490  23.708  26.127  1.00  0.00     0.280 C 
ENDBRANCH  13  18
ENDBRANCH  11  12
ENDBRANCH   6  11
ENDBRANCH   3   5
ENDBRANCH   2   3
ENDBRANCH   1   2
BRANCH   1  20
ATOM     20  C   UNL A   1      34.080  31.187  28.098  1.00  0.00     0.275 C 
BRANCH  20  21
ATOM     21  O   UNL A   1      35.513  31.146  27.946  1.00  0.00    -0.458 OA
BRANCH  21  22
ATOM     22  C   UNL A   1      36.207  31.074  29.103  1.00  0.00     0.338 C 
ATOM     23  O   UNL A   1      35.882  31.516  30.191  1.00  0.00    -0.246 OA
BRANCH  22  24
ATOM     24  C   UNL A   1      37.449  30.311  28.903  1.00  0.00     0.060 A 
ATOM     25  C   UNL A   1      38.263  30.065  30.006  1.00  0.00     0.016 A 
ATOM     26  C   UNL A   1      37.901  30.015  27.618  1.00  0.00     0.016 A 
ATOM     27  C   UNL A   1      39.577  29.651  29.821  1.00  0.00     0.010 A 
ATOM     28  C   UNL A   1      39.183  29.480  27.447  1.00  0.00     0.010 A 
ATOM     29  C   UNL A   1      40.055  29.333  28.542  1.00  0.00    -0.014 A 
BRANCH  29  30
ATOM     30  C   UNL A   1      41.463  28.877  28.359  1.00  0.00     0.031 A 
ATOM     31  C   UNL A   1      42.608  29.844  28.512  1.00  0.00     0.074 A 
ATOM     32  C   UNL A   1      41.725  27.585  28.073  1.00  0.00     0.049 A 
ATOM     33  N   UNL A   1      43.873  29.682  28.213  1.00  0.00    -0.248 NA
ATOM     34  C   UNL A   1      42.289  31.174  29.054  1.00  0.00     0.031 C 
ATOM     35  C   UNL A   1      40.724  26.525  27.934  1.00  0.00     0.029 A 
ATOM     36  N   UNL A   1      42.918  26.939  27.857  1.00  0.00    -0.354 N 
ATOM     37  C   UNL A   1      44.483  30.907  28.455  1.00  0.00     0.074 A 
ATOM     38  C   UNL A   1      43.453  31.799  28.944  1.00  0.00     0.031 C 
ATOM     39  C   UNL A   1      41.343  25.359  27.705  1.00  0.00     0.029 A 
ATOM     40  C   UNL A   1      42.776  25.599  27.585  1.00  0.00     0.049 A 
ATOM     41  H   UNL A   1      43.791  27.392  27.895  1.00  0.00     0.167 HD
ATOM     42  C   UNL A   1      45.780  31.258  28.277  1.00  0.00     0.037 A 
ATOM     43  C   UNL A   1      43.684  24.669  27.230  1.00  0.00     0.037 A 
ATOM     44  C   UNL A   1      46.816  30.347  27.862  1.00  0.00     0.049 A 
ATOM     45  C   UNL A   1      45.118  25.070  27.058  1.00  0.00     0.074 A 
ATOM     46  C   UNL A   1      48.165  30.601  27.678  1.00  0.00     0.029 A 
ATOM     47  N   UNL A   1      46.623  29.001  27.584  1.00  0.00    -0.354 N 
ATOM     48  N   UNL A   1      45.665  26.251  27.220  1.00  0.00    -0.248 NA
ATOM     49  C   UNL A   1      46.053  24.023  26.627  1.00  0.00     0.031 C 
ATOM     50  C   UNL A   1      48.783  29.413  27.266  1.00  0.00     0.029 A 
ATOM     51  C   UNL A   1      47.825  28.414  27.222  1.00  0.00     0.049 A 
ATOM     52  H   UNL A   1      45.759  28.533  27.636  1.00  0.00     0.167 HD
ATOM     53  C   UNL A   1      47.007  26.092  26.899  1.00  0.00     0.074 A 
ATOM     54  C   UNL A   1      47.194  24.695  26.562  1.00  0.00     0.031 C 
ATOM     55  C   UNL A   1      47.991  27.025  26.876  1.00  0.00     0.037 A 
BRANCH  42  56
ATOM     56  C   UNL A   1      46.140  32.703  28.482  1.00  0.00     0.058 A 
ATOM     57  C   UNL A   1      46.564  33.202  29.722  1.00  0.00     0.135 A 
ATOM     58  C   UNL A   1      46.059  33.603  27.406  1.00  0.00     0.135 A 
ATOM     59  F   UNL A   1      46.643  32.388  30.787  1.00  0.00    -0.206 F 
ATOM     60  C   UNL A   1      46.860  34.551  29.899  1.00  0.00     0.059 A 
ATOM     61  C   UNL A   1      46.371  34.952  27.554  1.00  0.00     0.059 A 
ATOM     62  F   UNL A   1      45.661  33.177  26.197  1.00  0.00    -0.206 F 
ATOM     63  C   UNL A   1      46.751  35.420  28.811  1.00  0.00     0.060 A 
BRANCH  63  64
ATOM     64  S   UNL A   1      47.109  37.173  29.055  1.00  0.00     0.124 S 
ATOM     65  O   UNL A   1      46.753  37.725  27.750  1.00  0.00    -0.237 OA
ATOM     66  O   UNL A   1      46.221  37.530  30.156  1.00  0.00    -0.237 OA
ATOM     67  O   UNL A   1      48.534  37.186  29.374  1.00  0.00    -0.744 OA
ENDBRANCH  63  64
ENDBRANCH  42  56
BRANCH  43  68
ATOM     68  C   UNL A   1      43.231  23.279  26.970  1.00  0.00     0.058 A 
ATOM     69  C   UNL A   1      43.157  22.776  25.664  1.00  0.00     0.135 A 
ATOM     70  C   UNL A   1      42.943  22.402  28.029  1.00  0.00     0.135 A 
ATOM     71  F   UNL A   1      43.413  23.581  24.621  1.00  0.00    -0.206 F 
ATOM     72  C   UNL A   1      42.832  21.447  25.415  1.00  0.00     0.059 A 
ATOM     73  C   UNL A   1      42.638  21.065  27.807  1.00  0.00     0.059 A 
ATOM     74  F   UNL A   1      43.013  22.836  29.297  1.00  0.00    -0.206 F 
ATOM     75  C   UNL A   1      42.585  20.596  26.494  1.00  0.00     0.060 A 
BRANCH  75  76
ATOM     76  S   UNL A   1      42.278  18.844  26.175  1.00  0.00     0.124 S 
ATOM     77  O   UNL A   1      43.205  18.579  25.081  1.00  0.00    -0.237 OA
ATOM     78  O   UNL A   1      42.613  18.231  27.457  1.00  0.00    -0.237 OA
ATOM     79  O   UNL A   1      40.861  18.813  25.828  1.00  0.00    -0.744 OA
ENDBRANCH  75  76
ENDBRANCH  43  68
BRANCH  55  80
ATOM     80  C   UNL A   1      49.358  26.559  26.468  1.00  0.00     0.058 A 
ATOM     81  C   UNL A   1      50.229  25.961  27.391  1.00  0.00     0.135 A 
ATOM     82  C   UNL A   1      49.791  26.685  25.139  1.00  0.00     0.135 A 
ATOM     83  F   UNL A   1      49.862  25.826  28.676  1.00  0.00    -0.206 F 
ATOM     84  C   UNL A   1      51.493  25.520  27.015  1.00  0.00     0.059 A 
ATOM     85  C   UNL A   1      51.045  26.236  24.737  1.00  0.00     0.059 A 
ATOM     86  F   UNL A   1      48.991  27.245  24.218  1.00  0.00    -0.206 F 
ATOM     87  C   UNL A   1      51.894  25.666  25.686  1.00  0.00     0.060 A 
BRANCH  87  88
ATOM     88  S   UNL A   1      53.528  25.073  25.199  1.00  0.00     0.124 S 
ATOM     89  O   UNL A   1      53.602  25.525  23.813  1.00  0.00    -0.237 OA
ATOM     90  O   UNL A   1      54.408  25.762  26.137  1.00  0.00    -0.237 OA
ATOM     91  O   UNL A   1      53.432  23.628  25.386  1.00  0.00    -0.744 OA
ENDBRANCH  87  88
ENDBRANCH  55  80
ENDBRANCH  29  30
ENDBRANCH  22  24
ENDBRANCH  21  22
ENDBRANCH  20  21
ENDBRANCH   1  20
TORSDOF 17
ENDMDL
MODEL 3
REMARK VINA RESULT:     -10.5      6.884     12.174
REMARK SMILES COc1ncccc1C[N@@H+]1CCC[C@H]1C(=O)OCCOC(=O)c1ccc(-c2c3nc(c(-c4c(F)cc(S(=O)(=O)[O-])cc4F)c4ccc([nH]4)c(-c4c(F)cc(S(=O)(=O)[O-])cc4F)c4nc(c(-c5c(F)cc(S(=O)(=O)[O-])cc5F)c5ccc2[nH]5)C=C4)C=C3)cc1
REMARK SMILES IDX 18 1 17 2 15 3 16 4 14 5 10 6 11 7 12 9 13 10 9 11 8 12 3 13
REMARK SMILES IDX 4 14 5 15 7 16 6 17 2 18 1 19 19 20 20 21 21 22 22 23 23 24
REMARK SMILES IDX 24 25 88 26 25 27 87 28 26 29 27 30 28 31 81 32 29 33 86 34
REMARK SMILES IDX 80 35 82 36 30 37 85 38 79 39 78 40 31 42 65 43 44 44 64 45
REMARK SMILES IDX 45 46 48 47 63 48 83 49 46 50 47 51 62 53 84 54 49 55 32 56
REMARK SMILES IDX 33 57 42 58 34 59 35 60 41 61 43 62 36 63 37 64 38 65 39 66
REMARK SMILES IDX 40 67 66 68 67 69 76 70 68 71 69 72 75 73 77 74 70 75 71 76
REMARK SMILES IDX 72 77 73 78 74 79 50 80 51 81 60 82 52 83 53 84 59 85 61 86
REMARK SMILES IDX 54 87 55 88 56 89 57 90 58 91
REMARK H PARENT 10 8 82 41 48 52
REMARK Flexibility Score: inf
ROOT
ATOM      1  C   UNL A   1      37.135  22.998  25.731  1.00  0.00     0.274 C 
ENDROOT
BRANCH   1   2
ATOM      2  O   UNL A   1      35.857  23.651  25.614  1.00  0.00    -0.458 OA
BRANCH   2   3
ATOM      3  C   UNL A   1      34.813  22.842  25.267  1.00  0.00     0.365 C 
ATOM      4  O   UNL A   1      34.829  21.620  25.362  1.00  0.00    -0.245 OA
BRANCH   3   5
ATOM      5  C   UNL A   1      33.615  23.679  24.768  1.00  0.00     0.295 C 
ATOM      6  N   UNL A   1      33.982  24.349  23.503  1.00  0.00    -0.319 N 
ATOM      7  C   UNL A   1      33.705  23.376  22.440  1.00  0.00     0.263 C 
ATOM      8  H   UNL A   1      34.972  24.597  23.513  1.00  0.00     0.349 HD
ATOM      9  C   UNL A   1      32.529  22.535  22.918  1.00  0.00     0.068 C 
ATOM     10  C   UNL A   1      32.438  22.773  24.422  1.00  0.00     0.083 C 
BRANCH   6  11
ATOM     11  C   UNL A   1      33.394  25.683  23.296  1.00  0.00     0.305 C 
BRANCH  11  12
ATOM     12  C   UNL A   1      32.955  26.468  24.507  1.00  0.00     0.068 A 
ATOM     13  C   UNL A   1      31.608  26.626  24.832  1.00  0.00     0.221 A 
ATOM     14  N   UNL A   1      31.155  27.258  25.939  1.00  0.00    -0.222 NA
ATOM     15  C   UNL A   1      32.091  27.744  26.782  1.00  0.00     0.115 A 
ATOM     16  C   UNL A   1      33.885  27.040  25.384  1.00  0.00     0.017 A 
ATOM     17  C   UNL A   1      33.453  27.668  26.547  1.00  0.00     0.021 A 
BRANCH  13  18
ATOM     18  O   UNL A   1      30.672  26.180  23.925  1.00  0.00    -0.481 OA
ATOM     19  C   UNL A   1      29.379  26.087  24.512  1.00  0.00     0.280 C 
ENDBRANCH  13  18
ENDBRANCH  11  12
ENDBRANCH   6  11
ENDBRANCH   3   5
ENDBRANCH   2   3
ENDBRANCH   1   2
BRANCH   1  20
ATOM     20  C   UNL A   1      38.261  24.003  25.970  1.00  0.00     0.275 C 
BRANCH  20  21
ATOM     21  O   UNL A   1      39.331  23.420  26.739  1.00  0.00    -0.458 OA
BRANCH  21  22
ATOM     22  C   UNL A   1      40.448  24.175  26.826  1.00  0.00     0.338 C 
ATOM     23  O   UNL A   1      41.521  23.975  26.283  1.00  0.00    -0.246 OA
BRANCH  22  24
ATOM     24  C   UNL A   1      40.196  25.364  27.654  1.00  0.00     0.060 A 
ATOM     25  C   UNL A   1      41.000  26.485  27.471  1.00  0.00     0.016 A 
ATOM     26  C   UNL A   1      39.310  25.305  28.729  1.00  0.00     0.016 A 
ATOM     27  C   UNL A   1      41.022  27.490  28.432  1.00  0.00     0.010 A 
ATOM     28  C   UNL A   1      39.246  26.377  29.627  1.00  0.00     0.010 A 
ATOM     29  C   UNL A   1      40.134  27.464  29.516  1.00  0.00    -0.014 A 
BRANCH  29  30
ATOM     30  C   UNL A   1      40.158  28.554  30.532  1.00  0.00     0.031 A 
ATOM     31  C   UNL A   1      41.175  28.543  31.644  1.00  0.00     0.074 A 
ATOM     32  C   UNL A   1      39.278  29.574  30.454  1.00  0.00     0.049 A 
ATOM     33  N   UNL A   1      41.236  29.293  32.716  1.00  0.00    -0.248 NA
ATOM     34  C   UNL A   1      42.254  27.548  31.550  1.00  0.00     0.031 C 
ATOM     35  C   UNL A   1      38.262  29.742  29.413  1.00  0.00     0.029 A 
ATOM     36  N   UNL A   1      39.104  30.672  31.262  1.00  0.00    -0.354 N 
ATOM     37  C   UNL A   1      42.308  28.812  33.458  1.00  0.00     0.074 A 
ATOM     38  C   UNL A   1      42.881  27.716  32.706  1.00  0.00     0.031 C 
ATOM     39  C   UNL A   1      37.606  30.892  29.616  1.00  0.00     0.029 A 
ATOM     40  C   UNL A   1      38.085  31.499  30.852  1.00  0.00     0.049 A 
ATOM     41  H   UNL A   1      39.656  30.849  32.057  1.00  0.00     0.167 HD
ATOM     42  C   UNL A   1      42.765  29.238  34.662  1.00  0.00     0.037 A 
ATOM     43  C   UNL A   1      37.555  32.597  31.425  1.00  0.00     0.037 A 
ATOM     44  C   UNL A   1      42.240  30.376  35.371  1.00  0.00     0.049 A 
ATOM     45  C   UNL A   1      38.088  33.067  32.745  1.00  0.00     0.074 A 
ATOM     46  C   UNL A   1      42.653  30.903  36.584  1.00  0.00     0.029 A 
ATOM     47  N   UNL A   1      41.198  31.176  34.924  1.00  0.00    -0.354 N 
ATOM     48  N   UNL A   1      39.053  32.555  33.470  1.00  0.00    -0.248 NA
ATOM     49  C   UNL A   1      37.441  34.243  33.340  1.00  0.00     0.031 C 
ATOM     50  C   UNL A   1      41.844  32.008  36.881  1.00  0.00     0.029 A 
ATOM     51  C   UNL A   1      40.948  32.187  35.840  1.00  0.00     0.049 A 
ATOM     52  H   UNL A   1      40.708  31.045  34.081  1.00  0.00     0.167 HD
ATOM     53  C   UNL A   1      39.124  33.340  34.613  1.00  0.00     0.074 A 
ATOM     54  C   UNL A   1      38.123  34.378  34.471  1.00  0.00     0.031 C 
ATOM     55  C   UNL A   1      39.938  33.203  35.689  1.00  0.00     0.037 A 
BRANCH  42  56
ATOM     56  C   UNL A   1      43.859  28.435  35.309  1.00  0.00     0.058 A 
ATOM     57  C   UNL A   1      45.216  28.668  35.046  1.00  0.00     0.135 A 
ATOM     58  C   UNL A   1      43.532  27.413  36.216  1.00  0.00     0.135 A 
ATOM     59  F   UNL A   1      45.582  29.621  34.175  1.00  0.00    -0.206 F 
ATOM     60  C   UNL A   1      46.213  27.891  35.630  1.00  0.00     0.059 A 
ATOM     61  C   UNL A   1      44.513  26.638  36.830  1.00  0.00     0.059 A 
ATOM     62  F   UNL A   1      42.249  27.151  36.506  1.00  0.00    -0.206 F 
ATOM     63  C   UNL A   1      45.850  26.871  36.514  1.00  0.00     0.060 A 
BRANCH  63  64
ATOM     64  S   UNL A   1      47.146  25.849  37.246  1.00  0.00     0.124 S 
ATOM     65  O   UNL A   1      48.260  26.791  37.303  1.00  0.00    -0.237 OA
ATOM     66  O   UNL A   1      46.567  25.474  38.533  1.00  0.00    -0.237 OA
ATOM     67  O   UNL A   1      47.296  24.756  36.289  1.00  0.00    -0.744 OA
ENDBRANCH  63  64
ENDBRANCH  42  56
BRANCH  43  68
ATOM     68  C   UNL A   1      36.423  33.287  30.756  1.00  0.00     0.058 A 
ATOM     69  C   UNL A   1      35.129  33.235  31.290  1.00  0.00     0.135 A 
ATOM     70  C   UNL A   1      36.632  34.079  29.614  1.00  0.00     0.135 A 
ATOM     71  F   UNL A   1      34.881  32.481  32.373  1.00  0.00    -0.206 F 
ATOM     72  C   UNL A   1      34.082  33.958  30.729  1.00  0.00     0.059 A 
ATOM     73  C   UNL A   1      35.607  34.828  29.049  1.00  0.00     0.059 A 
ATOM     74  F   UNL A   1      37.857  34.169  29.075  1.00  0.00    -0.206 F 
ATOM     75  C   UNL A   1      34.334  34.762  29.615  1.00  0.00     0.060 A 
BRANCH  75  76
ATOM     76  S   UNL A   1      33.002  35.792  28.959  1.00  0.00     0.124 S 
ATOM     77  O   UNL A   1      33.750  36.884  28.349  1.00  0.00    -0.237 OA
ATOM     78  O   UNL A   1      32.332  34.882  28.035  1.00  0.00    -0.237 OA
ATOM     79  O   UNL A   1      32.232  36.137  30.150  1.00  0.00    -0.744 OA
ENDBRANCH  75  76
ENDBRANCH  43  68
BRANCH  55  80
ATOM     80  C   UNL A   1      39.773  34.202  36.796  1.00  0.00     0.058 A 
ATOM     81  C   UNL A   1      39.049  33.890  37.957  1.00  0.00     0.135 A 
ATOM     82  C   UNL A   1      40.368  35.470  36.711  1.00  0.00     0.135 A 
ATOM     83  F   UNL A   1      38.455  32.692  38.081  1.00  0.00    -0.206 F 
ATOM     84  C   UNL A   1      38.901  34.811  38.989  1.00  0.00     0.059 A 
ATOM     85  C   UNL A   1      40.247  36.400  37.739  1.00  0.00     0.059 A 
ATOM     86  F   UNL A   1      41.076  35.813  35.623  1.00  0.00    -0.206 F 
ATOM     87  C   UNL A   1      39.501  36.065  38.869  1.00  0.00     0.060 A 
BRANCH  87  88
ATOM     88  S   UNL A   1      39.325  37.247  40.222  1.00  0.00     0.124 S 
ATOM     89  O   UNL A   1      38.546  36.475  41.185  1.00  0.00    -0.237 OA
ATOM     90  O   UNL A   1      40.711  37.512  40.595  1.00  0.00    -0.237 OA
ATOM     91  O   UNL A   1      38.626  38.369  39.601  1.00  0.00    -0.744 OA
ENDBRANCH  87  88
ENDBRANCH  55  80
ENDBRANCH  29  30
ENDBRANCH  22  24
ENDBRANCH  21  22
ENDBRANCH  20  21
ENDBRANCH   1  20
TORSDOF 17
ENDMDL
