MODEL 1
REMARK VINA RESULT:     -11.2      0.000      0.000
REMARK SMILES CC[C@@](C)(NC(=O)Nc1cccc(C[NH2+]C)c1)C(=O)OCCOC(=O)c1ccc(-c2c3nc(c(-c4c(F)cc(S(=O)(=O)[O-])cc4F)c4ccc([nH]4)c(-c4c(F)cc(S(=O)(=O)[O-])cc4F)c4nc(c(-c5c(F)cc(S(=O)(=O)[O-])cc5F)c5ccc2[nH]5)C=C4)C=C3)cc1
REMARK SMILES IDX 21 1 20 2 18 3 19 4 3 5 4 6 2 7 1 8 5 9 6 10 7 12 8 13 9 15
REMARK SMILES IDX 10 16 17 17 11 18 13 19 12 20 14 21 15 22 16 23 22 26 23 27
REMARK SMILES IDX 24 28 25 29 26 30 27 31 91 32 28 33 90 34 29 35 30 36 31 37
REMARK SMILES IDX 84 38 32 39 89 40 83 41 85 42 33 43 88 44 82 45 81 46 34 48
REMARK SMILES IDX 68 49 47 50 67 51 48 52 51 53 66 54 86 55 49 56 50 57 65 59
REMARK SMILES IDX 87 60 52 61 35 62 36 63 45 64 37 65 38 66 44 67 46 68 39 69
REMARK SMILES IDX 40 70 41 71 42 72 43 73 69 74 70 75 79 76 71 77 72 78 78 79
REMARK SMILES IDX 80 80 73 81 74 82 75 83 76 84 77 85 53 86 54 87 63 88 55 89
REMARK SMILES IDX 56 90 62 91 64 92 57 93 58 94 59 95 60 96 61 97
REMARK H PARENT 5 11 8 14 15 24 15 25 85 47 51 58
REMARK Flexibility Score: inf
ROOT
ATOM      1  C   UNL A   1      35.684  21.327  24.669  1.00  0.00     0.274 C 
ENDROOT
BRANCH   1   2
ATOM      2  O   UNL A   1      35.295  22.762  24.699  1.00  0.00    -0.460 OA
BRANCH   2   3
ATOM      3  C   UNL A   1      34.712  23.404  25.812  1.00  0.00     0.331 C 
ATOM      4  O   UNL A   1      35.118  23.223  26.956  1.00  0.00    -0.249 OA
BRANCH   3   5
ATOM      5  C   UNL A   1      33.355  24.353  25.419  1.00  0.00     0.136 C 
ATOM      6  C   UNL A   1      33.664  25.782  25.884  1.00  0.00     0.047 C 
BRANCH   5   7
ATOM      7  C   UNL A   1      32.342  24.496  24.185  1.00  0.00     0.037 C 
ATOM      8  C   UNL A   1      32.659  24.786  22.734  1.00  0.00     0.007 C 
ENDBRANCH   5   7
BRANCH   5   9
ATOM      9  N   UNL A   1      32.470  23.706  26.322  1.00  0.00    -0.322 N 
ATOM     10  C   UNL A   1      31.351  24.304  26.724  1.00  0.00     0.320 C 
ATOM     11  H   UNL A   1      32.688  22.806  26.655  1.00  0.00     0.166 HD
ATOM     12  O   UNL A   1      30.593  23.530  27.320  1.00  0.00    -0.248 OA
ATOM     13  N   UNL A   1      30.957  25.584  26.413  1.00  0.00    -0.308 N 
ATOM     14  H   UNL A   1      30.202  25.750  27.023  1.00  0.00     0.171 HD
BRANCH  13  15
ATOM     15  C   UNL A   1      31.070  26.810  25.666  1.00  0.00     0.043 A 
ATOM     16  C   UNL A   1      31.575  27.910  26.397  1.00  0.00     0.026 A 
ATOM     17  C   UNL A   1      30.654  27.129  24.378  1.00  0.00     0.035 A 
ATOM     18  C   UNL A   1      31.635  29.216  25.886  1.00  0.00     0.003 A 
ATOM     19  C   UNL A   1      30.753  28.425  23.812  1.00  0.00     0.008 A 
ATOM     20  C   UNL A   1      31.218  29.477  24.592  1.00  0.00     0.010 A 
BRANCH  19  21
ATOM     21  C   UNL A   1      30.397  28.629  22.355  1.00  0.00     0.297 C 
BRANCH  21  22
ATOM     22  N   UNL A   1      30.564  30.016  21.921  1.00  0.00    -0.345 N 
ATOM     23  C   UNL A   1      29.270  30.571  21.537  1.00  0.00     0.331 C 
ATOM     24  H   UNL A   1      31.196  30.046  21.120  1.00  0.00     0.346 HD
ATOM     25  H   UNL A   1      30.954  30.564  22.687  1.00  0.00     0.346 HD
ENDBRANCH  21  22
ENDBRANCH  19  21
ENDBRANCH  13  15
ENDBRANCH   5   9
ENDBRANCH   3   5
ENDBRANCH   2   3
ENDBRANCH   1   2
BRANCH   1  26
ATOM     26  C   UNL A   1      37.250  20.993  25.017  1.00  0.00     0.275 C 
BRANCH  26  27
ATOM     27  O   UNL A   1      38.069  22.100  25.609  1.00  0.00    -0.458 OA
BRANCH  27  28
ATOM     28  C   UNL A   1      39.330  21.924  26.159  1.00  0.00     0.338 C 
ATOM     29  O   UNL A   1      39.968  20.892  26.099  1.00  0.00    -0.246 OA
BRANCH  28  30
ATOM     30  C   UNL A   1      39.818  23.201  26.896  1.00  0.00     0.060 A 
ATOM     31  C   UNL A   1      39.371  24.480  26.531  1.00  0.00     0.016 A 
ATOM     32  C   UNL A   1      40.762  23.187  27.925  1.00  0.00     0.016 A 
ATOM     33  C   UNL A   1      39.642  25.658  27.234  1.00  0.00     0.010 A 
ATOM     34  C   UNL A   1      41.157  24.404  28.576  1.00  0.00     0.010 A 
ATOM     35  C   UNL A   1      40.582  25.652  28.250  1.00  0.00    -0.014 A 
BRANCH  35  36
ATOM     36  C   UNL A   1      41.124  26.994  28.646  1.00  0.00     0.031 A 
ATOM     37  C   UNL A   1      42.594  27.258  28.398  1.00  0.00     0.074 A 
ATOM     38  C   UNL A   1      40.348  28.049  28.985  1.00  0.00     0.049 A 
ATOM     39  N   UNL A   1      43.314  28.318  28.667  1.00  0.00    -0.248 NA
ATOM     40  C   UNL A   1      43.338  26.181  27.725  1.00  0.00     0.031 C 
ATOM     41  C   UNL A   1      38.890  28.041  29.084  1.00  0.00     0.029 A 
ATOM     42  N   UNL A   1      40.688  29.353  29.288  1.00  0.00    -0.354 N 
ATOM     43  C   UNL A   1      44.598  28.024  28.223  1.00  0.00     0.074 A 
ATOM     44  C   UNL A   1      44.559  26.690  27.666  1.00  0.00     0.031 C 
ATOM     45  C   UNL A   1      38.465  29.268  29.448  1.00  0.00     0.029 A 
ATOM     46  C   UNL A   1      39.619  30.148  29.643  1.00  0.00     0.049 A 
ATOM     47  H   UNL A   1      41.614  29.687  29.253  1.00  0.00     0.167 HD
ATOM     48  C   UNL A   1      45.718  28.786  28.270  1.00  0.00     0.037 A 
ATOM     49  C   UNL A   1      39.572  31.420  30.103  1.00  0.00     0.037 A 
ATOM     50  C   UNL A   1      45.780  30.123  28.797  1.00  0.00     0.049 A 
ATOM     51  C   UNL A   1      40.849  32.218  30.260  1.00  0.00     0.074 A 
ATOM     52  C   UNL A   1      46.891  30.936  28.951  1.00  0.00     0.029 A 
ATOM     53  N   UNL A   1      44.689  30.854  29.238  1.00  0.00    -0.354 N 
ATOM     54  N   UNL A   1      42.078  31.882  29.950  1.00  0.00    -0.248 NA
ATOM     55  C   UNL A   1      40.732  33.568  30.839  1.00  0.00     0.031 C 
ATOM     56  C   UNL A   1      46.475  32.147  29.516  1.00  0.00     0.029 A 
ATOM     57  C   UNL A   1      45.100  32.104  29.670  1.00  0.00     0.049 A 
ATOM     58  H   UNL A   1      43.759  30.531  29.244  1.00  0.00     0.167 HD
ATOM     59  C   UNL A   1      42.872  32.980  30.281  1.00  0.00     0.074 A 
ATOM     60  C   UNL A   1      41.984  34.000  30.792  1.00  0.00     0.031 C 
ATOM     61  C   UNL A   1      44.217  33.125  30.174  1.00  0.00     0.037 A 
BRANCH  48  62
ATOM     62  C   UNL A   1      46.992  28.155  27.786  1.00  0.00     0.058 A 
ATOM     63  C   UNL A   1      47.886  27.517  28.660  1.00  0.00     0.135 A 
ATOM     64  C   UNL A   1      47.318  28.193  26.421  1.00  0.00     0.135 A 
ATOM     65  F   UNL A   1      47.633  27.480  29.977  1.00  0.00    -0.206 F 
ATOM     66  C   UNL A   1      49.072  26.956  28.198  1.00  0.00     0.059 A 
ATOM     67  C   UNL A   1      48.485  27.616  25.934  1.00  0.00     0.059 A 
ATOM     68  F   UNL A   1      46.499  28.799  25.547  1.00  0.00    -0.206 F 
ATOM     69  C   UNL A   1      49.363  27.013  26.833  1.00  0.00     0.060 A 
BRANCH  69  70
ATOM     70  S   UNL A   1      50.904  26.280  26.246  1.00  0.00     0.124 S 
ATOM     71  O   UNL A   1      50.773  26.445  24.801  1.00  0.00    -0.237 OA
ATOM     72  O   UNL A   1      51.913  27.115  26.890  1.00  0.00    -0.237 OA
ATOM     73  O   UNL A   1      50.833  24.905  26.730  1.00  0.00    -0.744 OA
ENDBRANCH  69  70
ENDBRANCH  48  62
BRANCH  49  74
ATOM     74  C   UNL A   1      38.276  32.022  30.541  1.00  0.00     0.058 A 
ATOM     75  C   UNL A   1      37.493  32.810  29.681  1.00  0.00     0.135 A 
ATOM     76  C   UNL A   1      37.834  31.880  31.866  1.00  0.00     0.135 A 
ATOM     77  F   UNL A   1      37.885  33.008  28.413  1.00  0.00    -0.206 F 
ATOM     78  C   UNL A   1      36.333  33.444  30.120  1.00  0.00     0.059 A 
ATOM     79  C   UNL A   1      36.662  32.479  32.320  1.00  0.00     0.059 A 
ATOM     80  F   UNL A   1      38.546  31.148  32.737  1.00  0.00    -0.206 F 
ATOM     81  C   UNL A   1      35.924  33.271  31.443  1.00  0.00     0.060 A 
BRANCH  81  82
ATOM     82  S   UNL A   1      34.395  34.057  31.999  1.00  0.00     0.124 S 
ATOM     83  O   UNL A   1      33.717  34.312  30.733  1.00  0.00    -0.237 OA
ATOM     84  O   UNL A   1      33.805  33.021  32.842  1.00  0.00    -0.237 OA
ATOM     85  O   UNL A   1      34.866  35.239  32.713  1.00  0.00    -0.744 OA
ENDBRANCH  81  82
ENDBRANCH  49  74
BRANCH  61  86
ATOM     86  C   UNL A   1      44.817  34.442  30.590  1.00  0.00     0.058 A 
ATOM     87  C   UNL A   1      45.277  34.667  31.897  1.00  0.00     0.135 A 
ATOM     88  C   UNL A   1      44.965  35.486  29.660  1.00  0.00     0.135 A 
ATOM     89  F   UNL A   1      45.164  33.706  32.827  1.00  0.00    -0.206 F 
ATOM     90  C   UNL A   1      45.827  35.889  32.278  1.00  0.00     0.059 A 
ATOM     91  C   UNL A   1      45.535  36.707  30.012  1.00  0.00     0.059 A 
ATOM     92  F   UNL A   1      44.559  35.323  28.391  1.00  0.00    -0.206 F 
ATOM     93  C   UNL A   1      45.945  36.906  31.329  1.00  0.00     0.060 A 
BRANCH  93  94
ATOM     94  S   UNL A   1      46.659  38.487  31.832  1.00  0.00     0.124 S 
ATOM     95  O   UNL A   1      45.618  39.013  32.710  1.00  0.00    -0.237 OA
ATOM     96  O   UNL A   1      47.897  38.081  32.491  1.00  0.00    -0.237 OA
ATOM     97  O   UNL A   1      46.833  39.198  30.569  1.00  0.00    -0.744 OA
ENDBRANCH  93  94
ENDBRANCH  61  86
ENDBRANCH  35  36
ENDBRANCH  28  30
ENDBRANCH  27  28
ENDBRANCH  26  27
ENDBRANCH   1  26
TORSDOF 19
ENDMDL
MODEL 2
REMARK VINA RESULT:     -11.0      0.839      1.674
REMARK SMILES CC[C@@](C)(NC(=O)Nc1cccc(C[NH2+]C)c1)C(=O)OCCOC(=O)c1ccc(-c2c3nc(c(-c4c(F)cc(S(=O)(=O)[O-])cc4F)c4ccc([nH]4)c(-c4c(F)cc(S(=O)(=O)[O-])cc4F)c4nc(c(-c5c(F)cc(S(=O)(=O)[O-])cc5F)c5ccc2[nH]5)C=C4)C=C3)cc1
REMARK SMILES IDX 21 1 20 2 18 3 19 4 3 5 4 6 2 7 1 8 5 9 6 10 7 12 8 13 9 15
REMARK SMILES IDX 10 16 17 17 11 18 13 19 12 20 14 21 15 22 16 23 22 26 23 27
REMARK SMILES IDX 24 28 25 29 26 30 27 31 91 32 28 33 90 34 29 35 30 36 31 37
REMARK SMILES IDX 84 38 32 39 89 40 83 41 85 42 33 43 88 44 82 45 81 46 34 48
REMARK SMILES IDX 68 49 47 50 67 51 48 52 51 53 66 54 86 55 49 56 50 57 65 59
REMARK SMILES IDX 87 60 52 61 35 62 36 63 45 64 37 65 38 66 44 67 46 68 39 69
REMARK SMILES IDX 40 70 41 71 42 72 43 73 69 74 70 75 79 76 71 77 72 78 78 79
REMARK SMILES IDX 80 80 73 81 74 82 75 83 76 84 77 85 53 86 54 87 63 88 55 89
REMARK SMILES IDX 56 90 62 91 64 92 57 93 58 94 59 95 60 96 61 97
REMARK H PARENT 5 11 8 14 15 24 15 25 85 47 51 58
REMARK Flexibility Score: inf
ROOT
ATOM      1  C   UNL A   1      35.685  21.004  25.649  1.00  0.00     0.274 C 
ENDROOT
BRANCH   1   2
ATOM      2  O   UNL A   1      34.640  22.018  25.349  1.00  0.00    -0.460 OA
BRANCH   2   3
ATOM      3  C   UNL A   1      34.023  22.836  26.320  1.00  0.00     0.331 C 
ATOM      4  O   UNL A   1      34.388  22.845  27.492  1.00  0.00    -0.249 OA
BRANCH   3   5
ATOM      5  C   UNL A   1      32.687  23.708  25.727  1.00  0.00     0.136 C 
ATOM      6  C   UNL A   1      32.908  25.176  26.118  1.00  0.00     0.047 C 
BRANCH   5   7
ATOM      7  C   UNL A   1      31.800  23.731  24.393  1.00  0.00     0.037 C 
ATOM      8  C   UNL A   1      31.961  22.897  23.140  1.00  0.00     0.007 C 
ENDBRANCH   5   7
BRANCH   5   9
ATOM      9  N   UNL A   1      31.734  23.094  26.582  1.00  0.00    -0.322 N 
ATOM     10  C   UNL A   1      30.589  23.707  26.876  1.00  0.00     0.320 C 
ATOM     11  H   UNL A   1      31.923  22.206  26.963  1.00  0.00     0.166 HD
ATOM     12  O   UNL A   1      29.786  22.954  27.440  1.00  0.00    -0.248 OA
ATOM     13  N   UNL A   1      30.225  24.974  26.491  1.00  0.00    -0.308 N 
ATOM     14  H   UNL A   1      29.426  25.162  27.035  1.00  0.00     0.171 HD
BRANCH  13  15
ATOM     15  C   UNL A   1      30.397  26.173  25.712  1.00  0.00     0.043 A 
ATOM     16  C   UNL A   1      29.807  26.141  24.428  1.00  0.00     0.026 A 
ATOM     17  C   UNL A   1      31.149  27.316  25.962  1.00  0.00     0.035 A 
ATOM     18  C   UNL A   1      29.977  27.156  23.473  1.00  0.00     0.003 A 
ATOM     19  C   UNL A   1      31.294  28.385  25.041  1.00  0.00     0.008 A 
ATOM     20  C   UNL A   1      30.726  28.279  23.777  1.00  0.00     0.010 A 
BRANCH  19  21
ATOM     21  C   UNL A   1      32.023  29.641  25.469  1.00  0.00     0.297 C 
BRANCH  21  22
ATOM     22  N   UNL A   1      32.154  29.752  26.921  1.00  0.00    -0.345 N 
ATOM     23  C   UNL A   1      33.135  30.782  27.250  1.00  0.00     0.331 C 
ATOM     24  H   UNL A   1      32.461  28.857  27.303  1.00  0.00     0.346 HD
ATOM     25  H   UNL A   1      31.251  30.005  27.323  1.00  0.00     0.346 HD
ENDBRANCH  21  22
ENDBRANCH  19  21
ENDBRANCH  13  15
ENDBRANCH   5   9
ENDBRANCH   3   5
ENDBRANCH   2   3
ENDBRANCH   1   2
BRANCH   1  26
ATOM     26  C   UNL A   1      37.104  21.163  24.846  1.00  0.00     0.275 C 
BRANCH  26  27
ATOM     27  O   UNL A   1      38.055  22.211  25.342  1.00  0.00    -0.458 OA
BRANCH  27  28
ATOM     28  C   UNL A   1      39.167  21.942  26.125  1.00  0.00     0.338 C 
ATOM     29  O   UNL A   1      39.670  20.842  26.251  1.00  0.00    -0.246 OA
BRANCH  28  30
ATOM     30  C   UNL A   1      39.676  23.213  26.857  1.00  0.00     0.060 A 
ATOM     31  C   UNL A   1      39.209  24.493  26.520  1.00  0.00     0.016 A 
ATOM     32  C   UNL A   1      40.657  23.195  27.849  1.00  0.00     0.016 A 
ATOM     33  C   UNL A   1      39.500  25.666  27.225  1.00  0.00     0.010 A 
ATOM     34  C   UNL A   1      41.071  24.407  28.497  1.00  0.00     0.010 A 
ATOM     35  C   UNL A   1      40.478  25.656  28.205  1.00  0.00    -0.014 A 
BRANCH  35  36
ATOM     36  C   UNL A   1      41.028  26.997  28.594  1.00  0.00     0.031 A 
ATOM     37  C   UNL A   1      42.496  27.255  28.333  1.00  0.00     0.074 A 
ATOM     38  C   UNL A   1      40.257  28.054  28.938  1.00  0.00     0.049 A 
ATOM     39  N   UNL A   1      43.221  28.313  28.594  1.00  0.00    -0.248 NA
ATOM     40  C   UNL A   1      43.230  26.174  27.656  1.00  0.00     0.031 C 
ATOM     41  C   UNL A   1      38.800  28.051  29.050  1.00  0.00     0.029 A 
ATOM     42  N   UNL A   1      40.604  29.358  29.235  1.00  0.00    -0.354 N 
ATOM     43  C   UNL A   1      44.501  28.014  28.140  1.00  0.00     0.074 A 
ATOM     44  C   UNL A   1      44.452  26.679  27.585  1.00  0.00     0.031 C 
ATOM     45  C   UNL A   1      38.383  29.280  29.415  1.00  0.00     0.029 A 
ATOM     46  C   UNL A   1      39.541  30.157  29.598  1.00  0.00     0.049 A 
ATOM     47  H   UNL A   1      41.531  29.689  29.192  1.00  0.00     0.167 HD
ATOM     48  C   UNL A   1      45.624  28.773  28.175  1.00  0.00     0.037 A 
ATOM     49  C   UNL A   1      39.502  31.430  30.056  1.00  0.00     0.037 A 
ATOM     50  C   UNL A   1      45.695  30.110  28.699  1.00  0.00     0.049 A 
ATOM     51  C   UNL A   1      40.783  32.223  30.201  1.00  0.00     0.074 A 
ATOM     52  C   UNL A   1      46.809  30.920  28.842  1.00  0.00     0.029 A 
ATOM     53  N   UNL A   1      44.610  30.845  29.148  1.00  0.00    -0.354 N 
ATOM     54  N   UNL A   1      42.009  31.883  29.881  1.00  0.00    -0.248 NA
ATOM     55  C   UNL A   1      40.675  33.575  30.779  1.00  0.00     0.031 C 
ATOM     56  C   UNL A   1      46.402  32.133  29.408  1.00  0.00     0.029 A 
ATOM     57  C   UNL A   1      45.029  32.095  29.574  1.00  0.00     0.049 A 
ATOM     58  H   UNL A   1      43.678  30.525  29.162  1.00  0.00     0.167 HD
ATOM     59  C   UNL A   1      42.808  32.979  30.203  1.00  0.00     0.074 A 
ATOM     60  C   UNL A   1      41.929  34.003  30.720  1.00  0.00     0.031 C 
ATOM     61  C   UNL A   1      44.153  33.120  30.085  1.00  0.00     0.037 A 
BRANCH  48  62
ATOM     62  C   UNL A   1      46.891  28.137  27.682  1.00  0.00     0.058 A 
ATOM     63  C   UNL A   1      47.334  28.288  26.359  1.00  0.00     0.135 A 
ATOM     64  C   UNL A   1      47.675  27.365  28.555  1.00  0.00     0.135 A 
ATOM     65  F   UNL A   1      46.605  28.992  25.478  1.00  0.00    -0.206 F 
ATOM     66  C   UNL A   1      48.500  27.675  25.912  1.00  0.00     0.059 A 
ATOM     67  C   UNL A   1      48.857  26.766  28.137  1.00  0.00     0.059 A 
ATOM     68  F   UNL A   1      47.289  27.186  29.828  1.00  0.00    -0.206 F 
ATOM     69  C   UNL A   1      49.253  26.914  26.808  1.00  0.00     0.060 A 
BRANCH  69  70
ATOM     70  S   UNL A   1      50.765  26.126  26.217  1.00  0.00     0.124 S 
ATOM     71  O   UNL A   1      51.784  27.053  26.698  1.00  0.00    -0.237 OA
ATOM     72  O   UNL A   1      50.722  24.828  26.884  1.00  0.00    -0.237 OA
ATOM     73  O   UNL A   1      50.583  26.088  24.768  1.00  0.00    -0.744 OA
ENDBRANCH  69  70
ENDBRANCH  48  62
BRANCH  49  74
ATOM     74  C   UNL A   1      38.212  32.037  30.504  1.00  0.00     0.058 A 
ATOM     75  C   UNL A   1      37.423  32.824  29.649  1.00  0.00     0.135 A 
ATOM     76  C   UNL A   1      37.781  31.900  31.834  1.00  0.00     0.135 A 
ATOM     77  F   UNL A   1      37.804  33.018  28.377  1.00  0.00    -0.206 F 
ATOM     78  C   UNL A   1      36.269  33.463  30.096  1.00  0.00     0.059 A 
ATOM     79  C   UNL A   1      36.615  32.504  32.297  1.00  0.00     0.059 A 
ATOM     80  F   UNL A   1      38.500  31.169  32.701  1.00  0.00    -0.206 F 
ATOM     81  C   UNL A   1      35.872  33.295  31.424  1.00  0.00     0.060 A 
BRANCH  81  82
ATOM     82  S   UNL A   1      34.350  34.087  31.992  1.00  0.00     0.124 S 
ATOM     83  O   UNL A   1      34.867  35.273  32.665  1.00  0.00    -0.237 OA
ATOM     84  O   UNL A   1      33.639  34.324  30.739  1.00  0.00    -0.237 OA
ATOM     85  O   UNL A   1      33.751  33.077  32.859  1.00  0.00    -0.744 OA
ENDBRANCH  81  82
ENDBRANCH  49  74
BRANCH  61  86
ATOM     86  C   UNL A   1      44.761  34.436  30.492  1.00  0.00     0.058 A 
ATOM     87  C   UNL A   1      45.246  34.657  31.791  1.00  0.00     0.135 A 
ATOM     88  C   UNL A   1      44.891  35.482  29.563  1.00  0.00     0.135 A 
ATOM     89  F   UNL A   1      45.150  33.693  32.720  1.00  0.00    -0.206 F 
ATOM     90  C   UNL A   1      45.803  35.878  32.165  1.00  0.00     0.059 A 
ATOM     91  C   UNL A   1      45.467  36.703  29.908  1.00  0.00     0.059 A 
ATOM     92  F   UNL A   1      44.461  35.323  28.301  1.00  0.00    -0.206 F 
ATOM     93  C   UNL A   1      45.903  36.897  31.218  1.00  0.00     0.060 A 
BRANCH  93  94
ATOM     94  S   UNL A   1      46.626  38.478  31.712  1.00  0.00     0.124 S 
ATOM     95  O   UNL A   1      47.667  38.047  32.638  1.00  0.00    -0.237 OA
ATOM     96  O   UNL A   1      47.094  39.022  30.441  1.00  0.00    -0.237 OA
ATOM     97  O   UNL A   1      45.504  39.190  32.316  1.00  0.00    -0.744 OA
ENDBRANCH  93  94
ENDBRANCH  61  86
ENDBRANCH  35  36
ENDBRANCH  28  30
ENDBRANCH  27  28
ENDBRANCH  26  27
ENDBRANCH   1  26
TORSDOF 19
ENDMDL
MODEL 3
REMARK VINA RESULT:     -10.7      4.400      9.974
REMARK SMILES CC[C@@](C)(NC(=O)Nc1cccc(C[NH2+]C)c1)C(=O)OCCOC(=O)c1ccc(-c2c3nc(c(-c4c(F)cc(S(=O)(=O)[O-])cc4F)c4ccc([nH]4)c(-c4c(F)cc(S(=O)(=O)[O-])cc4F)c4nc(c(-c5c(F)cc(S(=O)(=O)[O-])cc5F)c5ccc2[nH]5)C=C4)C=C3)cc1
REMARK SMILES IDX 21 1 20 2 18 3 19 4 3 5 4 6 2 7 1 8 5 9 6 10 7 12 8 13 9 15
REMARK SMILES IDX 10 16 17 17 11 18 13 19 12 20 14 21 15 22 16 23 22 26 23 27
REMARK SMILES IDX 24 28 25 29 26 30 27 31 91 32 28 33 90 34 29 35 30 36 31 37
REMARK SMILES IDX 84 38 32 39 89 40 83 41 85 42 33 43 88 44 82 45 81 46 34 48
REMARK SMILES IDX 68 49 47 50 67 51 48 52 51 53 66 54 86 55 49 56 50 57 65 59
REMARK SMILES IDX 87 60 52 61 35 62 36 63 45 64 37 65 38 66 44 67 46 68 39 69
REMARK SMILES IDX 40 70 41 71 42 72 43 73 69 74 70 75 79 76 71 77 72 78 78 79
REMARK SMILES IDX 80 80 73 81 74 82 75 83 76 84 77 85 53 86 54 87 63 88 55 89
REMARK SMILES IDX 56 90 62 91 64 92 57 93 58 94 59 95 60 96 61 97
REMARK H PARENT 5 11 8 14 15 24 15 25 85 47 51 58
REMARK Flexibility Score: inf
ROOT
ATOM      1  C   UNL A   1      31.543  28.595  26.298  1.00  0.00     0.274 C 
ENDROOT
BRANCH   1   2
ATOM      2  O   UNL A   1      31.687  27.968  24.958  1.00  0.00    -0.460 OA
BRANCH   2   3
ATOM      3  C   UNL A   1      32.894  27.437  24.454  1.00  0.00     0.331 C 
ATOM      4  O   UNL A   1      33.918  28.108  24.373  1.00  0.00    -0.249 OA
BRANCH   3   5
ATOM      5  C   UNL A   1      32.751  25.837  23.889  1.00  0.00     0.136 C 
ATOM      6  C   UNL A   1      33.985  25.078  24.395  1.00  0.00     0.047 C 
BRANCH   5   7
ATOM      7  C   UNL A   1      31.587  24.746  23.740  1.00  0.00     0.037 C 
ATOM      8  C   UNL A   1      30.786  24.067  24.830  1.00  0.00     0.007 C 
ENDBRANCH   5   7
BRANCH   5   9
ATOM      9  N   UNL A   1      32.886  26.166  22.515  1.00  0.00    -0.322 N 
ATOM     10  C   UNL A   1      33.140  25.221  21.611  1.00  0.00     0.320 C 
ATOM     11  H   UNL A   1      32.792  27.102  22.226  1.00  0.00     0.166 HD
ATOM     12  O   UNL A   1      33.005  25.632  20.452  1.00  0.00    -0.248 OA
ATOM     13  N   UNL A   1      33.379  23.893  21.870  1.00  0.00    -0.308 N 
ATOM     14  H   UNL A   1      33.710  23.544  21.011  1.00  0.00     0.171 HD
BRANCH  13  15
ATOM     15  C   UNL A   1      33.401  22.743  22.737  1.00  0.00     0.043 A 
ATOM     16  C   UNL A   1      32.419  21.766  22.458  1.00  0.00     0.026 A 
ATOM     17  C   UNL A   1      34.150  22.484  23.880  1.00  0.00     0.035 A 
ATOM     18  C   UNL A   1      32.194  20.642  23.268  1.00  0.00     0.003 A 
ATOM     19  C   UNL A   1      33.987  21.330  24.688  1.00  0.00     0.008 A 
ATOM     20  C   UNL A   1      32.976  20.425  24.390  1.00  0.00     0.010 A 
BRANCH  19  21
ATOM     21  C   UNL A   1      34.948  21.082  25.831  1.00  0.00     0.297 C 
BRANCH  21  22
ATOM     22  N   UNL A   1      35.173  22.273  26.650  1.00  0.00    -0.345 N 
ATOM     23  C   UNL A   1      34.147  22.359  27.685  1.00  0.00     0.331 C 
ATOM     24  H   UNL A   1      35.129  23.104  26.059  1.00  0.00     0.346 HD
ATOM     25  H   UNL A   1      36.091  22.212  27.089  1.00  0.00     0.346 HD
ENDBRANCH  21  22
ENDBRANCH  19  21
ENDBRANCH  13  15
ENDBRANCH   5   9
ENDBRANCH   3   5
ENDBRANCH   2   3
ENDBRANCH   1   2
BRANCH   1  26
ATOM     26  C   UNL A   1      32.223  30.074  26.484  1.00  0.00     0.275 C 
BRANCH  26  27
ATOM     27  O   UNL A   1      33.144  30.260  27.653  1.00  0.00    -0.458 OA
BRANCH  27  28
ATOM     28  C   UNL A   1      33.928  31.386  27.852  1.00  0.00     0.338 C 
ATOM     29  O   UNL A   1      33.534  32.529  27.728  1.00  0.00    -0.246 OA
BRANCH  28  30
ATOM     30  C   UNL A   1      35.389  31.011  28.221  1.00  0.00     0.060 A 
ATOM     31  C   UNL A   1      35.737  29.711  28.623  1.00  0.00     0.016 A 
ATOM     32  C   UNL A   1      36.444  31.925  28.235  1.00  0.00     0.016 A 
ATOM     33  C   UNL A   1      37.044  29.256  28.826  1.00  0.00     0.010 A 
ATOM     34  C   UNL A   1      37.775  31.507  28.570  1.00  0.00     0.010 A 
ATOM     35  C   UNL A   1      38.092  30.159  28.848  1.00  0.00    -0.014 A 
BRANCH  35  36
ATOM     36  C   UNL A   1      39.360  29.673  29.489  1.00  0.00     0.031 A 
ATOM     37  C   UNL A   1      39.752  30.284  30.816  1.00  0.00     0.074 A 
ATOM     38  C   UNL A   1      40.036  28.576  29.080  1.00  0.00     0.049 A 
ATOM     39  N   UNL A   1      40.803  30.062  31.565  1.00  0.00    -0.248 NA
ATOM     40  C   UNL A   1      38.806  31.258  31.384  1.00  0.00     0.031 C 
ATOM     41  C   UNL A   1      39.693  27.736  27.934  1.00  0.00     0.029 A 
ATOM     42  N   UNL A   1      41.154  27.962  29.610  1.00  0.00    -0.354 N 
ATOM     43  C   UNL A   1      40.658  30.887  32.674  1.00  0.00     0.074 A 
ATOM     44  C   UNL A   1      39.419  31.612  32.503  1.00  0.00     0.031 C 
ATOM     45  C   UNL A   1      40.593  26.738  27.833  1.00  0.00     0.029 A 
ATOM     46  C   UNL A   1      41.601  26.878  28.885  1.00  0.00     0.049 A 
ATOM     47  H   UNL A   1      41.594  28.270  30.436  1.00  0.00     0.167 HD
ATOM     48  C   UNL A   1      41.475  31.038  33.745  1.00  0.00     0.037 A 
ATOM     49  C   UNL A   1      42.707  26.109  29.026  1.00  0.00     0.037 A 
ATOM     50  C   UNL A   1      42.700  30.313  33.952  1.00  0.00     0.049 A 
ATOM     51  C   UNL A   1      43.671  26.369  30.163  1.00  0.00     0.074 A 
ATOM     52  C   UNL A   1      43.625  30.460  34.972  1.00  0.00     0.029 A 
ATOM     53  N   UNL A   1      43.165  29.292  33.139  1.00  0.00    -0.354 N 
ATOM     54  N   UNL A   1      43.584  27.239  31.141  1.00  0.00    -0.248 NA
ATOM     55  C   UNL A   1      44.893  25.546  30.211  1.00  0.00     0.031 C 
ATOM     56  C   UNL A   1      44.666  29.550  34.758  1.00  0.00     0.029 A 
ATOM     57  C   UNL A   1      44.366  28.806  33.630  1.00  0.00     0.049 A 
ATOM     58  H   UNL A   1      42.709  28.962  32.331  1.00  0.00     0.167 HD
ATOM     59  C   UNL A   1      44.724  27.056  31.923  1.00  0.00     0.074 A 
ATOM     60  C   UNL A   1      45.476  25.978  31.321  1.00  0.00     0.031 C 
ATOM     61  C   UNL A   1      45.114  27.727  33.036  1.00  0.00     0.037 A 
BRANCH  48  62
ATOM     62  C   UNL A   1      41.091  32.082  34.753  1.00  0.00     0.058 A 
ATOM     63  C   UNL A   1      41.567  33.400  34.679  1.00  0.00     0.135 A 
ATOM     64  C   UNL A   1      40.228  31.751  35.811  1.00  0.00     0.135 A 
ATOM     65  F   UNL A   1      42.417  33.758  33.704  1.00  0.00    -0.206 F 
ATOM     66  C   UNL A   1      41.218  34.349  35.634  1.00  0.00     0.059 A 
ATOM     67  C   UNL A   1      39.845  32.691  36.761  1.00  0.00     0.059 A 
ATOM     68  F   UNL A   1      39.752  30.502  35.929  1.00  0.00    -0.206 F 
ATOM     69  C   UNL A   1      40.358  33.985  36.672  1.00  0.00     0.060 A 
BRANCH  69  70
ATOM     70  S   UNL A   1      39.912  35.226  37.902  1.00  0.00     0.124 S 
ATOM     71  O   UNL A   1      41.061  35.171  38.801  1.00  0.00    -0.237 OA
ATOM     72  O   UNL A   1      39.794  36.438  37.097  1.00  0.00    -0.237 OA
ATOM     73  O   UNL A   1      38.658  34.722  38.455  1.00  0.00    -0.744 OA
ENDBRANCH  69  70
ENDBRANCH  48  62
BRANCH  49  74
ATOM     74  C   UNL A   1      43.033  25.055  28.018  1.00  0.00     0.058 A 
ATOM     75  C   UNL A   1      42.700  23.706  28.219  1.00  0.00     0.135 A 
ATOM     76  C   UNL A   1      43.759  25.375  26.860  1.00  0.00     0.135 A 
ATOM     77  F   UNL A   1      42.036  23.337  29.325  1.00  0.00    -0.206 F 
ATOM     78  C   UNL A   1      43.087  22.713  27.319  1.00  0.00     0.059 A 
ATOM     79  C   UNL A   1      44.131  24.406  25.932  1.00  0.00     0.059 A 
ATOM     80  F   UNL A   1      44.116  26.647  26.620  1.00  0.00    -0.206 F 
ATOM     81  C   UNL A   1      43.802  23.075  26.177  1.00  0.00     0.060 A 
BRANCH  81  82
ATOM     82  S   UNL A   1      44.263  21.794  24.988  1.00  0.00     0.124 S 
ATOM     83  O   UNL A   1      44.097  22.494  23.720  1.00  0.00    -0.237 OA
ATOM     84  O   UNL A   1      45.638  21.494  25.376  1.00  0.00    -0.237 OA
ATOM     85  O   UNL A   1      43.301  20.729  25.254  1.00  0.00    -0.744 OA
ENDBRANCH  81  82
ENDBRANCH  49  74
BRANCH  61  86
ATOM     86  C   UNL A   1      46.396  27.301  33.701  1.00  0.00     0.058 A 
ATOM     87  C   UNL A   1      46.420  26.314  34.699  1.00  0.00     0.135 A 
ATOM     88  C   UNL A   1      47.624  27.864  33.313  1.00  0.00     0.135 A 
ATOM     89  F   UNL A   1      45.278  25.740  35.109  1.00  0.00    -0.206 F 
ATOM     90  C   UNL A   1      47.608  25.927  35.315  1.00  0.00     0.059 A 
ATOM     91  C   UNL A   1      48.827  27.474  33.898  1.00  0.00     0.059 A 
ATOM     92  F   UNL A   1      47.665  28.799  32.352  1.00  0.00    -0.206 F 
ATOM     93  C   UNL A   1      48.806  26.518  34.912  1.00  0.00     0.060 A 
BRANCH  93  94
ATOM     94  S   UNL A   1      50.342  26.011  35.717  1.00  0.00     0.124 S 
ATOM     95  O   UNL A   1      50.432  26.973  36.810  1.00  0.00    -0.237 OA
ATOM     96  O   UNL A   1      50.055  24.634  36.108  1.00  0.00    -0.237 OA
ATOM     97  O   UNL A   1      51.343  26.161  34.665  1.00  0.00    -0.744 OA
ENDBRANCH  93  94
ENDBRANCH  61  86
ENDBRANCH  35  36
ENDBRANCH  28  30
ENDBRANCH  27  28
ENDBRANCH  26  27
ENDBRANCH   1  26
TORSDOF 19
ENDMDL
