MODEL 1
REMARK VINA RESULT:     -11.7      0.000      0.000
REMARK SMILES C[C@H]1[C@@H](C(=O)OCCOC(=O)c2ccc(-c3c4nc(c(-c5c(F)cc(S(=O)(=O)[O-])cc5F)c5ccc([nH]5)c(-c5c(F)cc(S(=O)(=O)[O-])cc5F)c5nc(c(-c6c(F)cc(S(=O)(=O)[O-])cc6F)c6ccc3[nH]6)C=C5)C=C4)cc2)CCN1S(=O)(=O)Cc1cccc(C#N)c1
REMARK SMILES IDX 7 1 6 2 4 3 5 4 3 5 1 6 2 7 80 8 78 9 79 10 81 11 82 12
REMARK SMILES IDX 83 13 84 14 85 15 86 16 92 17 87 18 89 19 88 20 90 21 91 22
REMARK SMILES IDX 8 23 9 24 10 25 11 26 12 27 13 28 77 29 14 30 76 31 15 32
REMARK SMILES IDX 16 33 17 34 70 35 18 36 75 37 69 38 71 39 19 40 74 41 68 42
REMARK SMILES IDX 67 43 20 45 54 46 33 47 53 48 34 49 37 50 52 51 72 52 35 53
REMARK SMILES IDX 36 54 51 56 73 57 38 58 21 59 22 60 31 61 23 62 24 63 30 64
REMARK SMILES IDX 32 65 25 66 26 67 27 68 28 69 29 70 55 71 56 72 65 73 57 74
REMARK SMILES IDX 58 75 64 76 66 77 59 78 60 79 61 80 62 81 63 82 39 83 40 84
REMARK SMILES IDX 49 85 41 86 42 87 48 88 50 89 43 90 44 91 45 92 46 93 47 94
REMARK H PARENT 71 44 37 55
REMARK Flexibility Score: inf
ROOT
ATOM      1  C   UNL A   1      31.744  28.421  27.200  1.00  0.00     0.274 C 
ENDROOT
BRANCH   1   2
ATOM      2  O   UNL A   1      31.506  26.997  27.209  1.00  0.00    -0.462 OA
BRANCH   2   3
ATOM      3  C   UNL A   1      31.279  26.349  26.047  1.00  0.00     0.310 C 
ATOM      4  O   UNL A   1      30.686  26.849  25.098  1.00  0.00    -0.252 OA
BRANCH   3   5
ATOM      5  C   UNL A   1      31.870  24.942  25.986  1.00  0.00     0.118 C 
ATOM      6  C   UNL A   1      33.588  25.662  24.147  1.00  0.00     0.027 C 
ATOM      7  C   UNL A   1      33.181  24.663  25.225  1.00  0.00     0.084 C 
ATOM      8  N   UNL A   1      32.985  23.333  24.542  1.00  0.00    -0.198 NA
ATOM      9  C   UNL A   1      30.885  23.887  25.483  1.00  0.00     0.034 C 
ATOM     10  C   UNL A   1      31.526  23.258  24.265  1.00  0.00     0.103 C 
BRANCH   8  11
ATOM     11  S   UNL A   1      33.602  21.940  25.301  1.00  0.00     0.218 S 
ATOM     12  O   UNL A   1      34.657  21.426  24.449  1.00  0.00    -0.212 OA
ATOM     13  O   UNL A   1      33.882  22.273  26.684  1.00  0.00    -0.212 OA
BRANCH  11  14
ATOM     14  C   UNL A   1      32.249  20.755  25.264  1.00  0.00     0.189 C 
BRANCH  14  15
ATOM     15  C   UNL A   1      32.587  19.526  24.460  1.00  0.00    -0.030 A 
ATOM     16  C   UNL A   1      32.170  19.386  23.131  1.00  0.00     0.005 A 
ATOM     17  C   UNL A   1      33.333  18.489  25.040  1.00  0.00     0.024 A 
ATOM     18  C   UNL A   1      32.528  18.260  22.385  1.00  0.00     0.002 A 
ATOM     19  C   UNL A   1      33.738  17.383  24.281  1.00  0.00     0.052 A 
ATOM     20  C   UNL A   1      33.326  17.267  22.954  1.00  0.00     0.019 A 
BRANCH  19  21
ATOM     21  C   UNL A   1      34.611  16.401  24.861  1.00  0.00     0.099 C 
ATOM     22  N   UNL A   1      35.299  15.597  25.329  1.00  0.00    -0.192 NA
ENDBRANCH  19  21
ENDBRANCH  14  15
ENDBRANCH  11  14
ENDBRANCH   8  11
ENDBRANCH   3   5
ENDBRANCH   2   3
ENDBRANCH   1   2
BRANCH   1  23
ATOM     23  C   UNL A   1      33.142  28.704  26.653  1.00  0.00     0.275 C 
BRANCH  23  24
ATOM     24  O   UNL A   1      34.089  28.734  27.733  1.00  0.00    -0.458 OA
BRANCH  24  25
ATOM     25  C   UNL A   1      34.569  29.962  28.020  1.00  0.00     0.338 C 
ATOM     26  O   UNL A   1      33.944  31.008  28.092  1.00  0.00    -0.246 OA
BRANCH  25  27
ATOM     27  C   UNL A   1      35.992  29.876  28.350  1.00  0.00     0.060 A 
ATOM     28  C   UNL A   1      36.928  30.105  27.342  1.00  0.00     0.016 A 
ATOM     29  C   UNL A   1      36.381  29.367  29.584  1.00  0.00     0.016 A 
ATOM     30  C   UNL A   1      38.239  29.689  27.514  1.00  0.00     0.010 A 
ATOM     31  C   UNL A   1      37.729  29.095  29.803  1.00  0.00     0.010 A 
ATOM     32  C   UNL A   1      38.666  29.225  28.761  1.00  0.00    -0.014 A 
BRANCH  32  33
ATOM     33  C   UNL A   1      40.097  28.918  29.008  1.00  0.00     0.031 A 
ATOM     34  C   UNL A   1      41.036  30.011  29.429  1.00  0.00     0.074 A 
ATOM     35  C   UNL A   1      40.551  27.671  28.770  1.00  0.00     0.049 A 
ATOM     36  N   UNL A   1      42.341  30.036  29.393  1.00  0.00    -0.248 NA
ATOM     37  C   UNL A   1      40.423  31.252  29.936  1.00  0.00     0.031 C 
ATOM     38  C   UNL A   1      39.721  26.515  28.413  1.00  0.00     0.029 A 
ATOM     39  N   UNL A   1      41.827  27.171  28.761  1.00  0.00    -0.354 N 
ATOM     40  C   UNL A   1      42.707  31.308  29.817  1.00  0.00     0.074 A 
ATOM     41  C   UNL A   1      41.486  32.028  30.102  1.00  0.00     0.031 C 
ATOM     42  C   UNL A   1      40.505  25.447  28.221  1.00  0.00     0.029 A 
ATOM     43  C   UNL A   1      41.894  25.866  28.330  1.00  0.00     0.049 A 
ATOM     44  H   UNL A   1      42.616  27.692  29.034  1.00  0.00     0.167 HD
ATOM     45  C   UNL A   1      43.956  31.817  29.942  1.00  0.00     0.037 A 
ATOM     46  C   UNL A   1      42.950  25.108  27.983  1.00  0.00     0.037 A 
ATOM     47  C   UNL A   1      45.151  31.058  29.673  1.00  0.00     0.049 A 
ATOM     48  C   UNL A   1      44.320  25.714  28.062  1.00  0.00     0.074 A 
ATOM     49  C   UNL A   1      46.469  31.461  29.781  1.00  0.00     0.029 A 
ATOM     50  N   UNL A   1      45.170  29.737  29.244  1.00  0.00    -0.354 N 
ATOM     51  N   UNL A   1      44.660  26.928  28.426  1.00  0.00    -0.248 NA
ATOM     52  C   UNL A   1      45.449  24.861  27.674  1.00  0.00     0.031 C 
ATOM     53  C   UNL A   1      47.283  30.404  29.363  1.00  0.00     0.029 A 
ATOM     54  C   UNL A   1      46.476  29.317  29.063  1.00  0.00     0.049 A 
ATOM     55  H   UNL A   1      44.372  29.181  29.091  1.00  0.00     0.167 HD
ATOM     56  C   UNL A   1      46.045  26.971  28.352  1.00  0.00     0.074 A 
ATOM     57  C   UNL A   1      46.479  25.665  27.900  1.00  0.00     0.031 C 
ATOM     58  C   UNL A   1      46.882  27.998  28.640  1.00  0.00     0.037 A 
BRANCH  45  59
ATOM     59  C   UNL A   1      44.099  33.262  30.342  1.00  0.00     0.058 A 
ATOM     60  C   UNL A   1      44.316  33.655  31.672  1.00  0.00     0.135 A 
ATOM     61  C   UNL A   1      44.063  34.272  29.364  1.00  0.00     0.135 A 
ATOM     62  F   UNL A   1      44.347  32.737  32.651  1.00  0.00    -0.206 F 
ATOM     63  C   UNL A   1      44.467  34.994  32.021  1.00  0.00     0.059 A 
ATOM     64  C   UNL A   1      44.243  35.614  29.686  1.00  0.00     0.059 A 
ATOM     65  F   UNL A   1      43.856  33.957  28.075  1.00  0.00    -0.206 F 
ATOM     66  C   UNL A   1      44.430  35.967  31.021  1.00  0.00     0.060 A 
BRANCH  66  67
ATOM     67  S   UNL A   1      44.634  37.698  31.490  1.00  0.00     0.124 S 
ATOM     68  O   UNL A   1      46.020  37.715  31.948  1.00  0.00    -0.237 OA
ATOM     69  O   UNL A   1      44.374  38.393  30.233  1.00  0.00    -0.237 OA
ATOM     70  O   UNL A   1      43.629  37.892  32.530  1.00  0.00    -0.744 OA
ENDBRANCH  66  67
ENDBRANCH  45  59
BRANCH  46  71
ATOM     71  C   UNL A   1      42.735  23.721  27.493  1.00  0.00     0.058 A 
ATOM     72  C   UNL A   1      42.759  23.431  26.123  1.00  0.00     0.135 A 
ATOM     73  C   UNL A   1      42.545  22.651  28.385  1.00  0.00     0.135 A 
ATOM     74  F   UNL A   1      42.936  24.419  25.233  1.00  0.00    -0.206 F 
ATOM     75  C   UNL A   1      42.590  22.134  25.650  1.00  0.00     0.059 A 
ATOM     76  C   UNL A   1      42.406  21.340  27.938  1.00  0.00     0.059 A 
ATOM     77  F   UNL A   1      42.536  22.869  29.709  1.00  0.00    -0.206 F 
ATOM     78  C   UNL A   1      42.418  21.095  26.566  1.00  0.00     0.060 A 
BRANCH  78  79
ATOM     79  S   UNL A   1      42.240  19.411  25.939  1.00  0.00     0.124 S 
ATOM     80  O   UNL A   1      43.084  19.452  24.750  1.00  0.00    -0.237 OA
ATOM     81  O   UNL A   1      42.744  18.615  27.053  1.00  0.00    -0.237 OA
ATOM     82  O   UNL A   1      40.806  19.295  25.691  1.00  0.00    -0.744 OA
ENDBRANCH  78  79
ENDBRANCH  46  71
BRANCH  58  83
ATOM     83  C   UNL A   1      48.357  27.736  28.553  1.00  0.00     0.058 A 
ATOM     84  C   UNL A   1      49.055  27.070  29.572  1.00  0.00     0.135 A 
ATOM     85  C   UNL A   1      49.055  28.065  27.379  1.00  0.00     0.135 A 
ATOM     86  F   UNL A   1      48.436  26.749  30.719  1.00  0.00    -0.206 F 
ATOM     87  C   UNL A   1      50.397  26.735  29.426  1.00  0.00     0.059 A 
ATOM     88  C   UNL A   1      50.387  27.713  27.201  1.00  0.00     0.059 A 
ATOM     89  F   UNL A   1      48.428  28.700  26.376  1.00  0.00    -0.206 F 
ATOM     90  C   UNL A   1      51.049  27.047  28.230  1.00  0.00     0.060 A 
BRANCH  90  91
ATOM     91  S   UNL A   1      52.761  26.518  28.019  1.00  0.00     0.124 S 
ATOM     92  O   UNL A   1      52.602  25.322  27.198  1.00  0.00    -0.237 OA
ATOM     93  O   UNL A   1      53.362  27.669  27.353  1.00  0.00    -0.237 OA
ATOM     94  O   UNL A   1      53.217  26.284  29.386  1.00  0.00    -0.744 OA
ENDBRANCH  90  91
ENDBRANCH  58  83
ENDBRANCH  32  33
ENDBRANCH  25  27
ENDBRANCH  24  25
ENDBRANCH  23  24
ENDBRANCH   1  23
TORSDOF 18
ENDMDL
MODEL 2
REMARK VINA RESULT:     -11.3      1.467      2.237
REMARK SMILES C[C@H]1[C@@H](C(=O)OCCOC(=O)c2ccc(-c3c4nc(c(-c5c(F)cc(S(=O)(=O)[O-])cc5F)c5ccc([nH]5)c(-c5c(F)cc(S(=O)(=O)[O-])cc5F)c5nc(c(-c6c(F)cc(S(=O)(=O)[O-])cc6F)c6ccc3[nH]6)C=C5)C=C4)cc2)CCN1S(=O)(=O)Cc1cccc(C#N)c1
REMARK SMILES IDX 7 1 6 2 4 3 5 4 3 5 1 6 2 7 80 8 78 9 79 10 81 11 82 12
REMARK SMILES IDX 83 13 84 14 85 15 86 16 92 17 87 18 89 19 88 20 90 21 91 22
REMARK SMILES IDX 8 23 9 24 10 25 11 26 12 27 13 28 77 29 14 30 76 31 15 32
REMARK SMILES IDX 16 33 17 34 70 35 18 36 75 37 69 38 71 39 19 40 74 41 68 42
REMARK SMILES IDX 67 43 20 45 54 46 33 47 53 48 34 49 37 50 52 51 72 52 35 53
REMARK SMILES IDX 36 54 51 56 73 57 38 58 21 59 22 60 31 61 23 62 24 63 30 64
REMARK SMILES IDX 32 65 25 66 26 67 27 68 28 69 29 70 55 71 56 72 65 73 57 74
REMARK SMILES IDX 58 75 64 76 66 77 59 78 60 79 61 80 62 81 63 82 39 83 40 84
REMARK SMILES IDX 49 85 41 86 42 87 48 88 50 89 43 90 44 91 45 92 46 93 47 94
REMARK H PARENT 71 44 37 55
REMARK Flexibility Score: inf
ROOT
ATOM      1  C   UNL A   1      31.966  28.365  26.662  1.00  0.00     0.274 C 
ENDROOT
BRANCH   1   2
ATOM      2  O   UNL A   1      31.698  29.365  25.656  1.00  0.00    -0.462 OA
BRANCH   2   3
ATOM      3  C   UNL A   1      31.110  29.005  24.496  1.00  0.00     0.310 C 
ATOM      4  O   UNL A   1      30.408  29.758  23.831  1.00  0.00    -0.252 OA
BRANCH   3   5
ATOM      5  C   UNL A   1      31.432  27.582  24.043  1.00  0.00     0.118 C 
ATOM      6  C   UNL A   1      33.616  28.380  22.839  1.00  0.00     0.027 C 
ATOM      7  C   UNL A   1      32.805  27.234  23.435  1.00  0.00     0.084 C 
ATOM      8  N   UNL A   1      32.525  26.263  22.315  1.00  0.00    -0.198 NA
ATOM      9  C   UNL A   1      30.407  27.005  23.068  1.00  0.00     0.034 C 
ATOM     10  C   UNL A   1      31.174  26.636  21.816  1.00  0.00     0.103 C 
BRANCH   8  11
ATOM     11  S   UNL A   1      32.694  24.599  22.631  1.00  0.00     0.218 S 
ATOM     12  O   UNL A   1      31.370  24.086  22.919  1.00  0.00    -0.212 OA
ATOM     13  O   UNL A   1      33.482  24.020  21.561  1.00  0.00    -0.212 OA
BRANCH  11  14
ATOM     14  C   UNL A   1      33.652  24.513  24.153  1.00  0.00     0.189 C 
BRANCH  14  15
ATOM     15  C   UNL A   1      34.254  23.149  24.372  1.00  0.00    -0.030 A 
ATOM     16  C   UNL A   1      35.641  22.965  24.432  1.00  0.00     0.005 A 
ATOM     17  C   UNL A   1      33.423  22.029  24.519  1.00  0.00     0.024 A 
ATOM     18  C   UNL A   1      36.182  21.701  24.678  1.00  0.00     0.002 A 
ATOM     19  C   UNL A   1      33.959  20.770  24.818  1.00  0.00     0.052 A 
ATOM     20  C   UNL A   1      35.343  20.607  24.888  1.00  0.00     0.019 A 
BRANCH  19  21
ATOM     21  C   UNL A   1      33.082  19.667  25.095  1.00  0.00     0.099 C 
ATOM     22  N   UNL A   1      32.360  18.792  25.327  1.00  0.00    -0.192 NA
ENDBRANCH  19  21
ENDBRANCH  14  15
ENDBRANCH  11  14
ENDBRANCH   8  11
ENDBRANCH   3   5
ENDBRANCH   2   3
ENDBRANCH   1   2
BRANCH   1  23
ATOM     23  C   UNL A   1      33.475  28.228  26.861  1.00  0.00     0.275 C 
BRANCH  23  24
ATOM     24  O   UNL A   1      33.859  28.840  28.103  1.00  0.00    -0.458 OA
BRANCH  24  25
ATOM     25  C   UNL A   1      34.435  30.053  27.971  1.00  0.00     0.338 C 
ATOM     26  O   UNL A   1      33.893  31.110  27.692  1.00  0.00    -0.246 OA
BRANCH  25  27
ATOM     27  C   UNL A   1      35.856  29.969  28.315  1.00  0.00     0.060 A 
ATOM     28  C   UNL A   1      36.800  30.110  27.298  1.00  0.00     0.016 A 
ATOM     29  C   UNL A   1      36.230  29.545  29.585  1.00  0.00     0.016 A 
ATOM     30  C   UNL A   1      38.104  29.687  27.508  1.00  0.00     0.010 A 
ATOM     31  C   UNL A   1      37.573  29.269  29.831  1.00  0.00     0.010 A 
ATOM     32  C   UNL A   1      38.517  29.309  28.788  1.00  0.00    -0.014 A 
BRANCH  32  33
ATOM     33  C   UNL A   1      39.941  28.999  29.065  1.00  0.00     0.031 A 
ATOM     34  C   UNL A   1      40.874  30.090  29.505  1.00  0.00     0.074 A 
ATOM     35  C   UNL A   1      40.398  27.751  28.837  1.00  0.00     0.049 A 
ATOM     36  N   UNL A   1      42.179  30.112  29.496  1.00  0.00    -0.248 NA
ATOM     37  C   UNL A   1      40.254  31.332  29.999  1.00  0.00     0.031 C 
ATOM     38  C   UNL A   1      39.573  26.597  28.463  1.00  0.00     0.029 A 
ATOM     39  N   UNL A   1      41.673  27.248  28.855  1.00  0.00    -0.354 N 
ATOM     40  C   UNL A   1      42.540  31.383  29.928  1.00  0.00     0.074 A 
ATOM     41  C   UNL A   1      41.314  32.106  30.187  1.00  0.00     0.031 C 
ATOM     42  C   UNL A   1      40.358  25.527  28.288  1.00  0.00     0.029 A 
ATOM     43  C   UNL A   1      41.746  25.942  28.426  1.00  0.00     0.049 A 
ATOM     44  H   UNL A   1      42.457  27.767  29.145  1.00  0.00     0.167 HD
ATOM     45  C   UNL A   1      43.787  31.890  30.079  1.00  0.00     0.037 A 
ATOM     46  C   UNL A   1      42.807  25.183  28.101  1.00  0.00     0.037 A 
ATOM     47  C   UNL A   1      44.985  31.127  29.835  1.00  0.00     0.049 A 
ATOM     48  C   UNL A   1      44.176  25.786  28.209  1.00  0.00     0.074 A 
ATOM     49  C   UNL A   1      46.302  31.528  29.971  1.00  0.00     0.029 A 
ATOM     50  N   UNL A   1      45.010  29.807  29.408  1.00  0.00    -0.354 N 
ATOM     51  N   UNL A   1      44.511  26.998  28.580  1.00  0.00    -0.248 NA
ATOM     52  C   UNL A   1      45.311  24.930  27.845  1.00  0.00     0.031 C 
ATOM     53  C   UNL A   1      47.122  30.469  29.571  1.00  0.00     0.029 A 
ATOM     54  C   UNL A   1      46.319  29.384  29.254  1.00  0.00     0.049 A 
ATOM     55  H   UNL A   1      44.215  29.253  29.238  1.00  0.00     0.167 HD
ATOM     56  C   UNL A   1      45.898  27.039  28.535  1.00  0.00     0.074 A 
ATOM     57  C   UNL A   1      46.339  25.732  28.093  1.00  0.00     0.031 C 
ATOM     58  C   UNL A   1      46.730  28.064  28.841  1.00  0.00     0.037 A 
BRANCH  45  59
ATOM     59  C   UNL A   1      43.924  33.334  30.482  1.00  0.00     0.058 A 
ATOM     60  C   UNL A   1      43.860  34.383  29.552  1.00  0.00     0.135 A 
ATOM     61  C   UNL A   1      44.079  33.677  31.837  1.00  0.00     0.135 A 
ATOM     62  F   UNL A   1      43.727  34.117  28.243  1.00  0.00    -0.206 F 
ATOM     63  C   UNL A   1      43.968  35.714  29.945  1.00  0.00     0.059 A 
ATOM     64  C   UNL A   1      44.157  35.001  32.256  1.00  0.00     0.059 A 
ATOM     65  F   UNL A   1      44.149  32.716  32.773  1.00  0.00    -0.206 F 
ATOM     66  C   UNL A   1      44.115  36.014  31.300  1.00  0.00     0.060 A 
BRANCH  66  67
ATOM     67  S   UNL A   1      44.247  37.745  31.794  1.00  0.00     0.124 S 
ATOM     68  O   UNL A   1      43.403  37.774  32.984  1.00  0.00    -0.237 OA
ATOM     69  O   UNL A   1      45.680  37.893  32.031  1.00  0.00    -0.237 OA
ATOM     70  O   UNL A   1      43.727  38.471  30.640  1.00  0.00    -0.744 OA
ENDBRANCH  66  67
ENDBRANCH  45  59
BRANCH  46  71
ATOM     71  C   UNL A   1      42.599  23.796  27.608  1.00  0.00     0.058 A 
ATOM     72  C   UNL A   1      42.492  23.530  26.237  1.00  0.00     0.135 A 
ATOM     73  C   UNL A   1      42.549  22.703  28.491  1.00  0.00     0.135 A 
ATOM     74  F   UNL A   1      42.533  24.539  25.354  1.00  0.00    -0.206 F 
ATOM     75  C   UNL A   1      42.327  22.235  25.756  1.00  0.00     0.059 A 
ATOM     76  C   UNL A   1      42.418  21.396  28.034  1.00  0.00     0.059 A 
ATOM     77  F   UNL A   1      42.670  22.899  29.814  1.00  0.00    -0.206 F 
ATOM     78  C   UNL A   1      42.296  21.174  26.664  1.00  0.00     0.060 A 
BRANCH  78  79
ATOM     79  S   UNL A   1      42.122  19.495  26.023  1.00  0.00     0.124 S 
ATOM     80  O   UNL A   1      42.563  18.700  27.163  1.00  0.00    -0.237 OA
ATOM     81  O   UNL A   1      40.697  19.432  25.713  1.00  0.00    -0.237 OA
ATOM     82  O   UNL A   1      43.010  19.484  24.864  1.00  0.00    -0.744 OA
ENDBRANCH  78  79
ENDBRANCH  46  71
BRANCH  58  83
ATOM     83  C   UNL A   1      48.207  27.798  28.785  1.00  0.00     0.058 A 
ATOM     84  C   UNL A   1      48.893  27.188  29.845  1.00  0.00     0.135 A 
ATOM     85  C   UNL A   1      48.919  28.065  27.603  1.00  0.00     0.135 A 
ATOM     86  F   UNL A   1      48.261  26.927  31.000  1.00  0.00    -0.206 F 
ATOM     87  C   UNL A   1      50.236  26.846  29.733  1.00  0.00     0.059 A 
ATOM     88  C   UNL A   1      50.253  27.705  27.459  1.00  0.00     0.059 A 
ATOM     89  F   UNL A   1      48.304  28.646  26.561  1.00  0.00    -0.206 F 
ATOM     90  C   UNL A   1      50.902  27.095  28.530  1.00  0.00     0.060 A 
BRANCH  90  91
ATOM     91  S   UNL A   1      52.617  26.557  28.367  1.00  0.00     0.124 S 
ATOM     92  O   UNL A   1      52.878  25.996  29.689  1.00  0.00    -0.237 OA
ATOM     93  O   UNL A   1      52.538  25.594  27.274  1.00  0.00    -0.237 OA
ATOM     94  O   UNL A   1      53.334  27.790  28.057  1.00  0.00    -0.744 OA
ENDBRANCH  90  91
ENDBRANCH  58  83
ENDBRANCH  32  33
ENDBRANCH  25  27
ENDBRANCH  24  25
ENDBRANCH  23  24
ENDBRANCH   1  23
TORSDOF 18
ENDMDL
MODEL 3
REMARK VINA RESULT:     -11.2      5.347     11.089
REMARK SMILES C[C@H]1[C@@H](C(=O)OCCOC(=O)c2ccc(-c3c4nc(c(-c5c(F)cc(S(=O)(=O)[O-])cc5F)c5ccc([nH]5)c(-c5c(F)cc(S(=O)(=O)[O-])cc5F)c5nc(c(-c6c(F)cc(S(=O)(=O)[O-])cc6F)c6ccc3[nH]6)C=C5)C=C4)cc2)CCN1S(=O)(=O)Cc1cccc(C#N)c1
REMARK SMILES IDX 7 1 6 2 4 3 5 4 3 5 1 6 2 7 80 8 78 9 79 10 81 11 82 12
REMARK SMILES IDX 83 13 84 14 85 15 86 16 92 17 87 18 89 19 88 20 90 21 91 22
REMARK SMILES IDX 8 23 9 24 10 25 11 26 12 27 13 28 77 29 14 30 76 31 15 32
REMARK SMILES IDX 16 33 17 34 70 35 18 36 75 37 69 38 71 39 19 40 74 41 68 42
REMARK SMILES IDX 67 43 20 45 54 46 33 47 53 48 34 49 37 50 52 51 72 52 35 53
REMARK SMILES IDX 36 54 51 56 73 57 38 58 21 59 22 60 31 61 23 62 24 63 30 64
REMARK SMILES IDX 32 65 25 66 26 67 27 68 28 69 29 70 55 71 56 72 65 73 57 74
REMARK SMILES IDX 58 75 64 76 66 77 59 78 60 79 61 80 62 81 63 82 39 83 40 84
REMARK SMILES IDX 49 85 41 86 42 87 48 88 50 89 43 90 44 91 45 92 46 93 47 94
REMARK H PARENT 71 44 37 55
REMARK Flexibility Score: inf
ROOT
ATOM      1  C   UNL A   1      38.111  21.885  25.458  1.00  0.00     0.274 C 
ENDROOT
BRANCH   1   2
ATOM      2  O   UNL A   1      36.824  22.338  25.929  1.00  0.00    -0.462 OA
BRANCH   2   3
ATOM      3  C   UNL A   1      35.697  21.810  25.407  1.00  0.00     0.310 C 
ATOM      4  O   UNL A   1      35.594  20.637  25.066  1.00  0.00    -0.252 OA
BRANCH   3   5
ATOM      5  C   UNL A   1      34.526  22.787  25.318  1.00  0.00     0.118 C 
ATOM      6  C   UNL A   1      33.870  22.343  27.813  1.00  0.00     0.027 C 
ATOM      7  C   UNL A   1      33.773  23.241  26.584  1.00  0.00     0.084 C 
ATOM      8  N   UNL A   1      32.317  23.302  26.196  1.00  0.00    -0.198 NA
ATOM      9  C   UNL A   1      33.437  22.348  24.341  1.00  0.00     0.034 C 
ATOM     10  C   UNL A   1      32.158  22.260  25.146  1.00  0.00     0.103 C 
BRANCH   8  11
ATOM     11  S   UNL A   1      31.664  24.811  25.756  1.00  0.00     0.218 S 
ATOM     12  O   UNL A   1      30.827  24.587  24.594  1.00  0.00    -0.212 OA
ATOM     13  O   UNL A   1      31.106  25.419  26.948  1.00  0.00    -0.212 OA
BRANCH  11  14
ATOM     14  C   UNL A   1      33.077  25.790  25.226  1.00  0.00     0.189 C 
BRANCH  14  15
ATOM     15  C   UNL A   1      32.841  27.269  25.388  1.00  0.00    -0.030 A 
ATOM     16  C   UNL A   1      31.771  27.911  24.752  1.00  0.00     0.005 A 
ATOM     17  C   UNL A   1      33.702  28.036  26.185  1.00  0.00     0.024 A 
ATOM     18  C   UNL A   1      31.540  29.275  24.946  1.00  0.00     0.002 A 
ATOM     19  C   UNL A   1      33.445  29.392  26.424  1.00  0.00     0.052 A 
ATOM     20  C   UNL A   1      32.366  30.012  25.795  1.00  0.00     0.019 A 
BRANCH  19  21
ATOM     21  C   UNL A   1      34.265  30.123  27.350  1.00  0.00     0.099 C 
ATOM     22  N   UNL A   1      34.943  30.699  28.091  1.00  0.00    -0.192 NA
ENDBRANCH  19  21
ENDBRANCH  14  15
ENDBRANCH  11  14
ENDBRANCH   8  11
ENDBRANCH   3   5
ENDBRANCH   2   3
ENDBRANCH   1   2
BRANCH   1  23
ATOM     23  C   UNL A   1      39.199  22.323  26.437  1.00  0.00     0.275 C 
BRANCH  23  24
ATOM     24  O   UNL A   1      39.288  23.757  26.455  1.00  0.00    -0.458 OA
BRANCH  24  25
ATOM     25  C   UNL A   1      40.530  24.235  26.678  1.00  0.00     0.338 C 
ATOM     26  O   UNL A   1      41.582  23.822  26.218  1.00  0.00    -0.246 OA
BRANCH  25  27
ATOM     27  C   UNL A   1      40.459  25.439  27.508  1.00  0.00     0.060 A 
ATOM     28  C   UNL A   1      41.406  26.444  27.313  1.00  0.00     0.016 A 
ATOM     29  C   UNL A   1      39.599  25.469  28.600  1.00  0.00     0.016 A 
ATOM     30  C   UNL A   1      41.595  27.409  28.289  1.00  0.00     0.010 A 
ATOM     31  C   UNL A   1      39.693  26.530  29.499  1.00  0.00     0.010 A 
ATOM     32  C   UNL A   1      40.711  27.493  29.368  1.00  0.00    -0.014 A 
BRANCH  32  33
ATOM     33  C   UNL A   1      40.805  28.609  30.342  1.00  0.00     0.031 A 
ATOM     34  C   UNL A   1      41.794  28.537  31.469  1.00  0.00     0.074 A 
ATOM     35  C   UNL A   1      39.940  29.638  30.246  1.00  0.00     0.049 A 
ATOM     36  N   UNL A   1      41.830  29.224  32.579  1.00  0.00    -0.248 NA
ATOM     37  C   UNL A   1      42.875  27.544  31.340  1.00  0.00     0.031 C 
ATOM     38  C   UNL A   1      38.974  29.842  29.162  1.00  0.00     0.029 A 
ATOM     39  N   UNL A   1      39.708  30.693  31.091  1.00  0.00    -0.354 N 
ATOM     40  C   UNL A   1      42.898  28.712  33.307  1.00  0.00     0.074 A 
ATOM     41  C   UNL A   1      43.483  27.653  32.514  1.00  0.00     0.031 C 
ATOM     42  C   UNL A   1      38.258  30.947  29.404  1.00  0.00     0.029 A 
ATOM     43  C   UNL A   1      38.634  31.465  30.711  1.00  0.00     0.049 A 
ATOM     44  H   UNL A   1      40.254  30.879  31.888  1.00  0.00     0.167 HD
ATOM     45  C   UNL A   1      43.331  29.095  34.532  1.00  0.00     0.037 A 
ATOM     46  C   UNL A   1      37.970  32.431  31.370  1.00  0.00     0.037 A 
ATOM     47  C   UNL A   1      42.737  30.174  35.280  1.00  0.00     0.049 A 
ATOM     48  C   UNL A   1      38.423  32.792  32.754  1.00  0.00     0.074 A 
ATOM     49  C   UNL A   1      43.101  30.664  36.521  1.00  0.00     0.029 A 
ATOM     50  N   UNL A   1      41.654  30.932  34.852  1.00  0.00    -0.354 N 
ATOM     51  N   UNL A   1      39.408  32.280  33.454  1.00  0.00    -0.248 NA
ATOM     52  C   UNL A   1      37.676  33.849  33.445  1.00  0.00     0.031 C 
ATOM     53  C   UNL A   1      42.204  31.677  36.869  1.00  0.00     0.029 A 
ATOM     54  C   UNL A   1      41.324  31.870  35.814  1.00  0.00     0.049 A 
ATOM     55  H   UNL A   1      41.190  30.818  33.992  1.00  0.00     0.167 HD
ATOM     56  C   UNL A   1      39.425  32.981  34.652  1.00  0.00     0.074 A 
ATOM     57  C   UNL A   1      38.348  33.947  34.585  1.00  0.00     0.031 C 
ATOM     58  C   UNL A   1      40.263  32.842  35.708  1.00  0.00     0.037 A 
BRANCH  45  59
ATOM     59  C   UNL A   1      44.465  28.327  35.158  1.00  0.00     0.058 A 
ATOM     60  C   UNL A   1      44.253  27.189  35.951  1.00  0.00     0.135 A 
ATOM     61  C   UNL A   1      45.796  28.714  34.920  1.00  0.00     0.135 A 
ATOM     62  F   UNL A   1      43.004  26.779  36.224  1.00  0.00    -0.206 F 
ATOM     63  C   UNL A   1      45.314  26.478  36.505  1.00  0.00     0.059 A 
ATOM     64  C   UNL A   1      46.873  28.001  35.437  1.00  0.00     0.059 A 
ATOM     65  F   UNL A   1      46.061  29.796  34.170  1.00  0.00    -0.206 F 
ATOM     66  C   UNL A   1      46.621  26.891  36.242  1.00  0.00     0.060 A 
BRANCH  66  67
ATOM     67  S   UNL A   1      47.986  25.954  36.962  1.00  0.00     0.124 S 
ATOM     68  O   UNL A   1      47.955  26.413  38.348  1.00  0.00    -0.237 OA
ATOM     69  O   UNL A   1      47.566  24.574  36.743  1.00  0.00    -0.237 OA
ATOM     70  O   UNL A   1      49.144  26.385  36.186  1.00  0.00    -0.744 OA
ENDBRANCH  66  67
ENDBRANCH  45  59
BRANCH  46  71
ATOM     71  C   UNL A   1      36.791  33.080  30.739  1.00  0.00     0.058 A 
ATOM     72  C   UNL A   1      35.491  32.768  31.156  1.00  0.00     0.135 A 
ATOM     73  C   UNL A   1      36.940  34.056  29.738  1.00  0.00     0.135 A 
ATOM     74  F   UNL A   1      35.297  31.841  32.107  1.00  0.00    -0.206 F 
ATOM     75  C   UNL A   1      34.378  33.387  30.596  1.00  0.00     0.059 A 
ATOM     76  C   UNL A   1      35.845  34.713  29.186  1.00  0.00     0.059 A 
ATOM     77  F   UNL A   1      38.164  34.410  29.318  1.00  0.00    -0.206 F 
ATOM     78  C   UNL A   1      34.567  34.362  29.615  1.00  0.00     0.060 A 
BRANCH  78  79
ATOM     79  S   UNL A   1      33.114  35.187  28.927  1.00  0.00     0.124 S 
ATOM     80  O   UNL A   1      33.710  36.378  28.332  1.00  0.00    -0.237 OA
ATOM     81  O   UNL A   1      32.612  34.187  27.990  1.00  0.00    -0.237 OA
ATOM     82  O   UNL A   1      32.274  35.418  30.098  1.00  0.00    -0.744 OA
ENDBRANCH  78  79
ENDBRANCH  46  71
BRANCH  58  83
ATOM     83  C   UNL A   1      40.105  33.804  36.850  1.00  0.00     0.058 A 
ATOM     84  C   UNL A   1      40.648  35.097  36.814  1.00  0.00     0.135 A 
ATOM     85  C   UNL A   1      39.304  33.454  37.950  1.00  0.00     0.135 A 
ATOM     86  F   UNL A   1      41.434  35.473  35.792  1.00  0.00    -0.206 F 
ATOM     87  C   UNL A   1      40.397  36.013  37.829  1.00  0.00     0.059 A 
ATOM     88  C   UNL A   1      39.016  34.364  38.960  1.00  0.00     0.059 A 
ATOM     89  F   UNL A   1      38.760  32.229  38.026  1.00  0.00    -0.206 F 
ATOM     90  C   UNL A   1      39.567  35.641  38.889  1.00  0.00     0.060 A 
BRANCH  90  91
ATOM     91  S   UNL A   1      39.172  36.873  40.148  1.00  0.00     0.124 S 
ATOM     92  O   UNL A   1      40.487  37.140  40.722  1.00  0.00    -0.237 OA
ATOM     93  O   UNL A   1      38.596  37.953  39.354  1.00  0.00    -0.237 OA
ATOM     94  O   UNL A   1      38.235  36.177  41.024  1.00  0.00    -0.744 OA
ENDBRANCH  90  91
ENDBRANCH  58  83
ENDBRANCH  32  33
ENDBRANCH  25  27
ENDBRANCH  24  25
ENDBRANCH  23  24
ENDBRANCH   1  23
TORSDOF 18
ENDMDL
