MODEL 1
REMARK VINA RESULT:     -11.4      0.000      0.000
REMARK SMILES O=C(Cc1ccccc1Nc1c(F)cccc1C(F)(F)F)OCCOC(=O)c1ccc(-c2c3nc(c(-c4c(F)cc(S(=O)(=O)[O-])cc4F)c4ccc([nH]4)c(-c4c(F)cc(S(=O)(=O)[O-])cc4F)c4nc(c(-c5c(F)cc(S(=O)(=O)[O-])cc5F)c5ccc2[nH]5)C=C4)C=C3)cc1
REMARK SMILES IDX 23 1 22 2 2 3 1 4 3 5 4 6 5 7 9 8 6 9 8 10 7 11 10 12 11 14
REMARK SMILES IDX 12 15 17 16 13 17 14 18 16 19 15 20 18 21 19 22 20 23 21 24
REMARK SMILES IDX 24 25 25 26 26 27 27 28 28 29 29 30 93 31 30 32 92 33 31 34
REMARK SMILES IDX 32 35 33 36 86 37 34 38 91 39 85 40 87 41 35 42 90 43 84 44
REMARK SMILES IDX 83 45 36 47 70 48 49 49 69 50 50 51 53 52 68 53 88 54 51 55
REMARK SMILES IDX 52 56 67 58 89 59 54 60 37 61 38 62 47 63 39 64 40 65 46 66
REMARK SMILES IDX 48 67 41 68 42 69 43 70 44 71 45 72 71 73 72 74 81 75 73 76
REMARK SMILES IDX 74 77 80 78 82 79 75 80 76 81 77 82 78 83 79 84 55 85 56 86
REMARK SMILES IDX 65 87 57 88 58 89 64 90 66 91 59 92 60 93 61 94 62 95 63 96
REMARK H PARENT 10 13 87 46 53 57
REMARK Flexibility Score: inf
ROOT
ATOM      1  C   UNL A   1      38.552  21.827  25.791  1.00  0.00     0.274 C 
ENDROOT
BRANCH   1   2
ATOM      2  O   UNL A   1      37.518  22.812  25.987  1.00  0.00    -0.462 OA
BRANCH   2   3
ATOM      3  C   UNL A   1      36.577  23.150  25.080  1.00  0.00     0.310 C 
ATOM      4  O   UNL A   1      36.446  22.471  24.059  1.00  0.00    -0.252 OA
BRANCH   3   5
ATOM      5  C   UNL A   1      35.634  24.299  25.353  1.00  0.00     0.160 C 
BRANCH   5   6
ATOM      6  C   UNL A   1      34.325  23.899  25.991  1.00  0.00    -0.013 A 
ATOM      7  C   UNL A   1      34.351  22.863  26.947  1.00  0.00     0.006 A 
ATOM      8  C   UNL A   1      33.118  24.578  25.722  1.00  0.00     0.042 A 
ATOM      9  C   UNL A   1      33.191  22.471  27.606  1.00  0.00     0.000 A 
ATOM     10  C   UNL A   1      31.963  24.163  26.400  1.00  0.00     0.026 A 
ATOM     11  C   UNL A   1      31.995  23.117  27.326  1.00  0.00     0.002 A 
BRANCH   8  12
ATOM     12  N   UNL A   1      33.098  25.693  24.863  1.00  0.00    -0.352 N 
ATOM     13  H   UNL A   1      33.491  25.522  23.977  1.00  0.00     0.167 HD
BRANCH  12  14
ATOM     14  C   UNL A   1      32.623  27.007  25.033  1.00  0.00     0.087 A 
ATOM     15  C   UNL A   1      33.405  27.878  25.820  1.00  0.00     0.147 A 
ATOM     16  C   UNL A   1      31.441  27.507  24.463  1.00  0.00     0.082 A 
ATOM     17  F   UNL A   1      34.531  27.416  26.391  1.00  0.00    -0.205 F 
ATOM     18  C   UNL A   1      33.065  29.209  26.026  1.00  0.00     0.041 A 
ATOM     19  C   UNL A   1      31.115  28.870  24.659  1.00  0.00     0.015 A 
ATOM     20  C   UNL A   1      31.917  29.712  25.432  1.00  0.00     0.004 A 
BRANCH  16  21
ATOM     21  C   UNL A   1      30.457  26.646  23.702  1.00  0.00     0.418 C 
ATOM     22  F   UNL A   1      29.376  27.367  23.278  1.00  0.00    -0.166 F 
ATOM     23  F   UNL A   1      30.996  26.117  22.569  1.00  0.00    -0.166 F 
ATOM     24  F   UNL A   1      29.929  25.612  24.412  1.00  0.00    -0.166 F 
ENDBRANCH  16  21
ENDBRANCH  12  14
ENDBRANCH   8  12
ENDBRANCH   5   6
ENDBRANCH   3   5
ENDBRANCH   2   3
ENDBRANCH   1   2
BRANCH   1  25
ATOM     25  C   UNL A   1      39.851  22.266  26.465  1.00  0.00     0.275 C 
BRANCH  25  26
ATOM     26  O   UNL A   1      39.748  23.642  26.869  1.00  0.00    -0.458 OA
BRANCH  26  27
ATOM     27  C   UNL A   1      40.911  24.341  26.901  1.00  0.00     0.338 C 
ATOM     28  O   UNL A   1      41.883  24.167  26.187  1.00  0.00    -0.246 OA
BRANCH  27  29
ATOM     29  C   UNL A   1      40.738  25.505  27.802  1.00  0.00     0.060 A 
ATOM     30  C   UNL A   1      41.740  26.485  27.820  1.00  0.00     0.016 A 
ATOM     31  C   UNL A   1      39.584  25.666  28.576  1.00  0.00     0.016 A 
ATOM     32  C   UNL A   1      41.601  27.615  28.632  1.00  0.00     0.010 A 
ATOM     33  C   UNL A   1      39.449  26.792  29.390  1.00  0.00     0.010 A 
ATOM     34  C   UNL A   1      40.467  27.757  29.443  1.00  0.00    -0.014 A 
BRANCH  34  35
ATOM     35  C   UNL A   1      40.412  28.810  30.486  1.00  0.00     0.031 A 
ATOM     36  C   UNL A   1      41.315  28.672  31.680  1.00  0.00     0.074 A 
ATOM     37  C   UNL A   1      39.549  29.839  30.404  1.00  0.00     0.049 A 
ATOM     38  N   UNL A   1      41.391  29.416  32.753  1.00  0.00    -0.248 NA
ATOM     39  C   UNL A   1      42.248  27.534  31.665  1.00  0.00     0.031 C 
ATOM     40  C   UNL A   1      38.629  30.089  29.298  1.00  0.00     0.029 A 
ATOM     41  N   UNL A   1      39.294  30.854  31.294  1.00  0.00    -0.354 N 
ATOM     42  C   UNL A   1      42.376  28.835  33.541  1.00  0.00     0.074 A 
ATOM     43  C   UNL A   1      42.849  27.662  32.837  1.00  0.00     0.031 C 
ATOM     44  C   UNL A   1      37.886  31.174  29.588  1.00  0.00     0.029 A 
ATOM     45  C   UNL A   1      38.265  31.679  30.908  1.00  0.00     0.049 A 
ATOM     46  H   UNL A   1      39.800  30.979  32.129  1.00  0.00     0.167 HD
ATOM     47  C   UNL A   1      42.852  29.244  34.740  1.00  0.00     0.037 A 
ATOM     48  C   UNL A   1      37.682  32.707  31.557  1.00  0.00     0.037 A 
ATOM     49  C   UNL A   1      42.377  30.402  35.447  1.00  0.00     0.049 A 
ATOM     50  C   UNL A   1      38.191  33.117  32.917  1.00  0.00     0.074 A 
ATOM     51  C   UNL A   1      42.822  30.916  36.652  1.00  0.00     0.029 A 
ATOM     52  N   UNL A   1      41.339  31.216  35.021  1.00  0.00    -0.354 N 
ATOM     53  N   UNL A   1      39.166  32.597  33.625  1.00  0.00    -0.248 NA
ATOM     54  C   UNL A   1      37.521  34.254  33.567  1.00  0.00     0.031 C 
ATOM     55  C   UNL A   1      42.021  32.017  36.977  1.00  0.00     0.029 A 
ATOM     56  C   UNL A   1      41.108  32.213  35.953  1.00  0.00     0.049 A 
ATOM     57  H   UNL A   1      40.840  31.101  34.180  1.00  0.00     0.167 HD
ATOM     58  C   UNL A   1      39.244  33.359  34.788  1.00  0.00     0.074 A 
ATOM     59  C   UNL A   1      38.218  34.376  34.689  1.00  0.00     0.031 C 
ATOM     60  C   UNL A   1      40.091  33.229  35.838  1.00  0.00     0.037 A 
BRANCH  47  61
ATOM     61  C   UNL A   1      43.927  28.407  35.369  1.00  0.00     0.058 A 
ATOM     62  C   UNL A   1      45.286  28.638  35.107  1.00  0.00     0.135 A 
ATOM     63  C   UNL A   1      43.594  27.357  36.238  1.00  0.00     0.135 A 
ATOM     64  F   UNL A   1      45.655  29.619  34.267  1.00  0.00    -0.206 F 
ATOM     65  C   UNL A   1      46.278  27.833  35.655  1.00  0.00     0.059 A 
ATOM     66  C   UNL A   1      44.570  26.553  36.816  1.00  0.00     0.059 A 
ATOM     67  F   UNL A   1      42.308  27.091  36.517  1.00  0.00    -0.206 F 
ATOM     68  C   UNL A   1      45.909  26.788  36.503  1.00  0.00     0.060 A 
BRANCH  68  69
ATOM     69  S   UNL A   1      47.202  25.730  37.187  1.00  0.00     0.124 S 
ATOM     70  O   UNL A   1      46.806  25.660  38.590  1.00  0.00    -0.237 OA
ATOM     71  O   UNL A   1      47.040  24.499  36.421  1.00  0.00    -0.237 OA
ATOM     72  O   UNL A   1      48.428  26.477  36.917  1.00  0.00    -0.744 OA
ENDBRANCH  68  69
ENDBRANCH  47  61
BRANCH  48  73
ATOM     73  C   UNL A   1      36.535  33.419  30.935  1.00  0.00     0.058 A 
ATOM     74  C   UNL A   1      35.232  33.269  31.430  1.00  0.00     0.135 A 
ATOM     75  C   UNL A   1      36.723  34.265  29.829  1.00  0.00     0.135 A 
ATOM     76  F   UNL A   1      35.000  32.461  32.474  1.00  0.00    -0.206 F 
ATOM     77  C   UNL A   1      34.151  33.923  30.845  1.00  0.00     0.059 A 
ATOM     78  C   UNL A   1      35.662  34.945  29.241  1.00  0.00     0.059 A 
ATOM     79  F   UNL A   1      37.953  34.445  29.322  1.00  0.00    -0.206 F 
ATOM     80  C   UNL A   1      34.377  34.760  29.751  1.00  0.00     0.060 A 
BRANCH  80  81
ATOM     81  S   UNL A   1      32.976  35.640  29.026  1.00  0.00     0.124 S 
ATOM     82  O   UNL A   1      33.644  36.723  28.314  1.00  0.00    -0.237 OA
ATOM     83  O   UNL A   1      32.362  34.611  28.191  1.00  0.00    -0.237 OA
ATOM     84  O   UNL A   1      32.192  36.040  30.191  1.00  0.00    -0.744 OA
ENDBRANCH  80  81
ENDBRANCH  48  73
BRANCH  60  85
ATOM     85  C   UNL A   1      39.980  34.222  36.962  1.00  0.00     0.058 A 
ATOM     86  C   UNL A   1      40.639  35.460  36.918  1.00  0.00     0.135 A 
ATOM     87  C   UNL A   1      39.126  33.972  38.049  1.00  0.00     0.135 A 
ATOM     88  F   UNL A   1      41.471  35.747  35.904  1.00  0.00    -0.206 F 
ATOM     89  C   UNL A   1      40.458  36.414  37.915  1.00  0.00     0.059 A 
ATOM     90  C   UNL A   1      38.914  34.919  39.045  1.00  0.00     0.059 A 
ATOM     91  F   UNL A   1      38.463  32.808  38.133  1.00  0.00    -0.206 F 
ATOM     92  C   UNL A   1      39.588  36.137  38.972  1.00  0.00     0.060 A 
BRANCH  92  93
ATOM     93  S   UNL A   1      39.307  37.411  40.222  1.00  0.00     0.124 S 
ATOM     94  O   UNL A   1      38.616  36.655  41.261  1.00  0.00    -0.237 OA
ATOM     95  O   UNL A   1      40.663  37.839  40.546  1.00  0.00    -0.237 OA
ATOM     96  O   UNL A   1      38.495  38.401  39.521  1.00  0.00    -0.744 OA
ENDBRANCH  92  93
ENDBRANCH  60  85
ENDBRANCH  34  35
ENDBRANCH  27  29
ENDBRANCH  26  27
ENDBRANCH  25  26
ENDBRANCH   1  25
TORSDOF 18
ENDMDL
MODEL 2
REMARK VINA RESULT:     -11.4      4.998     10.720
REMARK SMILES O=C(Cc1ccccc1Nc1c(F)cccc1C(F)(F)F)OCCOC(=O)c1ccc(-c2c3nc(c(-c4c(F)cc(S(=O)(=O)[O-])cc4F)c4ccc([nH]4)c(-c4c(F)cc(S(=O)(=O)[O-])cc4F)c4nc(c(-c5c(F)cc(S(=O)(=O)[O-])cc5F)c5ccc2[nH]5)C=C4)C=C3)cc1
REMARK SMILES IDX 23 1 22 2 2 3 1 4 3 5 4 6 5 7 9 8 6 9 8 10 7 11 10 12 11 14
REMARK SMILES IDX 12 15 17 16 13 17 14 18 16 19 15 20 18 21 19 22 20 23 21 24
REMARK SMILES IDX 24 25 25 26 26 27 27 28 28 29 29 30 93 31 30 32 92 33 31 34
REMARK SMILES IDX 32 35 33 36 86 37 34 38 91 39 85 40 87 41 35 42 90 43 84 44
REMARK SMILES IDX 83 45 36 47 70 48 49 49 69 50 50 51 53 52 68 53 88 54 51 55
REMARK SMILES IDX 52 56 67 58 89 59 54 60 37 61 38 62 47 63 39 64 40 65 46 66
REMARK SMILES IDX 48 67 41 68 42 69 43 70 44 71 45 72 71 73 72 74 81 75 73 76
REMARK SMILES IDX 74 77 80 78 82 79 75 80 76 81 77 82 78 83 79 84 55 85 56 86
REMARK SMILES IDX 65 87 57 88 58 89 64 90 66 91 59 92 60 93 61 94 62 95 63 96
REMARK H PARENT 10 13 87 46 53 57
REMARK Flexibility Score: inf
ROOT
ATOM      1  C   UNL A   1      32.274  30.012  25.822  1.00  0.00     0.274 C 
ENDROOT
BRANCH   1   2
ATOM      2  O   UNL A   1      31.559  28.761  25.836  1.00  0.00    -0.462 OA
BRANCH   2   3
ATOM      3  C   UNL A   1      32.024  27.599  26.344  1.00  0.00     0.310 C 
ATOM      4  O   UNL A   1      31.362  27.002  27.197  1.00  0.00    -0.252 OA
BRANCH   3   5
ATOM      5  C   UNL A   1      33.300  26.991  25.811  1.00  0.00     0.160 C 
BRANCH   5   6
ATOM      6  C   UNL A   1      33.212  26.496  24.387  1.00  0.00    -0.013 A 
ATOM      7  C   UNL A   1      33.075  27.458  23.365  1.00  0.00     0.006 A 
ATOM      8  C   UNL A   1      33.345  25.131  24.054  1.00  0.00     0.042 A 
ATOM      9  C   UNL A   1      33.031  27.079  22.028  1.00  0.00     0.000 A 
ATOM     10  C   UNL A   1      33.298  24.775  22.699  1.00  0.00     0.026 A 
ATOM     11  C   UNL A   1      33.135  25.735  21.696  1.00  0.00     0.002 A 
BRANCH   8  12
ATOM     12  N   UNL A   1      33.605  24.172  25.051  1.00  0.00    -0.352 N 
ATOM     13  H   UNL A   1      33.213  24.390  25.927  1.00  0.00     0.167 HD
BRANCH  12  14
ATOM     14  C   UNL A   1      34.320  22.960  25.032  1.00  0.00     0.087 A 
ATOM     15  C   UNL A   1      35.720  23.036  25.181  1.00  0.00     0.147 A 
ATOM     16  C   UNL A   1      33.734  21.691  24.890  1.00  0.00     0.082 A 
ATOM     17  F   UNL A   1      36.305  24.240  25.299  1.00  0.00    -0.205 F 
ATOM     18  C   UNL A   1      36.530  21.907  25.221  1.00  0.00     0.041 A 
ATOM     19  C   UNL A   1      34.564  20.547  24.956  1.00  0.00     0.015 A 
ATOM     20  C   UNL A   1      35.947  20.653  25.119  1.00  0.00     0.004 A 
BRANCH  16  21
ATOM     21  C   UNL A   1      32.264  21.483  24.603  1.00  0.00     0.418 C 
ATOM     22  F   UNL A   1      31.914  21.963  23.372  1.00  0.00    -0.166 F 
ATOM     23  F   UNL A   1      31.920  20.164  24.579  1.00  0.00    -0.166 F 
ATOM     24  F   UNL A   1      31.415  22.098  25.471  1.00  0.00    -0.166 F 
ENDBRANCH  16  21
ENDBRANCH  12  14
ENDBRANCH   8  12
ENDBRANCH   5   6
ENDBRANCH   3   5
ENDBRANCH   2   3
ENDBRANCH   1   2
BRANCH   1  25
ATOM     25  C   UNL A   1      32.736  30.387  27.229  1.00  0.00     0.275 C 
BRANCH  25  26
ATOM     26  O   UNL A   1      34.129  30.065  27.384  1.00  0.00    -0.458 OA
BRANCH  26  27
ATOM     27  C   UNL A   1      34.814  30.811  28.289  1.00  0.00     0.338 C 
ATOM     28  O   UNL A   1      34.361  31.698  28.991  1.00  0.00    -0.246 OA
BRANCH  27  29
ATOM     29  C   UNL A   1      36.167  30.230  28.452  1.00  0.00     0.060 A 
ATOM     30  C   UNL A   1      36.528  29.731  29.711  1.00  0.00     0.016 A 
ATOM     31  C   UNL A   1      37.052  30.122  27.374  1.00  0.00     0.016 A 
ATOM     32  C   UNL A   1      37.784  29.146  29.899  1.00  0.00     0.010 A 
ATOM     33  C   UNL A   1      38.308  29.542  27.565  1.00  0.00     0.010 A 
ATOM     34  C   UNL A   1      38.690  29.077  28.833  1.00  0.00    -0.014 A 
BRANCH  34  35
ATOM     35  C   UNL A   1      40.103  28.691  29.065  1.00  0.00     0.031 A 
ATOM     36  C   UNL A   1      41.050  29.743  29.573  1.00  0.00     0.074 A 
ATOM     37  C   UNL A   1      40.551  27.454  28.788  1.00  0.00     0.049 A 
ATOM     38  N   UNL A   1      42.340  29.671  29.776  1.00  0.00    -0.248 NA
ATOM     39  C   UNL A   1      40.462  31.057  29.880  1.00  0.00     0.031 C 
ATOM     40  C   UNL A   1      39.735  26.345  28.300  1.00  0.00     0.029 A 
ATOM     41  N   UNL A   1      41.821  26.935  28.858  1.00  0.00    -0.354 N 
ATOM     42  C   UNL A   1      42.718  30.927  30.231  1.00  0.00     0.074 A 
ATOM     43  C   UNL A   1      41.528  31.750  30.247  1.00  0.00     0.031 C 
ATOM     44  C   UNL A   1      40.532  25.282  28.084  1.00  0.00     0.029 A 
ATOM     45  C   UNL A   1      41.914  25.643  28.400  1.00  0.00     0.049 A 
ATOM     46  H   UNL A   1      42.592  27.441  29.202  1.00  0.00     0.167 HD
ATOM     47  C   UNL A   1      43.944  31.356  30.610  1.00  0.00     0.037 A 
ATOM     48  C   UNL A   1      42.995  24.853  28.232  1.00  0.00     0.037 A 
ATOM     49  C   UNL A   1      45.129  30.544  30.585  1.00  0.00     0.049 A 
ATOM     50  C   UNL A   1      44.361  25.367  28.611  1.00  0.00     0.074 A 
ATOM     51  C   UNL A   1      46.411  30.881  30.983  1.00  0.00     0.029 A 
ATOM     52  N   UNL A   1      45.182  29.239  30.122  1.00  0.00    -0.354 N 
ATOM     53  N   UNL A   1      44.697  26.537  29.099  1.00  0.00    -0.248 NA
ATOM     54  C   UNL A   1      45.497  24.452  28.417  1.00  0.00     0.031 C 
ATOM     55  C   UNL A   1      47.249  29.792  30.718  1.00  0.00     0.029 A 
ATOM     56  C   UNL A   1      46.481  28.764  30.196  1.00  0.00     0.049 A 
ATOM     57  H   UNL A   1      44.411  28.726  29.788  1.00  0.00     0.167 HD
ATOM     58  C   UNL A   1      46.075  26.490  29.296  1.00  0.00     0.074 A 
ATOM     59  C   UNL A   1      46.511  25.175  28.874  1.00  0.00     0.031 C 
ATOM     60  C   UNL A   1      46.901  27.448  29.784  1.00  0.00     0.037 A 
BRANCH  47  61
ATOM     61  C   UNL A   1      44.058  32.784  31.058  1.00  0.00     0.058 A 
ATOM     62  C   UNL A   1      43.740  33.170  32.370  1.00  0.00     0.135 A 
ATOM     63  C   UNL A   1      44.482  33.778  30.164  1.00  0.00     0.135 A 
ATOM     64  F   UNL A   1      43.311  32.259  33.257  1.00  0.00    -0.206 F 
ATOM     65  C   UNL A   1      43.804  34.500  32.769  1.00  0.00     0.059 A 
ATOM     66  C   UNL A   1      44.575  35.112  30.548  1.00  0.00     0.059 A 
ATOM     67  F   UNL A   1      44.793  33.461  28.897  1.00  0.00    -0.206 F 
ATOM     68  C   UNL A   1      44.215  35.465  31.848  1.00  0.00     0.060 A 
BRANCH  68  69
ATOM     69  S   UNL A   1      44.267  37.193  32.370  1.00  0.00     0.124 S 
ATOM     70  O   UNL A   1      43.797  37.872  31.166  1.00  0.00    -0.237 OA
ATOM     71  O   UNL A   1      43.348  37.207  33.504  1.00  0.00    -0.237 OA
ATOM     72  O   UNL A   1      45.672  37.404  32.702  1.00  0.00    -0.744 OA
ENDBRANCH  68  69
ENDBRANCH  47  61
BRANCH  48  73
ATOM     73  C   UNL A   1      42.832  23.489  27.664  1.00  0.00     0.058 A 
ATOM     74  C   UNL A   1      43.007  23.247  26.295  1.00  0.00     0.135 A 
ATOM     75  C   UNL A   1      42.496  22.399  28.484  1.00  0.00     0.135 A 
ATOM     76  F   UNL A   1      43.313  24.259  25.469  1.00  0.00    -0.206 F 
ATOM     77  C   UNL A   1      42.845  21.975  25.752  1.00  0.00     0.059 A 
ATOM     78  C   UNL A   1      42.349  21.115  27.970  1.00  0.00     0.059 A 
ATOM     79  F   UNL A   1      42.323  22.579  29.803  1.00  0.00    -0.206 F 
ATOM     80  C   UNL A   1      42.517  20.915  26.600  1.00  0.00     0.060 A 
BRANCH  80  81
ATOM     81  S   UNL A   1      42.352  19.259  25.896  1.00  0.00     0.124 S 
ATOM     82  O   UNL A   1      40.913  19.176  25.672  1.00  0.00    -0.237 OA
ATOM     83  O   UNL A   1      43.180  19.348  24.697  1.00  0.00    -0.237 OA
ATOM     84  O   UNL A   1      42.877  18.394  26.948  1.00  0.00    -0.744 OA
ENDBRANCH  80  81
ENDBRANCH  48  73
BRANCH  60  85
ATOM     85  C   UNL A   1      48.361  27.115  29.926  1.00  0.00     0.058 A 
ATOM     86  C   UNL A   1      49.301  27.501  28.959  1.00  0.00     0.135 A 
ATOM     87  C   UNL A   1      48.836  26.490  31.090  1.00  0.00     0.135 A 
ATOM     88  F   UNL A   1      48.899  28.097  27.826  1.00  0.00    -0.206 F 
ATOM     89  C   UNL A   1      50.663  27.275  29.140  1.00  0.00     0.059 A 
ATOM     90  C   UNL A   1      50.194  26.273  31.302  1.00  0.00     0.059 A 
ATOM     91  F   UNL A   1      47.979  26.110  32.051  1.00  0.00    -0.206 F 
ATOM     92  C   UNL A   1      51.100  26.666  30.318  1.00  0.00     0.060 A 
BRANCH  92  93
ATOM     93  S   UNL A   1      52.875  26.442  30.573  1.00  0.00     0.124 S 
ATOM     94  O   UNL A   1      53.330  26.139  29.220  1.00  0.00    -0.237 OA
ATOM     95  O   UNL A   1      53.283  27.738  31.104  1.00  0.00    -0.237 OA
ATOM     96  O   UNL A   1      52.944  25.334  31.522  1.00  0.00    -0.744 OA
ENDBRANCH  92  93
ENDBRANCH  60  85
ENDBRANCH  34  35
ENDBRANCH  27  29
ENDBRANCH  26  27
ENDBRANCH  25  26
ENDBRANCH   1  25
TORSDOF 18
ENDMDL
MODEL 3
REMARK VINA RESULT:     -11.4      6.492     12.118
REMARK SMILES O=C(Cc1ccccc1Nc1c(F)cccc1C(F)(F)F)OCCOC(=O)c1ccc(-c2c3nc(c(-c4c(F)cc(S(=O)(=O)[O-])cc4F)c4ccc([nH]4)c(-c4c(F)cc(S(=O)(=O)[O-])cc4F)c4nc(c(-c5c(F)cc(S(=O)(=O)[O-])cc5F)c5ccc2[nH]5)C=C4)C=C3)cc1
REMARK SMILES IDX 23 1 22 2 2 3 1 4 3 5 4 6 5 7 9 8 6 9 8 10 7 11 10 12 11 14
REMARK SMILES IDX 12 15 17 16 13 17 14 18 16 19 15 20 18 21 19 22 20 23 21 24
REMARK SMILES IDX 24 25 25 26 26 27 27 28 28 29 29 30 93 31 30 32 92 33 31 34
REMARK SMILES IDX 32 35 33 36 86 37 34 38 91 39 85 40 87 41 35 42 90 43 84 44
REMARK SMILES IDX 83 45 36 47 70 48 49 49 69 50 50 51 53 52 68 53 88 54 51 55
REMARK SMILES IDX 52 56 67 58 89 59 54 60 37 61 38 62 47 63 39 64 40 65 46 66
REMARK SMILES IDX 48 67 41 68 42 69 43 70 44 71 45 72 71 73 72 74 81 75 73 76
REMARK SMILES IDX 74 77 80 78 82 79 75 80 76 81 77 82 78 83 79 84 55 85 56 86
REMARK SMILES IDX 65 87 57 88 58 89 64 90 66 91 59 92 60 93 61 94 62 95 63 96
REMARK H PARENT 10 13 87 46 53 57
REMARK Flexibility Score: inf
ROOT
ATOM      1  C   UNL A   1      33.648  31.694  27.856  1.00  0.00     0.274 C 
ENDROOT
BRANCH   1   2
ATOM      2  O   UNL A   1      33.788  30.535  27.010  1.00  0.00    -0.462 OA
BRANCH   2   3
ATOM      3  C   UNL A   1      32.791  29.694  26.663  1.00  0.00     0.310 C 
ATOM      4  O   UNL A   1      31.701  29.778  27.233  1.00  0.00    -0.252 OA
BRANCH   3   5
ATOM      5  C   UNL A   1      32.979  28.718  25.525  1.00  0.00     0.160 C 
BRANCH   5   6
ATOM      6  C   UNL A   1      31.706  28.331  24.812  1.00  0.00    -0.013 A 
ATOM      7  C   UNL A   1      31.191  29.229  23.855  1.00  0.00     0.006 A 
ATOM      8  C   UNL A   1      31.080  27.083  25.014  1.00  0.00     0.042 A 
ATOM      9  C   UNL A   1      30.047  28.921  23.129  1.00  0.00     0.000 A 
ATOM     10  C   UNL A   1      29.927  26.796  24.268  1.00  0.00     0.026 A 
ATOM     11  C   UNL A   1      29.410  27.706  23.342  1.00  0.00     0.002 A 
BRANCH   8  12
ATOM     12  N   UNL A   1      31.649  26.125  25.874  1.00  0.00    -0.352 N 
ATOM     13  H   UNL A   1      31.937  26.489  26.741  1.00  0.00     0.167 HD
BRANCH  12  14
ATOM     14  C   UNL A   1      31.883  24.745  25.727  1.00  0.00     0.087 A 
ATOM     15  C   UNL A   1      30.843  23.872  26.111  1.00  0.00     0.147 A 
ATOM     16  C   UNL A   1      33.065  24.187  25.216  1.00  0.00     0.082 A 
ATOM     17  F   UNL A   1      29.710  24.382  26.621  1.00  0.00    -0.205 F 
ATOM     18  C   UNL A   1      30.937  22.492  25.975  1.00  0.00     0.041 A 
ATOM     19  C   UNL A   1      33.142  22.782  25.059  1.00  0.00     0.015 A 
ATOM     20  C   UNL A   1      32.091  21.944  25.434  1.00  0.00     0.004 A 
BRANCH  16  21
ATOM     21  C   UNL A   1      34.294  25.004  24.884  1.00  0.00     0.418 C 
ATOM     22  F   UNL A   1      35.401  24.217  24.734  1.00  0.00    -0.166 F 
ATOM     23  F   UNL A   1      34.171  25.671  23.702  1.00  0.00    -0.166 F 
ATOM     24  F   UNL A   1      34.645  25.924  25.824  1.00  0.00    -0.166 F 
ENDBRANCH  16  21
ENDBRANCH  12  14
ENDBRANCH   8  12
ENDBRANCH   5   6
ENDBRANCH   3   5
ENDBRANCH   2   3
ENDBRANCH   1   2
BRANCH   1  25
ATOM     25  C   UNL A   1      34.835  31.812  28.811  1.00  0.00     0.275 C 
BRANCH  25  26
ATOM     26  O   UNL A   1      35.759  30.736  28.573  1.00  0.00    -0.458 OA
BRANCH  26  27
ATOM     27  C   UNL A   1      36.301  30.164  29.678  1.00  0.00     0.338 C 
ATOM     28  O   UNL A   1      35.700  29.770  30.662  1.00  0.00    -0.246 OA
BRANCH  27  29
ATOM     29  C   UNL A   1      37.733  29.887  29.413  1.00  0.00     0.060 A 
ATOM     30  C   UNL A   1      38.140  29.709  28.084  1.00  0.00     0.016 A 
ATOM     31  C   UNL A   1      38.676  29.861  30.446  1.00  0.00     0.016 A 
ATOM     32  C   UNL A   1      39.486  29.478  27.788  1.00  0.00     0.010 A 
ATOM     33  C   UNL A   1      40.020  29.625  30.150  1.00  0.00     0.010 A 
ATOM     34  C   UNL A   1      40.427  29.406  28.824  1.00  0.00    -0.014 A 
BRANCH  34  35
ATOM     35  C   UNL A   1      41.804  28.921  28.562  1.00  0.00     0.031 A 
ATOM     36  C   UNL A   1      42.919  29.930  28.541  1.00  0.00     0.074 A 
ATOM     37  C   UNL A   1      42.058  27.626  28.301  1.00  0.00     0.049 A 
ATOM     38  N   UNL A   1      44.184  29.763  28.258  1.00  0.00    -0.248 NA
ATOM     39  C   UNL A   1      42.550  31.316  28.872  1.00  0.00     0.031 C 
ATOM     40  C   UNL A   1      41.069  26.551  28.299  1.00  0.00     0.029 A 
ATOM     41  N   UNL A   1      43.235  27.005  27.960  1.00  0.00    -0.354 N 
ATOM     42  C   UNL A   1      44.762  31.020  28.373  1.00  0.00     0.074 A 
ATOM     43  C   UNL A   1      43.705  31.945  28.723  1.00  0.00     0.031 C 
ATOM     44  C   UNL A   1      41.677  25.404  27.942  1.00  0.00     0.029 A 
ATOM     45  C   UNL A   1      43.090  25.669  27.672  1.00  0.00     0.049 A 
ATOM     46  H   UNL A   1      44.100  27.473  27.925  1.00  0.00     0.167 HD
ATOM     47  C   UNL A   1      46.058  31.375  28.211  1.00  0.00     0.037 A 
ATOM     48  C   UNL A   1      43.990  24.773  27.218  1.00  0.00     0.037 A 
ATOM     49  C   UNL A   1      47.108  30.461  27.852  1.00  0.00     0.049 A 
ATOM     50  C   UNL A   1      45.419  25.198  26.992  1.00  0.00     0.074 A 
ATOM     51  C   UNL A   1      48.458  30.721  27.698  1.00  0.00     0.029 A 
ATOM     52  N   UNL A   1      46.923  29.116  27.575  1.00  0.00    -0.354 N 
ATOM     53  N   UNL A   1      45.967  26.377  27.165  1.00  0.00    -0.248 NA
ATOM     54  C   UNL A   1      46.354  24.169  26.510  1.00  0.00     0.031 C 
ATOM     55  C   UNL A   1      49.084  29.540  27.284  1.00  0.00     0.029 A 
ATOM     56  C   UNL A   1      48.130  28.536  27.222  1.00  0.00     0.049 A 
ATOM     57  H   UNL A   1      46.061  28.643  27.622  1.00  0.00     0.167 HD
ATOM     58  C   UNL A   1      47.312  26.227  26.840  1.00  0.00     0.074 A 
ATOM     59  C   UNL A   1      47.497  24.842  26.460  1.00  0.00     0.031 C 
ATOM     60  C   UNL A   1      48.304  27.152  26.858  1.00  0.00     0.037 A 
BRANCH  47  61
ATOM     61  C   UNL A   1      46.397  32.825  28.395  1.00  0.00     0.058 A 
ATOM     62  C   UNL A   1      46.796  33.334  29.641  1.00  0.00     0.135 A 
ATOM     63  C   UNL A   1      46.315  33.718  27.316  1.00  0.00     0.135 A 
ATOM     64  F   UNL A   1      46.871  32.523  30.709  1.00  0.00    -0.206 F 
ATOM     65  C   UNL A   1      47.065  34.685  29.820  1.00  0.00     0.059 A 
ATOM     66  C   UNL A   1      46.602  35.070  27.466  1.00  0.00     0.059 A 
ATOM     67  F   UNL A   1      45.933  33.282  26.105  1.00  0.00    -0.206 F 
ATOM     68  C   UNL A   1      46.958  35.547  28.727  1.00  0.00     0.060 A 
BRANCH  68  69
ATOM     69  S   UNL A   1      47.283  37.306  28.977  1.00  0.00     0.124 S 
ATOM     70  O   UNL A   1      48.728  37.364  28.777  1.00  0.00    -0.237 OA
ATOM     71  O   UNL A   1      46.475  37.926  27.932  1.00  0.00    -0.237 OA
ATOM     72  O   UNL A   1      46.827  37.544  30.343  1.00  0.00    -0.744 OA
ENDBRANCH  68  69
ENDBRANCH  47  61
BRANCH  48  73
ATOM     73  C   UNL A   1      43.563  23.377  26.933  1.00  0.00     0.058 A 
ATOM     74  C   UNL A   1      43.406  22.921  25.617  1.00  0.00     0.135 A 
ATOM     75  C   UNL A   1      43.304  22.473  27.976  1.00  0.00     0.135 A 
ATOM     76  F   UNL A   1      43.626  23.752  24.588  1.00  0.00    -0.206 F 
ATOM     77  C   UNL A   1      42.995  21.620  25.341  1.00  0.00     0.059 A 
ATOM     78  C   UNL A   1      42.913  21.161  27.726  1.00  0.00     0.059 A 
ATOM     79  F   UNL A   1      43.445  22.861  29.253  1.00  0.00    -0.206 F 
ATOM     80  C   UNL A   1      42.752  20.747  26.404  1.00  0.00     0.060 A 
BRANCH  80  81
ATOM     81  S   UNL A   1      42.263  19.047  26.037  1.00  0.00     0.124 S 
ATOM     82  O   UNL A   1      40.848  19.209  25.724  1.00  0.00    -0.237 OA
ATOM     83  O   UNL A   1      43.131  18.711  24.912  1.00  0.00    -0.237 OA
ATOM     84  O   UNL A   1      42.557  18.338  27.279  1.00  0.00    -0.744 OA
ENDBRANCH  80  81
ENDBRANCH  48  73
BRANCH  60  85
ATOM     85  C   UNL A   1      49.692  26.706  26.489  1.00  0.00     0.058 A 
ATOM     86  C   UNL A   1      50.529  26.063  27.414  1.00  0.00     0.135 A 
ATOM     87  C   UNL A   1      50.152  26.836  25.169  1.00  0.00     0.135 A 
ATOM     88  F   UNL A   1      50.139  25.919  28.691  1.00  0.00    -0.206 F 
ATOM     89  C   UNL A   1      51.775  25.568  27.044  1.00  0.00     0.059 A 
ATOM     90  C   UNL A   1      51.385  26.330  24.771  1.00  0.00     0.059 A 
ATOM     91  F   UNL A   1      49.386  27.433  24.242  1.00  0.00    -0.206 F 
ATOM     92  C   UNL A   1      52.192  25.700  25.717  1.00  0.00     0.060 A 
BRANCH  92  93
ATOM     93  S   UNL A   1      53.782  24.991  25.231  1.00  0.00     0.124 S 
ATOM     94  O   UNL A   1      53.463  23.568  25.175  1.00  0.00    -0.237 OA
ATOM     95  O   UNL A   1      54.035  25.635  23.947  1.00  0.00    -0.237 OA
ATOM     96  O   UNL A   1      54.677  25.392  26.313  1.00  0.00    -0.744 OA
ENDBRANCH  92  93
ENDBRANCH  60  85
ENDBRANCH  34  35
ENDBRANCH  27  29
ENDBRANCH  26  27
ENDBRANCH  25  26
ENDBRANCH   1  25
TORSDOF 18
ENDMDL
