MODEL 1
REMARK VINA RESULT:     -10.9      0.000      0.000
REMARK SMILES O=C(OCCOC(=O)c1c(F)cccc1Oc1cccc(Cl)c1)c1ccc(-c2c3nc(c(-c4c(F)cc(S(=O)(=O)[O-])cc4F)c4ccc([nH]4)c(-c4c(F)cc(S(=O)(=O)[O-])cc4F)c4nc(c(-c5c(F)cc(S(=O)(=O)[O-])cc5F)c5ccc2[nH]5)C=C4)C=C3)cc1
REMARK SMILES IDX 4 1 3 2 2 3 1 4 24 5 25 6 89 7 26 8 88 9 27 10 28 11 29 12
REMARK SMILES IDX 82 13 30 14 87 15 81 16 83 17 31 18 86 19 80 20 79 21 32 23
REMARK SMILES IDX 66 24 45 25 65 26 46 27 49 28 64 29 84 30 47 31 48 32 63 34
REMARK SMILES IDX 85 35 50 36 33 37 34 38 43 39 35 40 36 41 42 42 44 43 37 44
REMARK SMILES IDX 38 45 39 46 40 47 41 48 67 49 68 50 77 51 69 52 70 53 76 54
REMARK SMILES IDX 78 55 71 56 72 57 73 58 74 59 75 60 51 61 52 62 61 63 53 64
REMARK SMILES IDX 54 65 60 66 62 67 55 68 56 69 57 70 58 71 59 72 5 73 6 74
REMARK SMILES IDX 7 75 8 76 9 77 10 78 15 79 11 80 12 81 14 82 13 83 16 84
REMARK SMILES IDX 17 85 18 86 23 87 19 88 21 89 20 90 22 91
REMARK H PARENT 83 22 49 33
REMARK Flexibility Score: inf
ROOT
ATOM      1  C   UNL A   1      34.278  32.049  28.388  1.00  0.00     0.275 C 
ENDROOT
BRANCH   1   2
ATOM      2  O   UNL A   1      34.320  31.191  27.244  1.00  0.00    -0.458 OA
BRANCH   2   3
ATOM      3  C   UNL A   1      34.583  29.890  27.537  1.00  0.00     0.338 C 
ATOM      4  O   UNL A   1      33.778  28.980  27.561  1.00  0.00    -0.246 OA
BRANCH   3   5
ATOM      5  C   UNL A   1      35.955  29.833  28.101  1.00  0.00     0.060 A 
ATOM      6  C   UNL A   1      36.155  29.363  29.403  1.00  0.00     0.016 A 
ATOM      7  C   UNL A   1      37.050  30.071  27.260  1.00  0.00     0.016 A 
ATOM      8  C   UNL A   1      37.435  29.095  29.851  1.00  0.00     0.010 A 
ATOM      9  C   UNL A   1      38.340  29.779  27.702  1.00  0.00     0.010 A 
ATOM     10  C   UNL A   1      38.527  29.289  28.999  1.00  0.00    -0.014 A 
BRANCH  10  11
ATOM     11  C   UNL A   1      39.866  29.053  29.560  1.00  0.00     0.031 A 
ATOM     12  C   UNL A   1      40.324  29.944  30.668  1.00  0.00     0.074 A 
ATOM     13  C   UNL A   1      40.564  27.971  29.171  1.00  0.00     0.049 A 
ATOM     14  N   UNL A   1      41.339  29.789  31.469  1.00  0.00    -0.248 NA
ATOM     15  C   UNL A   1      39.513  31.145  30.940  1.00  0.00     0.031 C 
ATOM     16  C   UNL A   1      40.144  27.027  28.134  1.00  0.00     0.029 A 
ATOM     17  N   UNL A   1      41.760  27.471  29.608  1.00  0.00    -0.354 N 
ATOM     18  C   UNL A   1      41.245  30.827  32.385  1.00  0.00     0.074 A 
ATOM     19  C   UNL A   1      40.133  31.657  31.992  1.00  0.00     0.031 C 
ATOM     20  C   UNL A   1      41.095  26.091  27.976  1.00  0.00     0.029 A 
ATOM     21  C   UNL A   1      42.173  26.353  28.923  1.00  0.00     0.049 A 
ATOM     22  H   UNL A   1      42.276  27.874  30.342  1.00  0.00     0.167 HD
ATOM     23  C   UNL A   1      41.999  31.024  33.488  1.00  0.00     0.037 A 
ATOM     24  C   UNL A   1      43.296  25.623  29.060  1.00  0.00     0.037 A 
ATOM     25  C   UNL A   1      43.108  30.183  33.838  1.00  0.00     0.049 A 
ATOM     26  C   UNL A   1      44.206  25.951  30.211  1.00  0.00     0.074 A 
ATOM     27  C   UNL A   1      43.937  30.265  34.939  1.00  0.00     0.029 A 
ATOM     28  N   UNL A   1      43.550  29.112  33.072  1.00  0.00    -0.354 N 
ATOM     29  N   UNL A   1      44.057  26.882  31.126  1.00  0.00    -0.248 NA
ATOM     30  C   UNL A   1      45.407  25.126  30.378  1.00  0.00     0.031 C 
ATOM     31  C   UNL A   1      44.914  29.272  34.812  1.00  0.00     0.029 A 
ATOM     32  C   UNL A   1      44.669  28.548  33.652  1.00  0.00     0.049 A 
ATOM     33  H   UNL A   1      43.129  28.801  32.238  1.00  0.00     0.167 HD
ATOM     34  C   UNL A   1      45.126  26.734  31.999  1.00  0.00     0.074 A 
ATOM     35  C   UNL A   1      45.917  25.626  31.498  1.00  0.00     0.031 C 
ATOM     36  C   UNL A   1      45.421  27.438  33.118  1.00  0.00     0.037 A 
BRANCH  23  37
ATOM     37  C   UNL A   1      41.632  32.169  34.382  1.00  0.00     0.058 A 
ATOM     38  C   UNL A   1      42.111  33.461  34.127  1.00  0.00     0.135 A 
ATOM     39  C   UNL A   1      40.818  31.979  35.511  1.00  0.00     0.135 A 
ATOM     40  F   UNL A   1      42.873  33.700  33.048  1.00  0.00    -0.206 F 
ATOM     41  C   UNL A   1      41.809  34.526  34.969  1.00  0.00     0.059 A 
ATOM     42  C   UNL A   1      40.489  33.032  36.358  1.00  0.00     0.059 A 
ATOM     43  F   UNL A   1      40.307  30.766  35.779  1.00  0.00    -0.206 F 
ATOM     44  C   UNL A   1      41.000  34.300  36.086  1.00  0.00     0.060 A 
BRANCH  44  45
ATOM     45  S   UNL A   1      40.597  35.698  37.155  1.00  0.00     0.124 S 
ATOM     46  O   UNL A   1      41.887  35.980  37.777  1.00  0.00    -0.237 OA
ATOM     47  O   UNL A   1      40.121  36.689  36.196  1.00  0.00    -0.237 OA
ATOM     48  O   UNL A   1      39.574  35.159  38.046  1.00  0.00    -0.744 OA
ENDBRANCH  44  45
ENDBRANCH  23  37
BRANCH  24  49
ATOM     49  C   UNL A   1      43.596  24.534  28.093  1.00  0.00     0.058 A 
ATOM     50  C   UNL A   1      44.341  24.804  26.932  1.00  0.00     0.135 A 
ATOM     51  C   UNL A   1      43.134  23.223  28.278  1.00  0.00     0.135 A 
ATOM     52  F   UNL A   1      44.794  26.046  26.697  1.00  0.00    -0.206 F 
ATOM     53  C   UNL A   1      44.610  23.819  25.989  1.00  0.00     0.059 A 
ATOM     54  C   UNL A   1      43.405  22.215  27.355  1.00  0.00     0.059 A 
ATOM     55  F   UNL A   1      42.419  22.914  29.370  1.00  0.00    -0.206 F 
ATOM     56  C   UNL A   1      44.137  22.526  26.209  1.00  0.00     0.060 A 
BRANCH  56  57
ATOM     57  S   UNL A   1      44.504  21.261  24.971  1.00  0.00     0.124 S 
ATOM     58  O   UNL A   1      45.820  20.802  25.403  1.00  0.00    -0.237 OA
ATOM     59  O   UNL A   1      43.406  20.319  25.166  1.00  0.00    -0.237 OA
ATOM     60  O   UNL A   1      44.478  22.002  23.713  1.00  0.00    -0.744 OA
ENDBRANCH  56  57
ENDBRANCH  24  49
BRANCH  36  61
ATOM     61  C   UNL A   1      46.646  27.038  33.882  1.00  0.00     0.058 A 
ATOM     62  C   UNL A   1      47.901  27.556  33.528  1.00  0.00     0.135 A 
ATOM     63  C   UNL A   1      46.590  26.038  34.863  1.00  0.00     0.135 A 
ATOM     64  F   UNL A   1      48.000  28.512  32.591  1.00  0.00    -0.206 F 
ATOM     65  C   UNL A   1      49.070  27.063  34.093  1.00  0.00     0.059 A 
ATOM     66  C   UNL A   1      47.746  25.546  35.459  1.00  0.00     0.059 A 
ATOM     67  F   UNL A   1      45.408  25.527  35.240  1.00  0.00    -0.206 F 
ATOM     68  C   UNL A   1      48.982  26.046  35.046  1.00  0.00     0.060 A 
BRANCH  68  69
ATOM     69  S   UNL A   1      50.511  25.379  35.732  1.00  0.00     0.124 S 
ATOM     70  O   UNL A   1      50.009  24.547  36.820  1.00  0.00    -0.237 OA
ATOM     71  O   UNL A   1      51.073  24.663  34.591  1.00  0.00    -0.237 OA
ATOM     72  O   UNL A   1      51.247  26.572  36.139  1.00  0.00    -0.744 OA
ENDBRANCH  68  69
ENDBRANCH  36  61
ENDBRANCH  10  11
ENDBRANCH   3   5
ENDBRANCH   2   3
ENDBRANCH   1   2
BRANCH   1  73
ATOM     73  C   UNL A   1      34.937  33.405  28.086  1.00  0.00     0.275 C 
BRANCH  73  74
ATOM     74  O   UNL A   1      34.733  34.365  29.145  1.00  0.00    -0.458 OA
BRANCH  74  75
ATOM     75  C   UNL A   1      33.480  34.827  29.357  1.00  0.00     0.345 C 
ATOM     76  O   UNL A   1      32.538  34.757  28.589  1.00  0.00    -0.246 OA
BRANCH  75  77
ATOM     77  C   UNL A   1      33.479  35.640  30.587  1.00  0.00     0.138 A 
ATOM     78  C   UNL A   1      33.470  37.023  30.337  1.00  0.00     0.141 A 
ATOM     79  C   UNL A   1      33.406  35.194  31.914  1.00  0.00     0.144 A 
ATOM     80  F   UNL A   1      33.515  37.484  29.076  1.00  0.00    -0.206 F 
ATOM     81  C   UNL A   1      33.411  37.962  31.365  1.00  0.00     0.040 A 
ATOM     82  C   UNL A   1      33.380  36.165  32.945  1.00  0.00     0.048 A 
ATOM     83  C   UNL A   1      33.386  37.532  32.680  1.00  0.00     0.007 A 
BRANCH  79  84
ATOM     84  O   UNL A   1      33.361  33.940  32.475  1.00  0.00    -0.456 OA
BRANCH  84  85
ATOM     85  C   UNL A   1      34.457  33.259  32.911  1.00  0.00     0.128 A 
ATOM     86  C   UNL A   1      35.004  32.313  32.041  1.00  0.00     0.047 A 
ATOM     87  C   UNL A   1      35.160  33.649  34.045  1.00  0.00     0.067 A 
ATOM     88  C   UNL A   1      36.199  31.670  32.363  1.00  0.00     0.005 A 
ATOM     89  C   UNL A   1      36.344  32.992  34.373  1.00  0.00     0.044 A 
ATOM     90  C   UNL A   1      36.862  31.997  33.542  1.00  0.00     0.021 A 
ATOM     91  Cl  UNL A   1      37.193  33.426  35.805  1.00  0.00    -0.084 Cl
ENDBRANCH  84  85
ENDBRANCH  79  84
ENDBRANCH  75  77
ENDBRANCH  74  75
ENDBRANCH  73  74
ENDBRANCH   1  73
TORSDOF 16
ENDMDL
MODEL 2
REMARK VINA RESULT:     -10.8      3.719     12.114
REMARK SMILES O=C(OCCOC(=O)c1c(F)cccc1Oc1cccc(Cl)c1)c1ccc(-c2c3nc(c(-c4c(F)cc(S(=O)(=O)[O-])cc4F)c4ccc([nH]4)c(-c4c(F)cc(S(=O)(=O)[O-])cc4F)c4nc(c(-c5c(F)cc(S(=O)(=O)[O-])cc5F)c5ccc2[nH]5)C=C4)C=C3)cc1
REMARK SMILES IDX 4 1 3 2 2 3 1 4 24 5 25 6 89 7 26 8 88 9 27 10 28 11 29 12
REMARK SMILES IDX 82 13 30 14 87 15 81 16 83 17 31 18 86 19 80 20 79 21 32 23
REMARK SMILES IDX 66 24 45 25 65 26 46 27 49 28 64 29 84 30 47 31 48 32 63 34
REMARK SMILES IDX 85 35 50 36 33 37 34 38 43 39 35 40 36 41 42 42 44 43 37 44
REMARK SMILES IDX 38 45 39 46 40 47 41 48 67 49 68 50 77 51 69 52 70 53 76 54
REMARK SMILES IDX 78 55 71 56 72 57 73 58 74 59 75 60 51 61 52 62 61 63 53 64
REMARK SMILES IDX 54 65 60 66 62 67 55 68 56 69 57 70 58 71 59 72 5 73 6 74
REMARK SMILES IDX 7 75 8 76 9 77 10 78 15 79 11 80 12 81 14 82 13 83 16 84
REMARK SMILES IDX 17 85 18 86 23 87 19 88 21 89 20 90 22 91
REMARK H PARENT 83 22 49 33
REMARK Flexibility Score: inf
ROOT
ATOM      1  C   UNL A   1      45.599  24.915  25.646  1.00  0.00     0.275 C 
ENDROOT
BRANCH   1   2
ATOM      2  O   UNL A   1      44.655  25.106  26.703  1.00  0.00    -0.458 OA
BRANCH   2   3
ATOM      3  C   UNL A   1      43.638  25.953  26.391  1.00  0.00     0.338 C 
ATOM      4  O   UNL A   1      43.325  26.322  25.276  1.00  0.00    -0.246 OA
BRANCH   3   5
ATOM      5  C   UNL A   1      43.171  26.569  27.658  1.00  0.00     0.060 A 
ATOM      6  C   UNL A   1      43.739  27.766  28.103  1.00  0.00     0.016 A 
ATOM      7  C   UNL A   1      42.038  26.045  28.295  1.00  0.00     0.016 A 
ATOM      8  C   UNL A   1      43.160  28.458  29.150  1.00  0.00     0.010 A 
ATOM      9  C   UNL A   1      41.438  26.752  29.336  1.00  0.00     0.010 A 
ATOM     10  C   UNL A   1      42.003  27.961  29.759  1.00  0.00    -0.014 A 
BRANCH  10  11
ATOM     11  C   UNL A   1      41.479  28.706  30.913  1.00  0.00     0.031 A 
ATOM     12  C   UNL A   1      42.188  28.559  32.219  1.00  0.00     0.074 A 
ATOM     13  C   UNL A   1      40.488  29.598  30.729  1.00  0.00     0.049 A 
ATOM     14  N   UNL A   1      42.067  29.280  33.297  1.00  0.00    -0.248 NA
ATOM     15  C   UNL A   1      43.196  27.487  32.315  1.00  0.00     0.031 C 
ATOM     16  C   UNL A   1      39.791  29.832  29.463  1.00  0.00     0.029 A 
ATOM     17  N   UNL A   1      39.905  30.482  31.595  1.00  0.00    -0.354 N 
ATOM     18  C   UNL A   1      43.033  28.802  34.170  1.00  0.00     0.074 A 
ATOM     19  C   UNL A   1      43.671  27.672  33.538  1.00  0.00     0.031 C 
ATOM     20  C   UNL A   1      38.837  30.759  29.648  1.00  0.00     0.029 A 
ATOM     21  C   UNL A   1      38.878  31.205  31.035  1.00  0.00     0.049 A 
ATOM     22  H   UNL A   1      40.192  30.589  32.530  1.00  0.00     0.167 HD
ATOM     23  C   UNL A   1      43.383  29.309  35.371  1.00  0.00     0.037 A 
ATOM     24  C   UNL A   1      38.073  32.130  31.590  1.00  0.00     0.037 A 
ATOM     25  C   UNL A   1      42.713  30.426  35.974  1.00  0.00     0.049 A 
ATOM     26  C   UNL A   1      38.386  32.580  32.990  1.00  0.00     0.074 A 
ATOM     27  C   UNL A   1      42.986  31.046  37.176  1.00  0.00     0.029 A 
ATOM     28  N   UNL A   1      41.620  31.077  35.416  1.00  0.00    -0.354 N 
ATOM     29  N   UNL A   1      39.362  32.181  33.774  1.00  0.00    -0.248 NA
ATOM     30  C   UNL A   1      37.528  33.617  33.574  1.00  0.00     0.031 C 
ATOM     31  C   UNL A   1      42.023  32.043  37.370  1.00  0.00     0.029 A 
ATOM     32  C   UNL A   1      41.176  32.068  36.269  1.00  0.00     0.049 A 
ATOM     33  H   UNL A   1      41.221  30.864  34.541  1.00  0.00     0.167 HD
ATOM     34  C   UNL A   1      39.259  32.941  34.930  1.00  0.00     0.074 A 
ATOM     35  C   UNL A   1      38.120  33.822  34.745  1.00  0.00     0.031 C 
ATOM     36  C   UNL A   1      40.039  32.925  36.038  1.00  0.00     0.037 A 
BRANCH  23  37
ATOM     37  C   UNL A   1      44.536  28.670  36.083  1.00  0.00     0.058 A 
ATOM     38  C   UNL A   1      44.332  27.605  36.971  1.00  0.00     0.135 A 
ATOM     39  C   UNL A   1      45.851  29.132  35.900  1.00  0.00     0.135 A 
ATOM     40  F   UNL A   1      43.098  27.111  37.163  1.00  0.00    -0.206 F 
ATOM     41  C   UNL A   1      45.389  27.028  37.666  1.00  0.00     0.059 A 
ATOM     42  C   UNL A   1      46.925  28.559  36.572  1.00  0.00     0.059 A 
ATOM     43  F   UNL A   1      46.102  30.127  35.034  1.00  0.00    -0.206 F 
ATOM     44  C   UNL A   1      46.682  27.515  37.463  1.00  0.00     0.060 A 
BRANCH  44  45
ATOM     45  S   UNL A   1      48.046  26.738  38.356  1.00  0.00     0.124 S 
ATOM     46  O   UNL A   1      48.819  26.149  37.268  1.00  0.00    -0.237 OA
ATOM     47  O   UNL A   1      48.659  27.878  39.029  1.00  0.00    -0.237 OA
ATOM     48  O   UNL A   1      47.375  25.787  39.238  1.00  0.00    -0.744 OA
ENDBRANCH  44  45
ENDBRANCH  23  37
BRANCH  24  49
ATOM     49  C   UNL A   1      36.923  32.672  30.818  1.00  0.00     0.058 A 
ATOM     50  C   UNL A   1      37.122  33.698  29.878  1.00  0.00     0.135 A 
ATOM     51  C   UNL A   1      35.613  32.212  31.010  1.00  0.00     0.135 A 
ATOM     52  F   UNL A   1      38.354  34.186  29.666  1.00  0.00    -0.206 F 
ATOM     53  C   UNL A   1      36.066  34.252  29.164  1.00  0.00     0.059 A 
ATOM     54  C   UNL A   1      34.539  32.741  30.294  1.00  0.00     0.059 A 
ATOM     55  F   UNL A   1      35.369  31.235  31.895  1.00  0.00    -0.206 F 
ATOM     56  C   UNL A   1      34.777  33.767  29.379  1.00  0.00     0.060 A 
BRANCH  56  57
ATOM     57  S   UNL A   1      33.421  34.501  28.436  1.00  0.00     0.124 S 
ATOM     58  O   UNL A   1      32.545  34.973  29.503  1.00  0.00    -0.237 OA
ATOM     59  O   UNL A   1      34.109  35.538  27.673  1.00  0.00    -0.237 OA
ATOM     60  O   UNL A   1      32.910  33.381  27.652  1.00  0.00    -0.744 OA
ENDBRANCH  56  57
ENDBRANCH  24  49
BRANCH  36  61
ATOM     61  C   UNL A   1      39.697  33.884  37.137  1.00  0.00     0.058 A 
ATOM     62  C   UNL A   1      40.345  35.126  37.220  1.00  0.00     0.135 A 
ATOM     63  C   UNL A   1      38.838  33.509  38.179  1.00  0.00     0.135 A 
ATOM     64  F   UNL A   1      41.179  35.521  36.246  1.00  0.00    -0.206 F 
ATOM     65  C   UNL A   1      40.185  35.949  38.327  1.00  0.00     0.059 A 
ATOM     66  C   UNL A   1      38.645  34.328  39.286  1.00  0.00     0.059 A 
ATOM     67  F   UNL A   1      38.188  32.336  38.131  1.00  0.00    -0.206 F 
ATOM     68  C   UNL A   1      39.345  35.533  39.362  1.00  0.00     0.060 A 
BRANCH  68  69
ATOM     69  S   UNL A   1      39.188  36.589  40.816  1.00  0.00     0.124 S 
ATOM     70  O   UNL A   1      38.408  37.703  40.291  1.00  0.00    -0.237 OA
ATOM     71  O   UNL A   1      38.495  35.715  41.757  1.00  0.00    -0.237 OA
ATOM     72  O   UNL A   1      40.573  36.896  41.160  1.00  0.00    -0.744 OA
ENDBRANCH  68  69
ENDBRANCH  36  61
ENDBRANCH  10  11
ENDBRANCH   3   5
ENDBRANCH   2   3
ENDBRANCH   1   2
BRANCH   1  73
ATOM     73  C   UNL A   1      45.592  23.458  25.155  1.00  0.00     0.275 C 
BRANCH  73  74
ATOM     74  O   UNL A   1      44.679  22.628  25.904  1.00  0.00    -0.458 OA
BRANCH  74  75
ATOM     75  C   UNL A   1      43.553  22.200  25.290  1.00  0.00     0.345 C 
ATOM     76  O   UNL A   1      42.816  22.859  24.578  1.00  0.00    -0.246 OA
BRANCH  75  77
ATOM     77  C   UNL A   1      43.221  20.856  25.795  1.00  0.00     0.138 A 
ATOM     78  C   UNL A   1      43.975  19.835  25.190  1.00  0.00     0.141 A 
ATOM     79  C   UNL A   1      42.334  20.517  26.826  1.00  0.00     0.144 A 
ATOM     80  F   UNL A   1      44.852  20.127  24.215  1.00  0.00    -0.206 F 
ATOM     81  C   UNL A   1      43.854  18.500  25.568  1.00  0.00     0.040 A 
ATOM     82  C   UNL A   1      42.202  19.151  27.172  1.00  0.00     0.048 A 
ATOM     83  C   UNL A   1      42.946  18.150  26.552  1.00  0.00     0.007 A 
BRANCH  79  84
ATOM     84  O   UNL A   1      41.501  21.267  27.622  1.00  0.00    -0.456 OA
BRANCH  84  85
ATOM     85  C   UNL A   1      40.380  21.897  27.174  1.00  0.00     0.128 A 
ATOM     86  C   UNL A   1      40.241  23.249  27.496  1.00  0.00     0.047 A 
ATOM     87  C   UNL A   1      39.539  21.317  26.231  1.00  0.00     0.067 A 
ATOM     88  C   UNL A   1      39.188  23.994  26.965  1.00  0.00     0.005 A 
ATOM     89  C   UNL A   1      38.477  22.058  25.717  1.00  0.00     0.044 A 
ATOM     90  C   UNL A   1      38.292  23.391  26.087  1.00  0.00     0.021 A 
ATOM     91  Cl  UNL A   1      37.394  21.333  24.593  1.00  0.00    -0.084 Cl
ENDBRANCH  84  85
ENDBRANCH  79  84
ENDBRANCH  75  77
ENDBRANCH  74  75
ENDBRANCH  73  74
ENDBRANCH   1  73
TORSDOF 16
ENDMDL
MODEL 3
REMARK VINA RESULT:     -10.8      3.766     12.164
REMARK SMILES O=C(OCCOC(=O)c1c(F)cccc1Oc1cccc(Cl)c1)c1ccc(-c2c3nc(c(-c4c(F)cc(S(=O)(=O)[O-])cc4F)c4ccc([nH]4)c(-c4c(F)cc(S(=O)(=O)[O-])cc4F)c4nc(c(-c5c(F)cc(S(=O)(=O)[O-])cc5F)c5ccc2[nH]5)C=C4)C=C3)cc1
REMARK SMILES IDX 4 1 3 2 2 3 1 4 24 5 25 6 89 7 26 8 88 9 27 10 28 11 29 12
REMARK SMILES IDX 82 13 30 14 87 15 81 16 83 17 31 18 86 19 80 20 79 21 32 23
REMARK SMILES IDX 66 24 45 25 65 26 46 27 49 28 64 29 84 30 47 31 48 32 63 34
REMARK SMILES IDX 85 35 50 36 33 37 34 38 43 39 35 40 36 41 42 42 44 43 37 44
REMARK SMILES IDX 38 45 39 46 40 47 41 48 67 49 68 50 77 51 69 52 70 53 76 54
REMARK SMILES IDX 78 55 71 56 72 57 73 58 74 59 75 60 51 61 52 62 61 63 53 64
REMARK SMILES IDX 54 65 60 66 62 67 55 68 56 69 57 70 58 71 59 72 5 73 6 74
REMARK SMILES IDX 7 75 8 76 9 77 10 78 15 79 11 80 12 81 14 82 13 83 16 84
REMARK SMILES IDX 17 85 18 86 23 87 19 88 21 89 20 90 22 91
REMARK H PARENT 83 22 49 33
REMARK Flexibility Score: inf
ROOT
ATOM      1  C   UNL A   1      45.746  24.885  25.764  1.00  0.00     0.275 C 
ENDROOT
BRANCH   1   2
ATOM      2  O   UNL A   1      44.829  25.172  26.823  1.00  0.00    -0.458 OA
BRANCH   2   3
ATOM      3  C   UNL A   1      43.870  26.078  26.495  1.00  0.00     0.338 C 
ATOM      4  O   UNL A   1      43.628  26.500  25.380  1.00  0.00    -0.246 OA
BRANCH   3   5
ATOM      5  C   UNL A   1      43.374  26.675  27.760  1.00  0.00     0.060 A 
ATOM      6  C   UNL A   1      43.876  27.905  28.195  1.00  0.00     0.016 A 
ATOM      7  C   UNL A   1      42.274  26.093  28.403  1.00  0.00     0.016 A 
ATOM      8  C   UNL A   1      43.264  28.570  29.241  1.00  0.00     0.010 A 
ATOM      9  C   UNL A   1      41.640  26.772  29.443  1.00  0.00     0.010 A 
ATOM     10  C   UNL A   1      42.139  28.013  29.857  1.00  0.00    -0.014 A 
BRANCH  10  11
ATOM     11  C   UNL A   1      41.578  28.736  31.009  1.00  0.00     0.031 A 
ATOM     12  C   UNL A   1      42.247  28.565  32.333  1.00  0.00     0.074 A 
ATOM     13  C   UNL A   1      40.590  29.628  30.812  1.00  0.00     0.049 A 
ATOM     14  N   UNL A   1      42.093  29.265  33.419  1.00  0.00    -0.248 NA
ATOM     15  C   UNL A   1      43.255  27.494  32.439  1.00  0.00     0.031 C 
ATOM     16  C   UNL A   1      39.931  29.885  29.529  1.00  0.00     0.029 A 
ATOM     17  N   UNL A   1      39.979  30.494  31.676  1.00  0.00    -0.354 N 
ATOM     18  C   UNL A   1      43.033  28.772  34.312  1.00  0.00     0.074 A 
ATOM     19  C   UNL A   1      43.693  27.656  33.678  1.00  0.00     0.031 C 
ATOM     20  C   UNL A   1      38.969  30.806  29.703  1.00  0.00     0.029 A 
ATOM     21  C   UNL A   1      38.968  31.225  31.100  1.00  0.00     0.049 A 
ATOM     22  H   UNL A   1      40.238  30.584  32.621  1.00  0.00     0.167 HD
ATOM     23  C   UNL A   1      43.345  29.257  35.532  1.00  0.00     0.037 A 
ATOM     24  C   UNL A   1      38.143  32.139  31.647  1.00  0.00     0.037 A 
ATOM     25  C   UNL A   1      42.655  30.361  36.136  1.00  0.00     0.049 A 
ATOM     26  C   UNL A   1      38.413  32.562  33.064  1.00  0.00     0.074 A 
ATOM     27  C   UNL A   1      42.889  30.959  37.357  1.00  0.00     0.029 A 
ATOM     28  N   UNL A   1      41.577  31.021  35.557  1.00  0.00    -0.354 N 
ATOM     29  N   UNL A   1      39.366  32.150  33.870  1.00  0.00    -0.248 NA
ATOM     30  C   UNL A   1      37.535  33.586  33.641  1.00  0.00     0.031 C 
ATOM     31  C   UNL A   1      41.919  31.949  37.541  1.00  0.00     0.029 A 
ATOM     32  C   UNL A   1      41.105  31.994  36.415  1.00  0.00     0.049 A 
ATOM     33  H   UNL A   1      41.205  30.823  34.667  1.00  0.00     0.167 HD
ATOM     34  C   UNL A   1      39.226  32.889  35.036  1.00  0.00     0.074 A 
ATOM     35  C   UNL A   1      38.091  33.770  34.833  1.00  0.00     0.031 C 
ATOM     36  C   UNL A   1      39.973  32.853  36.167  1.00  0.00     0.037 A 
BRANCH  23  37
ATOM     37  C   UNL A   1      44.478  28.608  36.267  1.00  0.00     0.058 A 
ATOM     38  C   UNL A   1      44.253  27.513  37.112  1.00  0.00     0.135 A 
ATOM     39  C   UNL A   1      45.794  29.088  36.147  1.00  0.00     0.135 A 
ATOM     40  F   UNL A   1      43.019  27.001  37.242  1.00  0.00    -0.206 F 
ATOM     41  C   UNL A   1      45.290  26.924  37.828  1.00  0.00     0.059 A 
ATOM     42  C   UNL A   1      46.848  28.505  36.841  1.00  0.00     0.059 A 
ATOM     43  F   UNL A   1      46.065  30.113  35.323  1.00  0.00    -0.206 F 
ATOM     44  C   UNL A   1      46.584  27.430  37.689  1.00  0.00     0.060 A 
BRANCH  44  45
ATOM     45  S   UNL A   1      47.922  26.639  38.607  1.00  0.00     0.124 S 
ATOM     46  O   UNL A   1      47.219  26.122  39.776  1.00  0.00    -0.237 OA
ATOM     47  O   UNL A   1      48.397  25.639  37.655  1.00  0.00    -0.237 OA
ATOM     48  O   UNL A   1      48.851  27.736  38.865  1.00  0.00    -0.744 OA
ENDBRANCH  44  45
ENDBRANCH  23  37
BRANCH  24  49
ATOM     49  C   UNL A   1      37.016  32.692  30.851  1.00  0.00     0.058 A 
ATOM     50  C   UNL A   1      35.724  32.157  30.986  1.00  0.00     0.135 A 
ATOM     51  C   UNL A   1      37.195  33.733  29.929  1.00  0.00     0.135 A 
ATOM     52  F   UNL A   1      35.500  31.148  31.843  1.00  0.00    -0.206 F 
ATOM     53  C   UNL A   1      34.654  32.626  30.233  1.00  0.00     0.059 A 
ATOM     54  C   UNL A   1      36.134  34.232  29.174  1.00  0.00     0.059 A 
ATOM     55  F   UNL A   1      38.408  34.279  29.763  1.00  0.00    -0.206 F 
ATOM     56  C   UNL A   1      34.869  33.664  29.328  1.00  0.00     0.060 A 
BRANCH  56  57
ATOM     57  S   UNL A   1      33.462  34.260  28.363  1.00  0.00     0.124 S 
ATOM     58  O   UNL A   1      33.084  33.060  27.624  1.00  0.00    -0.237 OA
ATOM     59  O   UNL A   1      32.534  34.681  29.409  1.00  0.00    -0.237 OA
ATOM     60  O   UNL A   1      34.033  35.338  27.562  1.00  0.00    -0.744 OA
ENDBRANCH  56  57
ENDBRANCH  24  49
BRANCH  36  61
ATOM     61  C   UNL A   1      39.595  33.790  37.273  1.00  0.00     0.058 A 
ATOM     62  C   UNL A   1      40.190  35.058  37.361  1.00  0.00     0.135 A 
ATOM     63  C   UNL A   1      38.758  33.373  38.317  1.00  0.00     0.135 A 
ATOM     64  F   UNL A   1      41.002  35.494  36.385  1.00  0.00    -0.206 F 
ATOM     65  C   UNL A   1      40.000  35.867  38.473  1.00  0.00     0.059 A 
ATOM     66  C   UNL A   1      38.535  34.176  39.429  1.00  0.00     0.059 A 
ATOM     67  F   UNL A   1      38.158  32.173  38.264  1.00  0.00    -0.206 F 
ATOM     68  C   UNL A   1      39.183  35.410  39.509  1.00  0.00     0.060 A 
BRANCH  68  69
ATOM     69  S   UNL A   1      38.989  36.450  40.970  1.00  0.00     0.124 S 
ATOM     70  O   UNL A   1      38.522  37.701  40.383  1.00  0.00    -0.237 OA
ATOM     71  O   UNL A   1      38.002  35.706  41.747  1.00  0.00    -0.237 OA
ATOM     72  O   UNL A   1      40.331  36.483  41.541  1.00  0.00    -0.744 OA
ENDBRANCH  68  69
ENDBRANCH  36  61
ENDBRANCH  10  11
ENDBRANCH   3   5
ENDBRANCH   2   3
ENDBRANCH   1   2
BRANCH   1  73
ATOM     73  C   UNL A   1      45.811  23.375  25.482  1.00  0.00     0.275 C 
BRANCH  73  74
ATOM     74  O   UNL A   1      44.741  22.648  26.123  1.00  0.00    -0.458 OA
BRANCH  74  75
ATOM     75  C   UNL A   1      43.691  22.254  25.366  1.00  0.00     0.345 C 
ATOM     76  O   UNL A   1      43.032  22.951  24.617  1.00  0.00    -0.246 OA
BRANCH  75  77
ATOM     77  C   UNL A   1      43.318  20.882  25.755  1.00  0.00     0.138 A 
ATOM     78  C   UNL A   1      44.063  19.895  25.087  1.00  0.00     0.141 A 
ATOM     79  C   UNL A   1      42.400  20.485  26.737  1.00  0.00     0.144 A 
ATOM     80  F   UNL A   1      44.968  20.242  24.157  1.00  0.00    -0.206 F 
ATOM     81  C   UNL A   1      43.903  18.537  25.354  1.00  0.00     0.040 A 
ATOM     82  C   UNL A   1      42.229  19.098  26.969  1.00  0.00     0.048 A 
ATOM     83  C   UNL A   1      42.965  18.132  26.287  1.00  0.00     0.007 A 
BRANCH  79  84
ATOM     84  O   UNL A   1      41.565  21.188  27.572  1.00  0.00    -0.456 OA
BRANCH  84  85
ATOM     85  C   UNL A   1      40.460  21.865  27.154  1.00  0.00     0.128 A 
ATOM     86  C   UNL A   1      40.396  23.226  27.462  1.00  0.00     0.047 A 
ATOM     87  C   UNL A   1      39.561  21.314  26.249  1.00  0.00     0.067 A 
ATOM     88  C   UNL A   1      39.361  24.013  26.957  1.00  0.00     0.005 A 
ATOM     89  C   UNL A   1      38.517  22.097  25.762  1.00  0.00     0.044 A 
ATOM     90  C   UNL A   1      38.406  23.442  26.119  1.00  0.00     0.021 A 
ATOM     91  Cl  UNL A   1      37.362  21.410  24.686  1.00  0.00    -0.084 Cl
ENDBRANCH  84  85
ENDBRANCH  79  84
ENDBRANCH  75  77
ENDBRANCH  74  75
ENDBRANCH  73  74
ENDBRANCH   1  73
TORSDOF 16
ENDMDL
