MODEL 1
REMARK VINA RESULT:     -11.9      0.000      0.000
REMARK SMILES NS(=O)(=O)c1ccc(N2N=C(C(=O)OCCOC(=O)c3ccc(-c4c5nc(c(-c6c(F)cc(S(=O)(=O)[O-])cc6F)c6ccc([nH]6)c(-c6c(F)cc(S(=O)(=O)[O-])cc6F)c6nc(c(-c7c(F)cc(S(=O)(=O)[O-])cc7F)c7ccc4[nH]7)C=C6)C=C5)cc3)C[C@H]2c2ccco2)cc1
REMARK SMILES IDX 15 1 14 2 12 3 13 4 11 5 9 6 10 7 87 8 86 9 8 10 5 11 6 12
REMARK SMILES IDX 94 13 7 14 93 15 2 16 3 17 4 18 1 19 88 22 89 23 92 24 90 25
REMARK SMILES IDX 91 26 16 27 17 28 18 29 19 30 20 31 21 32 85 33 22 34 84 35
REMARK SMILES IDX 23 36 24 37 25 38 78 39 26 40 83 41 77 42 79 43 27 44 82 45
REMARK SMILES IDX 76 46 75 47 28 49 62 50 41 51 61 52 42 53 45 54 60 55 80 56
REMARK SMILES IDX 43 57 44 58 59 60 81 61 46 62 29 63 30 64 39 65 31 66 32 67
REMARK SMILES IDX 38 68 40 69 33 70 34 71 35 72 36 73 37 74 63 75 64 76 73 77
REMARK SMILES IDX 65 78 66 79 72 80 74 81 67 82 68 83 69 84 70 85 71 86 47 87
REMARK SMILES IDX 48 88 57 89 49 90 50 91 56 92 58 93 51 94 52 95 53 96 54 97
REMARK SMILES IDX 55 98
REMARK H PARENT 1 20 1 21 79 48 45 59
REMARK Flexibility Score: inf
ROOT
ATOM      1  C   UNL A   1      36.953  23.557  24.872  1.00  0.00     0.275 C 
ENDROOT
BRANCH   1   2
ATOM      2  O   UNL A   1      35.631  24.032  25.195  1.00  0.00    -0.458 OA
BRANCH   2   3
ATOM      3  C   UNL A   1      34.847  24.330  24.138  1.00  0.00     0.354 C 
ATOM      4  O   UNL A   1      34.952  23.916  22.999  1.00  0.00    -0.245 OA
BRANCH   3   5
ATOM      5  C   UNL A   1      33.694  25.204  24.569  1.00  0.00     0.148 C 
ATOM      6  N   UNL A   1      32.090  26.581  24.458  1.00  0.00    -0.254 N 
ATOM      7  N   UNL A   1      33.040  25.951  23.732  1.00  0.00    -0.169 NA
ATOM      8  C   UNL A   1      32.331  26.481  25.902  1.00  0.00     0.180 C 
ATOM      9  C   UNL A   1      33.188  25.201  25.972  1.00  0.00     0.101 C 
BRANCH   6  10
ATOM     10  C   UNL A   1      31.209  27.445  23.829  1.00  0.00     0.060 A 
ATOM     11  C   UNL A   1      29.380  29.244  22.666  1.00  0.00     0.082 A 
ATOM     12  C   UNL A   1      28.911  28.085  23.283  1.00  0.00     0.024 A 
ATOM     13  C   UNL A   1      30.751  29.479  22.563  1.00  0.00     0.024 A 
ATOM     14  C   UNL A   1      29.829  27.190  23.852  1.00  0.00     0.029 A 
ATOM     15  C   UNL A   1      31.653  28.577  23.134  1.00  0.00     0.029 A 
BRANCH  11  16
ATOM     16  S   UNL A   1      28.282  30.457  21.994  1.00  0.00     0.238 S 
ATOM     17  O   UNL A   1      27.217  30.688  22.938  1.00  0.00    -0.207 OA
ATOM     18  O   UNL A   1      28.024  30.091  20.616  1.00  0.00    -0.207 OA
BRANCH  16  19
ATOM     19  N   UNL A   1      29.174  31.873  21.939  1.00  0.00    -0.225 NA
ATOM     20  H   UNL A   1      29.662  32.001  22.824  1.00  0.00     0.137 HD
ATOM     21  H   UNL A   1      28.549  32.662  21.776  1.00  0.00     0.137 HD
ENDBRANCH  16  19
ENDBRANCH  11  16
ENDBRANCH   6  10
BRANCH   8  22
ATOM     22  C   UNL A   1      33.019  27.662  26.525  1.00  0.00     0.128 A 
ATOM     23  C   UNL A   1      32.543  28.772  27.196  1.00  0.00     0.048 A 
ATOM     24  O   UNL A   1      34.377  27.756  26.393  1.00  0.00    -0.467 OA
ATOM     25  C   UNL A   1      33.660  29.605  27.444  1.00  0.00     0.042 A 
ATOM     26  C   UNL A   1      34.753  28.936  26.946  1.00  0.00     0.195 A 
ENDBRANCH   8  22
ENDBRANCH   3   5
ENDBRANCH   2   3
ENDBRANCH   1   2
BRANCH   1  27
ATOM     27  C   UNL A   1      37.837  23.515  26.123  1.00  0.00     0.275 C 
BRANCH  27  28
ATOM     28  O   UNL A   1      38.920  24.458  26.022  1.00  0.00    -0.458 OA
BRANCH  28  29
ATOM     29  C   UNL A   1      39.894  24.308  26.952  1.00  0.00     0.338 C 
ATOM     30  O   UNL A   1      40.777  23.467  26.964  1.00  0.00    -0.246 OA
BRANCH  29  31
ATOM     31  C   UNL A   1      39.826  25.415  27.914  1.00  0.00     0.060 A 
ATOM     32  C   UNL A   1      40.805  26.397  27.827  1.00  0.00     0.016 A 
ATOM     33  C   UNL A   1      38.896  25.444  28.948  1.00  0.00     0.016 A 
ATOM     34  C   UNL A   1      40.930  27.367  28.807  1.00  0.00     0.010 A 
ATOM     35  C   UNL A   1      38.957  26.483  29.888  1.00  0.00     0.010 A 
ATOM     36  C   UNL A   1      39.985  27.445  29.831  1.00  0.00    -0.014 A 
BRANCH  36  37
ATOM     37  C   UNL A   1      40.061  28.562  30.804  1.00  0.00     0.031 A 
ATOM     38  C   UNL A   1      41.027  28.509  31.951  1.00  0.00     0.074 A 
ATOM     39  C   UNL A   1      39.251  29.627  30.647  1.00  0.00     0.049 A 
ATOM     40  N   UNL A   1      41.146  29.322  32.967  1.00  0.00    -0.248 NA
ATOM     41  C   UNL A   1      41.978  27.388  31.962  1.00  0.00     0.031 C 
ATOM     42  C   UNL A   1      38.303  29.808  29.543  1.00  0.00     0.029 A 
ATOM     43  N   UNL A   1      39.084  30.750  31.414  1.00  0.00    -0.354 N 
ATOM     44  C   UNL A   1      42.153  28.791  33.763  1.00  0.00     0.074 A 
ATOM     45  C   UNL A   1      42.607  27.579  33.112  1.00  0.00     0.031 C 
ATOM     46  C   UNL A   1      37.658  30.971  29.702  1.00  0.00     0.029 A 
ATOM     47  C   UNL A   1      38.085  31.578  30.957  1.00  0.00     0.049 A 
ATOM     48  H   UNL A   1      39.625  30.946  32.212  1.00  0.00     0.167 HD
ATOM     49  C   UNL A   1      42.643  29.273  34.931  1.00  0.00     0.037 A 
ATOM     50  C   UNL A   1      37.528  32.671  31.511  1.00  0.00     0.037 A 
ATOM     51  C   UNL A   1      42.183  30.490  35.552  1.00  0.00     0.049 A 
ATOM     52  C   UNL A   1      38.044  33.155  32.833  1.00  0.00     0.074 A 
ATOM     53  C   UNL A   1      42.644  31.093  36.709  1.00  0.00     0.029 A 
ATOM     54  N   UNL A   1      41.143  31.279  35.079  1.00  0.00    -0.354 N 
ATOM     55  N   UNL A   1      39.007  32.655  33.570  1.00  0.00    -0.248 NA
ATOM     56  C   UNL A   1      37.392  34.337  33.408  1.00  0.00     0.031 C 
ATOM     57  C   UNL A   1      41.842  32.211  36.969  1.00  0.00     0.029 A 
ATOM     58  C   UNL A   1      40.916  32.339  35.944  1.00  0.00     0.049 A 
ATOM     59  H   UNL A   1      40.639  31.111  34.250  1.00  0.00     0.167 HD
ATOM     60  C   UNL A   1      39.076  33.458  34.701  1.00  0.00     0.074 A 
ATOM     61  C   UNL A   1      38.074  34.494  34.535  1.00  0.00     0.031 C 
ATOM     62  C   UNL A   1      39.894  33.346  35.778  1.00  0.00     0.037 A 
BRANCH  49  63
ATOM     63  C   UNL A   1      43.685  28.448  35.637  1.00  0.00     0.058 A 
ATOM     64  C   UNL A   1      43.351  27.469  36.588  1.00  0.00     0.135 A 
ATOM     65  C   UNL A   1      45.048  28.650  35.362  1.00  0.00     0.135 A 
ATOM     66  F   UNL A   1      42.066  27.239  36.899  1.00  0.00    -0.206 F 
ATOM     67  C   UNL A   1      44.331  26.761  37.278  1.00  0.00     0.059 A 
ATOM     68  C   UNL A   1      46.044  27.932  36.018  1.00  0.00     0.059 A 
ATOM     69  F   UNL A   1      45.427  29.568  34.459  1.00  0.00    -0.206 F 
ATOM     70  C   UNL A   1      45.676  27.008  36.993  1.00  0.00     0.060 A 
BRANCH  70  71
ATOM     71  S   UNL A   1      46.936  26.116  37.930  1.00  0.00     0.124 S 
ATOM     72  O   UNL A   1      46.156  25.018  38.493  1.00  0.00    -0.237 OA
ATOM     73  O   UNL A   1      47.893  25.747  36.892  1.00  0.00    -0.237 OA
ATOM     74  O   UNL A   1      47.410  27.106  38.892  1.00  0.00    -0.744 OA
ENDBRANCH  70  71
ENDBRANCH  49  63
BRANCH  50  75
ATOM     75  C   UNL A   1      36.384  33.324  30.821  1.00  0.00     0.058 A 
ATOM     76  C   UNL A   1      35.085  33.256  31.340  1.00  0.00     0.135 A 
ATOM     77  C   UNL A   1      36.591  34.109  29.673  1.00  0.00     0.135 A 
ATOM     78  F   UNL A   1      34.835  32.509  32.426  1.00  0.00    -0.206 F 
ATOM     79  C   UNL A   1      34.034  33.959  30.760  1.00  0.00     0.059 A 
ATOM     80  C   UNL A   1      35.562  34.841  29.090  1.00  0.00     0.059 A 
ATOM     81  F   UNL A   1      37.820  34.215  29.144  1.00  0.00    -0.206 F 
ATOM     82  C   UNL A   1      34.285  34.761  29.644  1.00  0.00     0.060 A 
BRANCH  82  83
ATOM     83  S   UNL A   1      32.935  35.749  28.962  1.00  0.00     0.124 S 
ATOM     84  O   UNL A   1      32.173  36.073  30.161  1.00  0.00    -0.237 OA
ATOM     85  O   UNL A   1      33.651  36.858  28.341  1.00  0.00    -0.237 OA
ATOM     86  O   UNL A   1      32.285  34.833  28.028  1.00  0.00    -0.744 OA
ENDBRANCH  82  83
ENDBRANCH  50  75
BRANCH  62  87
ATOM     87  C   UNL A   1      39.725  34.359  36.875  1.00  0.00     0.058 A 
ATOM     88  C   UNL A   1      39.028  34.052  38.054  1.00  0.00     0.135 A 
ATOM     89  C   UNL A   1      40.313  35.630  36.773  1.00  0.00     0.135 A 
ATOM     90  F   UNL A   1      38.436  32.855  38.197  1.00  0.00    -0.206 F 
ATOM     91  C   UNL A   1      38.908  34.974  39.089  1.00  0.00     0.059 A 
ATOM     92  C   UNL A   1      40.230  36.558  37.807  1.00  0.00     0.059 A 
ATOM     93  F   UNL A   1      40.996  35.973  35.669  1.00  0.00    -0.206 F 
ATOM     94  C   UNL A   1      39.518  36.223  38.958  1.00  0.00     0.060 A 
BRANCH  94  95
ATOM     95  S   UNL A   1      39.398  37.390  40.330  1.00  0.00     0.124 S 
ATOM     96  O   UNL A   1      38.508  36.681  41.244  1.00  0.00    -0.237 OA
ATOM     97  O   UNL A   1      40.788  37.506  40.762  1.00  0.00    -0.237 OA
ATOM     98  O   UNL A   1      38.838  38.587  39.711  1.00  0.00    -0.744 OA
ENDBRANCH  94  95
ENDBRANCH  62  87
ENDBRANCH  36  37
ENDBRANCH  29  31
ENDBRANCH  28  29
ENDBRANCH  27  28
ENDBRANCH   1  27
TORSDOF 18
ENDMDL
MODEL 2
REMARK VINA RESULT:     -11.9      5.880     11.295
REMARK SMILES NS(=O)(=O)c1ccc(N2N=C(C(=O)OCCOC(=O)c3ccc(-c4c5nc(c(-c6c(F)cc(S(=O)(=O)[O-])cc6F)c6ccc([nH]6)c(-c6c(F)cc(S(=O)(=O)[O-])cc6F)c6nc(c(-c7c(F)cc(S(=O)(=O)[O-])cc7F)c7ccc4[nH]7)C=C6)C=C5)cc3)C[C@H]2c2ccco2)cc1
REMARK SMILES IDX 15 1 14 2 12 3 13 4 11 5 9 6 10 7 87 8 86 9 8 10 5 11 6 12
REMARK SMILES IDX 94 13 7 14 93 15 2 16 3 17 4 18 1 19 88 22 89 23 92 24 90 25
REMARK SMILES IDX 91 26 16 27 17 28 18 29 19 30 20 31 21 32 85 33 22 34 84 35
REMARK SMILES IDX 23 36 24 37 25 38 78 39 26 40 83 41 77 42 79 43 27 44 82 45
REMARK SMILES IDX 76 46 75 47 28 49 62 50 41 51 61 52 42 53 45 54 60 55 80 56
REMARK SMILES IDX 43 57 44 58 59 60 81 61 46 62 29 63 30 64 39 65 31 66 32 67
REMARK SMILES IDX 38 68 40 69 33 70 34 71 35 72 36 73 37 74 63 75 64 76 73 77
REMARK SMILES IDX 65 78 66 79 72 80 74 81 67 82 68 83 69 84 70 85 71 86 47 87
REMARK SMILES IDX 48 88 57 89 49 90 50 91 56 92 58 93 51 94 52 95 53 96 54 97
REMARK SMILES IDX 55 98
REMARK H PARENT 1 20 1 21 79 48 45 59
REMARK Flexibility Score: inf
ROOT
ATOM      1  C   UNL A   1      32.113  27.725  26.518  1.00  0.00     0.275 C 
ENDROOT
BRANCH   1   2
ATOM      2  O   UNL A   1      32.888  26.612  26.029  1.00  0.00    -0.458 OA
BRANCH   2   3
ATOM      3  C   UNL A   1      32.325  25.397  26.191  1.00  0.00     0.354 C 
ATOM      4  O   UNL A   1      31.302  25.129  26.795  1.00  0.00    -0.245 OA
BRANCH   3   5
ATOM      5  C   UNL A   1      33.090  24.355  25.411  1.00  0.00     0.148 C 
ATOM      6  N   UNL A   1      33.723  22.460  24.709  1.00  0.00    -0.254 N 
ATOM      7  N   UNL A   1      32.871  23.082  25.555  1.00  0.00    -0.169 NA
ATOM      8  C   UNL A   1      34.772  23.357  24.211  1.00  0.00     0.180 C 
ATOM      9  C   UNL A   1      34.090  24.731  24.370  1.00  0.00     0.101 C 
BRANCH   6  10
ATOM     10  C   UNL A   1      33.712  21.078  24.622  1.00  0.00     0.060 A 
ATOM     11  C   UNL A   1      33.693  18.278  24.316  1.00  0.00     0.082 A 
ATOM     12  C   UNL A   1      32.541  19.011  24.034  1.00  0.00     0.024 A 
ATOM     13  C   UNL A   1      34.829  18.918  24.814  1.00  0.00     0.024 A 
ATOM     14  C   UNL A   1      32.556  20.405  24.197  1.00  0.00     0.029 A 
ATOM     15  C   UNL A   1      34.826  20.307  24.972  1.00  0.00     0.029 A 
BRANCH  11  16
ATOM     16  S   UNL A   1      33.776  16.529  24.063  1.00  0.00     0.238 S 
ATOM     17  O   UNL A   1      34.114  16.280  22.683  1.00  0.00    -0.207 OA
ATOM     18  O   UNL A   1      32.606  15.946  24.687  1.00  0.00    -0.207 OA
BRANCH  16  19
ATOM     19  N   UNL A   1      35.089  16.018  24.967  1.00  0.00    -0.225 NA
ATOM     20  H   UNL A   1      35.145  16.567  25.824  1.00  0.00     0.137 HD
ATOM     21  H   UNL A   1      35.944  16.144  24.425  1.00  0.00     0.137 HD
ENDBRANCH  16  19
ENDBRANCH  11  16
ENDBRANCH   6  10
BRANCH   8  22
ATOM     22  C   UNL A   1      36.083  23.285  24.942  1.00  0.00     0.128 A 
ATOM     23  C   UNL A   1      36.556  23.924  26.072  1.00  0.00     0.048 A 
ATOM     24  O   UNL A   1      37.069  22.499  24.415  1.00  0.00    -0.467 OA
ATOM     25  C   UNL A   1      37.912  23.544  26.213  1.00  0.00     0.042 A 
ATOM     26  C   UNL A   1      38.172  22.668  25.186  1.00  0.00     0.195 A 
ENDBRANCH   8  22
ENDBRANCH   3   5
ENDBRANCH   2   3
ENDBRANCH   1   2
BRANCH   1  27
ATOM     27  C   UNL A   1      32.969  28.993  26.593  1.00  0.00     0.275 C 
BRANCH  27  28
ATOM     28  O   UNL A   1      33.870  28.944  27.714  1.00  0.00    -0.458 OA
BRANCH  28  29
ATOM     29  C   UNL A   1      34.457  30.124  28.025  1.00  0.00     0.338 C 
ATOM     30  O   UNL A   1      33.914  31.209  28.142  1.00  0.00    -0.246 OA
BRANCH  29  31
ATOM     31  C   UNL A   1      35.873  29.897  28.344  1.00  0.00     0.060 A 
ATOM     32  C   UNL A   1      36.789  30.031  27.310  1.00  0.00     0.016 A 
ATOM     33  C   UNL A   1      36.290  29.460  29.597  1.00  0.00     0.016 A 
ATOM     34  C   UNL A   1      38.111  29.651  27.474  1.00  0.00     0.010 A 
ATOM     35  C   UNL A   1      37.647  29.169  29.797  1.00  0.00     0.010 A 
ATOM     36  C   UNL A   1      38.566  29.250  28.732  1.00  0.00    -0.014 A 
BRANCH  36  37
ATOM     37  C   UNL A   1      40.008  28.962  28.922  1.00  0.00     0.031 A 
ATOM     38  C   UNL A   1      40.945  30.038  29.386  1.00  0.00     0.074 A 
ATOM     39  C   UNL A   1      40.469  27.721  28.673  1.00  0.00     0.049 A 
ATOM     40  N   UNL A   1      42.248  30.011  29.484  1.00  0.00    -0.248 NA
ATOM     41  C   UNL A   1      40.337  31.316  29.783  1.00  0.00     0.031 C 
ATOM     42  C   UNL A   1      39.642  26.583  28.259  1.00  0.00     0.029 A 
ATOM     43  N   UNL A   1      41.739  27.207  28.717  1.00  0.00    -0.354 N 
ATOM     44  C   UNL A   1      42.623  31.279  29.912  1.00  0.00     0.074 A 
ATOM     45  C   UNL A   1      41.407  32.053  30.046  1.00  0.00     0.031 C 
ATOM     46  C   UNL A   1      40.423  25.508  28.093  1.00  0.00     0.029 A 
ATOM     47  C   UNL A   1      41.812  25.898  28.306  1.00  0.00     0.049 A 
ATOM     48  H   UNL A   1      42.522  27.725  29.015  1.00  0.00     0.167 HD
ATOM     49  C   UNL A   1      43.871  31.747  30.159  1.00  0.00     0.037 A 
ATOM     50  C   UNL A   1      42.878  25.110  28.067  1.00  0.00     0.037 A 
ATOM     51  C   UNL A   1      45.066  30.950  30.030  1.00  0.00     0.049 A 
ATOM     52  C   UNL A   1      44.252  25.665  28.289  1.00  0.00     0.074 A 
ATOM     53  C   UNL A   1      46.373  31.311  30.302  1.00  0.00     0.029 A 
ATOM     54  N   UNL A   1      45.102  29.640  29.573  1.00  0.00    -0.354 N 
ATOM     55  N   UNL A   1      44.596  26.860  28.708  1.00  0.00    -0.248 NA
ATOM     56  C   UNL A   1      45.383  24.777  27.995  1.00  0.00     0.031 C 
ATOM     57  C   UNL A   1      47.205  30.242  29.951  1.00  0.00     0.029 A 
ATOM     58  C   UNL A   1      46.412  29.191  29.511  1.00  0.00     0.049 A 
ATOM     59  H   UNL A   1      44.312  29.105  29.328  1.00  0.00     0.167 HD
ATOM     60  C   UNL A   1      45.985  26.872  28.724  1.00  0.00     0.074 A 
ATOM     61  C   UNL A   1      46.415  25.554  28.298  1.00  0.00     0.031 C 
ATOM     62  C   UNL A   1      46.825  27.884  29.057  1.00  0.00     0.037 A 
BRANCH  49  63
ATOM     63  C   UNL A   1      44.003  33.198  30.531  1.00  0.00     0.058 A 
ATOM     64  C   UNL A   1      43.969  33.638  31.865  1.00  0.00     0.135 A 
ATOM     65  C   UNL A   1      44.155  34.171  29.529  1.00  0.00     0.135 A 
ATOM     66  F   UNL A   1      43.815  32.757  32.865  1.00  0.00    -0.206 F 
ATOM     67  C   UNL A   1      44.028  34.992  32.186  1.00  0.00     0.059 A 
ATOM     68  C   UNL A   1      44.247  35.527  29.829  1.00  0.00     0.059 A 
ATOM     69  F   UNL A   1      44.200  33.809  28.237  1.00  0.00    -0.206 F 
ATOM     70  C   UNL A   1      44.156  35.929  31.160  1.00  0.00     0.060 A 
BRANCH  70  71
ATOM     71  S   UNL A   1      44.183  37.684  31.588  1.00  0.00     0.124 S 
ATOM     72  O   UNL A   1      43.369  37.698  32.800  1.00  0.00    -0.237 OA
ATOM     73  O   UNL A   1      45.608  37.937  31.779  1.00  0.00    -0.237 OA
ATOM     74  O   UNL A   1      43.586  38.328  30.423  1.00  0.00    -0.744 OA
ENDBRANCH  70  71
ENDBRANCH  49  63
BRANCH  50  75
ATOM     75  C   UNL A   1      42.654  23.740  27.534  1.00  0.00     0.058 A 
ATOM     76  C   UNL A   1      42.644  23.485  26.157  1.00  0.00     0.135 A 
ATOM     77  C   UNL A   1      42.539  22.641  28.404  1.00  0.00     0.135 A 
ATOM     78  F   UNL A   1      42.736  24.502  25.287  1.00  0.00    -0.206 F 
ATOM     79  C   UNL A   1      42.548  22.190  25.659  1.00  0.00     0.059 A 
ATOM     80  C   UNL A   1      42.468  21.335  27.931  1.00  0.00     0.059 A 
ATOM     81  F   UNL A   1      42.555  22.832  29.733  1.00  0.00    -0.206 F 
ATOM     82  C   UNL A   1      42.475  21.120  26.554  1.00  0.00     0.060 A 
BRANCH  82  83
ATOM     83  S   UNL A   1      42.456  19.437  25.897  1.00  0.00     0.124 S 
ATOM     84  O   UNL A   1      41.041  19.252  25.601  1.00  0.00    -0.237 OA
ATOM     85  O   UNL A   1      43.340  19.549  24.742  1.00  0.00    -0.237 OA
ATOM     86  O   UNL A   1      42.980  18.638  27.001  1.00  0.00    -0.744 OA
ENDBRANCH  82  83
ENDBRANCH  50  75
BRANCH  62  87
ATOM     87  C   UNL A   1      48.299  27.611  28.957  1.00  0.00     0.058 A 
ATOM     88  C   UNL A   1      49.008  27.021  30.016  1.00  0.00     0.135 A 
ATOM     89  C   UNL A   1      49.001  27.886  27.773  1.00  0.00     0.135 A 
ATOM     90  F   UNL A   1      48.387  26.749  31.176  1.00  0.00    -0.206 F 
ATOM     91  C   UNL A   1      50.363  26.726  29.909  1.00  0.00     0.059 A 
ATOM     92  C   UNL A   1      50.350  27.575  27.633  1.00  0.00     0.059 A 
ATOM     93  F   UNL A   1      48.370  28.444  26.728  1.00  0.00    -0.206 F 
ATOM     94  C   UNL A   1      51.024  27.002  28.711  1.00  0.00     0.060 A 
BRANCH  94  95
ATOM     95  S   UNL A   1      52.770  26.567  28.569  1.00  0.00     0.124 S 
ATOM     96  O   UNL A   1      52.750  25.618  27.461  1.00  0.00    -0.237 OA
ATOM     97  O   UNL A   1      53.391  27.858  28.286  1.00  0.00    -0.237 OA
ATOM     98  O   UNL A   1      53.087  25.999  29.877  1.00  0.00    -0.744 OA
ENDBRANCH  94  95
ENDBRANCH  62  87
ENDBRANCH  36  37
ENDBRANCH  29  31
ENDBRANCH  28  29
ENDBRANCH  27  28
ENDBRANCH   1  27
TORSDOF 18
ENDMDL
MODEL 3
REMARK VINA RESULT:     -11.6      1.422      2.185
REMARK SMILES NS(=O)(=O)c1ccc(N2N=C(C(=O)OCCOC(=O)c3ccc(-c4c5nc(c(-c6c(F)cc(S(=O)(=O)[O-])cc6F)c6ccc([nH]6)c(-c6c(F)cc(S(=O)(=O)[O-])cc6F)c6nc(c(-c7c(F)cc(S(=O)(=O)[O-])cc7F)c7ccc4[nH]7)C=C6)C=C5)cc3)C[C@H]2c2ccco2)cc1
REMARK SMILES IDX 15 1 14 2 12 3 13 4 11 5 9 6 10 7 87 8 86 9 8 10 5 11 6 12
REMARK SMILES IDX 94 13 7 14 93 15 2 16 3 17 4 18 1 19 88 22 89 23 92 24 90 25
REMARK SMILES IDX 91 26 16 27 17 28 18 29 19 30 20 31 21 32 85 33 22 34 84 35
REMARK SMILES IDX 23 36 24 37 25 38 78 39 26 40 83 41 77 42 79 43 27 44 82 45
REMARK SMILES IDX 76 46 75 47 28 49 62 50 41 51 61 52 42 53 45 54 60 55 80 56
REMARK SMILES IDX 43 57 44 58 59 60 81 61 46 62 29 63 30 64 39 65 31 66 32 67
REMARK SMILES IDX 38 68 40 69 33 70 34 71 35 72 36 73 37 74 63 75 64 76 73 77
REMARK SMILES IDX 65 78 66 79 72 80 74 81 67 82 68 83 69 84 70 85 71 86 47 87
REMARK SMILES IDX 48 88 57 89 49 90 50 91 56 92 58 93 51 94 52 95 53 96 54 97
REMARK SMILES IDX 55 98
REMARK H PARENT 1 20 1 21 79 48 45 59
REMARK Flexibility Score: inf
ROOT
ATOM      1  C   UNL A   1      36.982  23.312  25.604  1.00  0.00     0.275 C 
ENDROOT
BRANCH   1   2
ATOM      2  O   UNL A   1      36.489  22.386  24.616  1.00  0.00    -0.458 OA
BRANCH   2   3
ATOM      3  C   UNL A   1      36.140  22.930  23.432  1.00  0.00     0.354 C 
ATOM      4  O   UNL A   1      36.836  23.059  22.442  1.00  0.00    -0.245 OA
BRANCH   3   5
ATOM      5  C   UNL A   1      34.673  23.290  23.431  1.00  0.00     0.148 C 
ATOM      6  N   UNL A   1      32.912  24.462  23.361  1.00  0.00    -0.254 N 
ATOM      7  N   UNL A   1      34.262  24.518  23.329  1.00  0.00    -0.169 NA
ATOM      8  C   UNL A   1      32.416  23.159  23.822  1.00  0.00     0.180 C 
ATOM      9  C   UNL A   1      33.609  22.247  23.471  1.00  0.00     0.101 C 
BRANCH   6  10
ATOM     10  C   UNL A   1      32.176  25.629  23.252  1.00  0.00     0.060 A 
ATOM     11  C   UNL A   1      30.690  27.997  22.900  1.00  0.00     0.082 A 
ATOM     12  C   UNL A   1      32.070  28.011  22.697  1.00  0.00     0.024 A 
ATOM     13  C   UNL A   1      30.057  26.835  23.343  1.00  0.00     0.024 A 
ATOM     14  C   UNL A   1      32.803  26.829  22.882  1.00  0.00     0.029 A 
ATOM     15  C   UNL A   1      30.803  25.667  23.525  1.00  0.00     0.029 A 
BRANCH  11  16
ATOM     16  S   UNL A   1      29.687  29.425  22.613  1.00  0.00     0.238 S 
ATOM     17  O   UNL A   1      29.793  30.299  23.755  1.00  0.00    -0.207 OA
ATOM     18  O   UNL A   1      28.409  28.963  22.112  1.00  0.00    -0.207 OA
BRANCH  16  19
ATOM     19  N   UNL A   1      30.422  30.227  21.340  1.00  0.00    -0.225 NA
ATOM     20  H   UNL A   1      30.023  31.161  21.251  1.00  0.00     0.137 HD
ATOM     21  H   UNL A   1      30.267  29.707  20.477  1.00  0.00     0.137 HD
ENDBRANCH  16  19
ENDBRANCH  11  16
ENDBRANCH   6  10
BRANCH   8  22
ATOM     22  C   UNL A   1      32.052  23.086  25.278  1.00  0.00     0.128 A 
ATOM     23  C   UNL A   1      32.813  23.103  26.431  1.00  0.00     0.048 A 
ATOM     24  O   UNL A   1      30.736  22.909  25.601  1.00  0.00    -0.467 OA
ATOM     25  C   UNL A   1      31.921  22.879  27.507  1.00  0.00     0.042 A 
ATOM     26  C   UNL A   1      30.668  22.779  26.950  1.00  0.00     0.195 A 
ENDBRANCH   8  22
ENDBRANCH   3   5
ENDBRANCH   2   3
ENDBRANCH   1   2
BRANCH   1  27
ATOM     27  C   UNL A   1      38.462  23.054  25.903  1.00  0.00     0.275 C 
BRANCH  27  28
ATOM     28  O   UNL A   1      38.893  23.795  27.059  1.00  0.00    -0.458 OA
BRANCH  28  29
ATOM     29  C   UNL A   1      40.138  24.320  26.967  1.00  0.00     0.338 C 
ATOM     30  O   UNL A   1      40.987  24.061  26.131  1.00  0.00    -0.246 OA
BRANCH  29  31
ATOM     31  C   UNL A   1      40.296  25.384  27.967  1.00  0.00     0.060 A 
ATOM     32  C   UNL A   1      39.265  25.558  28.881  1.00  0.00     0.016 A 
ATOM     33  C   UNL A   1      41.375  26.262  27.953  1.00  0.00     0.016 A 
ATOM     34  C   UNL A   1      39.242  26.651  29.731  1.00  0.00     0.010 A 
ATOM     35  C   UNL A   1      41.405  27.314  28.880  1.00  0.00     0.010 A 
ATOM     36  C   UNL A   1      40.331  27.524  29.767  1.00  0.00    -0.014 A 
BRANCH  36  37
ATOM     37  C   UNL A   1      40.348  28.620  30.766  1.00  0.00     0.031 A 
ATOM     38  C   UNL A   1      41.283  28.569  31.938  1.00  0.00     0.074 A 
ATOM     39  C   UNL A   1      39.511  29.665  30.609  1.00  0.00     0.049 A 
ATOM     40  N   UNL A   1      41.350  29.362  32.975  1.00  0.00    -0.248 NA
ATOM     41  C   UNL A   1      42.266  27.476  31.950  1.00  0.00     0.031 C 
ATOM     42  C   UNL A   1      38.589  29.843  29.483  1.00  0.00     0.029 A 
ATOM     43  N   UNL A   1      39.289  30.765  31.396  1.00  0.00    -0.354 N 
ATOM     44  C   UNL A   1      42.351  28.842  33.786  1.00  0.00     0.074 A 
ATOM     45  C   UNL A   1      42.858  27.660  33.122  1.00  0.00     0.031 C 
ATOM     46  C   UNL A   1      37.906  30.983  29.650  1.00  0.00     0.029 A 
ATOM     47  C   UNL A   1      38.280  31.573  30.930  1.00  0.00     0.049 A 
ATOM     48  H   UNL A   1      39.803  30.958  32.213  1.00  0.00     0.167 HD
ATOM     49  C   UNL A   1      42.794  29.311  34.978  1.00  0.00     0.037 A 
ATOM     50  C   UNL A   1      37.676  32.637  31.492  1.00  0.00     0.037 A 
ATOM     51  C   UNL A   1      42.281  30.500  35.613  1.00  0.00     0.049 A 
ATOM     52  C   UNL A   1      38.140  33.105  32.839  1.00  0.00     0.074 A 
ATOM     53  C   UNL A   1      42.692  31.089  36.795  1.00  0.00     0.029 A 
ATOM     54  N   UNL A   1      41.231  31.269  35.128  1.00  0.00    -0.354 N 
ATOM     55  N   UNL A   1      39.098  32.617  33.591  1.00  0.00    -0.248 NA
ATOM     56  C   UNL A   1      37.438  34.255  33.421  1.00  0.00     0.031 C 
ATOM     57  C   UNL A   1      41.851  32.177  37.057  1.00  0.00     0.029 A 
ATOM     58  C   UNL A   1      40.949  32.302  36.009  1.00  0.00     0.049 A 
ATOM     59  H   UNL A   1      40.755  31.106  34.282  1.00  0.00     0.167 HD
ATOM     60  C   UNL A   1      39.112  33.396  34.740  1.00  0.00     0.074 A 
ATOM     61  C   UNL A   1      38.085  34.405  34.570  1.00  0.00     0.031 C 
ATOM     62  C   UNL A   1      39.903  33.282  35.838  1.00  0.00     0.037 A 
BRANCH  49  63
ATOM     63  C   UNL A   1      43.840  28.501  35.694  1.00  0.00     0.058 A 
ATOM     64  C   UNL A   1      45.216  28.705  35.496  1.00  0.00     0.135 A 
ATOM     65  C   UNL A   1      43.455  27.489  36.590  1.00  0.00     0.135 A 
ATOM     66  F   UNL A   1      45.643  29.650  34.644  1.00  0.00    -0.206 F 
ATOM     67  C   UNL A   1      46.167  27.902  36.117  1.00  0.00     0.059 A 
ATOM     68  C   UNL A   1      44.389  26.694  37.246  1.00  0.00     0.059 A 
ATOM     69  F   UNL A   1      42.154  27.252  36.824  1.00  0.00    -0.206 F 
ATOM     70  C   UNL A   1      45.744  26.892  36.983  1.00  0.00     0.060 A 
BRANCH  70  71
ATOM     71  S   UNL A   1      46.988  25.827  37.746  1.00  0.00     0.124 S 
ATOM     72  O   UNL A   1      46.930  26.265  39.137  1.00  0.00    -0.237 OA
ATOM     73  O   UNL A   1      46.461  24.492  37.480  1.00  0.00    -0.237 OA
ATOM     74  O   UNL A   1      48.213  26.168  37.030  1.00  0.00    -0.744 OA
ENDBRANCH  70  71
ENDBRANCH  49  63
BRANCH  50  75
ATOM     75  C   UNL A   1      36.532  33.272  30.785  1.00  0.00     0.058 A 
ATOM     76  C   UNL A   1      35.212  33.070  31.206  1.00  0.00     0.135 A 
ATOM     77  C   UNL A   1      36.752  34.171  29.726  1.00  0.00     0.135 A 
ATOM     78  F   UNL A   1      34.950  32.211  32.203  1.00  0.00    -0.206 F 
ATOM     79  C   UNL A   1      34.150  33.750  30.618  1.00  0.00     0.059 A 
ATOM     80  C   UNL A   1      35.711  34.883  29.141  1.00  0.00     0.059 A 
ATOM     81  F   UNL A   1      38.000  34.407  29.294  1.00  0.00    -0.206 F 
ATOM     82  C   UNL A   1      34.411  34.666  29.596  1.00  0.00     0.060 A 
BRANCH  82  83
ATOM     83  S   UNL A   1      33.037  35.619  28.912  1.00  0.00     0.124 S 
ATOM     84  O   UNL A   1      32.344  34.611  28.120  1.00  0.00    -0.237 OA
ATOM     85  O   UNL A   1      32.348  36.070  30.116  1.00  0.00    -0.237 OA
ATOM     86  O   UNL A   1      33.703  36.673  28.150  1.00  0.00    -0.744 OA
ENDBRANCH  82  83
ENDBRANCH  50  75
BRANCH  62  87
ATOM     87  C   UNL A   1      39.674  34.265  36.951  1.00  0.00     0.058 A 
ATOM     88  C   UNL A   1      38.868  33.945  38.055  1.00  0.00     0.135 A 
ATOM     89  C   UNL A   1      40.310  35.517  36.945  1.00  0.00     0.135 A 
ATOM     90  F   UNL A   1      38.226  32.766  38.105  1.00  0.00    -0.206 F 
ATOM     91  C   UNL A   1      38.691  34.836  39.109  1.00  0.00     0.059 A 
ATOM     92  C   UNL A   1      40.169  36.413  38.000  1.00  0.00     0.059 A 
ATOM     93  F   UNL A   1      41.096  35.870  35.916  1.00  0.00    -0.206 F 
ATOM     94  C   UNL A   1      39.351  36.066  39.074  1.00  0.00     0.060 A 
BRANCH  94  95
ATOM     95  S   UNL A   1      39.152  37.191  40.471  1.00  0.00     0.124 S 
ATOM     96  O   UNL A   1      38.579  36.309  41.482  1.00  0.00    -0.237 OA
ATOM     97  O   UNL A   1      40.523  37.630  40.716  1.00  0.00    -0.237 OA
ATOM     98  O   UNL A   1      38.254  38.221  39.955  1.00  0.00    -0.744 OA
ENDBRANCH  94  95
ENDBRANCH  62  87
ENDBRANCH  36  37
ENDBRANCH  29  31
ENDBRANCH  28  29
ENDBRANCH  27  28
ENDBRANCH   1  27
TORSDOF 18
ENDMDL
