MODEL 1
REMARK VINA RESULT:     -11.2      0.000      0.000
REMARK SMILES NS(=O)(=O)c1ccc(-n2nc(C(=O)NCCCC(=O)OCCOC(=O)c3ccc(-c4c5nc(c(-c6c(F)cc(S(=O)(=O)[O-])cc6F)c6ccc([nH]6)c(-c6c(F)cc(S(=O)(=O)[O-])cc6F)c6nc(c(-c7c(F)cc(S(=O)(=O)[O-])cc7F)c7ccc4[nH]7)C=C6)C=C5)cc3)cc2-c2ccccc2)cc1
REMARK SMILES IDX 18 1 19 2 17 3 16 4 15 5 14 6 12 7 13 8 11 10 9 11 10 12
REMARK SMILES IDX 93 13 92 14 8 15 5 16 6 17 101 18 7 19 100 20 2 21 3 22 4 23
REMARK SMILES IDX 1 24 94 27 95 28 99 29 96 30 98 31 97 32 20 33 21 34 22 35
REMARK SMILES IDX 23 36 24 37 25 38 26 39 27 40 91 41 28 42 90 43 29 44 30 45
REMARK SMILES IDX 31 46 84 47 32 48 89 49 83 50 85 51 33 52 88 53 82 54 81 55
REMARK SMILES IDX 34 57 68 58 47 59 67 60 48 61 51 62 66 63 86 64 49 65 50 66
REMARK SMILES IDX 65 68 87 69 52 70 35 71 36 72 45 73 37 74 38 75 44 76 46 77
REMARK SMILES IDX 39 78 40 79 41 80 42 81 43 82 69 83 70 84 79 85 71 86 72 87
REMARK SMILES IDX 78 88 80 89 73 90 74 91 75 92 76 93 77 94 53 95 54 96 63 97
REMARK SMILES IDX 55 98 56 99 62 100 64 101 57 102 58 103 59 104 60 105 61 106
REMARK H PARENT 14 9 1 25 1 26 85 56 51 67
REMARK Flexibility Score: inf
ROOT
ATOM      1  C   UNL A   1      34.280  20.807  25.631  1.00  0.00     0.305 C 
ATOM      2  O   UNL A   1      34.001  21.227  26.748  1.00  0.00    -0.252 OA
ENDROOT
BRANCH   1   3
ATOM      3  C   UNL A   1      33.325  19.985  24.799  1.00  0.00     0.124 C 
BRANCH   3   4
ATOM      4  C   UNL A   1      32.161  20.725  24.142  1.00  0.00     0.033 C 
BRANCH   4   5
ATOM      5  C   UNL A   1      31.912  22.169  24.579  1.00  0.00     0.117 C 
BRANCH   5   6
ATOM      6  N   UNL A   1      31.078  22.262  25.761  1.00  0.00    -0.351 N 
ATOM      7  C   UNL A   1      30.614  23.352  26.459  1.00  0.00     0.271 C 
ATOM      8  O   UNL A   1      29.999  23.111  27.502  1.00  0.00    -0.267 OA
ATOM      9  H   UNL A   1      30.795  21.393  26.128  1.00  0.00     0.163 HD
BRANCH   7  10
ATOM     10  C   UNL A   1      30.825  24.729  25.965  1.00  0.00     0.151 A 
ATOM     11  N   UNL A   1      31.731  26.667  25.825  1.00  0.00    -0.232 N 
ATOM     12  N   UNL A   1      31.934  25.419  26.305  1.00  0.00    -0.162 NA
ATOM     13  C   UNL A   1      30.673  26.708  24.928  1.00  0.00     0.075 A 
ATOM     14  C   UNL A   1      29.986  25.532  25.148  1.00  0.00     0.065 A 
BRANCH  11  15
ATOM     15  C   UNL A   1      32.525  27.757  26.265  1.00  0.00     0.065 A 
ATOM     16  C   UNL A   1      34.128  29.762  27.331  1.00  0.00     0.082 A 
ATOM     17  C   UNL A   1      34.722  28.704  26.641  1.00  0.00     0.024 A 
ATOM     18  C   UNL A   1      32.735  29.856  27.441  1.00  0.00     0.024 A 
ATOM     19  C   UNL A   1      33.919  27.695  26.119  1.00  0.00     0.030 A 
ATOM     20  C   UNL A   1      31.925  28.866  26.874  1.00  0.00     0.030 A 
BRANCH  16  21
ATOM     21  S   UNL A   1      35.149  30.937  28.168  1.00  0.00     0.238 S 
ATOM     22  O   UNL A   1      35.536  31.971  27.239  1.00  0.00    -0.207 OA
ATOM     23  O   UNL A   1      36.105  30.220  28.981  1.00  0.00    -0.207 OA
BRANCH  21  24
ATOM     24  N   UNL A   1      34.091  31.683  29.240  1.00  0.00    -0.225 NA
ATOM     25  H   UNL A   1      34.105  32.691  29.086  1.00  0.00     0.137 HD
ATOM     26  H   UNL A   1      34.380  31.482  30.198  1.00  0.00     0.137 HD
ENDBRANCH  21  24
ENDBRANCH  16  21
ENDBRANCH  11  15
BRANCH  13  27
ATOM     27  C   UNL A   1      30.437  27.756  23.932  1.00  0.00     0.000 A 
ATOM     28  C   UNL A   1      31.520  28.374  23.283  1.00  0.00     0.010 A 
ATOM     29  C   UNL A   1      29.136  28.120  23.569  1.00  0.00     0.010 A 
ATOM     30  C   UNL A   1      31.306  29.347  22.307  1.00  0.00     0.001 A 
ATOM     31  C   UNL A   1      28.924  29.094  22.589  1.00  0.00     0.001 A 
ATOM     32  C   UNL A   1      30.007  29.705  21.959  1.00  0.00     0.000 A 
ENDBRANCH  13  27
ENDBRANCH   7  10
ENDBRANCH   5   6
ENDBRANCH   4   5
ENDBRANCH   3   4
ENDBRANCH   1   3
BRANCH   1  33
ATOM     33  O   UNL A   1      35.490  20.949  25.026  1.00  0.00    -0.462 OA
BRANCH  33  34
ATOM     34  C   UNL A   1      36.498  21.664  25.769  1.00  0.00     0.274 C 
BRANCH  34  35
ATOM     35  C   UNL A   1      37.827  21.722  25.026  1.00  0.00     0.275 C 
BRANCH  35  36
ATOM     36  O   UNL A   1      38.538  22.914  25.354  1.00  0.00    -0.458 OA
BRANCH  36  37
ATOM     37  C   UNL A   1      39.722  22.713  25.969  1.00  0.00     0.338 C 
ATOM     38  O   UNL A   1      40.554  21.867  25.687  1.00  0.00    -0.246 OA
BRANCH  37  39
ATOM     39  C   UNL A   1      39.822  23.546  27.167  1.00  0.00     0.060 A 
ATOM     40  C   UNL A   1      38.882  24.574  27.314  1.00  0.00     0.016 A 
ATOM     41  C   UNL A   1      40.999  23.496  27.920  1.00  0.00     0.016 A 
ATOM     42  C   UNL A   1      39.220  25.668  28.080  1.00  0.00     0.010 A 
ATOM     43  C   UNL A   1      41.345  24.598  28.661  1.00  0.00     0.010 A 
ATOM     44  C   UNL A   1      40.487  25.697  28.662  1.00  0.00    -0.014 A 
BRANCH  44  45
ATOM     45  C   UNL A   1      40.933  26.928  29.279  1.00  0.00     0.031 A 
ATOM     46  C   UNL A   1      42.064  27.580  28.587  1.00  0.00     0.074 A 
ATOM     47  C   UNL A   1      40.226  27.484  30.281  1.00  0.00     0.049 A 
ATOM     48  N   UNL A   1      43.253  27.818  29.032  1.00  0.00    -0.248 NA
ATOM     49  C   UNL A   1      41.885  27.879  27.157  1.00  0.00     0.031 C 
ATOM     50  C   UNL A   1      38.912  27.069  30.787  1.00  0.00     0.029 A 
ATOM     51  N   UNL A   1      40.477  28.624  30.972  1.00  0.00    -0.354 N 
ATOM     52  C   UNL A   1      43.900  28.495  28.003  1.00  0.00     0.074 A 
ATOM     53  C   UNL A   1      43.097  28.316  26.823  1.00  0.00     0.031 C 
ATOM     54  C   UNL A   1      38.389  28.070  31.529  1.00  0.00     0.029 A 
ATOM     55  C   UNL A   1      39.377  29.130  31.649  1.00  0.00     0.049 A 
ATOM     56  H   UNL A   1      41.361  29.055  30.992  1.00  0.00     0.167 HD
ATOM     57  C   UNL A   1      44.904  29.378  28.246  1.00  0.00     0.037 A 
ATOM     58  C   UNL A   1      39.267  30.375  32.175  1.00  0.00     0.037 A 
ATOM     59  C   UNL A   1      45.451  29.206  29.566  1.00  0.00     0.049 A 
ATOM     60  C   UNL A   1      40.645  30.918  32.314  1.00  0.00     0.074 A 
ATOM     61  C   UNL A   1      46.099  28.180  30.225  1.00  0.00     0.029 A 
ATOM     62  N   UNL A   1      45.036  30.083  30.539  1.00  0.00    -0.354 N 
ATOM     63  N   UNL A   1      41.548  30.432  33.122  1.00  0.00    -0.248 NA
ATOM     64  C   UNL A   1      41.164  31.757  31.243  1.00  0.00     0.031 C 
ATOM     65  C   UNL A   1      45.671  28.274  31.581  1.00  0.00     0.029 A 
ATOM     66  C   UNL A   1      44.812  29.369  31.689  1.00  0.00     0.049 A 
ATOM     67  H   UNL A   1      44.920  31.054  30.429  1.00  0.00     0.167 HD
ATOM     68  C   UNL A   1      42.750  30.558  32.439  1.00  0.00     0.074 A 
ATOM     69  C   UNL A   1      42.467  31.484  31.348  1.00  0.00     0.031 C 
ATOM     70  C   UNL A   1      43.779  29.687  32.655  1.00  0.00     0.037 A 
BRANCH  57  71
ATOM     71  C   UNL A   1      45.131  30.628  27.430  1.00  0.00     0.058 A 
ATOM     72  C   UNL A   1      46.415  30.897  26.919  1.00  0.00     0.135 A 
ATOM     73  C   UNL A   1      44.210  31.701  27.364  1.00  0.00     0.135 A 
ATOM     74  F   UNL A   1      47.371  29.956  26.946  1.00  0.00    -0.206 F 
ATOM     75  C   UNL A   1      46.776  32.158  26.440  1.00  0.00     0.059 A 
ATOM     76  C   UNL A   1      44.530  32.943  26.832  1.00  0.00     0.059 A 
ATOM     77  F   UNL A   1      42.988  31.634  27.906  1.00  0.00    -0.206 F 
ATOM     78  C   UNL A   1      45.829  33.177  26.418  1.00  0.00     0.060 A 
BRANCH  78  79
ATOM     79  S   UNL A   1      46.320  34.839  25.930  1.00  0.00     0.124 S 
ATOM     80  O   UNL A   1      46.585  34.654  24.507  1.00  0.00    -0.237 OA
ATOM     81  O   UNL A   1      45.133  35.618  26.265  1.00  0.00    -0.237 OA
ATOM     82  O   UNL A   1      47.490  35.101  26.762  1.00  0.00    -0.744 OA
ENDBRANCH  78  79
ENDBRANCH  57  71
BRANCH  58  83
ATOM     83  C   UNL A   1      38.052  31.232  32.207  1.00  0.00     0.058 A 
ATOM     84  C   UNL A   1      37.341  31.446  33.398  1.00  0.00     0.135 A 
ATOM     85  C   UNL A   1      37.715  32.071  31.123  1.00  0.00     0.135 A 
ATOM     86  F   UNL A   1      37.617  30.713  34.488  1.00  0.00    -0.206 F 
ATOM     87  C   UNL A   1      36.379  32.456  33.522  1.00  0.00     0.059 A 
ATOM     88  C   UNL A   1      36.752  33.072  31.217  1.00  0.00     0.059 A 
ATOM     89  F   UNL A   1      38.380  32.004  29.960  1.00  0.00    -0.206 F 
ATOM     90  C   UNL A   1      36.104  33.275  32.428  1.00  0.00     0.060 A 
BRANCH  90  91
ATOM     91  S   UNL A   1      34.984  34.681  32.625  1.00  0.00     0.124 S 
ATOM     92  O   UNL A   1      35.892  35.727  33.083  1.00  0.00    -0.237 OA
ATOM     93  O   UNL A   1      34.452  34.842  31.277  1.00  0.00    -0.237 OA
ATOM     94  O   UNL A   1      34.022  34.212  33.619  1.00  0.00    -0.744 OA
ENDBRANCH  90  91
ENDBRANCH  58  83
BRANCH  70  95
ATOM     95  C   UNL A   1      43.712  28.809  33.880  1.00  0.00     0.058 A 
ATOM     96  C   UNL A   1      44.107  29.218  35.166  1.00  0.00     0.135 A 
ATOM     97  C   UNL A   1      43.077  27.563  33.773  1.00  0.00     0.135 A 
ATOM     98  F   UNL A   1      44.626  30.435  35.373  1.00  0.00    -0.206 F 
ATOM     99  C   UNL A   1      43.914  28.410  36.287  1.00  0.00     0.059 A 
ATOM    100  C   UNL A   1      42.846  26.753  34.882  1.00  0.00     0.059 A 
ATOM    101  F   UNL A   1      42.619  27.143  32.582  1.00  0.00    -0.206 F 
ATOM    102  C   UNL A   1      43.277  27.179  36.137  1.00  0.00     0.060 A 
BRANCH 102 103
ATOM    103  S   UNL A   1      42.938  26.182  37.604  1.00  0.00     0.124 S 
ATOM    104  O   UNL A   1      43.432  24.868  37.204  1.00  0.00    -0.237 OA
ATOM    105  O   UNL A   1      43.715  26.859  38.639  1.00  0.00    -0.237 OA
ATOM    106  O   UNL A   1      41.490  26.283  37.761  1.00  0.00    -0.744 OA
ENDBRANCH 102 103
ENDBRANCH  70  95
ENDBRANCH  44  45
ENDBRANCH  37  39
ENDBRANCH  36  37
ENDBRANCH  35  36
ENDBRANCH  34  35
ENDBRANCH  33  34
ENDBRANCH   1  33
TORSDOF 22
ENDMDL
MODEL 2
REMARK VINA RESULT:     -11.1      1.805      2.861
REMARK SMILES NS(=O)(=O)c1ccc(-n2nc(C(=O)NCCCC(=O)OCCOC(=O)c3ccc(-c4c5nc(c(-c6c(F)cc(S(=O)(=O)[O-])cc6F)c6ccc([nH]6)c(-c6c(F)cc(S(=O)(=O)[O-])cc6F)c6nc(c(-c7c(F)cc(S(=O)(=O)[O-])cc7F)c7ccc4[nH]7)C=C6)C=C5)cc3)cc2-c2ccccc2)cc1
REMARK SMILES IDX 18 1 19 2 17 3 16 4 15 5 14 6 12 7 13 8 11 10 9 11 10 12
REMARK SMILES IDX 93 13 92 14 8 15 5 16 6 17 101 18 7 19 100 20 2 21 3 22 4 23
REMARK SMILES IDX 1 24 94 27 95 28 99 29 96 30 98 31 97 32 20 33 21 34 22 35
REMARK SMILES IDX 23 36 24 37 25 38 26 39 27 40 91 41 28 42 90 43 29 44 30 45
REMARK SMILES IDX 31 46 84 47 32 48 89 49 83 50 85 51 33 52 88 53 82 54 81 55
REMARK SMILES IDX 34 57 68 58 47 59 67 60 48 61 51 62 66 63 86 64 49 65 50 66
REMARK SMILES IDX 65 68 87 69 52 70 35 71 36 72 45 73 37 74 38 75 44 76 46 77
REMARK SMILES IDX 39 78 40 79 41 80 42 81 43 82 69 83 70 84 79 85 71 86 72 87
REMARK SMILES IDX 78 88 80 89 73 90 74 91 75 92 76 93 77 94 53 95 54 96 63 97
REMARK SMILES IDX 55 98 56 99 62 100 64 101 57 102 58 103 59 104 60 105 61 106
REMARK H PARENT 14 9 1 25 1 26 85 56 51 67
REMARK Flexibility Score: inf
ROOT
ATOM      1  C   UNL A   1      34.384  20.774  25.699  1.00  0.00     0.305 C 
ATOM      2  O   UNL A   1      34.105  21.373  26.732  1.00  0.00    -0.252 OA
ENDROOT
BRANCH   1   3
ATOM      3  C   UNL A   1      33.404  19.880  24.976  1.00  0.00     0.124 C 
BRANCH   3   4
ATOM      4  C   UNL A   1      32.169  20.547  24.374  1.00  0.00     0.033 C 
BRANCH   4   5
ATOM      5  C   UNL A   1      31.852  21.974  24.824  1.00  0.00     0.117 C 
BRANCH   5   6
ATOM      6  N   UNL A   1      30.951  22.016  25.959  1.00  0.00    -0.351 N 
ATOM      7  C   UNL A   1      30.542  23.063  26.753  1.00  0.00     0.271 C 
ATOM      8  O   UNL A   1      29.838  22.769  27.723  1.00  0.00    -0.267 OA
ATOM      9  H   UNL A   1      30.566  21.144  26.206  1.00  0.00     0.163 HD
BRANCH   7  10
ATOM     10  C   UNL A   1      30.911  24.458  26.436  1.00  0.00     0.151 A 
ATOM     11  N   UNL A   1      30.747  26.393  25.528  1.00  0.00    -0.232 N 
ATOM     12  N   UNL A   1      30.043  25.269  25.794  1.00  0.00    -0.162 NA
ATOM     13  C   UNL A   1      31.931  26.442  26.248  1.00  0.00     0.075 A 
ATOM     14  C   UNL A   1      32.126  25.148  26.684  1.00  0.00     0.065 A 
BRANCH  11  15
ATOM     15  C   UNL A   1      30.278  27.341  24.583  1.00  0.00     0.065 A 
ATOM     16  C   UNL A   1      29.250  29.316  22.918  1.00  0.00     0.082 A 
ATOM     17  C   UNL A   1      30.440  29.552  23.606  1.00  0.00     0.024 A 
ATOM     18  C   UNL A   1      28.600  28.079  23.010  1.00  0.00     0.024 A 
ATOM     19  C   UNL A   1      30.948  28.567  24.448  1.00  0.00     0.030 A 
ATOM     20  C   UNL A   1      29.135  27.071  23.820  1.00  0.00     0.030 A 
BRANCH  16  21
ATOM     21  S   UNL A   1      28.496  30.630  22.008  1.00  0.00     0.238 S 
ATOM     22  O   UNL A   1      27.896  30.091  20.812  1.00  0.00    -0.207 OA
ATOM     23  O   UNL A   1      29.402  31.756  21.988  1.00  0.00    -0.207 OA
BRANCH  21  24
ATOM     24  N   UNL A   1      27.203  31.090  22.979  1.00  0.00    -0.225 NA
ATOM     25  H   UNL A   1      26.333  30.994  22.456  1.00  0.00     0.137 HD
ATOM     26  H   UNL A   1      27.322  32.062  23.266  1.00  0.00     0.137 HD
ENDBRANCH  21  24
ENDBRANCH  16  21
ENDBRANCH  11  15
BRANCH  13  27
ATOM     27  C   UNL A   1      32.714  27.650  26.525  1.00  0.00     0.000 A 
ATOM     28  C   UNL A   1      32.154  28.703  27.269  1.00  0.00     0.010 A 
ATOM     29  C   UNL A   1      34.044  27.753  26.104  1.00  0.00     0.010 A 
ATOM     30  C   UNL A   1      32.903  29.841  27.569  1.00  0.00     0.001 A 
ATOM     31  C   UNL A   1      34.793  28.894  26.408  1.00  0.00     0.001 A 
ATOM     32  C   UNL A   1      34.223  29.935  27.139  1.00  0.00     0.000 A 
ENDBRANCH  13  27
ENDBRANCH   7  10
ENDBRANCH   5   6
ENDBRANCH   4   5
ENDBRANCH   3   4
ENDBRANCH   1   3
BRANCH   1  33
ATOM     33  O   UNL A   1      35.611  20.763  25.113  1.00  0.00    -0.462 OA
BRANCH  33  34
ATOM     34  C   UNL A   1      36.680  21.387  25.852  1.00  0.00     0.274 C 
BRANCH  34  35
ATOM     35  C   UNL A   1      37.943  21.544  25.015  1.00  0.00     0.275 C 
BRANCH  35  36
ATOM     36  O   UNL A   1      38.672  22.703  25.412  1.00  0.00    -0.458 OA
BRANCH  36  37
ATOM     37  C   UNL A   1      39.824  22.447  26.068  1.00  0.00     0.338 C 
ATOM     38  O   UNL A   1      40.604  21.538  25.841  1.00  0.00    -0.246 OA
BRANCH  37  39
ATOM     39  C   UNL A   1      39.949  23.316  27.238  1.00  0.00     0.060 A 
ATOM     40  C   UNL A   1      38.956  24.286  27.425  1.00  0.00     0.016 A 
ATOM     41  C   UNL A   1      41.174  23.360  27.911  1.00  0.00     0.016 A 
ATOM     42  C   UNL A   1      39.272  25.419  28.142  1.00  0.00     0.010 A 
ATOM     43  C   UNL A   1      41.495  24.500  28.603  1.00  0.00     0.010 A 
ATOM     44  C   UNL A   1      40.570  25.543  28.637  1.00  0.00    -0.014 A 
BRANCH  44  45
ATOM     45  C   UNL A   1      40.974  26.815  29.196  1.00  0.00     0.031 A 
ATOM     46  C   UNL A   1      42.127  27.440  28.514  1.00  0.00     0.074 A 
ATOM     47  C   UNL A   1      40.219  27.421  30.131  1.00  0.00     0.049 A 
ATOM     48  N   UNL A   1      43.293  27.721  28.993  1.00  0.00    -0.248 NA
ATOM     49  C   UNL A   1      42.007  27.649  27.061  1.00  0.00     0.031 C 
ATOM     50  C   UNL A   1      38.889  27.021  30.605  1.00  0.00     0.029 A 
ATOM     51  N   UNL A   1      40.427  28.605  30.760  1.00  0.00    -0.354 N 
ATOM     52  C   UNL A   1      43.976  28.343  27.953  1.00  0.00     0.074 A 
ATOM     53  C   UNL A   1      43.227  28.080  26.753  1.00  0.00     0.031 C 
ATOM     54  C   UNL A   1      38.324  28.058  31.262  1.00  0.00     0.029 A 
ATOM     55  C   UNL A   1      39.293  29.136  31.358  1.00  0.00     0.049 A 
ATOM     56  H   UNL A   1      41.305  29.049  30.791  1.00  0.00     0.167 HD
ATOM     57  C   UNL A   1      44.959  29.252  28.184  1.00  0.00     0.037 A 
ATOM     58  C   UNL A   1      39.147  30.409  31.801  1.00  0.00     0.037 A 
ATOM     59  C   UNL A   1      45.451  29.169  29.534  1.00  0.00     0.049 A 
ATOM     60  C   UNL A   1      40.511  30.979  31.964  1.00  0.00     0.074 A 
ATOM     61  C   UNL A   1      46.080  28.194  30.282  1.00  0.00     0.029 A 
ATOM     62  N   UNL A   1      44.984  30.098  30.432  1.00  0.00    -0.354 N 
ATOM     63  N   UNL A   1      41.384  30.555  32.838  1.00  0.00    -0.248 NA
ATOM     64  C   UNL A   1      41.066  31.758  30.867  1.00  0.00     0.031 C 
ATOM     65  C   UNL A   1      45.594  28.364  31.609  1.00  0.00     0.029 A 
ATOM     66  C   UNL A   1      44.718  29.453  31.613  1.00  0.00     0.049 A 
ATOM     67  H   UNL A   1      44.862  31.059  30.257  1.00  0.00     0.167 HD
ATOM     68  C   UNL A   1      42.613  30.657  32.201  1.00  0.00     0.074 A 
ATOM     69  C   UNL A   1      42.367  31.510  31.044  1.00  0.00     0.031 C 
ATOM     70  C   UNL A   1      43.642  29.815  32.513  1.00  0.00     0.037 A 
BRANCH  57  71
ATOM     71  C   UNL A   1      45.207  30.454  27.302  1.00  0.00     0.058 A 
ATOM     72  C   UNL A   1      46.529  30.818  26.986  1.00  0.00     0.135 A 
ATOM     73  C   UNL A   1      44.216  31.414  26.987  1.00  0.00     0.135 A 
ATOM     74  F   UNL A   1      47.549  29.990  27.257  1.00  0.00    -0.206 F 
ATOM     75  C   UNL A   1      46.850  32.070  26.457  1.00  0.00     0.059 A 
ATOM     76  C   UNL A   1      44.507  32.639  26.401  1.00  0.00     0.059 A 
ATOM     77  F   UNL A   1      42.931  31.259  27.324  1.00  0.00    -0.206 F 
ATOM     78  C   UNL A   1      45.831  32.978  26.185  1.00  0.00     0.060 A 
BRANCH  78  79
ATOM     79  S   UNL A   1      46.243  34.640  25.630  1.00  0.00     0.124 S 
ATOM     80  O   UNL A   1      47.666  34.501  25.340  1.00  0.00    -0.237 OA
ATOM     81  O   UNL A   1      45.366  34.802  24.476  1.00  0.00    -0.237 OA
ATOM     82  O   UNL A   1      45.911  35.470  26.784  1.00  0.00    -0.744 OA
ENDBRANCH  78  79
ENDBRANCH  57  71
BRANCH  58  83
ATOM     83  C   UNL A   1      37.922  31.249  31.728  1.00  0.00     0.058 A 
ATOM     84  C   UNL A   1      37.041  31.352  32.817  1.00  0.00     0.135 A 
ATOM     85  C   UNL A   1      37.728  32.178  30.683  1.00  0.00     0.135 A 
ATOM     86  F   UNL A   1      37.172  30.528  33.868  1.00  0.00    -0.206 F 
ATOM     87  C   UNL A   1      36.050  32.338  32.885  1.00  0.00     0.059 A 
ATOM     88  C   UNL A   1      36.740  33.159  30.720  1.00  0.00     0.059 A 
ATOM     89  F   UNL A   1      38.555  32.220  29.628  1.00  0.00    -0.206 F 
ATOM     90  C   UNL A   1      35.919  33.249  31.837  1.00  0.00     0.060 A 
BRANCH  90  91
ATOM     91  S   UNL A   1      34.753  34.622  31.989  1.00  0.00     0.124 S 
ATOM     92  O   UNL A   1      34.450  34.916  30.592  1.00  0.00    -0.237 OA
ATOM     93  O   UNL A   1      33.672  34.023  32.764  1.00  0.00    -0.237 OA
ATOM     94  O   UNL A   1      35.524  35.647  32.687  1.00  0.00    -0.744 OA
ENDBRANCH  90  91
ENDBRANCH  58  83
BRANCH  70  95
ATOM     95  C   UNL A   1      43.531  29.012  33.786  1.00  0.00     0.058 A 
ATOM     96  C   UNL A   1      42.981  27.720  33.859  1.00  0.00     0.135 A 
ATOM     97  C   UNL A   1      44.147  29.511  34.944  1.00  0.00     0.135 A 
ATOM     98  F   UNL A   1      42.467  27.129  32.773  1.00  0.00    -0.206 F 
ATOM     99  C   UNL A   1      43.011  26.973  35.038  1.00  0.00     0.059 A 
ATOM    100  C   UNL A   1      44.215  28.771  36.122  1.00  0.00     0.059 A 
ATOM    101  F   UNL A   1      44.746  30.713  34.921  1.00  0.00    -0.206 F 
ATOM    102  C   UNL A   1      43.635  27.504  36.165  1.00  0.00     0.060 A 
BRANCH 102 103
ATOM    103  S   UNL A   1      43.759  26.495  37.657  1.00  0.00     0.124 S 
ATOM    104  O   UNL A   1      44.494  25.329  37.180  1.00  0.00    -0.237 OA
ATOM    105  O   UNL A   1      44.487  27.368  38.575  1.00  0.00    -0.237 OA
ATOM    106  O   UNL A   1      42.366  26.249  38.021  1.00  0.00    -0.744 OA
ENDBRANCH 102 103
ENDBRANCH  70  95
ENDBRANCH  44  45
ENDBRANCH  37  39
ENDBRANCH  36  37
ENDBRANCH  35  36
ENDBRANCH  34  35
ENDBRANCH  33  34
ENDBRANCH   1  33
TORSDOF 22
ENDMDL
MODEL 3
REMARK VINA RESULT:     -10.8      4.973     11.276
REMARK SMILES NS(=O)(=O)c1ccc(-n2nc(C(=O)NCCCC(=O)OCCOC(=O)c3ccc(-c4c5nc(c(-c6c(F)cc(S(=O)(=O)[O-])cc6F)c6ccc([nH]6)c(-c6c(F)cc(S(=O)(=O)[O-])cc6F)c6nc(c(-c7c(F)cc(S(=O)(=O)[O-])cc7F)c7ccc4[nH]7)C=C6)C=C5)cc3)cc2-c2ccccc2)cc1
REMARK SMILES IDX 18 1 19 2 17 3 16 4 15 5 14 6 12 7 13 8 11 10 9 11 10 12
REMARK SMILES IDX 93 13 92 14 8 15 5 16 6 17 101 18 7 19 100 20 2 21 3 22 4 23
REMARK SMILES IDX 1 24 94 27 95 28 99 29 96 30 98 31 97 32 20 33 21 34 22 35
REMARK SMILES IDX 23 36 24 37 25 38 26 39 27 40 91 41 28 42 90 43 29 44 30 45
REMARK SMILES IDX 31 46 84 47 32 48 89 49 83 50 85 51 33 52 88 53 82 54 81 55
REMARK SMILES IDX 34 57 68 58 47 59 67 60 48 61 51 62 66 63 86 64 49 65 50 66
REMARK SMILES IDX 65 68 87 69 52 70 35 71 36 72 45 73 37 74 38 75 44 76 46 77
REMARK SMILES IDX 39 78 40 79 41 80 42 81 43 82 69 83 70 84 79 85 71 86 72 87
REMARK SMILES IDX 78 88 80 89 73 90 74 91 75 92 76 93 77 94 53 95 54 96 63 97
REMARK SMILES IDX 55 98 56 99 62 100 64 101 57 102 58 103 59 104 60 105 61 106
REMARK H PARENT 14 9 1 25 1 26 85 56 51 67
REMARK Flexibility Score: inf
ROOT
ATOM      1  C   UNL A   1      47.651  32.164  28.036  1.00  0.00     0.305 C 
ATOM      2  O   UNL A   1      47.496  31.649  29.136  1.00  0.00    -0.252 OA
ENDROOT
BRANCH   1   3
ATOM      3  C   UNL A   1      46.586  32.153  26.964  1.00  0.00     0.124 C 
BRANCH   3   4
ATOM      4  C   UNL A   1      45.522  31.061  27.054  1.00  0.00     0.033 C 
BRANCH   4   5
ATOM      5  C   UNL A   1      45.981  29.616  26.856  1.00  0.00     0.117 C 
BRANCH   5   6
ATOM      6  N   UNL A   1      46.400  29.342  25.496  1.00  0.00    -0.351 N 
ATOM      7  C   UNL A   1      46.173  28.258  24.679  1.00  0.00     0.271 C 
ATOM      8  O   UNL A   1      46.753  28.265  23.590  1.00  0.00    -0.267 OA
ATOM      9  H   UNL A   1      46.941  30.054  25.085  1.00  0.00     0.163 HD
BRANCH   7  10
ATOM     10  C   UNL A   1      45.264  27.166  25.084  1.00  0.00     0.151 A 
ATOM     11  N   UNL A   1      44.614  25.151  25.421  1.00  0.00    -0.232 N 
ATOM     12  N   UNL A   1      45.718  25.900  25.196  1.00  0.00    -0.162 NA
ATOM     13  C   UNL A   1      43.521  25.934  25.761  1.00  0.00     0.075 A 
ATOM     14  C   UNL A   1      43.876  27.211  25.377  1.00  0.00     0.065 A 
BRANCH  11  15
ATOM     15  C   UNL A   1      44.645  23.741  25.269  1.00  0.00     0.065 A 
ATOM     16  C   UNL A   1      44.898  21.009  24.820  1.00  0.00     0.082 A 
ATOM     17  C   UNL A   1      45.696  21.621  25.787  1.00  0.00     0.024 A 
ATOM     18  C   UNL A   1      43.933  21.742  24.117  1.00  0.00     0.024 A 
ATOM     19  C   UNL A   1      45.577  22.990  26.002  1.00  0.00     0.030 A 
ATOM     20  C   UNL A   1      43.780  23.109  24.367  1.00  0.00     0.030 A 
BRANCH  16  21
ATOM     21  S   UNL A   1      45.183  19.316  24.400  1.00  0.00     0.238 S 
ATOM     22  O   UNL A   1      44.142  18.505  24.983  1.00  0.00    -0.207 OA
ATOM     23  O   UNL A   1      46.589  19.028  24.576  1.00  0.00    -0.207 OA
BRANCH  21  24
ATOM     24  N   UNL A   1      44.902  19.269  22.743  1.00  0.00    -0.225 NA
ATOM     25  H   UNL A   1      44.311  20.057  22.476  1.00  0.00     0.137 HD
ATOM     26  H   UNL A   1      44.432  18.396  22.503  1.00  0.00     0.137 HD
ENDBRANCH  21  24
ENDBRANCH  16  21
ENDBRANCH  11  15
BRANCH  13  27
ATOM     27  C   UNL A   1      42.317  25.467  26.453  1.00  0.00     0.000 A 
ATOM     28  C   UNL A   1      41.051  25.639  25.867  1.00  0.00     0.010 A 
ATOM     29  C   UNL A   1      42.408  24.794  27.676  1.00  0.00     0.010 A 
ATOM     30  C   UNL A   1      39.902  25.166  26.499  1.00  0.00     0.001 A 
ATOM     31  C   UNL A   1      41.255  24.318  28.307  1.00  0.00     0.001 A 
ATOM     32  C   UNL A   1      40.005  24.504  27.719  1.00  0.00     0.000 A 
ENDBRANCH  13  27
ENDBRANCH   7  10
ENDBRANCH   5   6
ENDBRANCH   4   5
ENDBRANCH   3   4
ENDBRANCH   1   3
BRANCH   1  33
ATOM     33  O   UNL A   1      48.806  32.737  27.599  1.00  0.00    -0.462 OA
BRANCH  33  34
ATOM     34  C   UNL A   1      49.362  33.773  28.434  1.00  0.00     0.274 C 
BRANCH  34  35
ATOM     35  C   UNL A   1      49.004  35.167  27.936  1.00  0.00     0.275 C 
BRANCH  35  36
ATOM     36  O   UNL A   1      47.831  35.651  28.588  1.00  0.00    -0.458 OA
BRANCH  36  37
ATOM     37  C   UNL A   1      46.713  35.621  27.832  1.00  0.00     0.338 C 
ATOM     38  O   UNL A   1      46.625  35.914  26.652  1.00  0.00    -0.246 OA
BRANCH  37  39
ATOM     39  C   UNL A   1      45.542  35.351  28.665  1.00  0.00     0.060 A 
ATOM     40  C   UNL A   1      45.770  35.053  30.015  1.00  0.00     0.016 A 
ATOM     41  C   UNL A   1      44.321  35.086  28.037  1.00  0.00     0.016 A 
ATOM     42  C   UNL A   1      44.832  34.302  30.688  1.00  0.00     0.010 A 
ATOM     43  C   UNL A   1      43.401  34.316  28.701  1.00  0.00     0.010 A 
ATOM     44  C   UNL A   1      43.708  33.868  29.986  1.00  0.00    -0.014 A 
BRANCH  44  45
ATOM     45  C   UNL A   1      42.834  32.902  30.615  1.00  0.00     0.031 A 
ATOM     46  C   UNL A   1      43.264  31.497  30.453  1.00  0.00     0.074 A 
ATOM     47  C   UNL A   1      41.836  33.308  31.422  1.00  0.00     0.049 A 
ATOM     48  N   UNL A   1      42.651  30.530  29.857  1.00  0.00    -0.248 NA
ATOM     49  C   UNL A   1      44.629  31.165  30.894  1.00  0.00     0.031 C 
ATOM     50  C   UNL A   1      41.566  34.671  31.897  1.00  0.00     0.029 A 
ATOM     51  N   UNL A   1      40.928  32.560  32.099  1.00  0.00    -0.354 N 
ATOM     52  C   UNL A   1      43.461  29.414  30.042  1.00  0.00     0.074 A 
ATOM     53  C   UNL A   1      44.738  29.902  30.489  1.00  0.00     0.031 C 
ATOM     54  C   UNL A   1      40.721  34.612  32.950  1.00  0.00     0.029 A 
ATOM     55  C   UNL A   1      40.302  33.234  33.138  1.00  0.00     0.049 A 
ATOM     56  H   UNL A   1      40.731  31.624  31.874  1.00  0.00     0.167 HD
ATOM     57  C   UNL A   1      42.951  28.155  30.075  1.00  0.00     0.037 A 
ATOM     58  C   UNL A   1      39.578  32.666  34.134  1.00  0.00     0.037 A 
ATOM     59  C   UNL A   1      41.629  28.105  29.508  1.00  0.00     0.049 A 
ATOM     60  C   UNL A   1      39.187  31.306  33.677  1.00  0.00     0.074 A 
ATOM     61  C   UNL A   1      41.094  28.364  28.262  1.00  0.00     0.029 A 
ATOM     62  N   UNL A   1      40.570  28.086  30.382  1.00  0.00    -0.354 N 
ATOM     63  N   UNL A   1      38.382  31.071  32.676  1.00  0.00    -0.248 NA
ATOM     64  C   UNL A   1      40.025  30.182  34.071  1.00  0.00     0.031 C 
ATOM     65  C   UNL A   1      39.802  28.908  28.512  1.00  0.00     0.029 A 
ATOM     66  C   UNL A   1      39.599  28.923  29.894  1.00  0.00     0.049 A 
ATOM     67  H   UNL A   1      40.517  27.562  31.214  1.00  0.00     0.167 HD
ATOM     68  C   UNL A   1      38.889  29.934  32.062  1.00  0.00     0.074 A 
ATOM     69  C   UNL A   1      39.822  29.368  33.031  1.00  0.00     0.031 C 
ATOM     70  C   UNL A   1      38.716  29.717  30.725  1.00  0.00     0.037 A 
BRANCH  57  71
ATOM     71  C   UNL A   1      43.499  27.056  30.954  1.00  0.00     0.058 A 
ATOM     72  C   UNL A   1      43.325  27.134  32.349  1.00  0.00     0.135 A 
ATOM     73  C   UNL A   1      44.420  26.078  30.508  1.00  0.00     0.135 A 
ATOM     74  F   UNL A   1      42.488  28.038  32.883  1.00  0.00    -0.206 F 
ATOM     75  C   UNL A   1      44.061  26.347  33.237  1.00  0.00     0.059 A 
ATOM     76  C   UNL A   1      45.114  25.241  31.371  1.00  0.00     0.059 A 
ATOM     77  F   UNL A   1      44.772  25.956  29.223  1.00  0.00    -0.206 F 
ATOM     78  C   UNL A   1      44.965  25.416  32.735  1.00  0.00     0.060 A 
BRANCH  78  79
ATOM     79  S   UNL A   1      46.014  24.492  33.869  1.00  0.00     0.124 S 
ATOM     80  O   UNL A   1      45.562  23.126  33.631  1.00  0.00    -0.237 OA
ATOM     81  O   UNL A   1      47.351  24.820  33.383  1.00  0.00    -0.237 OA
ATOM     82  O   UNL A   1      45.674  25.053  35.173  1.00  0.00    -0.744 OA
ENDBRANCH  78  79
ENDBRANCH  57  71
BRANCH  58  83
ATOM     83  C   UNL A   1      39.533  33.084  35.561  1.00  0.00     0.058 A 
ATOM     84  C   UNL A   1      38.319  33.403  36.190  1.00  0.00     0.135 A 
ATOM     85  C   UNL A   1      40.649  32.925  36.410  1.00  0.00     0.135 A 
ATOM     86  F   UNL A   1      37.200  33.544  35.462  1.00  0.00    -0.206 F 
ATOM     87  C   UNL A   1      38.207  33.521  37.581  1.00  0.00     0.059 A 
ATOM     88  C   UNL A   1      40.567  33.051  37.794  1.00  0.00     0.059 A 
ATOM     89  F   UNL A   1      41.842  32.549  35.926  1.00  0.00    -0.206 F 
ATOM     90  C   UNL A   1      39.336  33.326  38.376  1.00  0.00     0.060 A 
BRANCH  90  91
ATOM     91  S   UNL A   1      39.168  33.316  40.176  1.00  0.00     0.124 S 
ATOM     92  O   UNL A   1      38.743  31.945  40.431  1.00  0.00    -0.237 OA
ATOM     93  O   UNL A   1      40.517  33.658  40.613  1.00  0.00    -0.237 OA
ATOM     94  O   UNL A   1      38.157  34.339  40.428  1.00  0.00    -0.744 OA
ENDBRANCH  90  91
ENDBRANCH  58  83
BRANCH  70  95
ATOM     95  C   UNL A   1      37.683  30.549  30.006  1.00  0.00     0.058 A 
ATOM     96  C   UNL A   1      36.349  30.153  29.809  1.00  0.00     0.135 A 
ATOM     97  C   UNL A   1      38.021  31.862  29.643  1.00  0.00     0.135 A 
ATOM     98  F   UNL A   1      35.918  28.954  30.222  1.00  0.00    -0.206 F 
ATOM     99  C   UNL A   1      35.403  31.009  29.243  1.00  0.00     0.059 A 
ATOM    100  C   UNL A   1      37.085  32.743  29.105  1.00  0.00     0.059 A 
ATOM    101  F   UNL A   1      39.263  32.321  29.865  1.00  0.00    -0.206 F 
ATOM    102  C   UNL A   1      35.778  32.306  28.898  1.00  0.00     0.060 A 
BRANCH 102 103
ATOM    103  S   UNL A   1      34.528  33.442  28.260  1.00  0.00     0.124 S 
ATOM    104  O   UNL A   1      33.512  32.527  27.751  1.00  0.00    -0.237 OA
ATOM    105  O   UNL A   1      34.153  34.205  29.447  1.00  0.00    -0.237 OA
ATOM    106  O   UNL A   1      35.246  34.206  27.243  1.00  0.00    -0.744 OA
ENDBRANCH 102 103
ENDBRANCH  70  95
ENDBRANCH  44  45
ENDBRANCH  37  39
ENDBRANCH  36  37
ENDBRANCH  35  36
ENDBRANCH  34  35
ENDBRANCH  33  34
ENDBRANCH   1  33
TORSDOF 22
ENDMDL
