MODEL 1
REMARK VINA RESULT:     -11.9      0.000      0.000
REMARK SMILES Cc1ccc(F)cc1NC(=O)c1nn(C)cc1C(=O)OCCOC(=O)c1ccc(-c2c3nc(c(-c4c(F)cc(S(=O)(=O)[O-])cc4F)c4ccc([nH]4)c(-c4c(F)cc(S(=O)(=O)[O-])cc4F)c4nc(c(-c5c(F)cc(S(=O)(=O)[O-])cc5F)c5ccc2[nH]5)C=C4)C=C3)cc1
REMARK SMILES IDX 22 1 21 2 20 3 18 4 19 5 17 6 12 7 13 8 14 9 16 10 15 11
REMARK SMILES IDX 10 12 9 13 11 15 8 16 1 17 2 18 3 19 4 20 7 21 5 22 6 23
REMARK SMILES IDX 23 24 24 25 25 26 26 27 27 28 91 29 28 30 90 31 29 32 30 33
REMARK SMILES IDX 31 34 84 35 32 36 89 37 83 38 85 39 33 40 88 41 82 42 81 43
REMARK SMILES IDX 34 45 68 46 47 47 67 48 48 49 51 50 66 51 86 52 49 53 50 54
REMARK SMILES IDX 65 56 87 57 52 58 35 59 36 60 45 61 37 62 38 63 44 64 46 65
REMARK SMILES IDX 39 66 40 67 41 68 42 69 43 70 69 71 70 72 79 73 71 74 72 75
REMARK SMILES IDX 78 76 80 77 73 78 74 79 75 80 76 81 77 82 53 83 54 84 63 85
REMARK SMILES IDX 55 86 56 87 62 88 64 89 57 90 58 91 59 92 60 93 61 94
REMARK H PARENT 9 14 85 44 51 55
REMARK Flexibility Score: inf
ROOT
ATOM      1  C   UNL A   1      34.527  30.661  27.701  1.00  0.00     0.275 C 
ENDROOT
BRANCH   1   2
ATOM      2  C   UNL A   1      33.280  29.929  27.208  1.00  0.00     0.275 C 
BRANCH   2   3
ATOM      3  O   UNL A   1      33.507  28.526  26.955  1.00  0.00    -0.458 OA
BRANCH   3   4
ATOM      4  C   UNL A   1      32.380  27.763  26.838  1.00  0.00     0.342 C 
ATOM      5  O   UNL A   1      31.547  27.623  27.722  1.00  0.00    -0.246 OA
BRANCH   4   6
ATOM      6  C   UNL A   1      32.345  26.985  25.621  1.00  0.00     0.111 A 
ATOM      7  C   UNL A   1      32.327  25.572  25.410  1.00  0.00     0.165 A 
ATOM      8  N   UNL A   1      32.461  25.284  24.100  1.00  0.00    -0.167 NA
ATOM      9  N   UNL A   1      32.637  26.470  23.510  1.00  0.00    -0.274 N 
ATOM     10  C   UNL A   1      32.498  27.524  24.356  1.00  0.00     0.125 A 
ATOM     11  C   UNL A   1      33.036  26.510  22.125  1.00  0.00     0.173 C 
BRANCH   7  12
ATOM     12  C   UNL A   1      32.257  24.473  26.370  1.00  0.00     0.277 C 
ATOM     13  N   UNL A   1      33.218  23.483  26.416  1.00  0.00    -0.320 N 
ATOM     14  H   UNL A   1      33.018  22.779  27.075  1.00  0.00     0.170 HD
ATOM     15  O   UNL A   1      31.313  24.387  27.159  1.00  0.00    -0.267 OA
BRANCH  13  16
ATOM     16  C   UNL A   1      34.426  23.264  25.723  1.00  0.00     0.047 A 
ATOM     17  C   UNL A   1      33.214  21.736  24.020  1.00  0.00     0.046 C 
ATOM     18  C   UNL A   1      34.422  22.460  24.556  1.00  0.00    -0.027 A 
ATOM     19  C   UNL A   1      35.600  22.334  23.791  1.00  0.00     0.008 A 
ATOM     20  C   UNL A   1      36.770  22.978  24.172  1.00  0.00     0.039 A 
ATOM     21  C   UNL A   1      35.637  23.829  26.132  1.00  0.00     0.065 A 
ATOM     22  C   UNL A   1      36.781  23.702  25.351  1.00  0.00     0.125 A 
ATOM     23  F   UNL A   1      37.915  24.295  25.748  1.00  0.00    -0.207 F 
ENDBRANCH  13  16
ENDBRANCH   7  12
ENDBRANCH   4   6
ENDBRANCH   3   4
ENDBRANCH   2   3
ENDBRANCH   1   2
BRANCH   1  24
ATOM     24  O   UNL A   1      35.422  29.748  28.364  1.00  0.00    -0.458 OA
BRANCH  24  25
ATOM     25  C   UNL A   1      36.205  30.339  29.290  1.00  0.00     0.338 C 
ATOM     26  O   UNL A   1      35.815  30.933  30.284  1.00  0.00    -0.246 OA
BRANCH  25  27
ATOM     27  C   UNL A   1      37.640  30.213  29.002  1.00  0.00     0.060 A 
ATOM     28  C   UNL A   1      38.072  29.842  27.731  1.00  0.00     0.016 A 
ATOM     29  C   UNL A   1      38.535  30.201  30.077  1.00  0.00     0.016 A 
ATOM     30  C   UNL A   1      39.369  29.365  27.554  1.00  0.00     0.010 A 
ATOM     31  C   UNL A   1      39.857  29.784  29.883  1.00  0.00     0.010 A 
ATOM     32  C   UNL A   1      40.273  29.330  28.624  1.00  0.00    -0.014 A 
BRANCH  32  33
ATOM     33  C   UNL A   1      41.672  28.908  28.376  1.00  0.00     0.031 A 
ATOM     34  C   UNL A   1      42.829  29.855  28.517  1.00  0.00     0.074 A 
ATOM     35  C   UNL A   1      41.884  27.618  28.058  1.00  0.00     0.049 A 
ATOM     36  N   UNL A   1      44.096  29.652  28.264  1.00  0.00    -0.248 NA
ATOM     37  C   UNL A   1      42.530  31.207  29.006  1.00  0.00     0.031 C 
ATOM     38  C   UNL A   1      40.835  26.602  27.944  1.00  0.00     0.029 A 
ATOM     39  N   UNL A   1      43.041  26.937  27.796  1.00  0.00    -0.354 N 
ATOM     40  C   UNL A   1      44.742  30.856  28.527  1.00  0.00     0.074 A 
ATOM     41  C   UNL A   1      43.725  31.785  28.971  1.00  0.00     0.031 C 
ATOM     42  C   UNL A   1      41.400  25.418  27.678  1.00  0.00     0.029 A 
ATOM     43  C   UNL A   1      42.839  25.606  27.528  1.00  0.00     0.049 A 
ATOM     44  H   UNL A   1      43.931  27.359  27.798  1.00  0.00     0.167 HD
ATOM     45  C   UNL A   1      46.059  31.149  28.399  1.00  0.00     0.037 A 
ATOM     46  C   UNL A   1      43.707  24.645  27.170  1.00  0.00     0.037 A 
ATOM     47  C   UNL A   1      47.062  30.193  27.999  1.00  0.00     0.049 A 
ATOM     48  C   UNL A   1      45.151  24.999  27.013  1.00  0.00     0.074 A 
ATOM     49  C   UNL A   1      48.429  30.376  27.875  1.00  0.00     0.029 A 
ATOM     50  N   UNL A   1      46.807  28.870  27.662  1.00  0.00    -0.354 N 
ATOM     51  N   UNL A   1      45.737  26.155  27.207  1.00  0.00    -0.248 NA
ATOM     52  C   UNL A   1      46.048  23.928  26.564  1.00  0.00     0.031 C 
ATOM     53  C   UNL A   1      48.995  29.176  27.425  1.00  0.00     0.029 A 
ATOM     54  C   UNL A   1      47.986  28.234  27.303  1.00  0.00     0.049 A 
ATOM     55  H   UNL A   1      45.919  28.445  27.675  1.00  0.00     0.167 HD
ATOM     56  C   UNL A   1      47.072  25.961  26.887  1.00  0.00     0.074 A 
ATOM     57  C   UNL A   1      47.211  24.564  26.516  1.00  0.00     0.031 C 
ATOM     58  C   UNL A   1      48.089  26.857  26.893  1.00  0.00     0.037 A 
BRANCH  45  59
ATOM     59  C   UNL A   1      46.499  32.567  28.647  1.00  0.00     0.058 A 
ATOM     60  C   UNL A   1      46.478  33.546  27.643  1.00  0.00     0.135 A 
ATOM     61  C   UNL A   1      46.875  32.967  29.941  1.00  0.00     0.135 A 
ATOM     62  F   UNL A   1      46.139  33.219  26.386  1.00  0.00    -0.206 F 
ATOM     63  C   UNL A   1      46.822  34.870  27.910  1.00  0.00     0.059 A 
ATOM     64  C   UNL A   1      47.207  34.286  30.235  1.00  0.00     0.059 A 
ATOM     65  F   UNL A   1      46.915  32.070  30.939  1.00  0.00    -0.206 F 
ATOM     66  C   UNL A   1      47.185  35.231  29.210  1.00  0.00     0.060 A 
BRANCH  66  67
ATOM     67  S   UNL A   1      47.601  36.955  29.556  1.00  0.00     0.124 S 
ATOM     68  O   UNL A   1      46.316  37.481  30.005  1.00  0.00    -0.237 OA
ATOM     69  O   UNL A   1      48.630  36.833  30.585  1.00  0.00    -0.237 OA
ATOM     70  O   UNL A   1      48.069  37.456  28.267  1.00  0.00    -0.744 OA
ENDBRANCH  66  67
ENDBRANCH  45  59
BRANCH  46  71
ATOM     71  C   UNL A   1      43.189  23.279  26.917  1.00  0.00     0.058 A 
ATOM     72  C   UNL A   1      43.096  22.776  25.614  1.00  0.00     0.135 A 
ATOM     73  C   UNL A   1      42.917  22.407  27.984  1.00  0.00     0.135 A 
ATOM     74  F   UNL A   1      43.339  23.578  24.566  1.00  0.00    -0.206 F 
ATOM     75  C   UNL A   1      42.785  21.442  25.374  1.00  0.00     0.059 A 
ATOM     76  C   UNL A   1      42.627  21.065  27.770  1.00  0.00     0.059 A 
ATOM     77  F   UNL A   1      43.014  22.843  29.250  1.00  0.00    -0.206 F 
ATOM     78  C   UNL A   1      42.571  20.590  26.460  1.00  0.00     0.060 A 
BRANCH  78  79
ATOM     79  S   UNL A   1      42.327  18.825  26.158  1.00  0.00     0.124 S 
ATOM     80  O   UNL A   1      42.629  18.260  27.468  1.00  0.00    -0.237 OA
ATOM     81  O   UNL A   1      40.928  18.767  25.745  1.00  0.00    -0.237 OA
ATOM     82  O   UNL A   1      43.293  18.533  25.104  1.00  0.00    -0.744 OA
ENDBRANCH  78  79
ENDBRANCH  46  71
BRANCH  58  83
ATOM     83  C   UNL A   1      49.427  26.342  26.451  1.00  0.00     0.058 A 
ATOM     84  C   UNL A   1      50.296  25.719  27.360  1.00  0.00     0.135 A 
ATOM     85  C   UNL A   1      49.855  26.497  25.125  1.00  0.00     0.135 A 
ATOM     86  F   UNL A   1      49.931  25.556  28.642  1.00  0.00    -0.206 F 
ATOM     87  C   UNL A   1      51.565  25.303  26.977  1.00  0.00     0.059 A 
ATOM     88  C   UNL A   1      51.114  26.071  24.716  1.00  0.00     0.059 A 
ATOM     89  F   UNL A   1      49.054  27.078  24.219  1.00  0.00    -0.206 F 
ATOM     90  C   UNL A   1      51.971  25.497  25.656  1.00  0.00     0.060 A 
BRANCH  90  91
ATOM     91  S   UNL A   1      53.634  24.989  25.174  1.00  0.00     0.124 S 
ATOM     92  O   UNL A   1      53.475  23.542  25.063  1.00  0.00    -0.237 OA
ATOM     93  O   UNL A   1      53.834  25.703  23.916  1.00  0.00    -0.237 OA
ATOM     94  O   UNL A   1      54.462  25.448  26.285  1.00  0.00    -0.744 OA
ENDBRANCH  90  91
ENDBRANCH  58  83
ENDBRANCH  32  33
ENDBRANCH  25  27
ENDBRANCH  24  25
ENDBRANCH   1  24
TORSDOF 16
ENDMDL
MODEL 2
REMARK VINA RESULT:     -11.7      6.801     11.981
REMARK SMILES Cc1ccc(F)cc1NC(=O)c1nn(C)cc1C(=O)OCCOC(=O)c1ccc(-c2c3nc(c(-c4c(F)cc(S(=O)(=O)[O-])cc4F)c4ccc([nH]4)c(-c4c(F)cc(S(=O)(=O)[O-])cc4F)c4nc(c(-c5c(F)cc(S(=O)(=O)[O-])cc5F)c5ccc2[nH]5)C=C4)C=C3)cc1
REMARK SMILES IDX 22 1 21 2 20 3 18 4 19 5 17 6 12 7 13 8 14 9 16 10 15 11
REMARK SMILES IDX 10 12 9 13 11 15 8 16 1 17 2 18 3 19 4 20 7 21 5 22 6 23
REMARK SMILES IDX 23 24 24 25 25 26 26 27 27 28 91 29 28 30 90 31 29 32 30 33
REMARK SMILES IDX 31 34 84 35 32 36 89 37 83 38 85 39 33 40 88 41 82 42 81 43
REMARK SMILES IDX 34 45 68 46 47 47 67 48 48 49 51 50 66 51 86 52 49 53 50 54
REMARK SMILES IDX 65 56 87 57 52 58 35 59 36 60 45 61 37 62 38 63 44 64 46 65
REMARK SMILES IDX 39 66 40 67 41 68 42 69 43 70 69 71 70 72 79 73 71 74 72 75
REMARK SMILES IDX 78 76 80 77 73 78 74 79 75 80 76 81 77 82 53 83 54 84 63 85
REMARK SMILES IDX 55 86 56 87 62 88 64 89 57 90 58 91 59 92 60 93 61 94
REMARK H PARENT 9 14 85 44 51 55
REMARK Flexibility Score: inf
ROOT
ATOM      1  C   UNL A   1      38.858  22.584  26.189  1.00  0.00     0.275 C 
ENDROOT
BRANCH   1   2
ATOM      2  C   UNL A   1      37.442  22.189  25.777  1.00  0.00     0.275 C 
BRANCH   2   3
ATOM      3  O   UNL A   1      36.451  23.179  26.126  1.00  0.00    -0.458 OA
BRANCH   3   4
ATOM      4  C   UNL A   1      35.176  22.707  26.266  1.00  0.00     0.342 C 
ATOM      5  O   UNL A   1      34.837  21.869  27.089  1.00  0.00    -0.246 OA
BRANCH   4   6
ATOM      6  C   UNL A   1      34.284  23.165  25.227  1.00  0.00     0.111 A 
ATOM      7  C   UNL A   1      32.959  23.696  25.293  1.00  0.00     0.165 A 
ATOM      8  N   UNL A   1      32.441  23.839  24.056  1.00  0.00    -0.167 NA
ATOM      9  N   UNL A   1      33.374  23.343  23.240  1.00  0.00    -0.274 N 
ATOM     10  C   UNL A   1      34.526  23.000  23.874  1.00  0.00     0.125 A 
ATOM     11  C   UNL A   1      33.050  23.136  21.850  1.00  0.00     0.173 C 
BRANCH   7  12
ATOM     12  C   UNL A   1      32.124  24.016  26.449  1.00  0.00     0.277 C 
ATOM     13  N   UNL A   1      31.803  25.317  26.777  1.00  0.00    -0.320 N 
ATOM     14  H   UNL A   1      31.279  25.389  27.608  1.00  0.00     0.170 HD
ATOM     15  O   UNL A   1      31.700  23.121  27.183  1.00  0.00    -0.267 OA
BRANCH  13  16
ATOM     16  C   UNL A   1      32.063  26.567  26.179  1.00  0.00     0.047 A 
ATOM     17  C   UNL A   1      29.905  26.378  24.760  1.00  0.00     0.046 C 
ATOM     18  C   UNL A   1      31.140  27.094  25.241  1.00  0.00    -0.027 A 
ATOM     19  C   UNL A   1      31.332  28.395  24.729  1.00  0.00     0.008 A 
ATOM     20  C   UNL A   1      32.421  29.162  25.122  1.00  0.00     0.039 A 
ATOM     21  C   UNL A   1      33.196  27.324  26.489  1.00  0.00     0.065 A 
ATOM     22  C   UNL A   1      33.353  28.610  25.981  1.00  0.00     0.125 A 
ATOM     23  F   UNL A   1      34.428  29.327  26.335  1.00  0.00    -0.207 F 
ENDBRANCH  13  16
ENDBRANCH   7  12
ENDBRANCH   4   6
ENDBRANCH   3   4
ENDBRANCH   2   3
ENDBRANCH   1   2
BRANCH   1  24
ATOM     24  O   UNL A   1      39.017  24.015  26.152  1.00  0.00    -0.458 OA
BRANCH  24  25
ATOM     25  C   UNL A   1      40.165  24.445  26.715  1.00  0.00     0.338 C 
ATOM     26  O   UNL A   1      41.271  23.956  26.547  1.00  0.00    -0.246 OA
BRANCH  25  27
ATOM     27  C   UNL A   1      39.980  25.606  27.597  1.00  0.00     0.060 A 
ATOM     28  C   UNL A   1      40.840  26.698  27.510  1.00  0.00     0.016 A 
ATOM     29  C   UNL A   1      39.117  25.480  28.690  1.00  0.00     0.016 A 
ATOM     30  C   UNL A   1      40.907  27.610  28.561  1.00  0.00     0.010 A 
ATOM     31  C   UNL A   1      39.140  26.433  29.713  1.00  0.00     0.010 A 
ATOM     32  C   UNL A   1      40.062  27.488  29.672  1.00  0.00    -0.014 A 
BRANCH  32  33
ATOM     33  C   UNL A   1      40.095  28.531  30.724  1.00  0.00     0.031 A 
ATOM     34  C   UNL A   1      41.101  28.508  31.839  1.00  0.00     0.074 A 
ATOM     35  C   UNL A   1      39.212  29.541  30.626  1.00  0.00     0.049 A 
ATOM     36  N   UNL A   1      41.208  29.308  32.870  1.00  0.00    -0.248 NA
ATOM     37  C   UNL A   1      42.122  27.453  31.797  1.00  0.00     0.031 C 
ATOM     38  C   UNL A   1      38.224  29.686  29.554  1.00  0.00     0.029 A 
ATOM     39  N   UNL A   1      39.014  30.640  31.415  1.00  0.00    -0.354 N 
ATOM     40  C   UNL A   1      42.282  28.835  33.617  1.00  0.00     0.074 A 
ATOM     41  C   UNL A   1      42.802  27.681  32.915  1.00  0.00     0.031 C 
ATOM     42  C   UNL A   1      37.555  30.832  29.728  1.00  0.00     0.029 A 
ATOM     43  C   UNL A   1      38.012  31.461  30.962  1.00  0.00     0.049 A 
ATOM     44  H   UNL A   1      39.538  30.824  32.228  1.00  0.00     0.167 HD
ATOM     45  C   UNL A   1      42.774  29.321  34.783  1.00  0.00     0.037 A 
ATOM     46  C   UNL A   1      37.492  32.581  31.493  1.00  0.00     0.037 A 
ATOM     47  C   UNL A   1      42.269  30.501  35.441  1.00  0.00     0.049 A 
ATOM     48  C   UNL A   1      38.036  33.084  32.791  1.00  0.00     0.074 A 
ATOM     49  C   UNL A   1      42.720  31.101  36.604  1.00  0.00     0.029 A 
ATOM     50  N   UNL A   1      41.200  31.265  34.989  1.00  0.00    -0.354 N 
ATOM     51  N   UNL A   1      39.012  32.593  33.516  1.00  0.00    -0.248 NA
ATOM     52  C   UNL A   1      37.396  34.276  33.357  1.00  0.00     0.031 C 
ATOM     53  C   UNL A   1      41.899  32.204  36.877  1.00  0.00     0.029 A 
ATOM     54  C   UNL A   1      40.960  32.312  35.864  1.00  0.00     0.049 A 
ATOM     55  H   UNL A   1      40.688  31.088  34.167  1.00  0.00     0.167 HD
ATOM     56  C   UNL A   1      39.094  33.403  34.638  1.00  0.00     0.074 A 
ATOM     57  C   UNL A   1      38.087  34.437  34.478  1.00  0.00     0.031 C 
ATOM     58  C   UNL A   1      39.922  33.299  35.706  1.00  0.00     0.037 A 
BRANCH  45  59
ATOM     59  C   UNL A   1      43.886  28.563  35.456  1.00  0.00     0.058 A 
ATOM     60  C   UNL A   1      45.240  28.843  35.214  1.00  0.00     0.135 A 
ATOM     61  C   UNL A   1      43.585  27.588  36.421  1.00  0.00     0.135 A 
ATOM     62  F   UNL A   1      45.588  29.755  34.293  1.00  0.00    -0.206 F 
ATOM     63  C   UNL A   1      46.255  28.178  35.900  1.00  0.00     0.059 A 
ATOM     64  C   UNL A   1      44.580  26.923  37.131  1.00  0.00     0.059 A 
ATOM     65  F   UNL A   1      42.306  27.278  36.690  1.00  0.00    -0.206 F 
ATOM     66  C   UNL A   1      45.915  27.219  36.858  1.00  0.00     0.060 A 
BRANCH  66  67
ATOM     67  S   UNL A   1      47.235  26.381  37.764  1.00  0.00     0.124 S 
ATOM     68  O   UNL A   1      46.747  26.471  39.137  1.00  0.00    -0.237 OA
ATOM     69  O   UNL A   1      47.226  25.045  37.176  1.00  0.00    -0.237 OA
ATOM     70  O   UNL A   1      48.416  27.185  37.463  1.00  0.00    -0.744 OA
ENDBRANCH  66  67
ENDBRANCH  45  59
BRANCH  46  71
ATOM     71  C   UNL A   1      36.379  33.253  30.781  1.00  0.00     0.058 A 
ATOM     72  C   UNL A   1      35.071  33.197  31.278  1.00  0.00     0.135 A 
ATOM     73  C   UNL A   1      36.632  34.080  29.675  1.00  0.00     0.135 A 
ATOM     74  F   UNL A   1      34.784  32.413  32.328  1.00  0.00    -0.206 F 
ATOM     75  C   UNL A   1      34.054  33.969  30.725  1.00  0.00     0.059 A 
ATOM     76  C   UNL A   1      35.638  34.876  29.120  1.00  0.00     0.059 A 
ATOM     77  F   UNL A   1      37.876  34.178  29.179  1.00  0.00    -0.206 F 
ATOM     78  C   UNL A   1      34.352  34.819  29.658  1.00  0.00     0.060 A 
BRANCH  78  79
ATOM     79  S   UNL A   1      33.074  35.939  29.043  1.00  0.00     0.124 S 
ATOM     80  O   UNL A   1      32.293  35.051  28.190  1.00  0.00    -0.237 OA
ATOM     81  O   UNL A   1      32.423  36.379  30.273  1.00  0.00    -0.237 OA
ATOM     82  O   UNL A   1      33.843  36.969  28.350  1.00  0.00    -0.744 OA
ENDBRANCH  78  79
ENDBRANCH  46  71
BRANCH  58  83
ATOM     83  C   UNL A   1      39.736  34.320  36.789  1.00  0.00     0.058 A 
ATOM     84  C   UNL A   1      40.338  35.584  36.701  1.00  0.00     0.135 A 
ATOM     85  C   UNL A   1      38.979  34.025  37.932  1.00  0.00     0.135 A 
ATOM     86  F   UNL A   1      41.079  35.907  35.628  1.00  0.00    -0.206 F 
ATOM     87  C   UNL A   1      40.231  36.510  37.731  1.00  0.00     0.059 A 
ATOM     88  C   UNL A   1      38.843  34.944  38.968  1.00  0.00     0.059 A 
ATOM     89  F   UNL A   1      38.376  32.833  38.057  1.00  0.00    -0.206 F 
ATOM     90  C   UNL A   1      39.493  36.174  38.868  1.00  0.00     0.060 A 
BRANCH  90  91
ATOM     91  S   UNL A   1      39.388  37.367  40.219  1.00  0.00     0.124 S 
ATOM     92  O   UNL A   1      38.658  36.602  41.225  1.00  0.00    -0.237 OA
ATOM     93  O   UNL A   1      40.791  37.632  40.519  1.00  0.00    -0.237 OA
ATOM     94  O   UNL A   1      38.659  38.484  39.626  1.00  0.00    -0.744 OA
ENDBRANCH  90  91
ENDBRANCH  58  83
ENDBRANCH  32  33
ENDBRANCH  25  27
ENDBRANCH  24  25
ENDBRANCH   1  24
TORSDOF 16
ENDMDL
MODEL 3
REMARK VINA RESULT:     -11.6      6.814     11.954
REMARK SMILES Cc1ccc(F)cc1NC(=O)c1nn(C)cc1C(=O)OCCOC(=O)c1ccc(-c2c3nc(c(-c4c(F)cc(S(=O)(=O)[O-])cc4F)c4ccc([nH]4)c(-c4c(F)cc(S(=O)(=O)[O-])cc4F)c4nc(c(-c5c(F)cc(S(=O)(=O)[O-])cc5F)c5ccc2[nH]5)C=C4)C=C3)cc1
REMARK SMILES IDX 22 1 21 2 20 3 18 4 19 5 17 6 12 7 13 8 14 9 16 10 15 11
REMARK SMILES IDX 10 12 9 13 11 15 8 16 1 17 2 18 3 19 4 20 7 21 5 22 6 23
REMARK SMILES IDX 23 24 24 25 25 26 26 27 27 28 91 29 28 30 90 31 29 32 30 33
REMARK SMILES IDX 31 34 84 35 32 36 89 37 83 38 85 39 33 40 88 41 82 42 81 43
REMARK SMILES IDX 34 45 68 46 47 47 67 48 48 49 51 50 66 51 86 52 49 53 50 54
REMARK SMILES IDX 65 56 87 57 52 58 35 59 36 60 45 61 37 62 38 63 44 64 46 65
REMARK SMILES IDX 39 66 40 67 41 68 42 69 43 70 69 71 70 72 79 73 71 74 72 75
REMARK SMILES IDX 78 76 80 77 73 78 74 79 75 80 76 81 77 82 53 83 54 84 63 85
REMARK SMILES IDX 55 86 56 87 62 88 64 89 57 90 58 91 59 92 60 93 61 94
REMARK H PARENT 9 14 85 44 51 55
REMARK Flexibility Score: inf
ROOT
ATOM      1  C   UNL A   1      38.580  22.847  26.223  1.00  0.00     0.275 C 
ENDROOT
BRANCH   1   2
ATOM      2  C   UNL A   1      37.387  22.434  25.363  1.00  0.00     0.275 C 
BRANCH   2   3
ATOM      3  O   UNL A   1      36.209  23.234  25.603  1.00  0.00    -0.458 OA
BRANCH   3   4
ATOM      4  C   UNL A   1      35.139  22.560  26.118  1.00  0.00     0.342 C 
ATOM      5  O   UNL A   1      35.186  21.849  27.113  1.00  0.00    -0.246 OA
BRANCH   4   6
ATOM      6  C   UNL A   1      33.968  22.621  25.275  1.00  0.00     0.111 A 
ATOM      7  C   UNL A   1      32.618  22.987  25.567  1.00  0.00     0.165 A 
ATOM      8  N   UNL A   1      31.819  22.741  24.509  1.00  0.00    -0.167 NA
ATOM      9  N   UNL A   1      32.619  22.166  23.607  1.00  0.00    -0.274 N 
ATOM     10  C   UNL A   1      33.927  22.141  23.977  1.00  0.00     0.125 A 
ATOM     11  C   UNL A   1      32.035  21.568  22.433  1.00  0.00     0.173 C 
BRANCH   7  12
ATOM     12  C   UNL A   1      32.021  23.492  26.800  1.00  0.00     0.277 C 
ATOM     13  N   UNL A   1      31.372  24.709  26.849  1.00  0.00    -0.320 N 
ATOM     14  H   UNL A   1      31.064  24.948  27.754  1.00  0.00     0.170 HD
ATOM     15  O   UNL A   1      32.103  22.847  27.847  1.00  0.00    -0.267 OA
BRANCH  13  16
ATOM     16  C   UNL A   1      31.053  25.685  25.883  1.00  0.00     0.047 A 
ATOM     17  C   UNL A   1      33.410  26.733  26.110  1.00  0.00     0.046 C 
ATOM     18  C   UNL A   1      32.037  26.631  25.500  1.00  0.00    -0.027 A 
ATOM     19  C   UNL A   1      31.766  27.532  24.450  1.00  0.00     0.008 A 
ATOM     20  C   UNL A   1      30.542  27.515  23.792  1.00  0.00     0.039 A 
ATOM     21  C   UNL A   1      29.801  25.747  25.266  1.00  0.00     0.065 A 
ATOM     22  C   UNL A   1      29.565  26.636  24.223  1.00  0.00     0.125 A 
ATOM     23  F   UNL A   1      28.367  26.638  23.621  1.00  0.00    -0.207 F 
ENDBRANCH  13  16
ENDBRANCH   7  12
ENDBRANCH   4   6
ENDBRANCH   3   4
ENDBRANCH   2   3
ENDBRANCH   1   2
BRANCH   1  24
ATOM     24  O   UNL A   1      39.025  24.170  25.872  1.00  0.00    -0.458 OA
BRANCH  24  25
ATOM     25  C   UNL A   1      40.164  24.539  26.494  1.00  0.00     0.338 C 
ATOM     26  O   UNL A   1      41.259  24.017  26.350  1.00  0.00    -0.246 OA
BRANCH  25  27
ATOM     27  C   UNL A   1      39.984  25.673  27.411  1.00  0.00     0.060 A 
ATOM     28  C   UNL A   1      40.778  26.810  27.287  1.00  0.00     0.016 A 
ATOM     29  C   UNL A   1      39.208  25.482  28.559  1.00  0.00     0.016 A 
ATOM     30  C   UNL A   1      40.874  27.705  28.350  1.00  0.00     0.010 A 
ATOM     31  C   UNL A   1      39.256  26.418  29.599  1.00  0.00     0.010 A 
ATOM     32  C   UNL A   1      40.117  27.520  29.515  1.00  0.00    -0.014 A 
BRANCH  32  33
ATOM     33  C   UNL A   1      40.173  28.544  30.584  1.00  0.00     0.031 A 
ATOM     34  C   UNL A   1      41.204  28.505  31.675  1.00  0.00     0.074 A 
ATOM     35  C   UNL A   1      39.285  29.553  30.524  1.00  0.00     0.049 A 
ATOM     36  N   UNL A   1      41.333  29.287  32.716  1.00  0.00    -0.248 NA
ATOM     37  C   UNL A   1      42.226  27.453  31.591  1.00  0.00     0.031 C 
ATOM     38  C   UNL A   1      38.272  29.714  29.477  1.00  0.00     0.029 A 
ATOM     39  N   UNL A   1      39.102  30.638  31.337  1.00  0.00    -0.354 N 
ATOM     40  C   UNL A   1      42.425  28.804  33.430  1.00  0.00     0.074 A 
ATOM     41  C   UNL A   1      42.931  27.664  32.696  1.00  0.00     0.031 C 
ATOM     42  C   UNL A   1      37.604  30.855  29.687  1.00  0.00     0.029 A 
ATOM     43  C   UNL A   1      38.088  31.464  30.921  1.00  0.00     0.049 A 
ATOM     44  H   UNL A   1      39.645  30.810  32.141  1.00  0.00     0.167 HD
ATOM     45  C   UNL A   1      42.943  29.271  34.593  1.00  0.00     0.037 A 
ATOM     46  C   UNL A   1      37.579  32.573  31.483  1.00  0.00     0.037 A 
ATOM     47  C   UNL A   1      42.450  30.438  35.283  1.00  0.00     0.049 A 
ATOM     48  C   UNL A   1      38.151  33.055  32.777  1.00  0.00     0.074 A 
ATOM     49  C   UNL A   1      42.926  31.019  36.446  1.00  0.00     0.029 A 
ATOM     50  N   UNL A   1      41.369  31.206  34.869  1.00  0.00    -0.354 N 
ATOM     51  N   UNL A   1      39.144  32.554  33.471  1.00  0.00    -0.248 NA
ATOM     52  C   UNL A   1      37.521  34.236  33.379  1.00  0.00     0.031 C 
ATOM     53  C   UNL A   1      42.110  32.115  36.756  1.00  0.00     0.029 A 
ATOM     54  C   UNL A   1      41.147  32.238  35.768  1.00  0.00     0.049 A 
ATOM     55  H   UNL A   1      40.839  31.043  34.056  1.00  0.00     0.167 HD
ATOM     56  C   UNL A   1      39.251  33.345  34.604  1.00  0.00     0.074 A 
ATOM     57  C   UNL A   1      38.238  34.379  34.485  1.00  0.00     0.031 C 
ATOM     58  C   UNL A   1      40.103  33.224  35.651  1.00  0.00     0.037 A 
BRANCH  45  59
ATOM     59  C   UNL A   1      44.072  28.505  35.226  1.00  0.00     0.058 A 
ATOM     60  C   UNL A   1      45.419  28.815  34.986  1.00  0.00     0.135 A 
ATOM     61  C   UNL A   1      43.793  27.487  36.155  1.00  0.00     0.135 A 
ATOM     62  F   UNL A   1      45.745  29.769  34.099  1.00  0.00    -0.206 F 
ATOM     63  C   UNL A   1      46.450  28.139  35.637  1.00  0.00     0.059 A 
ATOM     64  C   UNL A   1      44.805  26.811  36.829  1.00  0.00     0.059 A 
ATOM     65  F   UNL A   1      42.522  27.148  36.421  1.00  0.00    -0.206 F 
ATOM     66  C   UNL A   1      46.132  27.138  36.558  1.00  0.00     0.060 A 
BRANCH  66  67
ATOM     67  S   UNL A   1      47.473  26.286  37.421  1.00  0.00     0.124 S 
ATOM     68  O   UNL A   1      48.499  27.323  37.460  1.00  0.00    -0.237 OA
ATOM     69  O   UNL A   1      46.862  25.950  38.703  1.00  0.00    -0.237 OA
ATOM     70  O   UNL A   1      47.763  25.148  36.554  1.00  0.00    -0.744 OA
ENDBRANCH  66  67
ENDBRANCH  45  59
BRANCH  46  71
ATOM     71  C   UNL A   1      36.447  33.254  30.809  1.00  0.00     0.058 A 
ATOM     72  C   UNL A   1      35.160  33.222  31.357  1.00  0.00     0.135 A 
ATOM     73  C   UNL A   1      36.668  34.067  29.685  1.00  0.00     0.135 A 
ATOM     74  F   UNL A   1      34.904  32.452  32.426  1.00  0.00    -0.206 F 
ATOM     75  C   UNL A   1      34.133  34.003  30.837  1.00  0.00     0.059 A 
ATOM     76  C   UNL A   1      35.664  34.872  29.162  1.00  0.00     0.059 A 
ATOM     77  F   UNL A   1      37.893  34.142  29.139  1.00  0.00    -0.206 F 
ATOM     78  C   UNL A   1      34.400  34.839  29.751  1.00  0.00     0.060 A 
BRANCH  78  79
ATOM     79  S   UNL A   1      33.115  35.971  29.175  1.00  0.00     0.124 S 
ATOM     80  O   UNL A   1      33.900  36.959  28.444  1.00  0.00    -0.237 OA
ATOM     81  O   UNL A   1      32.269  35.100  28.363  1.00  0.00    -0.237 OA
ATOM     82  O   UNL A   1      32.505  36.438  30.416  1.00  0.00    -0.744 OA
ENDBRANCH  78  79
ENDBRANCH  46  71
BRANCH  58  83
ATOM     83  C   UNL A   1      39.940  34.226  36.756  1.00  0.00     0.058 A 
ATOM     84  C   UNL A   1      39.174  33.926  37.894  1.00  0.00     0.135 A 
ATOM     85  C   UNL A   1      40.523  35.497  36.665  1.00  0.00     0.135 A 
ATOM     86  F   UNL A   1      38.591  32.723  38.020  1.00  0.00    -0.206 F 
ATOM     87  C   UNL A   1      38.957  34.872  38.888  1.00  0.00     0.059 A 
ATOM     88  C   UNL A   1      40.334  36.453  37.658  1.00  0.00     0.059 A 
ATOM     89  F   UNL A   1      41.270  35.826  35.600  1.00  0.00    -0.206 F 
ATOM     90  C   UNL A   1      39.530  36.138  38.754  1.00  0.00     0.060 A 
BRANCH  90  91
ATOM     91  S   UNL A   1      39.214  37.375  40.031  1.00  0.00     0.124 S 
ATOM     92  O   UNL A   1      38.591  36.564  41.072  1.00  0.00    -0.237 OA
ATOM     93  O   UNL A   1      40.553  37.872  40.330  1.00  0.00    -0.237 OA
ATOM     94  O   UNL A   1      38.333  38.329  39.365  1.00  0.00    -0.744 OA
ENDBRANCH  90  91
ENDBRANCH  58  83
ENDBRANCH  32  33
ENDBRANCH  25  27
ENDBRANCH  24  25
ENDBRANCH   1  24
TORSDOF 16
ENDMDL
