MODEL 1
REMARK VINA RESULT:     -11.7      0.000      0.000
REMARK SMILES CC[C@H](C)N1C(=O)c2ccccc2[C@@H](C(=O)OCCOC(=O)c2ccc(-c3c4nc(c(-c5c(F)cc(S(=O)(=O)[O-])cc5F)c5ccc([nH]5)c(-c5c(F)cc(S(=O)(=O)[O-])cc5F)c5nc(c(-c6c(F)cc(S(=O)(=O)[O-])cc6F)c6ccc3[nH]6)C=C5)C=C4)cc2)C12CCCCC2
REMARK SMILES IDX 19 1 18 2 17 3 15 4 16 5 14 6 5 7 6 8 89 9 7 10 8 11 90 12
REMARK SMILES IDX 94 13 9 14 13 15 91 16 93 17 10 18 12 19 92 20 11 21 3 22
REMARK SMILES IDX 4 23 2 24 1 25 20 26 21 27 22 28 23 29 24 30 88 31 25 32
REMARK SMILES IDX 87 33 26 34 27 35 28 36 81 37 29 38 86 39 80 40 82 41 30 42
REMARK SMILES IDX 85 43 79 44 78 45 31 47 65 48 44 49 64 50 45 51 48 52 63 53
REMARK SMILES IDX 83 54 46 55 47 56 62 58 84 59 49 60 32 61 33 62 42 63 34 64
REMARK SMILES IDX 35 65 41 66 43 67 36 68 37 69 38 70 39 71 40 72 66 73 67 74
REMARK SMILES IDX 76 75 68 76 69 77 75 78 77 79 70 80 71 81 72 82 73 83 74 84
REMARK SMILES IDX 50 85 51 86 60 87 52 88 53 89 59 90 61 91 54 92 55 93 56 94
REMARK SMILES IDX 57 95 58 96
REMARK H PARENT 82 46 48 57
REMARK Flexibility Score: inf
ROOT
ATOM      1  C   UNL A   1      33.473  29.188  25.049  1.00  0.00     0.275 C 
ENDROOT
BRANCH   1   2
ATOM      2  C   UNL A   1      33.956  28.287  23.896  1.00  0.00     0.274 C 
BRANCH   2   3
ATOM      3  O   UNL A   1      34.068  26.875  24.218  1.00  0.00    -0.462 OA
BRANCH   3   4
ATOM      4  C   UNL A   1      33.798  26.017  23.209  1.00  0.00     0.315 C 
ATOM      5  O   UNL A   1      33.930  26.342  22.029  1.00  0.00    -0.251 OA
BRANCH   4   6
ATOM      6  C   UNL A   1      33.067  24.710  23.590  1.00  0.00     0.156 C 
ATOM      7  N   UNL A   1      32.768  22.370  24.645  1.00  0.00    -0.329 N 
ATOM      8  C   UNL A   1      31.719  22.868  25.467  1.00  0.00     0.254 C 
ATOM      9  C   UNL A   1      33.864  23.452  24.193  1.00  0.00     0.061 C 
ATOM     10  O   UNL A   1      31.102  22.207  26.299  1.00  0.00    -0.269 OA
ATOM     11  C   UNL A   1      31.221  24.245  25.259  1.00  0.00     0.044 A 
ATOM     12  C   UNL A   1      34.656  23.788  25.491  1.00  0.00     0.030 C 
ATOM     13  C   UNL A   1      34.826  22.892  23.114  1.00  0.00     0.030 C 
ATOM     14  C   UNL A   1      30.032  24.618  25.926  1.00  0.00     0.014 A 
ATOM     15  C   UNL A   1      31.780  25.091  24.314  1.00  0.00    -0.019 A 
ATOM     16  C   UNL A   1      36.110  24.240  25.342  1.00  0.00     0.002 C 
ATOM     17  C   UNL A   1      36.347  22.925  23.193  1.00  0.00     0.002 C 
ATOM     18  C   UNL A   1      29.366  25.801  25.618  1.00  0.00     0.001 A 
ATOM     19  C   UNL A   1      31.055  26.262  23.976  1.00  0.00     0.005 A 
ATOM     20  C   UNL A   1      36.954  23.284  24.529  1.00  0.00     0.000 C 
ATOM     21  C   UNL A   1      29.869  26.617  24.622  1.00  0.00     0.000 A 
BRANCH   7  22
ATOM     22  C   UNL A   1      32.623  20.858  24.248  1.00  0.00     0.082 C 
ATOM     23  C   UNL A   1      32.211  20.413  22.831  1.00  0.00     0.031 C 
BRANCH  22  24
ATOM     24  C   UNL A   1      33.862  19.990  24.671  1.00  0.00     0.021 C 
ATOM     25  C   UNL A   1      33.750  18.467  24.667  1.00  0.00     0.006 C 
ENDBRANCH  22  24
ENDBRANCH   7  22
ENDBRANCH   4   6
ENDBRANCH   3   4
ENDBRANCH   2   3
ENDBRANCH   1   2
BRANCH   1  26
ATOM     26  O   UNL A   1      34.015  28.802  26.330  1.00  0.00    -0.458 OA
BRANCH  26  27
ATOM     27  C   UNL A   1      34.346  29.858  27.105  1.00  0.00     0.338 C 
ATOM     28  O   UNL A   1      33.605  30.807  27.326  1.00  0.00    -0.246 OA
BRANCH  27  29
ATOM     29  C   UNL A   1      35.655  29.721  27.760  1.00  0.00     0.060 A 
ATOM     30  C   UNL A   1      36.818  30.047  27.068  1.00  0.00     0.016 A 
ATOM     31  C   UNL A   1      35.725  29.379  29.117  1.00  0.00     0.016 A 
ATOM     32  C   UNL A   1      38.050  29.943  27.719  1.00  0.00     0.010 A 
ATOM     33  C   UNL A   1      36.946  29.267  29.767  1.00  0.00     0.010 A 
ATOM     34  C   UNL A   1      38.120  29.513  29.056  1.00  0.00    -0.014 A 
BRANCH  34  35
ATOM     35  C   UNL A   1      39.424  29.229  29.687  1.00  0.00     0.031 A 
ATOM     36  C   UNL A   1      39.822  30.002  30.913  1.00  0.00     0.074 A 
ATOM     37  C   UNL A   1      40.232  28.290  29.166  1.00  0.00     0.049 A 
ATOM     38  N   UNL A   1      40.832  29.804  31.717  1.00  0.00    -0.248 NA
ATOM     39  C   UNL A   1      38.980  31.156  31.276  1.00  0.00     0.031 C 
ATOM     40  C   UNL A   1      39.979  27.548  27.930  1.00  0.00     0.029 A 
ATOM     41  N   UNL A   1      41.424  27.791  29.620  1.00  0.00    -0.354 N 
ATOM     42  C   UNL A   1      40.724  30.779  32.700  1.00  0.00     0.074 A 
ATOM     43  C   UNL A   1      39.599  31.618  32.352  1.00  0.00     0.031 C 
ATOM     44  C   UNL A   1      40.970  26.659  27.744  1.00  0.00     0.029 A 
ATOM     45  C   UNL A   1      41.916  26.764  28.852  1.00  0.00     0.049 A 
ATOM     46  H   UNL A   1      41.884  28.135  30.420  1.00  0.00     0.167 HD
ATOM     47  C   UNL A   1      41.473  30.931  33.817  1.00  0.00     0.037 A 
ATOM     48  C   UNL A   1      42.989  25.974  29.050  1.00  0.00     0.037 A 
ATOM     49  C   UNL A   1      42.589  30.087  34.147  1.00  0.00     0.049 A 
ATOM     50  C   UNL A   1      43.804  26.156  30.303  1.00  0.00     0.074 A 
ATOM     51  C   UNL A   1      43.392  30.119  35.272  1.00  0.00     0.029 A 
ATOM     52  N   UNL A   1      43.061  29.059  33.344  1.00  0.00    -0.354 N 
ATOM     53  N   UNL A   1      43.630  27.013  31.281  1.00  0.00    -0.248 NA
ATOM     54  C   UNL A   1      44.946  25.251  30.491  1.00  0.00     0.031 C 
ATOM     55  C   UNL A   1      44.367  29.126  35.137  1.00  0.00     0.029 A 
ATOM     56  C   UNL A   1      44.151  28.456  33.943  1.00  0.00     0.049 A 
ATOM     57  H   UNL A   1      42.676  28.797  32.476  1.00  0.00     0.167 HD
ATOM     58  C   UNL A   1      44.628  26.737  32.210  1.00  0.00     0.074 A 
ATOM     59  C   UNL A   1      45.392  25.625  31.682  1.00  0.00     0.031 C 
ATOM     60  C   UNL A   1      44.890  27.347  33.393  1.00  0.00     0.037 A 
BRANCH  47  61
ATOM     61  C   UNL A   1      41.079  32.014  34.780  1.00  0.00     0.058 A 
ATOM     62  C   UNL A   1      40.169  31.760  35.819  1.00  0.00     0.135 A 
ATOM     63  C   UNL A   1      41.646  33.295  34.703  1.00  0.00     0.135 A 
ATOM     64  F   UNL A   1      39.583  30.556  35.925  1.00  0.00    -0.206 F 
ATOM     65  C   UNL A   1      39.827  32.740  36.743  1.00  0.00     0.059 A 
ATOM     66  C   UNL A   1      41.334  34.286  35.630  1.00  0.00     0.059 A 
ATOM     67  F   UNL A   1      42.515  33.592  33.725  1.00  0.00    -0.206 F 
ATOM     68  C   UNL A   1      40.418  34.000  36.642  1.00  0.00     0.060 A 
BRANCH  68  69
ATOM     69  S   UNL A   1      39.984  35.250  37.871  1.00  0.00     0.124 S 
ATOM     70  O   UNL A   1      38.770  34.681  38.450  1.00  0.00    -0.237 OA
ATOM     71  O   UNL A   1      41.157  35.253  38.739  1.00  0.00    -0.237 OA
ATOM     72  O   UNL A   1      39.793  36.458  37.075  1.00  0.00    -0.744 OA
ENDBRANCH  68  69
ENDBRANCH  47  61
BRANCH  48  73
ATOM     73  C   UNL A   1      43.305  24.894  28.080  1.00  0.00     0.058 A 
ATOM     74  C   UNL A   1      44.178  25.126  27.006  1.00  0.00     0.135 A 
ATOM     75  C   UNL A   1      42.760  23.610  28.216  1.00  0.00     0.135 A 
ATOM     76  F   UNL A   1      44.724  26.340  26.836  1.00  0.00    -0.206 F 
ATOM     77  C   UNL A   1      44.485  24.127  26.089  1.00  0.00     0.059 A 
ATOM     78  C   UNL A   1      43.066  22.587  27.322  1.00  0.00     0.059 A 
ATOM     79  F   UNL A   1      41.934  23.333  29.238  1.00  0.00    -0.206 F 
ATOM     80  C   UNL A   1      43.923  22.860  26.255  1.00  0.00     0.060 A 
BRANCH  80  81
ATOM     81  S   UNL A   1      44.363  21.559  25.082  1.00  0.00     0.124 S 
ATOM     82  O   UNL A   1      45.730  21.250  25.485  1.00  0.00    -0.237 OA
ATOM     83  O   UNL A   1      43.365  20.534  25.372  1.00  0.00    -0.237 OA
ATOM     84  O   UNL A   1      44.219  22.214  23.786  1.00  0.00    -0.744 OA
ENDBRANCH  80  81
ENDBRANCH  48  73
BRANCH  60  85
ATOM     85  C   UNL A   1      46.044  26.826  34.199  1.00  0.00     0.058 A 
ATOM     86  C   UNL A   1      47.327  27.377  34.071  1.00  0.00     0.135 A 
ATOM     87  C   UNL A   1      45.846  25.828  35.164  1.00  0.00     0.135 A 
ATOM     88  F   UNL A   1      47.565  28.332  33.157  1.00  0.00    -0.206 F 
ATOM     89  C   UNL A   1      48.381  26.948  34.867  1.00  0.00     0.059 A 
ATOM     90  C   UNL A   1      46.881  25.398  35.988  1.00  0.00     0.059 A 
ATOM     91  F   UNL A   1      44.632  25.278  35.331  1.00  0.00    -0.206 F 
ATOM     92  C   UNL A   1      48.147  25.960  35.827  1.00  0.00     0.060 A 
BRANCH  92  93
ATOM     93  S   UNL A   1      49.513  25.451  36.892  1.00  0.00     0.124 S 
ATOM     94  O   UNL A   1      50.645  25.536  35.976  1.00  0.00    -0.237 OA
ATOM     95  O   UNL A   1      49.476  26.455  37.950  1.00  0.00    -0.237 OA
ATOM     96  O   UNL A   1      49.137  24.102  37.304  1.00  0.00    -0.744 OA
ENDBRANCH  92  93
ENDBRANCH  60  85
ENDBRANCH  34  35
ENDBRANCH  27  29
ENDBRANCH  26  27
ENDBRANCH   1  26
TORSDOF 16
ENDMDL
MODEL 2
REMARK VINA RESULT:     -11.7      1.353      2.675
REMARK SMILES CC[C@H](C)N1C(=O)c2ccccc2[C@@H](C(=O)OCCOC(=O)c2ccc(-c3c4nc(c(-c5c(F)cc(S(=O)(=O)[O-])cc5F)c5ccc([nH]5)c(-c5c(F)cc(S(=O)(=O)[O-])cc5F)c5nc(c(-c6c(F)cc(S(=O)(=O)[O-])cc6F)c6ccc3[nH]6)C=C5)C=C4)cc2)C12CCCCC2
REMARK SMILES IDX 19 1 18 2 17 3 15 4 16 5 14 6 5 7 6 8 89 9 7 10 8 11 90 12
REMARK SMILES IDX 94 13 9 14 13 15 91 16 93 17 10 18 12 19 92 20 11 21 3 22
REMARK SMILES IDX 4 23 2 24 1 25 20 26 21 27 22 28 23 29 24 30 88 31 25 32
REMARK SMILES IDX 87 33 26 34 27 35 28 36 81 37 29 38 86 39 80 40 82 41 30 42
REMARK SMILES IDX 85 43 79 44 78 45 31 47 65 48 44 49 64 50 45 51 48 52 63 53
REMARK SMILES IDX 83 54 46 55 47 56 62 58 84 59 49 60 32 61 33 62 42 63 34 64
REMARK SMILES IDX 35 65 41 66 43 67 36 68 37 69 38 70 39 71 40 72 66 73 67 74
REMARK SMILES IDX 76 75 68 76 69 77 75 78 77 79 70 80 71 81 72 82 73 83 74 84
REMARK SMILES IDX 50 85 51 86 60 87 52 88 53 89 59 90 61 91 54 92 55 93 56 94
REMARK SMILES IDX 57 95 58 96
REMARK H PARENT 82 46 48 57
REMARK Flexibility Score: inf
ROOT
ATOM      1  C   UNL A   1      32.398  30.255  26.941  1.00  0.00     0.275 C 
ENDROOT
BRANCH   1   2
ATOM      2  C   UNL A   1      32.267  28.870  27.603  1.00  0.00     0.274 C 
BRANCH   2   3
ATOM      3  O   UNL A   1      33.059  27.815  26.995  1.00  0.00    -0.462 OA
BRANCH   3   4
ATOM      4  C   UNL A   1      32.361  26.798  26.444  1.00  0.00     0.315 C 
ATOM      5  O   UNL A   1      31.256  26.463  26.870  1.00  0.00    -0.251 OA
BRANCH   4   6
ATOM      6  C   UNL A   1      33.119  25.907  25.434  1.00  0.00     0.156 C 
ATOM      7  N   UNL A   1      33.587  23.822  23.978  1.00  0.00    -0.329 N 
ATOM      8  C   UNL A   1      33.524  24.622  22.803  1.00  0.00     0.254 C 
ATOM      9  C   UNL A   1      32.733  24.362  25.226  1.00  0.00     0.061 C 
ATOM     10  O   UNL A   1      33.652  24.198  21.656  1.00  0.00    -0.269 OA
ATOM     11  C   UNL A   1      33.415  26.092  22.925  1.00  0.00     0.044 A 
ATOM     12  C   UNL A   1      31.244  24.148  24.816  1.00  0.00     0.030 C 
ATOM     13  C   UNL A   1      33.043  23.578  26.528  1.00  0.00     0.030 C 
ATOM     14  C   UNL A   1      33.594  26.860  21.753  1.00  0.00     0.014 A 
ATOM     15  C   UNL A   1      33.321  26.719  24.158  1.00  0.00    -0.019 A 
ATOM     16  C   UNL A   1      30.223  23.930  25.934  1.00  0.00     0.002 C 
ATOM     17  C   UNL A   1      32.001  22.931  27.430  1.00  0.00     0.002 C 
ATOM     18  C   UNL A   1      33.736  28.244  21.805  1.00  0.00     0.001 A 
ATOM     19  C   UNL A   1      33.525  28.122  24.193  1.00  0.00     0.005 A 
ATOM     20  C   UNL A   1      30.599  22.813  26.881  1.00  0.00     0.000 C 
ATOM     21  C   UNL A   1      33.724  28.875  23.035  1.00  0.00     0.000 A 
BRANCH   7  22
ATOM     22  C   UNL A   1      34.557  22.592  23.880  1.00  0.00     0.082 C 
ATOM     23  C   UNL A   1      36.024  22.659  24.344  1.00  0.00     0.031 C 
BRANCH  22  24
ATOM     24  C   UNL A   1      33.937  21.273  24.468  1.00  0.00     0.021 C 
ATOM     25  C   UNL A   1      32.621  20.744  23.902  1.00  0.00     0.006 C 
ENDBRANCH  22  24
ENDBRANCH   7  22
ENDBRANCH   4   6
ENDBRANCH   3   4
ENDBRANCH   2   3
ENDBRANCH   1   2
BRANCH   1  26
ATOM     26  O   UNL A   1      33.766  30.607  26.637  1.00  0.00    -0.458 OA
BRANCH  26  27
ATOM     27  C   UNL A   1      34.304  31.461  27.535  1.00  0.00     0.338 C 
ATOM     28  O   UNL A   1      33.768  32.496  27.906  1.00  0.00    -0.246 OA
BRANCH  27  29
ATOM     29  C   UNL A   1      35.566  30.983  28.119  1.00  0.00     0.060 A 
ATOM     30  C   UNL A   1      35.727  29.633  28.421  1.00  0.00     0.016 A 
ATOM     31  C   UNL A   1      36.648  31.862  28.260  1.00  0.00     0.016 A 
ATOM     32  C   UNL A   1      36.946  29.193  28.944  1.00  0.00     0.010 A 
ATOM     33  C   UNL A   1      37.858  31.431  28.785  1.00  0.00     0.010 A 
ATOM     34  C   UNL A   1      37.999  30.098  29.167  1.00  0.00    -0.014 A 
BRANCH  34  35
ATOM     35  C   UNL A   1      39.217  29.672  29.884  1.00  0.00     0.031 A 
ATOM     36  C   UNL A   1      39.468  30.202  31.268  1.00  0.00     0.074 A 
ATOM     37  C   UNL A   1      40.078  28.823  29.299  1.00  0.00     0.049 A 
ATOM     38  N   UNL A   1      40.373  29.836  32.136  1.00  0.00    -0.248 NA
ATOM     39  C   UNL A   1      38.592  31.292  31.733  1.00  0.00     0.031 C 
ATOM     40  C   UNL A   1      39.972  28.323  27.928  1.00  0.00     0.029 A 
ATOM     41  N   UNL A   1      41.206  28.220  29.792  1.00  0.00    -0.354 N 
ATOM     42  C   UNL A   1      40.152  30.620  33.260  1.00  0.00     0.074 A 
ATOM     43  C   UNL A   1      39.080  31.536  32.941  1.00  0.00     0.031 C 
ATOM     44  C   UNL A   1      40.976  27.457  27.700  1.00  0.00     0.029 A 
ATOM     45  C   UNL A   1      41.783  27.336  28.912  1.00  0.00     0.049 A 
ATOM     46  H   UNL A   1      41.568  28.403  30.689  1.00  0.00     0.167 HD
ATOM     47  C   UNL A   1      40.761  30.549  34.466  1.00  0.00     0.037 A 
ATOM     48  C   UNL A   1      42.821  26.497  29.087  1.00  0.00     0.037 A 
ATOM     49  C   UNL A   1      41.827  29.632  34.765  1.00  0.00     0.049 A 
ATOM     50  C   UNL A   1      43.480  26.429  30.439  1.00  0.00     0.074 A 
ATOM     51  C   UNL A   1      42.489  29.440  35.964  1.00  0.00     0.029 A 
ATOM     52  N   UNL A   1      42.388  28.754  33.850  1.00  0.00    -0.354 N 
ATOM     53  N   UNL A   1      43.194  27.099  31.530  1.00  0.00    -0.248 NA
ATOM     54  C   UNL A   1      44.589  25.476  30.592  1.00  0.00     0.031 C 
ATOM     55  C   UNL A   1      43.470  28.464  35.765  1.00  0.00     0.029 A 
ATOM     56  C   UNL A   1      43.397  28.025  34.453  1.00  0.00     0.049 A 
ATOM     57  H   UNL A   1      42.109  28.662  32.910  1.00  0.00     0.167 HD
ATOM     58  C   UNL A   1      44.072  26.636  32.504  1.00  0.00     0.074 A 
ATOM     59  C   UNL A   1      44.890  25.618  31.875  1.00  0.00     0.031 C 
ATOM     60  C   UNL A   1      44.192  27.016  33.800  1.00  0.00     0.037 A 
BRANCH  47  61
ATOM     61  C   UNL A   1      40.259  31.450  35.557  1.00  0.00     0.058 A 
ATOM     62  C   UNL A   1      39.077  31.151  36.253  1.00  0.00     0.135 A 
ATOM     63  C   UNL A   1      40.981  32.588  35.948  1.00  0.00     0.135 A 
ATOM     64  F   UNL A   1      38.339  30.084  35.904  1.00  0.00    -0.206 F 
ATOM     65  C   UNL A   1      38.621  31.952  37.293  1.00  0.00     0.059 A 
ATOM     66  C   UNL A   1      40.554  33.394  37.001  1.00  0.00     0.059 A 
ATOM     67  F   UNL A   1      42.113  32.923  35.311  1.00  0.00    -0.206 F 
ATOM     68  C   UNL A   1      39.369  33.071  37.662  1.00  0.00     0.060 A 
BRANCH  68  69
ATOM     69  S   UNL A   1      38.776  34.082  39.036  1.00  0.00     0.124 S 
ATOM     70  O   UNL A   1      39.723  33.726  40.090  1.00  0.00    -0.237 OA
ATOM     71  O   UNL A   1      38.903  35.435  38.504  1.00  0.00    -0.237 OA
ATOM     72  O   UNL A   1      37.410  33.615  39.238  1.00  0.00    -0.744 OA
ENDBRANCH  68  69
ENDBRANCH  47  61
BRANCH  48  73
ATOM     73  C   UNL A   1      43.248  25.602  27.981  1.00  0.00     0.058 A 
ATOM     74  C   UNL A   1      44.208  26.020  27.048  1.00  0.00     0.135 A 
ATOM     75  C   UNL A   1      42.721  24.310  27.844  1.00  0.00     0.135 A 
ATOM     76  F   UNL A   1      44.741  27.249  27.139  1.00  0.00    -0.206 F 
ATOM     77  C   UNL A   1      44.619  25.196  26.006  1.00  0.00     0.059 A 
ATOM     78  C   UNL A   1      43.130  23.459  26.821  1.00  0.00     0.059 A 
ATOM     79  F   UNL A   1      41.812  23.856  28.722  1.00  0.00    -0.206 F 
ATOM     80  C   UNL A   1      44.073  23.916  25.901  1.00  0.00     0.060 A 
BRANCH  80  81
ATOM     81  S   UNL A   1      44.646  22.839  24.569  1.00  0.00     0.124 S 
ATOM     82  O   UNL A   1      43.403  22.573  23.852  1.00  0.00    -0.237 OA
ATOM     83  O   UNL A   1      45.612  23.689  23.880  1.00  0.00    -0.237 OA
ATOM     84  O   UNL A   1      45.219  21.701  25.281  1.00  0.00    -0.744 OA
ENDBRANCH  80  81
ENDBRANCH  48  73
BRANCH  60  85
ATOM     85  C   UNL A   1      45.239  26.329  34.627  1.00  0.00     0.058 A 
ATOM     86  C   UNL A   1      44.970  25.118  35.283  1.00  0.00     0.135 A 
ATOM     87  C   UNL A   1      46.544  26.842  34.695  1.00  0.00     0.135 A 
ATOM     88  F   UNL A   1      43.735  24.592  35.249  1.00  0.00    -0.206 F 
ATOM     89  C   UNL A   1      45.957  24.443  35.988  1.00  0.00     0.059 A 
ATOM     90  C   UNL A   1      47.553  26.171  35.377  1.00  0.00     0.059 A 
ATOM     91  F   UNL A   1      46.852  27.991  34.075  1.00  0.00    -0.206 F 
ATOM     92  C   UNL A   1      47.249  24.975  36.026  1.00  0.00     0.060 A 
BRANCH  92  93
ATOM     93  S   UNL A   1      48.534  24.058  36.900  1.00  0.00     0.124 S 
ATOM     94  O   UNL A   1      49.738  24.765  36.477  1.00  0.00    -0.237 OA
ATOM     95  O   UNL A   1      48.152  24.236  38.297  1.00  0.00    -0.237 OA
ATOM     96  O   UNL A   1      48.390  22.699  36.387  1.00  0.00    -0.744 OA
ENDBRANCH  92  93
ENDBRANCH  60  85
ENDBRANCH  34  35
ENDBRANCH  27  29
ENDBRANCH  26  27
ENDBRANCH   1  26
TORSDOF 16
ENDMDL
MODEL 3
REMARK VINA RESULT:     -11.5      5.595     11.568
REMARK SMILES CC[C@H](C)N1C(=O)c2ccccc2[C@@H](C(=O)OCCOC(=O)c2ccc(-c3c4nc(c(-c5c(F)cc(S(=O)(=O)[O-])cc5F)c5ccc([nH]5)c(-c5c(F)cc(S(=O)(=O)[O-])cc5F)c5nc(c(-c6c(F)cc(S(=O)(=O)[O-])cc6F)c6ccc3[nH]6)C=C5)C=C4)cc2)C12CCCCC2
REMARK SMILES IDX 19 1 18 2 17 3 15 4 16 5 14 6 5 7 6 8 89 9 7 10 8 11 90 12
REMARK SMILES IDX 94 13 9 14 13 15 91 16 93 17 10 18 12 19 92 20 11 21 3 22
REMARK SMILES IDX 4 23 2 24 1 25 20 26 21 27 22 28 23 29 24 30 88 31 25 32
REMARK SMILES IDX 87 33 26 34 27 35 28 36 81 37 29 38 86 39 80 40 82 41 30 42
REMARK SMILES IDX 85 43 79 44 78 45 31 47 65 48 44 49 64 50 45 51 48 52 63 53
REMARK SMILES IDX 83 54 46 55 47 56 62 58 84 59 49 60 32 61 33 62 42 63 34 64
REMARK SMILES IDX 35 65 41 66 43 67 36 68 37 69 38 70 39 71 40 72 66 73 67 74
REMARK SMILES IDX 76 75 68 76 69 77 75 78 77 79 70 80 71 81 72 82 73 83 74 84
REMARK SMILES IDX 50 85 51 86 60 87 52 88 53 89 59 90 61 91 54 92 55 93 56 94
REMARK SMILES IDX 57 95 58 96
REMARK H PARENT 82 46 48 57
REMARK Flexibility Score: inf
ROOT
ATOM      1  C   UNL A   1      42.644  23.572  25.112  1.00  0.00     0.275 C 
ENDROOT
BRANCH   1   2
ATOM      2  C   UNL A   1      44.093  23.240  24.707  1.00  0.00     0.274 C 
BRANCH   2   3
ATOM      3  O   UNL A   1      45.098  24.179  25.176  1.00  0.00    -0.462 OA
BRANCH   3   4
ATOM      4  C   UNL A   1      46.169  23.634  25.794  1.00  0.00     0.315 C 
ATOM      5  O   UNL A   1      46.555  22.493  25.539  1.00  0.00    -0.251 OA
BRANCH   4   6
ATOM      6  C   UNL A   1      46.724  24.398  27.017  1.00  0.00     0.156 C 
ATOM      7  N   UNL A   1      47.707  26.395  28.333  1.00  0.00    -0.329 N 
ATOM      8  C   UNL A   1      46.579  26.387  29.199  1.00  0.00     0.254 C 
ATOM      9  C   UNL A   1      47.447  25.824  26.855  1.00  0.00     0.061 C 
ATOM     10  O   UNL A   1      46.396  27.177  30.123  1.00  0.00    -0.269 OA
ATOM     11  C   UNL A   1      45.584  25.298  29.092  1.00  0.00     0.044 A 
ATOM     12  C   UNL A   1      46.552  26.895  26.163  1.00  0.00     0.030 C 
ATOM     13  C   UNL A   1      48.766  25.640  26.060  1.00  0.00     0.030 C 
ATOM     14  C   UNL A   1      44.615  25.195  30.115  1.00  0.00     0.014 A 
ATOM     15  C   UNL A   1      45.690  24.301  28.135  1.00  0.00    -0.019 A 
ATOM     16  C   UNL A   1      46.645  27.025  24.642  1.00  0.00     0.002 C 
ATOM     17  C   UNL A   1      49.035  26.199  24.669  1.00  0.00     0.002 C 
ATOM     18  C   UNL A   1      43.788  24.080  30.224  1.00  0.00     0.001 A 
ATOM     19  C   UNL A   1      44.877  23.150  28.298  1.00  0.00     0.005 A 
ATOM     20  C   UNL A   1      48.057  27.222  24.142  1.00  0.00     0.000 C 
ATOM     21  C   UNL A   1      43.936  23.042  29.323  1.00  0.00     0.000 A 
BRANCH   7  22
ATOM     22  C   UNL A   1      49.042  26.879  29.004  1.00  0.00     0.082 C 
ATOM     23  C   UNL A   1      50.157  25.902  29.423  1.00  0.00     0.031 C 
BRANCH  22  24
ATOM     24  C   UNL A   1      49.722  28.065  28.230  1.00  0.00     0.021 C 
ATOM     25  C   UNL A   1      48.892  29.289  27.851  1.00  0.00     0.006 C 
ENDBRANCH  22  24
ENDBRANCH   7  22
ENDBRANCH   4   6
ENDBRANCH   3   4
ENDBRANCH   2   3
ENDBRANCH   1   2
BRANCH   1  26
ATOM     26  O   UNL A   1      42.560  24.318  26.345  1.00  0.00    -0.458 OA
BRANCH  26  27
ATOM     27  C   UNL A   1      42.344  25.638  26.153  1.00  0.00     0.338 C 
ATOM     28  O   UNL A   1      42.306  26.175  25.054  1.00  0.00    -0.246 OA
BRANCH  27  29
ATOM     29  C   UNL A   1      42.048  26.373  27.391  1.00  0.00     0.060 A 
ATOM     30  C   UNL A   1      41.086  25.891  28.275  1.00  0.00     0.016 A 
ATOM     31  C   UNL A   1      42.818  27.490  27.740  1.00  0.00     0.016 A 
ATOM     32  C   UNL A   1      40.844  26.587  29.463  1.00  0.00     0.010 A 
ATOM     33  C   UNL A   1      42.577  28.188  28.916  1.00  0.00     0.010 A 
ATOM     34  C   UNL A   1      41.559  27.759  29.766  1.00  0.00    -0.014 A 
BRANCH  34  35
ATOM     35  C   UNL A   1      41.181  28.591  30.925  1.00  0.00     0.031 A 
ATOM     36  C   UNL A   1      41.984  28.481  32.191  1.00  0.00     0.074 A 
ATOM     37  C   UNL A   1      40.136  29.431  30.837  1.00  0.00     0.049 A 
ATOM     38  N   UNL A   1      41.936  29.227  33.262  1.00  0.00    -0.248 NA
ATOM     39  C   UNL A   1      42.962  27.381  32.266  1.00  0.00     0.031 C 
ATOM     40  C   UNL A   1      39.240  29.547  29.686  1.00  0.00     0.029 A 
ATOM     41  N   UNL A   1      39.662  30.357  31.728  1.00  0.00    -0.354 N 
ATOM     42  C   UNL A   1      42.901  28.715  34.119  1.00  0.00     0.074 A 
ATOM     43  C   UNL A   1      43.465  27.546  33.481  1.00  0.00     0.031 C 
ATOM     44  C   UNL A   1      38.343  30.519  29.927  1.00  0.00     0.029 A 
ATOM     45  C   UNL A   1      38.612  31.098  31.241  1.00  0.00     0.049 A 
ATOM     46  H   UNL A   1      40.036  30.479  32.631  1.00  0.00     0.167 HD
ATOM     47  C   UNL A   1      43.308  29.203  35.313  1.00  0.00     0.037 A 
ATOM     48  C   UNL A   1      37.973  32.152  31.785  1.00  0.00     0.037 A 
ATOM     49  C   UNL A   1      42.734  30.367  35.933  1.00  0.00     0.049 A 
ATOM     50  C   UNL A   1      38.447  32.684  33.111  1.00  0.00     0.074 A 
ATOM     51  C   UNL A   1      43.096  30.980  37.118  1.00  0.00     0.029 A 
ATOM     52  N   UNL A   1      41.671  31.091  35.413  1.00  0.00    -0.354 N 
ATOM     53  N   UNL A   1      39.432  32.257  33.866  1.00  0.00    -0.248 NA
ATOM     54  C   UNL A   1      37.740  33.854  33.650  1.00  0.00     0.031 C 
ATOM     55  C   UNL A   1      42.232  32.059  37.329  1.00  0.00     0.029 A 
ATOM     56  C   UNL A   1      41.355  32.138  36.259  1.00  0.00     0.049 A 
ATOM     57  H   UNL A   1      41.210  30.889  34.566  1.00  0.00     0.167 HD
ATOM     58  C   UNL A   1      39.475  33.117  34.958  1.00  0.00     0.074 A 
ATOM     59  C   UNL A   1      38.426  34.096  34.758  1.00  0.00     0.031 C 
ATOM     60  C   UNL A   1      40.306  33.099  36.030  1.00  0.00     0.037 A 
BRANCH  47  61
ATOM     61  C   UNL A   1      44.452  28.513  35.997  1.00  0.00     0.058 A 
ATOM     62  C   UNL A   1      45.780  28.892  35.743  1.00  0.00     0.135 A 
ATOM     63  C   UNL A   1      44.228  27.506  36.949  1.00  0.00     0.135 A 
ATOM     64  F   UNL A   1      46.049  29.837  34.827  1.00  0.00    -0.206 F 
ATOM     65  C   UNL A   1      46.848  28.291  36.399  1.00  0.00     0.059 A 
ATOM     66  C   UNL A   1      45.281  26.905  37.633  1.00  0.00     0.059 A 
ATOM     67  F   UNL A   1      42.979  27.101  37.224  1.00  0.00    -0.206 F 
ATOM     68  C   UNL A   1      46.587  27.300  37.346  1.00  0.00     0.060 A 
BRANCH  68  69
ATOM     69  S   UNL A   1      47.986  26.553  38.211  1.00  0.00     0.124 S 
ATOM     70  O   UNL A   1      47.307  25.673  39.158  1.00  0.00    -0.237 OA
ATOM     71  O   UNL A   1      48.700  25.885  37.127  1.00  0.00    -0.237 OA
ATOM     72  O   UNL A   1      48.673  27.697  38.799  1.00  0.00    -0.744 OA
ENDBRANCH  68  69
ENDBRANCH  47  61
BRANCH  48  73
ATOM     73  C   UNL A   1      36.873  32.817  31.042  1.00  0.00     0.058 A 
ATOM     74  C   UNL A   1      35.536  32.643  31.429  1.00  0.00     0.135 A 
ATOM     75  C   UNL A   1      37.133  33.651  29.945  1.00  0.00     0.135 A 
ATOM     76  F   UNL A   1      35.238  31.853  32.472  1.00  0.00    -0.206 F 
ATOM     77  C   UNL A   1      34.493  33.257  30.745  1.00  0.00     0.059 A 
ATOM     78  C   UNL A   1      36.108  34.293  29.255  1.00  0.00     0.059 A 
ATOM     79  F   UNL A   1      38.397  33.865  29.547  1.00  0.00    -0.206 F 
ATOM     80  C   UNL A   1      34.789  34.081  29.658  1.00  0.00     0.060 A 
BRANCH  80  81
ATOM     81  S   UNL A   1      33.429  34.908  28.803  1.00  0.00     0.124 S 
ATOM     82  O   UNL A   1      32.476  35.103  29.890  1.00  0.00    -0.237 OA
ATOM     83  O   UNL A   1      34.075  36.114  28.295  1.00  0.00    -0.237 OA
ATOM     84  O   UNL A   1      33.036  33.939  27.785  1.00  0.00    -0.744 OA
ENDBRANCH  80  81
ENDBRANCH  48  73
BRANCH  60  85
ATOM     85  C   UNL A   1      40.121  34.170  37.065  1.00  0.00     0.058 A 
ATOM     86  C   UNL A   1      40.746  35.419  36.940  1.00  0.00     0.135 A 
ATOM     87  C   UNL A   1      39.246  33.973  38.145  1.00  0.00     0.135 A 
ATOM     88  F   UNL A   1      41.595  35.651  35.925  1.00  0.00    -0.206 F 
ATOM     89  C   UNL A   1      40.519  36.437  37.857  1.00  0.00     0.059 A 
ATOM     90  C   UNL A   1      38.987  34.985  39.063  1.00  0.00     0.059 A 
ATOM     91  F   UNL A   1      38.617  32.798  38.301  1.00  0.00    -0.206 F 
ATOM     92  C   UNL A   1      39.633  36.212  38.914  1.00  0.00     0.060 A 
BRANCH  92  93
ATOM     93  S   UNL A   1      39.305  37.562  40.066  1.00  0.00     0.124 S 
ATOM     94  O   UNL A   1      38.872  36.834  41.254  1.00  0.00    -0.237 OA
ATOM     95  O   UNL A   1      40.607  38.215  40.162  1.00  0.00    -0.237 OA
ATOM     96  O   UNL A   1      38.270  38.340  39.392  1.00  0.00    -0.744 OA
ENDBRANCH  92  93
ENDBRANCH  60  85
ENDBRANCH  34  35
ENDBRANCH  27  29
ENDBRANCH  26  27
ENDBRANCH   1  26
TORSDOF 16
ENDMDL
