MODEL 1
REMARK VINA RESULT:     -11.2      0.000      0.000
REMARK SMILES Cc1nc(-c2ccccn2)cc(N2CCC[C@H](C(=O)OCCOC(=O)c3ccc(-c4c5nc(c(-c6c(F)cc(S(=O)(=O)[O-])cc6F)c6ccc([nH]6)c(-c6c(F)cc(S(=O)(=O)[O-])cc6F)c6nc(c(-c7c(F)cc(S(=O)(=O)[O-])cc7F)c7ccc4[nH]7)C=C6)C=C5)cc3)C2)n1
REMARK SMILES IDX 22 1 21 2 20 3 18 4 19 5 17 6 13 7 14 8 92 9 15 10 16 11
REMARK SMILES IDX 12 12 1 13 2 14 3 15 93 16 4 17 11 18 5 19 6 20 10 21 7 22
REMARK SMILES IDX 9 23 8 24 23 25 24 26 25 27 26 28 27 29 91 30 28 31 90 32
REMARK SMILES IDX 29 33 30 34 31 35 84 36 32 37 89 38 83 39 85 40 33 41 88 42
REMARK SMILES IDX 82 43 81 44 34 46 68 47 47 48 67 49 48 50 51 51 66 52 86 53
REMARK SMILES IDX 49 54 50 55 65 57 87 58 52 59 35 60 36 61 45 62 37 63 38 64
REMARK SMILES IDX 44 65 46 66 39 67 40 68 41 69 42 70 43 71 69 72 70 73 79 74
REMARK SMILES IDX 71 75 72 76 78 77 80 78 73 79 74 80 75 81 76 82 77 83 53 84
REMARK SMILES IDX 54 85 63 86 55 87 56 88 62 89 64 90 57 91 58 92 59 93 60 94
REMARK SMILES IDX 61 95
REMARK H PARENT 85 45 51 56
REMARK Flexibility Score: inf
ROOT
ATOM      1  C   UNL A   1      32.818  28.614  26.596  1.00  0.00     0.275 C 
ENDROOT
BRANCH   1   2
ATOM      2  C   UNL A   1      32.714  27.219  25.979  1.00  0.00     0.274 C 
BRANCH   2   3
ATOM      3  O   UNL A   1      31.436  27.022  25.344  1.00  0.00    -0.462 OA
BRANCH   3   4
ATOM      4  C   UNL A   1      31.096  25.746  25.025  1.00  0.00     0.310 C 
ATOM      5  O   UNL A   1      31.146  24.803  25.806  1.00  0.00    -0.252 OA
BRANCH   4   6
ATOM      6  C   UNL A   1      30.667  25.576  23.574  1.00  0.00     0.118 C 
ATOM      7  N   UNL A   1      32.331  23.994  22.816  1.00  0.00    -0.356 N 
ATOM      8  C   UNL A   1      32.895  24.835  21.778  1.00  0.00     0.118 C 
ATOM      9  C   UNL A   1      30.922  24.136  23.139  1.00  0.00     0.133 C 
ATOM     10  C   UNL A   1      32.692  26.300  22.152  1.00  0.00     0.022 C 
ATOM     11  C   UNL A   1      31.251  26.596  22.581  1.00  0.00     0.019 C 
BRANCH   7  12
ATOM     12  C   UNL A   1      33.051  22.993  23.416  1.00  0.00     0.132 A 
ATOM     13  C   UNL A   1      32.526  19.518  24.421  1.00  0.00     0.090 C 
ATOM     14  C   UNL A   1      33.154  20.868  24.279  1.00  0.00     0.128 A 
ATOM     15  N   UNL A   1      34.395  21.030  24.766  1.00  0.00    -0.231 NA
ATOM     16  N   UNL A   1      32.449  21.816  23.641  1.00  0.00    -0.216 NA
ATOM     17  C   UNL A   1      34.966  22.233  24.550  1.00  0.00     0.094 A 
ATOM     18  C   UNL A   1      34.334  23.238  23.847  1.00  0.00     0.077 A 
BRANCH  17  19
ATOM     19  C   UNL A   1      36.282  22.464  25.155  1.00  0.00     0.089 A 
ATOM     20  C   UNL A   1      36.652  23.731  25.610  1.00  0.00     0.030 A 
ATOM     21  N   UNL A   1      37.130  21.403  25.189  1.00  0.00    -0.255 NA
ATOM     22  C   UNL A   1      37.933  23.916  26.124  1.00  0.00     0.004 A 
ATOM     23  C   UNL A   1      38.359  21.611  25.706  1.00  0.00     0.112 A 
ATOM     24  C   UNL A   1      38.805  22.836  26.176  1.00  0.00     0.020 A 
ENDBRANCH  17  19
ENDBRANCH   7  12
ENDBRANCH   4   6
ENDBRANCH   3   4
ENDBRANCH   2   3
ENDBRANCH   1   2
BRANCH   1  25
ATOM     25  O   UNL A   1      33.809  28.646  27.636  1.00  0.00    -0.458 OA
BRANCH  25  26
ATOM     26  C   UNL A   1      34.339  29.867  27.882  1.00  0.00     0.338 C 
ATOM     27  O   UNL A   1      33.748  30.931  27.948  1.00  0.00    -0.246 OA
BRANCH  26  28
ATOM     28  C   UNL A   1      35.763  29.717  28.213  1.00  0.00     0.060 A 
ATOM     29  C   UNL A   1      36.696  29.903  27.190  1.00  0.00     0.016 A 
ATOM     30  C   UNL A   1      36.171  29.330  29.489  1.00  0.00     0.016 A 
ATOM     31  C   UNL A   1      38.050  29.702  27.437  1.00  0.00     0.010 A 
ATOM     32  C   UNL A   1      37.532  29.125  29.735  1.00  0.00     0.010 A 
ATOM     33  C   UNL A   1      38.477  29.299  28.708  1.00  0.00    -0.014 A 
BRANCH  33  34
ATOM     34  C   UNL A   1      39.909  29.000  28.938  1.00  0.00     0.031 A 
ATOM     35  C   UNL A   1      40.809  30.063  29.501  1.00  0.00     0.074 A 
ATOM     36  C   UNL A   1      40.391  27.774  28.664  1.00  0.00     0.049 A 
ATOM     37  N   UNL A   1      42.099  30.030  29.707  1.00  0.00    -0.248 NA
ATOM     38  C   UNL A   1      40.170  31.335  29.878  1.00  0.00     0.031 C 
ATOM     39  C   UNL A   1      39.602  26.653  28.151  1.00  0.00     0.029 A 
ATOM     40  N   UNL A   1      41.661  27.267  28.772  1.00  0.00    -0.354 N 
ATOM     41  C   UNL A   1      42.433  31.279  30.217  1.00  0.00     0.074 A 
ATOM     42  C   UNL A   1      41.211  32.052  30.279  1.00  0.00     0.031 C 
ATOM     43  C   UNL A   1      40.408  25.591  27.983  1.00  0.00     0.029 A 
ATOM     44  C   UNL A   1      41.773  25.969  28.337  1.00  0.00     0.049 A 
ATOM     45  H   UNL A   1      42.419  27.785  29.128  1.00  0.00     0.167 HD
ATOM     46  C   UNL A   1      43.649  31.734  30.600  1.00  0.00     0.037 A 
ATOM     47  C   UNL A   1      42.860  25.182  28.212  1.00  0.00     0.037 A 
ATOM     48  C   UNL A   1      44.856  30.950  30.552  1.00  0.00     0.049 A 
ATOM     49  C   UNL A   1      44.206  25.724  28.612  1.00  0.00     0.074 A 
ATOM     50  C   UNL A   1      46.135  31.315  30.935  1.00  0.00     0.029 A 
ATOM     51  N   UNL A   1      44.933  29.642  30.096  1.00  0.00    -0.354 N 
ATOM     52  N   UNL A   1      44.508  26.907  29.093  1.00  0.00    -0.248 NA
ATOM     53  C   UNL A   1      45.360  24.829  28.450  1.00  0.00     0.031 C 
ATOM     54  C   UNL A   1      46.992  30.239  30.677  1.00  0.00     0.029 A 
ATOM     55  C   UNL A   1      46.240  29.191  30.172  1.00  0.00     0.049 A 
ATOM     56  H   UNL A   1      44.170  29.113  29.767  1.00  0.00     0.167 HD
ATOM     57  C   UNL A   1      45.882  26.891  29.307  1.00  0.00     0.074 A 
ATOM     58  C   UNL A   1      46.350  25.578  28.915  1.00  0.00     0.031 C 
ATOM     59  C   UNL A   1      46.684  27.876  29.782  1.00  0.00     0.037 A 
BRANCH  46  60
ATOM     60  C   UNL A   1      43.743  33.155  31.078  1.00  0.00     0.058 A 
ATOM     61  C   UNL A   1      43.663  33.483  32.440  1.00  0.00     0.135 A 
ATOM     62  C   UNL A   1      43.954  34.198  30.163  1.00  0.00     0.135 A 
ATOM     63  F   UNL A   1      43.443  32.526  33.355  1.00  0.00    -0.206 F 
ATOM     64  C   UNL A   1      43.772  34.800  32.877  1.00  0.00     0.059 A 
ATOM     65  C   UNL A   1      44.087  35.520  30.579  1.00  0.00     0.059 A 
ATOM     66  F   UNL A   1      44.033  33.938  28.848  1.00  0.00    -0.206 F 
ATOM     67  C   UNL A   1      43.983  35.812  31.937  1.00  0.00     0.060 A 
BRANCH  67  68
ATOM     68  S   UNL A   1      44.132  37.516  32.518  1.00  0.00     0.124 S 
ATOM     69  O   UNL A   1      45.519  37.548  32.971  1.00  0.00    -0.237 OA
ATOM     70  O   UNL A   1      43.842  38.284  31.312  1.00  0.00    -0.237 OA
ATOM     71  O   UNL A   1      43.126  37.605  33.572  1.00  0.00    -0.744 OA
ENDBRANCH  67  68
ENDBRANCH  46  60
BRANCH  47  72
ATOM     72  C   UNL A   1      42.724  23.809  27.659  1.00  0.00     0.058 A 
ATOM     73  C   UNL A   1      42.755  23.577  26.277  1.00  0.00     0.135 A 
ATOM     74  C   UNL A   1      42.564  22.701  28.506  1.00  0.00     0.135 A 
ATOM     75  F   UNL A   1      42.896  24.606  25.427  1.00  0.00    -0.206 F 
ATOM     76  C   UNL A   1      42.617  22.297  25.751  1.00  0.00     0.059 A 
ATOM     77  C   UNL A   1      42.449  21.409  28.005  1.00  0.00     0.059 A 
ATOM     78  F   UNL A   1      42.539  22.870  29.837  1.00  0.00    -0.206 F 
ATOM     79  C   UNL A   1      42.465  21.218  26.624  1.00  0.00     0.060 A 
BRANCH  79  80
ATOM     80  S   UNL A   1      42.331  19.553  25.938  1.00  0.00     0.124 S 
ATOM     81  O   UNL A   1      42.658  18.731  27.097  1.00  0.00    -0.237 OA
ATOM     82  O   UNL A   1      40.940  19.510  25.497  1.00  0.00    -0.237 OA
ATOM     83  O   UNL A   1      43.320  19.554  24.864  1.00  0.00    -0.744 OA
ENDBRANCH  79  80
ENDBRANCH  47  72
BRANCH  59  84
ATOM     84  C   UNL A   1      48.145  27.561  29.932  1.00  0.00     0.058 A 
ATOM     85  C   UNL A   1      49.084  27.961  28.971  1.00  0.00     0.135 A 
ATOM     86  C   UNL A   1      48.615  26.897  31.076  1.00  0.00     0.135 A 
ATOM     87  F   UNL A   1      48.684  28.593  27.856  1.00  0.00    -0.206 F 
ATOM     88  C   UNL A   1      50.441  27.696  29.128  1.00  0.00     0.059 A 
ATOM     89  C   UNL A   1      49.969  26.641  31.266  1.00  0.00     0.059 A 
ATOM     90  F   UNL A   1      47.757  26.502  32.030  1.00  0.00    -0.206 F 
ATOM     91  C   UNL A   1      50.874  27.035  30.280  1.00  0.00     0.060 A 
BRANCH  91  92
ATOM     92  S   UNL A   1      52.640  26.727  30.494  1.00  0.00     0.124 S 
ATOM     93  O   UNL A   1      52.962  26.003  29.269  1.00  0.00    -0.237 OA
ATOM     94  O   UNL A   1      53.186  28.078  30.592  1.00  0.00    -0.237 OA
ATOM     95  O   UNL A   1      52.701  25.943  31.723  1.00  0.00    -0.744 OA
ENDBRANCH  91  92
ENDBRANCH  59  84
ENDBRANCH  33  34
ENDBRANCH  26  28
ENDBRANCH  25  26
ENDBRANCH   1  25
TORSDOF 16
ENDMDL
MODEL 2
REMARK VINA RESULT:     -11.2      0.880      2.123
REMARK SMILES Cc1nc(-c2ccccn2)cc(N2CCC[C@H](C(=O)OCCOC(=O)c3ccc(-c4c5nc(c(-c6c(F)cc(S(=O)(=O)[O-])cc6F)c6ccc([nH]6)c(-c6c(F)cc(S(=O)(=O)[O-])cc6F)c6nc(c(-c7c(F)cc(S(=O)(=O)[O-])cc7F)c7ccc4[nH]7)C=C6)C=C5)cc3)C2)n1
REMARK SMILES IDX 22 1 21 2 20 3 18 4 19 5 17 6 13 7 14 8 92 9 15 10 16 11
REMARK SMILES IDX 12 12 1 13 2 14 3 15 93 16 4 17 11 18 5 19 6 20 10 21 7 22
REMARK SMILES IDX 9 23 8 24 23 25 24 26 25 27 26 28 27 29 91 30 28 31 90 32
REMARK SMILES IDX 29 33 30 34 31 35 84 36 32 37 89 38 83 39 85 40 33 41 88 42
REMARK SMILES IDX 82 43 81 44 34 46 68 47 47 48 67 49 48 50 51 51 66 52 86 53
REMARK SMILES IDX 49 54 50 55 65 57 87 58 52 59 35 60 36 61 45 62 37 63 38 64
REMARK SMILES IDX 44 65 46 66 39 67 40 68 41 69 42 70 43 71 69 72 70 73 79 74
REMARK SMILES IDX 71 75 72 76 78 77 80 78 73 79 74 80 75 81 76 82 77 83 53 84
REMARK SMILES IDX 54 85 63 86 55 87 56 88 62 89 64 90 57 91 58 92 59 93 60 94
REMARK SMILES IDX 61 95
REMARK H PARENT 85 45 51 56
REMARK Flexibility Score: inf
ROOT
ATOM      1  C   UNL A   1      33.474  28.448  26.336  1.00  0.00     0.275 C 
ENDROOT
BRANCH   1   2
ATOM      2  C   UNL A   1      33.283  26.943  26.138  1.00  0.00     0.274 C 
BRANCH   2   3
ATOM      3  O   UNL A   1      31.897  26.617  25.918  1.00  0.00    -0.462 OA
BRANCH   3   4
ATOM      4  C   UNL A   1      31.580  25.299  25.838  1.00  0.00     0.310 C 
ATOM      5  O   UNL A   1      31.855  24.469  26.697  1.00  0.00    -0.252 OA
BRANCH   4   6
ATOM      6  C   UNL A   1      30.865  24.924  24.548  1.00  0.00     0.118 C 
ATOM      7  N   UNL A   1      32.446  23.346  23.622  1.00  0.00    -0.356 N 
ATOM      8  C   UNL A   1      32.707  24.076  22.396  1.00  0.00     0.118 C 
ATOM      9  C   UNL A   1      31.133  23.454  24.232  1.00  0.00     0.133 C 
ATOM     10  C   UNL A   1      32.476  25.563  22.639  1.00  0.00     0.022 C 
ATOM     11  C   UNL A   1      31.141  25.837  23.340  1.00  0.00     0.019 C 
BRANCH   7  12
ATOM     12  C   UNL A   1      33.353  22.468  24.156  1.00  0.00     0.132 A 
ATOM     13  C   UNL A   1      36.821  22.535  25.312  1.00  0.00     0.090 C 
ATOM     14  C   UNL A   1      35.480  22.019  24.897  1.00  0.00     0.128 A 
ATOM     15  N   UNL A   1      35.243  20.707  25.059  1.00  0.00    -0.231 NA
ATOM     16  N   UNL A   1      34.591  22.908  24.426  1.00  0.00    -0.216 NA
ATOM     17  C   UNL A   1      33.998  20.285  24.753  1.00  0.00     0.094 A 
ATOM     18  C   UNL A   1      33.009  21.146  24.325  1.00  0.00     0.077 A 
BRANCH  17  19
ATOM     19  C   UNL A   1      33.745  18.844  24.832  1.00  0.00     0.089 A 
ATOM     20  C   UNL A   1      34.647  17.924  24.291  1.00  0.00     0.030 A 
ATOM     21  N   UNL A   1      32.571  18.462  25.398  1.00  0.00    -0.255 NA
ATOM     22  C   UNL A   1      34.337  16.568  24.338  1.00  0.00     0.004 A 
ATOM     23  C   UNL A   1      32.306  17.139  25.441  1.00  0.00     0.112 A 
ATOM     24  C   UNL A   1      33.145  16.164  24.925  1.00  0.00     0.020 A 
ENDBRANCH  17  19
ENDBRANCH   7  12
ENDBRANCH   4   6
ENDBRANCH   3   4
ENDBRANCH   2   3
ENDBRANCH   1   2
BRANCH   1  25
ATOM     25  O   UNL A   1      33.871  28.744  27.685  1.00  0.00    -0.458 OA
BRANCH  25  26
ATOM     26  C   UNL A   1      34.445  29.958  27.858  1.00  0.00     0.338 C 
ATOM     27  O   UNL A   1      33.893  31.044  27.863  1.00  0.00    -0.246 OA
BRANCH  26  28
ATOM     28  C   UNL A   1      35.865  29.776  28.192  1.00  0.00     0.060 A 
ATOM     29  C   UNL A   1      36.805  29.941  27.172  1.00  0.00     0.016 A 
ATOM     30  C   UNL A   1      36.260  29.380  29.470  1.00  0.00     0.016 A 
ATOM     31  C   UNL A   1      38.153  29.710  27.423  1.00  0.00     0.010 A 
ATOM     32  C   UNL A   1      37.616  29.145  29.720  1.00  0.00     0.010 A 
ATOM     33  C   UNL A   1      38.567  29.297  28.695  1.00  0.00    -0.014 A 
BRANCH  33  34
ATOM     34  C   UNL A   1      39.992  28.967  28.929  1.00  0.00     0.031 A 
ATOM     35  C   UNL A   1      40.914  30.012  29.489  1.00  0.00     0.074 A 
ATOM     36  C   UNL A   1      40.446  27.729  28.660  1.00  0.00     0.049 A 
ATOM     37  N   UNL A   1      42.203  29.950  29.699  1.00  0.00    -0.248 NA
ATOM     38  C   UNL A   1      40.304  31.299  29.861  1.00  0.00     0.031 C 
ATOM     39  C   UNL A   1      39.632  26.624  28.150  1.00  0.00     0.029 A 
ATOM     40  N   UNL A   1      41.704  27.194  28.773  1.00  0.00    -0.354 N 
ATOM     41  C   UNL A   1      42.565  31.193  30.205  1.00  0.00     0.074 A 
ATOM     42  C   UNL A   1      41.360  31.993  30.261  1.00  0.00     0.031 C 
ATOM     43  C   UNL A   1      40.414  25.544  27.988  1.00  0.00     0.029 A 
ATOM     44  C   UNL A   1      41.787  25.892  28.343  1.00  0.00     0.049 A 
ATOM     45  H   UNL A   1      42.472  27.695  29.128  1.00  0.00     0.167 HD
ATOM     46  C   UNL A   1      43.790  31.621  30.588  1.00  0.00     0.037 A 
ATOM     47  C   UNL A   1      42.856  25.080  28.224  1.00  0.00     0.037 A 
ATOM     48  C   UNL A   1      44.978  30.810  30.546  1.00  0.00     0.049 A 
ATOM     49  C   UNL A   1      44.213  25.593  28.623  1.00  0.00     0.074 A 
ATOM     50  C   UNL A   1      46.265  31.146  30.929  1.00  0.00     0.029 A 
ATOM     51  N   UNL A   1      45.027  29.499  30.094  1.00  0.00    -0.354 N 
ATOM     52  N   UNL A   1      44.541  26.770  29.101  1.00  0.00    -0.248 NA
ATOM     53  C   UNL A   1      45.346  24.671  28.467  1.00  0.00     0.031 C 
ATOM     54  C   UNL A   1      47.098  30.050  30.677  1.00  0.00     0.029 A 
ATOM     55  C   UNL A   1      46.323  29.018  30.174  1.00  0.00     0.049 A 
ATOM     56  H   UNL A   1      44.253  28.986  29.766  1.00  0.00     0.167 HD
ATOM     57  C   UNL A   1      45.914  26.724  29.318  1.00  0.00     0.074 A 
ATOM     58  C   UNL A   1      46.353  25.398  28.932  1.00  0.00     0.031 C 
ATOM     59  C   UNL A   1      46.738  27.692  29.791  1.00  0.00     0.037 A 
BRANCH  46  60
ATOM     60  C   UNL A   1      43.915  33.042  31.061  1.00  0.00     0.058 A 
ATOM     61  C   UNL A   1      43.671  33.400  32.395  1.00  0.00     0.135 A 
ATOM     62  C   UNL A   1      44.323  34.050  30.174  1.00  0.00     0.135 A 
ATOM     63  F   UNL A   1      43.260  32.477  33.280  1.00  0.00    -0.206 F 
ATOM     64  C   UNL A   1      43.810  34.714  32.830  1.00  0.00     0.059 A 
ATOM     65  C   UNL A   1      44.489  35.367  30.592  1.00  0.00     0.059 A 
ATOM     66  F   UNL A   1      44.565  33.760  28.885  1.00  0.00    -0.206 F 
ATOM     67  C   UNL A   1      44.218  35.692  31.920  1.00  0.00     0.060 A 
BRANCH  67  68
ATOM     68  S   UNL A   1      44.403  37.392  32.500  1.00  0.00     0.124 S 
ATOM     69  O   UNL A   1      43.690  37.345  33.773  1.00  0.00    -0.237 OA
ATOM     70  O   UNL A   1      45.852  37.537  32.591  1.00  0.00    -0.237 OA
ATOM     71  O   UNL A   1      43.763  38.180  31.452  1.00  0.00    -0.744 OA
ENDBRANCH  67  68
ENDBRANCH  46  60
BRANCH  47  72
ATOM     72  C   UNL A   1      42.690  23.709  27.675  1.00  0.00     0.058 A 
ATOM     73  C   UNL A   1      42.732  23.468  26.295  1.00  0.00     0.135 A 
ATOM     74  C   UNL A   1      42.489  22.610  28.525  1.00  0.00     0.135 A 
ATOM     75  F   UNL A   1      42.912  24.489  25.441  1.00  0.00    -0.206 F 
ATOM     76  C   UNL A   1      42.566  22.189  25.773  1.00  0.00     0.059 A 
ATOM     77  C   UNL A   1      42.345  21.319  28.029  1.00  0.00     0.059 A 
ATOM     78  F   UNL A   1      42.451  22.786  29.855  1.00  0.00    -0.206 F 
ATOM     79  C   UNL A   1      42.373  21.120  26.649  1.00  0.00     0.060 A 
BRANCH  79  80
ATOM     80  S   UNL A   1      42.203  19.455  25.969  1.00  0.00     0.124 S 
ATOM     81  O   UNL A   1      43.027  19.543  24.770  1.00  0.00    -0.237 OA
ATOM     82  O   UNL A   1      42.730  18.625  27.047  1.00  0.00    -0.237 OA
ATOM     83  O   UNL A   1      40.766  19.334  25.741  1.00  0.00    -0.744 OA
ENDBRANCH  79  80
ENDBRANCH  47  72
BRANCH  59  84
ATOM     84  C   UNL A   1      48.191  27.344  29.945  1.00  0.00     0.058 A 
ATOM     85  C   UNL A   1      49.131  27.667  28.956  1.00  0.00     0.135 A 
ATOM     86  C   UNL A   1      48.653  26.726  31.118  1.00  0.00     0.135 A 
ATOM     87  F   UNL A   1      48.738  28.252  27.814  1.00  0.00    -0.206 F 
ATOM     88  C   UNL A   1      50.482  27.373  29.116  1.00  0.00     0.059 A 
ATOM     89  C   UNL A   1      50.002  26.443  31.309  1.00  0.00     0.059 A 
ATOM     90  F   UNL A   1      47.794  26.406  32.097  1.00  0.00    -0.206 F 
ATOM     91  C   UNL A   1      50.907  26.760  30.297  1.00  0.00     0.060 A 
BRANCH  91  92
ATOM     92  S   UNL A   1      52.666  26.414  30.512  1.00  0.00     0.124 S 
ATOM     93  O   UNL A   1      53.152  27.683  31.042  1.00  0.00    -0.237 OA
ATOM     94  O   UNL A   1      52.655  25.297  31.453  1.00  0.00    -0.237 OA
ATOM     95  O   UNL A   1      53.114  26.083  29.163  1.00  0.00    -0.744 OA
ENDBRANCH  91  92
ENDBRANCH  59  84
ENDBRANCH  33  34
ENDBRANCH  26  28
ENDBRANCH  25  26
ENDBRANCH   1  25
TORSDOF 16
ENDMDL
MODEL 3
REMARK VINA RESULT:     -11.2      2.315      3.154
REMARK SMILES Cc1nc(-c2ccccn2)cc(N2CCC[C@H](C(=O)OCCOC(=O)c3ccc(-c4c5nc(c(-c6c(F)cc(S(=O)(=O)[O-])cc6F)c6ccc([nH]6)c(-c6c(F)cc(S(=O)(=O)[O-])cc6F)c6nc(c(-c7c(F)cc(S(=O)(=O)[O-])cc7F)c7ccc4[nH]7)C=C6)C=C5)cc3)C2)n1
REMARK SMILES IDX 22 1 21 2 20 3 18 4 19 5 17 6 13 7 14 8 92 9 15 10 16 11
REMARK SMILES IDX 12 12 1 13 2 14 3 15 93 16 4 17 11 18 5 19 6 20 10 21 7 22
REMARK SMILES IDX 9 23 8 24 23 25 24 26 25 27 26 28 27 29 91 30 28 31 90 32
REMARK SMILES IDX 29 33 30 34 31 35 84 36 32 37 89 38 83 39 85 40 33 41 88 42
REMARK SMILES IDX 82 43 81 44 34 46 68 47 47 48 67 49 48 50 51 51 66 52 86 53
REMARK SMILES IDX 49 54 50 55 65 57 87 58 52 59 35 60 36 61 45 62 37 63 38 64
REMARK SMILES IDX 44 65 46 66 39 67 40 68 41 69 42 70 43 71 69 72 70 73 79 74
REMARK SMILES IDX 71 75 72 76 78 77 80 78 73 79 74 80 75 81 76 82 77 83 53 84
REMARK SMILES IDX 54 85 63 86 55 87 56 88 62 89 64 90 57 91 58 92 59 93 60 94
REMARK SMILES IDX 61 95
REMARK H PARENT 85 45 51 56
REMARK Flexibility Score: inf
ROOT
ATOM      1  C   UNL A   1      34.468  29.773  27.495  1.00  0.00     0.275 C 
ENDROOT
BRANCH   1   2
ATOM      2  C   UNL A   1      33.455  28.680  27.150  1.00  0.00     0.274 C 
BRANCH   2   3
ATOM      3  O   UNL A   1      34.079  27.595  26.437  1.00  0.00    -0.462 OA
BRANCH   3   4
ATOM      4  C   UNL A   1      33.362  27.021  25.436  1.00  0.00     0.310 C 
ATOM      5  O   UNL A   1      33.785  26.840  24.301  1.00  0.00    -0.252 OA
BRANCH   4   6
ATOM      6  C   UNL A   1      31.946  26.642  25.845  1.00  0.00     0.118 C 
ATOM      7  N   UNL A   1      31.884  24.343  25.098  1.00  0.00    -0.356 N 
ATOM      8  C   UNL A   1      30.782  24.502  24.169  1.00  0.00     0.118 C 
ATOM      9  C   UNL A   1      31.923  25.180  26.284  1.00  0.00     0.133 C 
ATOM     10  C   UNL A   1      30.750  25.942  23.670  1.00  0.00     0.022 C 
ATOM     11  C   UNL A   1      30.846  26.956  24.815  1.00  0.00     0.019 C 
BRANCH   7  12
ATOM     12  C   UNL A   1      32.821  23.352  24.957  1.00  0.00     0.132 A 
ATOM     13  C   UNL A   1      32.898  19.820  24.018  1.00  0.00     0.090 C 
ATOM     14  C   UNL A   1      33.337  21.156  24.527  1.00  0.00     0.128 A 
ATOM     15  N   UNL A   1      34.635  21.307  24.834  1.00  0.00    -0.231 NA
ATOM     16  N   UNL A   1      32.410  22.125  24.606  1.00  0.00    -0.216 NA
ATOM     17  C   UNL A   1      35.017  22.546  25.211  1.00  0.00     0.094 A 
ATOM     18  C   UNL A   1      34.139  23.610  25.256  1.00  0.00     0.077 A 
BRANCH  17  19
ATOM     19  C   UNL A   1      36.408  22.712  25.641  1.00  0.00     0.089 A 
ATOM     20  C   UNL A   1      36.868  23.935  26.135  1.00  0.00     0.030 A 
ATOM     21  N   UNL A   1      37.227  21.641  25.478  1.00  0.00    -0.255 NA
ATOM     22  C   UNL A   1      38.211  24.063  26.477  1.00  0.00     0.004 A 
ATOM     23  C   UNL A   1      38.521  21.792  25.833  1.00  0.00     0.112 A 
ATOM     24  C   UNL A   1      39.056  22.970  26.326  1.00  0.00     0.020 A 
ENDBRANCH  17  19
ENDBRANCH   7  12
ENDBRANCH   4   6
ENDBRANCH   3   4
ENDBRANCH   2   3
ENDBRANCH   1   2
BRANCH   1  25
ATOM     25  O   UNL A   1      35.470  29.280  28.400  1.00  0.00    -0.458 OA
BRANCH  25  26
ATOM     26  C   UNL A   1      36.174  30.238  29.048  1.00  0.00     0.338 C 
ATOM     27  O   UNL A   1      35.736  31.124  29.759  1.00  0.00    -0.246 OA
BRANCH  26  28
ATOM     28  C   UNL A   1      37.610  29.972  28.887  1.00  0.00     0.060 A 
ATOM     29  C   UNL A   1      38.092  29.731  27.598  1.00  0.00     0.016 A 
ATOM     30  C   UNL A   1      38.458  29.892  29.991  1.00  0.00     0.016 A 
ATOM     31  C   UNL A   1      39.429  29.404  27.403  1.00  0.00     0.010 A 
ATOM     32  C   UNL A   1      39.803  29.561  29.794  1.00  0.00     0.010 A 
ATOM     33  C   UNL A   1      40.292  29.304  28.501  1.00  0.00    -0.014 A 
BRANCH  33  34
ATOM     34  C   UNL A   1      41.693  28.870  28.294  1.00  0.00     0.031 A 
ATOM     35  C   UNL A   1      42.802  29.879  28.365  1.00  0.00     0.074 A 
ATOM     36  C   UNL A   1      41.964  27.571  28.065  1.00  0.00     0.049 A 
ATOM     37  N   UNL A   1      44.080  29.719  28.142  1.00  0.00    -0.248 NA
ATOM     38  C   UNL A   1      42.421  31.252  28.734  1.00  0.00     0.031 C 
ATOM     39  C   UNL A   1      40.971  26.498  28.013  1.00  0.00     0.029 A 
ATOM     40  N   UNL A   1      43.157  26.935  27.829  1.00  0.00    -0.354 N 
ATOM     41  C   UNL A   1      44.655  30.972  28.321  1.00  0.00     0.074 A 
ATOM     42  C   UNL A   1      43.584  31.885  28.660  1.00  0.00     0.031 C 
ATOM     43  C   UNL A   1      41.595  25.337  27.754  1.00  0.00     0.029 A 
ATOM     44  C   UNL A   1      43.023  25.591  27.582  1.00  0.00     0.049 A 
ATOM     45  H   UNL A   1      44.025  27.399  27.836  1.00  0.00     0.167 HD
ATOM     46  C   UNL A   1      45.958  31.323  28.213  1.00  0.00     0.037 A 
ATOM     47  C   UNL A   1      43.944  24.673  27.230  1.00  0.00     0.037 A 
ATOM     48  C   UNL A   1      47.018  30.403  27.893  1.00  0.00     0.049 A 
ATOM     49  C   UNL A   1      45.380  25.097  27.082  1.00  0.00     0.074 A 
ATOM     50  C   UNL A   1      48.374  30.658  27.778  1.00  0.00     0.029 A 
ATOM     51  N   UNL A   1      46.843  29.051  27.640  1.00  0.00    -0.354 N 
ATOM     52  N   UNL A   1      45.910  26.285  27.255  1.00  0.00    -0.248 NA
ATOM     53  C   UNL A   1      46.344  24.060  26.690  1.00  0.00     0.031 C 
ATOM     54  C   UNL A   1      49.014  29.467  27.420  1.00  0.00     0.029 A 
ATOM     55  C   UNL A   1      48.063  28.462  27.352  1.00  0.00     0.049 A 
ATOM     56  H   UNL A   1      45.979  28.579  27.661  1.00  0.00     0.167 HD
ATOM     57  C   UNL A   1      47.271  26.134  27.009  1.00  0.00     0.074 A 
ATOM     58  C   UNL A   1      47.484  24.737  26.689  1.00  0.00     0.031 C 
ATOM     59  C   UNL A   1      48.254  27.067  27.042  1.00  0.00     0.037 A 
BRANCH  46  60
ATOM     60  C   UNL A   1      46.308  32.771  28.415  1.00  0.00     0.058 A 
ATOM     61  C   UNL A   1      46.375  33.671  27.342  1.00  0.00     0.135 A 
ATOM     62  C   UNL A   1      46.542  33.269  29.706  1.00  0.00     0.135 A 
ATOM     63  F   UNL A   1      46.178  33.242  26.085  1.00  0.00    -0.206 F 
ATOM     64  C   UNL A   1      46.679  35.015  27.540  1.00  0.00     0.059 A 
ATOM     65  C   UNL A   1      46.827  34.613  29.930  1.00  0.00     0.059 A 
ATOM     66  F   UNL A   1      46.495  32.447  30.767  1.00  0.00    -0.206 F 
ATOM     67  C   UNL A   1      46.905  35.476  28.838  1.00  0.00     0.060 A 
BRANCH  67  68
ATOM     68  S   UNL A   1      47.290  37.223  29.083  1.00  0.00     0.124 S 
ATOM     69  O   UNL A   1      47.717  37.616  27.743  1.00  0.00    -0.237 OA
ATOM     70  O   UNL A   1      46.011  37.767  29.524  1.00  0.00    -0.237 OA
ATOM     71  O   UNL A   1      48.341  37.201  30.095  1.00  0.00    -0.744 OA
ENDBRANCH  67  68
ENDBRANCH  46  60
BRANCH  47  72
ATOM     72  C   UNL A   1      43.532  23.270  26.965  1.00  0.00     0.058 A 
ATOM     73  C   UNL A   1      43.477  22.763  25.659  1.00  0.00     0.135 A 
ATOM     74  C   UNL A   1      43.187  22.407  28.017  1.00  0.00     0.135 A 
ATOM     75  F   UNL A   1      43.788  23.553  24.620  1.00  0.00    -0.206 F 
ATOM     76  C   UNL A   1      43.082  21.454  25.402  1.00  0.00     0.059 A 
ATOM     77  C   UNL A   1      42.812  21.088  27.788  1.00  0.00     0.059 A 
ATOM     78  F   UNL A   1      43.233  22.841  29.287  1.00  0.00    -0.206 F 
ATOM     79  C   UNL A   1      42.751  20.623  26.474  1.00  0.00     0.060 A 
BRANCH  79  80
ATOM     80  S   UNL A   1      42.281  18.912  26.139  1.00  0.00     0.124 S 
ATOM     81  O   UNL A   1      43.200  18.561  25.063  1.00  0.00    -0.237 OA
ATOM     82  O   UNL A   1      42.525  18.266  27.424  1.00  0.00    -0.237 OA
ATOM     83  O   UNL A   1      40.875  19.021  25.758  1.00  0.00    -0.744 OA
ENDBRANCH  79  80
ENDBRANCH  47  72
BRANCH  59  84
ATOM     84  C   UNL A   1      49.654  26.603  26.753  1.00  0.00     0.058 A 
ATOM     85  C   UNL A   1      50.532  26.237  27.783  1.00  0.00     0.135 A 
ATOM     86  C   UNL A   1      50.101  26.474  25.429  1.00  0.00     0.135 A 
ATOM     87  F   UNL A   1      50.154  26.347  29.067  1.00  0.00    -0.206 F 
ATOM     88  C   UNL A   1      51.816  25.776  27.511  1.00  0.00     0.059 A 
ATOM     89  C   UNL A   1      51.373  25.995  25.132  1.00  0.00     0.059 A 
ATOM     90  F   UNL A   1      49.294  26.803  24.408  1.00  0.00    -0.206 F 
ATOM     91  C   UNL A   1      52.228  25.658  26.182  1.00  0.00     0.060 A 
BRANCH  91  92
ATOM     92  S   UNL A   1      53.883  25.026  25.836  1.00  0.00     0.124 S 
ATOM     93  O   UNL A   1      53.585  23.698  25.310  1.00  0.00    -0.237 OA
ATOM     94  O   UNL A   1      54.393  25.992  24.866  1.00  0.00    -0.237 OA
ATOM     95  O   UNL A   1      54.536  25.054  27.141  1.00  0.00    -0.744 OA
ENDBRANCH  91  92
ENDBRANCH  59  84
ENDBRANCH  33  34
ENDBRANCH  26  28
ENDBRANCH  25  26
ENDBRANCH   1  25
TORSDOF 16
ENDMDL
