MODEL 1
REMARK VINA RESULT:     -10.6      0.000      0.000
REMARK SMILES Cc1ccc(-c2nn(CCC(=O)OCCOC(=O)c3ccc(-c4c5nc(c(-c6c(F)cc(S(=O)(=O)[O-])cc6F)c6ccc([nH]6)c(-c6c(F)cc(S(=O)(=O)[O-])cc6F)c6nc(c(-c7c(F)cc(S(=O)(=O)[O-])cc7F)c7ccc4[nH]7)C=C6)C=C5)cc3)c(=O)c3noc(C)c23)cc1C
REMARK SMILES IDX 14 1 13 2 11 3 12 4 10 5 9 6 8 7 6 8 7 9 92 10 87 11 90 12
REMARK SMILES IDX 85 13 88 14 89 15 91 16 86 17 5 18 1 19 2 20 3 21 94 22 4 23
REMARK SMILES IDX 93 24 95 25 15 26 16 27 17 28 18 29 19 30 20 31 84 32 21 33
REMARK SMILES IDX 83 34 22 35 23 36 24 37 77 38 25 39 82 40 76 41 78 42 26 43
REMARK SMILES IDX 81 44 75 45 74 46 27 48 61 49 40 50 60 51 41 52 44 53 59 54
REMARK SMILES IDX 79 55 42 56 43 57 58 59 80 60 45 61 28 62 29 63 38 64 30 65
REMARK SMILES IDX 31 66 37 67 39 68 32 69 33 70 34 71 35 72 36 73 62 74 63 75
REMARK SMILES IDX 72 76 64 77 65 78 71 79 73 80 66 81 67 82 68 83 69 84 70 85
REMARK SMILES IDX 46 86 47 87 56 88 48 89 49 90 55 91 57 92 50 93 51 94 52 95
REMARK SMILES IDX 53 96 54 97
REMARK H PARENT 78 47 44 58
REMARK Flexibility Score: inf
ROOT
ATOM      1  C   UNL A   1      45.067  19.428  24.529  1.00  0.00     0.274 C 
ENDROOT
BRANCH   1   2
ATOM      2  O   UNL A   1      44.580  18.365  25.367  1.00  0.00    -0.462 OA
BRANCH   2   3
ATOM      3  C   UNL A   1      43.295  18.446  25.779  1.00  0.00     0.307 C 
ATOM      4  O   UNL A   1      42.499  17.515  25.790  1.00  0.00    -0.252 OA
BRANCH   3   5
ATOM      5  C   UNL A   1      42.909  19.854  26.158  1.00  0.00     0.146 C 
BRANCH   5   6
ATOM      6  C   UNL A   1      41.771  19.946  27.174  1.00  0.00     0.160 C 
BRANCH   6   7
ATOM      7  N   UNL A   1      40.665  20.783  26.706  1.00  0.00    -0.227 N 
ATOM      8  C   UNL A   1      39.778  22.961  26.770  1.00  0.00     0.104 A 
ATOM      9  N   UNL A   1      40.739  22.135  27.078  1.00  0.00    -0.169 NA
ATOM     10  C   UNL A   1      38.592  22.467  26.131  1.00  0.00     0.078 A 
ATOM     11  C   UNL A   1      38.542  21.135  25.695  1.00  0.00     0.183 A 
ATOM     12  C   UNL A   1      37.372  22.987  25.769  1.00  0.00     0.143 A 
ATOM     13  C   UNL A   1      39.653  20.238  25.888  1.00  0.00     0.296 A 
ATOM     14  N   UNL A   1      37.368  20.831  25.130  1.00  0.00    -0.074 NA
ATOM     15  O   UNL A   1      36.633  22.001  25.179  1.00  0.00    -0.360 OA
ATOM     16  C   UNL A   1      36.697  24.291  25.866  1.00  0.00     0.091 C 
ATOM     17  O   UNL A   1      39.664  19.105  25.405  1.00  0.00    -0.265 OA
BRANCH   8  18
ATOM     18  C   UNL A   1      39.957  24.399  27.004  1.00  0.00     0.003 A 
ATOM     19  C   UNL A   1      40.362  28.661  27.408  1.00  0.00     0.044 C 
ATOM     20  C   UNL A   1      40.219  27.167  27.311  1.00  0.00    -0.048 A 
ATOM     21  C   UNL A   1      40.742  26.518  26.180  1.00  0.00     0.004 A 
ATOM     22  C   UNL A   1      39.579  26.407  28.314  1.00  0.00    -0.048 A 
ATOM     23  C   UNL A   1      40.616  25.140  26.025  1.00  0.00     0.011 A 
ATOM     24  C   UNL A   1      39.469  25.014  28.156  1.00  0.00     0.014 A 
ATOM     25  C   UNL A   1      38.989  27.016  29.555  1.00  0.00     0.044 C 
ENDBRANCH   8  18
ENDBRANCH   6   7
ENDBRANCH   5   6
ENDBRANCH   3   5
ENDBRANCH   2   3
ENDBRANCH   1   2
BRANCH   1  26
ATOM     26  C   UNL A   1      46.267  20.148  25.149  1.00  0.00     0.275 C 
BRANCH  26  27
ATOM     27  O   UNL A   1      45.868  21.390  25.758  1.00  0.00    -0.458 OA
BRANCH  27  28
ATOM     28  C   UNL A   1      46.052  22.476  24.977  1.00  0.00     0.338 C 
ATOM     29  O   UNL A   1      46.597  22.528  23.885  1.00  0.00    -0.246 OA
BRANCH  28  30
ATOM     30  C   UNL A   1      45.572  23.704  25.610  1.00  0.00     0.060 A 
ATOM     31  C   UNL A   1      44.551  24.483  25.055  1.00  0.00     0.016 A 
ATOM     32  C   UNL A   1      46.338  24.175  26.674  1.00  0.00     0.016 A 
ATOM     33  C   UNL A   1      44.315  25.764  25.565  1.00  0.00     0.010 A 
ATOM     34  C   UNL A   1      46.099  25.444  27.176  1.00  0.00     0.010 A 
ATOM     35  C   UNL A   1      45.090  26.249  26.630  1.00  0.00    -0.014 A 
BRANCH  35  36
ATOM     36  C   UNL A   1      44.788  27.565  27.237  1.00  0.00     0.031 A 
ATOM     37  C   UNL A   1      44.447  27.490  28.688  1.00  0.00     0.074 A 
ATOM     38  C   UNL A   1      45.301  28.726  26.775  1.00  0.00     0.049 A 
ATOM     39  N   UNL A   1      45.368  27.328  29.591  1.00  0.00    -0.248 NA
ATOM     40  C   UNL A   1      43.088  27.310  29.189  1.00  0.00     0.031 C 
ATOM     41  C   UNL A   1      46.460  28.816  25.878  1.00  0.00     0.029 A 
ATOM     42  N   UNL A   1      45.078  30.028  27.170  1.00  0.00    -0.354 N 
ATOM     43  C   UNL A   1      44.740  26.938  30.752  1.00  0.00     0.074 A 
ATOM     44  C   UNL A   1      43.321  26.986  30.473  1.00  0.00     0.031 C 
ATOM     45  C   UNL A   1      46.960  30.068  25.944  1.00  0.00     0.029 A 
ATOM     46  C   UNL A   1      46.080  30.909  26.755  1.00  0.00     0.049 A 
ATOM     47  H   UNL A   1      44.292  30.309  27.693  1.00  0.00     0.167 HD
ATOM     48  C   UNL A   1      45.430  26.556  31.857  1.00  0.00     0.037 A 
ATOM     49  C   UNL A   1      46.523  31.999  27.442  1.00  0.00     0.037 A 
ATOM     50  C   UNL A   1      46.858  26.540  31.732  1.00  0.00     0.049 A 
ATOM     51  C   UNL A   1      47.062  31.380  28.708  1.00  0.00     0.074 A 
ATOM     52  C   UNL A   1      47.826  25.619  31.392  1.00  0.00     0.029 A 
ATOM     53  N   UNL A   1      47.538  27.726  31.880  1.00  0.00    -0.354 N 
ATOM     54  N   UNL A   1      48.227  30.810  28.860  1.00  0.00    -0.248 NA
ATOM     55  C   UNL A   1      46.107  31.126  29.790  1.00  0.00     0.031 C 
ATOM     56  C   UNL A   1      48.934  26.386  30.912  1.00  0.00     0.029 A 
ATOM     57  C   UNL A   1      48.544  27.723  30.945  1.00  0.00     0.049 A 
ATOM     58  H   UNL A   1      47.342  28.439  32.529  1.00  0.00     0.167 HD
ATOM     59  C   UNL A   1      48.063  29.916  29.919  1.00  0.00     0.074 A 
ATOM     60  C   UNL A   1      46.745  30.179  30.463  1.00  0.00     0.031 C 
ATOM     61  C   UNL A   1      48.925  28.895  30.188  1.00  0.00     0.037 A 
BRANCH  48  62
ATOM     62  C   UNL A   1      44.808  26.299  33.164  1.00  0.00     0.058 A 
ATOM     63  C   UNL A   1      44.237  25.037  33.381  1.00  0.00     0.135 A 
ATOM     64  C   UNL A   1      44.581  27.308  34.104  1.00  0.00     0.135 A 
ATOM     65  F   UNL A   1      44.423  24.055  32.482  1.00  0.00    -0.206 F 
ATOM     66  C   UNL A   1      43.422  24.791  34.473  1.00  0.00     0.059 A 
ATOM     67  C   UNL A   1      43.769  27.084  35.213  1.00  0.00     0.059 A 
ATOM     68  F   UNL A   1      45.106  28.532  33.927  1.00  0.00    -0.206 F 
ATOM     69  C   UNL A   1      43.175  25.829  35.373  1.00  0.00     0.060 A 
BRANCH  69  70
ATOM     70  S   UNL A   1      42.017  25.515  36.721  1.00  0.00     0.124 S 
ATOM     71  O   UNL A   1      41.381  24.275  36.285  1.00  0.00    -0.237 OA
ATOM     72  O   UNL A   1      42.913  25.401  37.866  1.00  0.00    -0.237 OA
ATOM     73  O   UNL A   1      41.159  26.696  36.713  1.00  0.00    -0.744 OA
ENDBRANCH  69  70
ENDBRANCH  48  62
BRANCH  49  74
ATOM     74  C   UNL A   1      45.621  33.201  27.478  1.00  0.00     0.058 A 
ATOM     75  C   UNL A   1      44.647  33.376  26.474  1.00  0.00     0.135 A 
ATOM     76  C   UNL A   1      45.693  34.220  28.445  1.00  0.00     0.135 A 
ATOM     77  F   UNL A   1      44.586  32.532  25.431  1.00  0.00    -0.206 F 
ATOM     78  C   UNL A   1      43.712  34.409  26.509  1.00  0.00     0.059 A 
ATOM     79  C   UNL A   1      44.753  35.249  28.520  1.00  0.00     0.059 A 
ATOM     80  F   UNL A   1      46.672  34.234  29.361  1.00  0.00    -0.206 F 
ATOM     81  C   UNL A   1      43.749  35.320  27.561  1.00  0.00     0.060 A 
BRANCH  81  82
ATOM     82  S   UNL A   1      42.435  36.551  27.685  1.00  0.00     0.124 S 
ATOM     83  O   UNL A   1      42.799  37.257  28.908  1.00  0.00    -0.237 OA
ATOM     84  O   UNL A   1      42.607  37.301  26.443  1.00  0.00    -0.237 OA
ATOM     85  O   UNL A   1      41.221  35.744  27.758  1.00  0.00    -0.744 OA
ENDBRANCH  81  82
ENDBRANCH  49  74
BRANCH  61  86
ATOM     86  C   UNL A   1      50.223  28.911  29.455  1.00  0.00     0.058 A 
ATOM     87  C   UNL A   1      50.304  28.352  28.172  1.00  0.00     0.135 A 
ATOM     88  C   UNL A   1      51.359  29.559  29.963  1.00  0.00     0.135 A 
ATOM     89  F   UNL A   1      49.242  27.726  27.638  1.00  0.00    -0.206 F 
ATOM     90  C   UNL A   1      51.452  28.479  27.397  1.00  0.00     0.059 A 
ATOM     91  C   UNL A   1      52.513  29.713  29.199  1.00  0.00     0.059 A 
ATOM     92  F   UNL A   1      51.344  30.102  31.192  1.00  0.00    -0.206 F 
ATOM     93  C   UNL A   1      52.544  29.181  27.909  1.00  0.00     0.060 A 
BRANCH  93  94
ATOM     94  S   UNL A   1      53.963  29.467  26.830  1.00  0.00     0.124 S 
ATOM     95  O   UNL A   1      53.324  29.712  25.541  1.00  0.00    -0.237 OA
ATOM     96  O   UNL A   1      54.596  30.626  27.452  1.00  0.00    -0.237 OA
ATOM     97  O   UNL A   1      54.725  28.224  26.923  1.00  0.00    -0.744 OA
ENDBRANCH  93  94
ENDBRANCH  61  86
ENDBRANCH  35  36
ENDBRANCH  28  30
ENDBRANCH  27  28
ENDBRANCH  26  27
ENDBRANCH   1  26
TORSDOF 17
ENDMDL
MODEL 2
REMARK VINA RESULT:     -10.6      3.503      8.711
REMARK SMILES Cc1ccc(-c2nn(CCC(=O)OCCOC(=O)c3ccc(-c4c5nc(c(-c6c(F)cc(S(=O)(=O)[O-])cc6F)c6ccc([nH]6)c(-c6c(F)cc(S(=O)(=O)[O-])cc6F)c6nc(c(-c7c(F)cc(S(=O)(=O)[O-])cc7F)c7ccc4[nH]7)C=C6)C=C5)cc3)c(=O)c3noc(C)c23)cc1C
REMARK SMILES IDX 14 1 13 2 11 3 12 4 10 5 9 6 8 7 6 8 7 9 92 10 87 11 90 12
REMARK SMILES IDX 85 13 88 14 89 15 91 16 86 17 5 18 1 19 2 20 3 21 94 22 4 23
REMARK SMILES IDX 93 24 95 25 15 26 16 27 17 28 18 29 19 30 20 31 84 32 21 33
REMARK SMILES IDX 83 34 22 35 23 36 24 37 77 38 25 39 82 40 76 41 78 42 26 43
REMARK SMILES IDX 81 44 75 45 74 46 27 48 61 49 40 50 60 51 41 52 44 53 59 54
REMARK SMILES IDX 79 55 42 56 43 57 58 59 80 60 45 61 28 62 29 63 38 64 30 65
REMARK SMILES IDX 31 66 37 67 39 68 32 69 33 70 34 71 35 72 36 73 62 74 63 75
REMARK SMILES IDX 72 76 64 77 65 78 71 79 73 80 66 81 67 82 68 83 69 84 70 85
REMARK SMILES IDX 46 86 47 87 56 88 48 89 49 90 55 91 57 92 50 93 51 94 52 95
REMARK SMILES IDX 53 96 54 97
REMARK H PARENT 78 47 44 58
REMARK Flexibility Score: inf
ROOT
ATOM      1  C   UNL A   1      43.734  19.932  25.549  1.00  0.00     0.274 C 
ENDROOT
BRANCH   1   2
ATOM      2  O   UNL A   1      44.699  20.991  25.687  1.00  0.00    -0.462 OA
BRANCH   2   3
ATOM      3  C   UNL A   1      45.003  21.695  24.573  1.00  0.00     0.307 C 
ATOM      4  O   UNL A   1      44.444  21.572  23.490  1.00  0.00    -0.252 OA
BRANCH   3   5
ATOM      5  C   UNL A   1      46.181  22.613  24.786  1.00  0.00     0.146 C 
BRANCH   5   6
ATOM      6  C   UNL A   1      46.174  23.349  26.125  1.00  0.00     0.160 C 
BRANCH   6   7
ATOM      7  N   UNL A   1      46.771  24.682  26.038  1.00  0.00    -0.227 N 
ATOM      8  C   UNL A   1      48.628  25.973  26.686  1.00  0.00     0.104 A 
ATOM      9  N   UNL A   1      48.030  24.815  26.648  1.00  0.00    -0.169 NA
ATOM     10  C   UNL A   1      47.957  27.139  26.187  1.00  0.00     0.078 A 
ATOM     11  C   UNL A   1      46.735  27.002  25.515  1.00  0.00     0.183 A 
ATOM     12  C   UNL A   1      48.208  28.490  26.160  1.00  0.00     0.143 A 
ATOM     13  C   UNL A   1      46.121  25.711  25.325  1.00  0.00     0.296 A 
ATOM     14  N   UNL A   1      46.238  28.180  25.123  1.00  0.00    -0.074 NA
ATOM     15  O   UNL A   1      47.169  29.116  25.531  1.00  0.00    -0.360 OA
ATOM     16  C   UNL A   1      49.276  29.387  26.631  1.00  0.00     0.091 C 
ATOM     17  O   UNL A   1      45.111  25.568  24.636  1.00  0.00    -0.265 OA
BRANCH   8  18
ATOM     18  C   UNL A   1      50.015  26.055  27.162  1.00  0.00     0.003 A 
ATOM     19  C   UNL A   1      53.996  26.109  28.787  1.00  0.00     0.044 C 
ATOM     20  C   UNL A   1      52.620  26.100  28.179  1.00  0.00    -0.048 A 
ATOM     21  C   UNL A   1      51.523  26.401  29.004  1.00  0.00     0.004 A 
ATOM     22  C   UNL A   1      52.404  25.800  26.817  1.00  0.00    -0.048 A 
ATOM     23  C   UNL A   1      50.225  26.381  28.501  1.00  0.00     0.011 A 
ATOM     24  C   UNL A   1      51.091  25.797  26.314  1.00  0.00     0.014 A 
ATOM     25  C   UNL A   1      53.516  25.465  25.862  1.00  0.00     0.044 C 
ENDBRANCH   8  18
ENDBRANCH   6   7
ENDBRANCH   5   6
ENDBRANCH   3   5
ENDBRANCH   2   3
ENDBRANCH   1   2
BRANCH   1  26
ATOM     26  C   UNL A   1      42.323  20.384  25.932  1.00  0.00     0.275 C 
BRANCH  26  27
ATOM     27  O   UNL A   1      42.250  20.726  27.329  1.00  0.00    -0.458 OA
BRANCH  27  28
ATOM     28  C   UNL A   1      41.365  21.704  27.616  1.00  0.00     0.338 C 
ATOM     29  O   UNL A   1      40.161  21.593  27.797  1.00  0.00    -0.246 OA
BRANCH  28  30
ATOM     30  C   UNL A   1      41.984  23.028  27.636  1.00  0.00     0.060 A 
ATOM     31  C   UNL A   1      42.304  23.688  28.826  1.00  0.00     0.016 A 
ATOM     32  C   UNL A   1      42.030  23.691  26.411  1.00  0.00     0.016 A 
ATOM     33  C   UNL A   1      42.652  25.043  28.784  1.00  0.00     0.010 A 
ATOM     34  C   UNL A   1      42.378  25.031  26.375  1.00  0.00     0.010 A 
ATOM     35  C   UNL A   1      42.691  25.720  27.556  1.00  0.00    -0.014 A 
BRANCH  35  36
ATOM     36  C   UNL A   1      43.148  27.126  27.490  1.00  0.00     0.031 A 
ATOM     37  C   UNL A   1      42.032  28.115  27.428  1.00  0.00     0.074 A 
ATOM     38  C   UNL A   1      44.327  27.545  28.000  1.00  0.00     0.049 A 
ATOM     39  N   UNL A   1      41.348  28.429  28.489  1.00  0.00    -0.248 NA
ATOM     40  C   UNL A   1      41.439  28.587  26.181  1.00  0.00     0.031 C 
ATOM     41  C   UNL A   1      45.122  26.781  28.969  1.00  0.00     0.029 A 
ATOM     42  N   UNL A   1      44.931  28.783  27.969  1.00  0.00    -0.354 N 
ATOM     43  C   UNL A   1      40.197  29.053  28.065  1.00  0.00     0.074 A 
ATOM     44  C   UNL A   1      40.316  29.175  26.627  1.00  0.00     0.031 C 
ATOM     45  C   UNL A   1      45.986  27.621  29.576  1.00  0.00     0.029 A 
ATOM     46  C   UNL A   1      45.921  28.938  28.942  1.00  0.00     0.049 A 
ATOM     47  H   UNL A   1      44.690  29.488  27.324  1.00  0.00     0.167 HD
ATOM     48  C   UNL A   1      39.198  29.390  28.919  1.00  0.00     0.037 A 
ATOM     49  C   UNL A   1      46.223  30.093  29.600  1.00  0.00     0.037 A 
ATOM     50  C   UNL A   1      39.390  29.018  30.290  1.00  0.00     0.049 A 
ATOM     51  C   UNL A   1      44.932  30.399  30.317  1.00  0.00     0.074 A 
ATOM     52  C   UNL A   1      39.071  27.944  31.094  1.00  0.00     0.029 A 
ATOM     53  N   UNL A   1      40.164  29.832  31.083  1.00  0.00    -0.354 N 
ATOM     54  N   UNL A   1      44.521  29.868  31.438  1.00  0.00    -0.248 NA
ATOM     55  C   UNL A   1      43.906  31.130  29.571  1.00  0.00     0.031 C 
ATOM     56  C   UNL A   1      40.036  27.953  32.149  1.00  0.00     0.029 A 
ATOM     57  C   UNL A   1      40.911  29.005  31.888  1.00  0.00     0.049 A 
ATOM     58  H   UNL A   1      40.180  30.816  31.077  1.00  0.00     0.167 HD
ATOM     59  C   UNL A   1      43.129  29.974  31.405  1.00  0.00     0.074 A 
ATOM     60  C   UNL A   1      42.818  30.784  30.244  1.00  0.00     0.031 C 
ATOM     61  C   UNL A   1      42.297  29.259  32.214  1.00  0.00     0.037 A 
BRANCH  48  62
ATOM     62  C   UNL A   1      38.036  30.207  28.541  1.00  0.00     0.058 A 
ATOM     63  C   UNL A   1      38.060  31.570  28.870  1.00  0.00     0.135 A 
ATOM     64  C   UNL A   1      36.844  29.654  28.065  1.00  0.00     0.135 A 
ATOM     65  F   UNL A   1      39.188  32.124  29.349  1.00  0.00    -0.206 F 
ATOM     66  C   UNL A   1      36.923  32.356  28.779  1.00  0.00     0.059 A 
ATOM     67  C   UNL A   1      35.689  30.424  27.959  1.00  0.00     0.059 A 
ATOM     68  F   UNL A   1      36.781  28.351  27.746  1.00  0.00    -0.206 F 
ATOM     69  C   UNL A   1      35.735  31.767  28.343  1.00  0.00     0.060 A 
BRANCH  69  70
ATOM     70  S   UNL A   1      34.244  32.783  28.346  1.00  0.00     0.124 S 
ATOM     71  O   UNL A   1      33.287  31.911  27.673  1.00  0.00    -0.237 OA
ATOM     72  O   UNL A   1      34.023  32.988  29.774  1.00  0.00    -0.237 OA
ATOM     73  O   UNL A   1      34.642  33.973  27.599  1.00  0.00    -0.744 OA
ENDBRANCH  69  70
ENDBRANCH  48  62
BRANCH  49  74
ATOM     74  C   UNL A   1      46.961  31.150  28.827  1.00  0.00     0.058 A 
ATOM     75  C   UNL A   1      48.145  31.703  29.353  1.00  0.00     0.135 A 
ATOM     76  C   UNL A   1      46.534  31.675  27.593  1.00  0.00     0.135 A 
ATOM     77  F   UNL A   1      48.565  31.369  30.584  1.00  0.00    -0.206 F 
ATOM     78  C   UNL A   1      48.932  32.606  28.639  1.00  0.00     0.059 A 
ATOM     79  C   UNL A   1      47.315  32.558  26.846  1.00  0.00     0.059 A 
ATOM     80  F   UNL A   1      45.350  31.330  27.069  1.00  0.00    -0.206 F 
ATOM     81  C   UNL A   1      48.527  32.997  27.366  1.00  0.00     0.060 A 
BRANCH  81  82
ATOM     82  S   UNL A   1      49.634  34.035  26.388  1.00  0.00     0.124 S 
ATOM     83  O   UNL A   1      48.719  35.043  25.865  1.00  0.00    -0.237 OA
ATOM     84  O   UNL A   1      50.582  34.499  27.397  1.00  0.00    -0.237 OA
ATOM     85  O   UNL A   1      50.183  33.108  25.403  1.00  0.00    -0.744 OA
ENDBRANCH  81  82
ENDBRANCH  49  74
BRANCH  61  86
ATOM     86  C   UNL A   1      42.935  28.525  33.343  1.00  0.00     0.058 A 
ATOM     87  C   UNL A   1      42.918  29.081  34.630  1.00  0.00     0.135 A 
ATOM     88  C   UNL A   1      43.473  27.239  33.189  1.00  0.00     0.135 A 
ATOM     89  F   UNL A   1      42.409  30.307  34.832  1.00  0.00    -0.206 F 
ATOM     90  C   UNL A   1      43.369  28.365  35.735  1.00  0.00     0.059 A 
ATOM     91  C   UNL A   1      43.914  26.497  34.282  1.00  0.00     0.059 A 
ATOM     92  F   UNL A   1      43.527  26.661  31.977  1.00  0.00    -0.206 F 
ATOM     93  C   UNL A   1      43.844  27.065  35.555  1.00  0.00     0.060 A 
BRANCH  93  94
ATOM     94  S   UNL A   1      44.275  26.100  37.018  1.00  0.00     0.124 S 
ATOM     95  O   UNL A   1      43.354  24.971  36.926  1.00  0.00    -0.237 OA
ATOM     96  O   UNL A   1      45.682  25.789  36.780  1.00  0.00    -0.237 OA
ATOM     97  O   UNL A   1      44.027  27.020  38.126  1.00  0.00    -0.744 OA
ENDBRANCH  93  94
ENDBRANCH  61  86
ENDBRANCH  35  36
ENDBRANCH  28  30
ENDBRANCH  27  28
ENDBRANCH  26  27
ENDBRANCH   1  26
TORSDOF 17
ENDMDL
MODEL 3
REMARK VINA RESULT:     -10.4      4.911     11.115
REMARK SMILES Cc1ccc(-c2nn(CCC(=O)OCCOC(=O)c3ccc(-c4c5nc(c(-c6c(F)cc(S(=O)(=O)[O-])cc6F)c6ccc([nH]6)c(-c6c(F)cc(S(=O)(=O)[O-])cc6F)c6nc(c(-c7c(F)cc(S(=O)(=O)[O-])cc7F)c7ccc4[nH]7)C=C6)C=C5)cc3)c(=O)c3noc(C)c23)cc1C
REMARK SMILES IDX 14 1 13 2 11 3 12 4 10 5 9 6 8 7 6 8 7 9 92 10 87 11 90 12
REMARK SMILES IDX 85 13 88 14 89 15 91 16 86 17 5 18 1 19 2 20 3 21 94 22 4 23
REMARK SMILES IDX 93 24 95 25 15 26 16 27 17 28 18 29 19 30 20 31 84 32 21 33
REMARK SMILES IDX 83 34 22 35 23 36 24 37 77 38 25 39 82 40 76 41 78 42 26 43
REMARK SMILES IDX 81 44 75 45 74 46 27 48 61 49 40 50 60 51 41 52 44 53 59 54
REMARK SMILES IDX 79 55 42 56 43 57 58 59 80 60 45 61 28 62 29 63 38 64 30 65
REMARK SMILES IDX 31 66 37 67 39 68 32 69 33 70 34 71 35 72 36 73 62 74 63 75
REMARK SMILES IDX 72 76 64 77 65 78 71 79 73 80 66 81 67 82 68 83 69 84 70 85
REMARK SMILES IDX 46 86 47 87 56 88 48 89 49 90 55 91 57 92 50 93 51 94 52 95
REMARK SMILES IDX 53 96 54 97
REMARK H PARENT 78 47 44 58
REMARK Flexibility Score: inf
ROOT
ATOM      1  C   UNL A   1      33.020  29.786  25.705  1.00  0.00     0.274 C 
ENDROOT
BRANCH   1   2
ATOM      2  O   UNL A   1      33.427  28.729  24.816  1.00  0.00    -0.462 OA
BRANCH   2   3
ATOM      3  C   UNL A   1      32.683  28.542  23.703  1.00  0.00     0.307 C 
ATOM      4  O   UNL A   1      31.627  29.113  23.459  1.00  0.00    -0.252 OA
BRANCH   3   5
ATOM      5  C   UNL A   1      33.262  27.475  22.807  1.00  0.00     0.146 C 
BRANCH   5   6
ATOM      6  C   UNL A   1      32.464  26.173  22.778  1.00  0.00     0.160 C 
BRANCH   6   7
ATOM      7  N   UNL A   1      32.637  25.379  23.996  1.00  0.00    -0.227 N 
ATOM      8  C   UNL A   1      34.082  23.879  25.090  1.00  0.00     0.104 A 
ATOM      9  N   UNL A   1      33.846  24.668  24.079  1.00  0.00    -0.169 NA
ATOM     10  C   UNL A   1      33.062  23.660  26.076  1.00  0.00     0.078 A 
ATOM     11  C   UNL A   1      31.885  24.419  26.037  1.00  0.00     0.183 A 
ATOM     12  C   UNL A   1      32.905  22.848  27.174  1.00  0.00     0.143 A 
ATOM     13  C   UNL A   1      31.661  25.410  25.014  1.00  0.00     0.296 A 
ATOM     14  N   UNL A   1      31.036  24.088  27.016  1.00  0.00    -0.074 NA
ATOM     15  O   UNL A   1      31.683  23.097  27.731  1.00  0.00    -0.360 OA
ATOM     16  C   UNL A   1      33.698  21.815  27.860  1.00  0.00     0.091 C 
ATOM     17  O   UNL A   1      30.687  26.161  25.039  1.00  0.00    -0.265 OA
BRANCH   8  18
ATOM     18  C   UNL A   1      35.417  23.290  25.252  1.00  0.00     0.003 A 
ATOM     19  C   UNL A   1      39.325  21.668  26.019  1.00  0.00     0.044 C 
ATOM     20  C   UNL A   1      37.953  22.206  25.719  1.00  0.00    -0.048 A 
ATOM     21  C   UNL A   1      37.685  23.554  26.011  1.00  0.00     0.004 A 
ATOM     22  C   UNL A   1      36.938  21.401  25.158  1.00  0.00    -0.048 A 
ATOM     23  C   UNL A   1      36.424  24.097  25.778  1.00  0.00     0.011 A 
ATOM     24  C   UNL A   1      35.672  21.962  24.913  1.00  0.00     0.014 A 
ATOM     25  C   UNL A   1      37.134  19.950  24.816  1.00  0.00     0.044 C 
ENDBRANCH   8  18
ENDBRANCH   6   7
ENDBRANCH   5   6
ENDBRANCH   3   5
ENDBRANCH   2   3
ENDBRANCH   1   2
BRANCH   1  26
ATOM     26  C   UNL A   1      33.675  29.664  27.083  1.00  0.00     0.275 C 
BRANCH  26  27
ATOM     27  O   UNL A   1      35.110  29.698  26.981  1.00  0.00    -0.458 OA
BRANCH  27  28
ATOM     28  C   UNL A   1      35.691  30.725  27.638  1.00  0.00     0.338 C 
ATOM     29  O   UNL A   1      35.354  31.899  27.637  1.00  0.00    -0.246 OA
BRANCH  28  30
ATOM     30  C   UNL A   1      36.891  30.313  28.364  1.00  0.00     0.060 A 
ATOM     31  C   UNL A   1      37.706  31.224  29.044  1.00  0.00     0.016 A 
ATOM     32  C   UNL A   1      37.303  28.999  28.153  1.00  0.00     0.016 A 
ATOM     33  C   UNL A   1      38.963  30.811  29.496  1.00  0.00     0.010 A 
ATOM     34  C   UNL A   1      38.548  28.594  28.606  1.00  0.00     0.010 A 
ATOM     35  C   UNL A   1      39.389  29.492  29.279  1.00  0.00    -0.014 A 
BRANCH  35  36
ATOM     36  C   UNL A   1      40.677  29.020  29.834  1.00  0.00     0.031 A 
ATOM     37  C   UNL A   1      41.866  29.729  29.276  1.00  0.00     0.074 A 
ATOM     38  C   UNL A   1      40.796  28.476  31.065  1.00  0.00     0.049 A 
ATOM     39  N   UNL A   1      42.183  30.928  29.666  1.00  0.00    -0.248 NA
ATOM     40  C   UNL A   1      42.586  29.285  28.086  1.00  0.00     0.031 C 
ATOM     41  C   UNL A   1      39.784  28.601  32.122  1.00  0.00     0.029 A 
ATOM     42  N   UNL A   1      41.888  27.929  31.706  1.00  0.00    -0.354 N 
ATOM     43  C   UNL A   1      43.065  31.440  28.743  1.00  0.00     0.074 A 
ATOM     44  C   UNL A   1      43.326  30.370  27.804  1.00  0.00     0.031 C 
ATOM     45  C   UNL A   1      40.364  28.325  33.309  1.00  0.00     0.029 A 
ATOM     46  C   UNL A   1      41.732  27.855  33.092  1.00  0.00     0.049 A 
ATOM     47  H   UNL A   1      42.695  27.622  31.234  1.00  0.00     0.167 HD
ATOM     48  C   UNL A   1      43.490  32.729  28.783  1.00  0.00     0.037 A 
ATOM     49  C   UNL A   1      42.722  28.004  34.017  1.00  0.00     0.037 A 
ATOM     50  C   UNL A   1      42.932  33.542  29.823  1.00  0.00     0.049 A 
ATOM     51  C   UNL A   1      43.189  29.414  33.761  1.00  0.00     0.074 A 
ATOM     52  C   UNL A   1      41.855  34.393  29.965  1.00  0.00     0.029 A 
ATOM     53  N   UNL A   1      43.481  33.460  31.081  1.00  0.00    -0.354 N 
ATOM     54  N   UNL A   1      42.624  30.511  34.191  1.00  0.00    -0.248 NA
ATOM     55  C   UNL A   1      44.188  29.610  32.709  1.00  0.00     0.031 C 
ATOM     56  C   UNL A   1      41.554  34.402  31.363  1.00  0.00     0.029 A 
ATOM     57  C   UNL A   1      42.438  33.515  31.973  1.00  0.00     0.049 A 
ATOM     58  H   UNL A   1      44.437  33.379  31.301  1.00  0.00     0.167 HD
ATOM     59  C   UNL A   1      43.003  31.500  33.281  1.00  0.00     0.074 A 
ATOM     60  C   UNL A   1      43.986  30.886  32.411  1.00  0.00     0.031 C 
ATOM     61  C   UNL A   1      42.376  32.705  33.169  1.00  0.00     0.037 A 
BRANCH  48  62
ATOM     62  C   UNL A   1      44.557  33.268  27.928  1.00  0.00     0.058 A 
ATOM     63  C   UNL A   1      45.885  33.015  28.301  1.00  0.00     0.135 A 
ATOM     64  C   UNL A   1      44.312  34.180  26.898  1.00  0.00     0.135 A 
ATOM     65  F   UNL A   1      46.147  32.158  29.302  1.00  0.00    -0.206 F 
ATOM     66  C   UNL A   1      46.942  33.682  27.704  1.00  0.00     0.059 A 
ATOM     67  C   UNL A   1      45.358  34.860  26.279  1.00  0.00     0.059 A 
ATOM     68  F   UNL A   1      43.053  34.453  26.518  1.00  0.00    -0.206 F 
ATOM     69  C   UNL A   1      46.666  34.621  26.709  1.00  0.00     0.060 A 
BRANCH  69  70
ATOM     70  S   UNL A   1      48.052  35.560  26.033  1.00  0.00     0.124 S 
ATOM     71  O   UNL A   1      47.411  36.821  25.675  1.00  0.00    -0.237 OA
ATOM     72  O   UNL A   1      48.963  35.610  27.172  1.00  0.00    -0.237 OA
ATOM     73  O   UNL A   1      48.500  34.742  24.910  1.00  0.00    -0.744 OA
ENDBRANCH  69  70
ENDBRANCH  48  62
BRANCH  49  74
ATOM     74  C   UNL A   1      43.696  26.869  34.167  1.00  0.00     0.058 A 
ATOM     75  C   UNL A   1      44.161  26.510  35.449  1.00  0.00     0.135 A 
ATOM     76  C   UNL A   1      44.228  26.131  33.094  1.00  0.00     0.135 A 
ATOM     77  F   UNL A   1      43.819  27.237  36.525  1.00  0.00    -0.206 F 
ATOM     78  C   UNL A   1      44.978  25.402  35.666  1.00  0.00     0.059 A 
ATOM     79  C   UNL A   1      45.026  25.001  33.285  1.00  0.00     0.059 A 
ATOM     80  F   UNL A   1      43.971  26.477  31.825  1.00  0.00    -0.206 F 
ATOM     81  C   UNL A   1      45.374  24.628  34.578  1.00  0.00     0.060 A 
BRANCH  81  82
ATOM     82  S   UNL A   1      46.293  23.107  34.888  1.00  0.00     0.124 S 
ATOM     83  O   UNL A   1      45.619  22.162  34.005  1.00  0.00    -0.237 OA
ATOM     84  O   UNL A   1      47.647  23.488  34.496  1.00  0.00    -0.237 OA
ATOM     85  O   UNL A   1      46.103  22.882  36.317  1.00  0.00    -0.744 OA
ENDBRANCH  81  82
ENDBRANCH  49  74
BRANCH  61  86
ATOM     86  C   UNL A   1      41.406  33.053  34.247  1.00  0.00     0.058 A 
ATOM     87  C   UNL A   1      40.071  32.639  34.140  1.00  0.00     0.135 A 
ATOM     88  C   UNL A   1      41.803  33.700  35.426  1.00  0.00     0.135 A 
ATOM     89  F   UNL A   1      39.644  32.009  33.034  1.00  0.00    -0.206 F 
ATOM     90  C   UNL A   1      39.173  32.812  35.189  1.00  0.00     0.059 A 
ATOM     91  C   UNL A   1      40.925  33.869  36.495  1.00  0.00     0.059 A 
ATOM     92  F   UNL A   1      43.066  34.130  35.579  1.00  0.00    -0.206 F 
ATOM     93  C   UNL A   1      39.614  33.408  36.371  1.00  0.00     0.060 A 
BRANCH  93  94
ATOM     94  S   UNL A   1      38.477  33.480  37.771  1.00  0.00     0.124 S 
ATOM     95  O   UNL A   1      37.185  33.255  37.130  1.00  0.00    -0.237 OA
ATOM     96  O   UNL A   1      38.960  32.395  38.619  1.00  0.00    -0.237 OA
ATOM     97  O   UNL A   1      38.680  34.822  38.312  1.00  0.00    -0.744 OA
ENDBRANCH  93  94
ENDBRANCH  61  86
ENDBRANCH  35  36
ENDBRANCH  28  30
ENDBRANCH  27  28
ENDBRANCH  26  27
ENDBRANCH   1  26
TORSDOF 17
ENDMDL
