MODEL 1
REMARK VINA RESULT:     -12.2      0.000      0.000
REMARK SMILES CC1=C[C@@H]([C@@H]2N=N[C@H](S)N2/N=C/c2ccc(C(=O)OCCOC(=O)c3ccc(-c4c5nc(c(-c6c(F)cc(S(=O)(=O)[O-])cc6F)c6ccc([nH]6)c(-c6c(F)cc(S(=O)(=O)[O-])cc6F)c6nc(c(-c7c(F)cc(S(=O)(=O)[O-])cc7F)c7ccc4[nH]7)C=C6)C=C5)cc3)cc2)N=N1
REMARK SMILES IDX 20 1 19 2 17 3 18 4 16 5 13 6 14 7 92 8 15 9 91 10 12 11
REMARK SMILES IDX 11 12 10 13 5 14 6 15 7 16 8 17 4 18 1 19 2 20 3 21 94 22
REMARK SMILES IDX 93 23 9 24 21 26 22 27 23 28 24 29 25 30 26 31 90 32 27 33
REMARK SMILES IDX 89 34 28 35 29 36 30 37 83 38 31 39 88 40 82 41 84 42 32 43
REMARK SMILES IDX 87 44 81 45 80 46 33 48 67 49 46 50 66 51 47 52 50 53 65 54
REMARK SMILES IDX 85 55 48 56 49 57 64 59 86 60 51 61 34 62 35 63 44 64 36 65
REMARK SMILES IDX 37 66 43 67 45 68 38 69 39 70 40 71 41 72 42 73 68 74 69 75
REMARK SMILES IDX 78 76 70 77 71 78 77 79 79 80 72 81 73 82 74 83 75 84 76 85
REMARK SMILES IDX 52 86 53 87 62 88 54 89 55 90 61 91 63 92 56 93 57 94 58 95
REMARK SMILES IDX 59 96 60 97
REMARK H PARENT 9 25 84 47 50 58
REMARK Flexibility Score: inf
ROOT
ATOM      1  C   UNL A   1      41.856  19.823  26.947  1.00  0.00     0.275 C 
ENDROOT
BRANCH   1   2
ATOM      2  O   UNL A   1      40.639  20.419  26.469  1.00  0.00    -0.458 OA
BRANCH   2   3
ATOM      3  C   UNL A   1      40.385  21.669  26.932  1.00  0.00     0.338 C 
ATOM      4  O   UNL A   1      41.085  22.315  27.699  1.00  0.00    -0.246 OA
BRANCH   3   5
ATOM      5  C   UNL A   1      39.151  22.213  26.314  1.00  0.00     0.060 A 
ATOM      6  C   UNL A   1      36.808  23.302  25.276  1.00  0.00    -0.005 A 
ATOM      7  C   UNL A   1      37.631  24.088  26.085  1.00  0.00     0.010 A 
ATOM      8  C   UNL A   1      37.165  21.992  24.948  1.00  0.00     0.010 A 
ATOM      9  C   UNL A   1      38.797  23.537  26.616  1.00  0.00     0.016 A 
ATOM     10  C   UNL A   1      38.349  21.451  25.455  1.00  0.00     0.016 A 
BRANCH   6  11
ATOM     11  C   UNL A   1      35.544  23.885  24.796  1.00  0.00     0.141 C 
ATOM     12  N   UNL A   1      34.749  24.524  25.594  1.00  0.00    -0.180 NA
BRANCH  12  13
ATOM     13  N   UNL A   1      33.606  25.053  25.075  1.00  0.00    -0.233 NA
ATOM     14  C   UNL A   1      33.729  26.109  24.061  1.00  0.00     0.274 C 
ATOM     15  N   UNL A   1      32.592  25.978  23.111  1.00  0.00    -0.161 NA
ATOM     16  N   UNL A   1      31.873  25.002  23.423  1.00  0.00    -0.153 NA
ATOM     17  C   UNL A   1      32.417  24.322  24.617  1.00  0.00     0.298 C 
BRANCH  14  18
ATOM     18  C   UNL A   1      33.744  27.523  24.696  1.00  0.00     0.201 C 
ATOM     19  C   UNL A   1      31.526  28.186  27.582  1.00  0.00     0.068 C 
ATOM     20  C   UNL A   1      32.299  28.092  26.318  1.00  0.00     0.058 C 
ATOM     21  C   UNL A   1      33.495  27.529  26.165  1.00  0.00     0.031 C 
ATOM     22  N   UNL A   1      31.790  28.573  25.139  1.00  0.00    -0.160 NA
ATOM     23  N   UNL A   1      32.586  28.324  24.186  1.00  0.00    -0.177 NA
ENDBRANCH  14  18
BRANCH  17  24
ATOM     24  S   UNL A   1      31.203  24.165  25.978  1.00  0.00    -0.128 SA
ATOM     25  H   UNL A   1      30.976  25.389  26.527  1.00  0.00     0.106 HD
ENDBRANCH  17  24
ENDBRANCH  12  13
ENDBRANCH   6  11
ENDBRANCH   3   5
ENDBRANCH   2   3
ENDBRANCH   1   2
BRANCH   1  26
ATOM     26  C   UNL A   1      42.915  19.788  25.856  1.00  0.00     0.275 C 
BRANCH  26  27
ATOM     27  O   UNL A   1      43.015  21.031  25.162  1.00  0.00    -0.458 OA
BRANCH  27  28
ATOM     28  C   UNL A   1      44.252  21.577  25.171  1.00  0.00     0.338 C 
ATOM     29  O   UNL A   1      45.307  21.030  24.890  1.00  0.00    -0.246 OA
BRANCH  28  30
ATOM     30  C   UNL A   1      44.189  22.888  25.819  1.00  0.00     0.060 A 
ATOM     31  C   UNL A   1      44.834  23.046  27.050  1.00  0.00     0.016 A 
ATOM     32  C   UNL A   1      43.303  23.855  25.320  1.00  0.00     0.016 A 
ATOM     33  C   UNL A   1      44.517  24.142  27.828  1.00  0.00     0.010 A 
ATOM     34  C   UNL A   1      42.977  24.935  26.102  1.00  0.00     0.010 A 
ATOM     35  C   UNL A   1      43.555  25.049  27.367  1.00  0.00    -0.014 A 
BRANCH  35  36
ATOM     36  C   UNL A   1      43.313  26.255  28.140  1.00  0.00     0.031 A 
ATOM     37  C   UNL A   1      44.430  27.223  28.012  1.00  0.00     0.074 A 
ATOM     38  C   UNL A   1      42.120  26.519  28.715  1.00  0.00     0.049 A 
ATOM     39  N   UNL A   1      45.229  27.643  28.935  1.00  0.00    -0.248 NA
ATOM     40  C   UNL A   1      44.834  27.630  26.651  1.00  0.00     0.031 C 
ATOM     41  C   UNL A   1      40.901  25.714  28.575  1.00  0.00     0.029 A 
ATOM     42  N   UNL A   1      41.689  27.607  29.415  1.00  0.00    -0.354 N 
ATOM     43  C   UNL A   1      46.020  28.605  28.310  1.00  0.00     0.074 A 
ATOM     44  C   UNL A   1      45.918  28.366  26.898  1.00  0.00     0.031 C 
ATOM     45  C   UNL A   1      39.834  26.455  28.946  1.00  0.00     0.029 A 
ATOM     46  C   UNL A   1      40.302  27.731  29.463  1.00  0.00     0.049 A 
ATOM     47  H   UNL A   1      42.300  28.247  29.847  1.00  0.00     0.167 HD
ATOM     48  C   UNL A   1      46.348  29.744  28.975  1.00  0.00     0.037 A 
ATOM     49  C   UNL A   1      39.585  28.824  29.829  1.00  0.00     0.037 A 
ATOM     50  C   UNL A   1      46.154  29.582  30.392  1.00  0.00     0.049 A 
ATOM     51  C   UNL A   1      40.473  29.687  30.647  1.00  0.00     0.074 A 
ATOM     52  C   UNL A   1      46.770  28.908  31.422  1.00  0.00     0.029 A 
ATOM     53  N   UNL A   1      44.895  29.914  30.810  1.00  0.00    -0.354 N 
ATOM     54  N   UNL A   1      40.938  29.341  31.817  1.00  0.00    -0.248 NA
ATOM     55  C   UNL A   1      41.142  30.826  30.024  1.00  0.00     0.031 C 
ATOM     56  C   UNL A   1      45.781  28.741  32.437  1.00  0.00     0.029 A 
ATOM     57  C   UNL A   1      44.598  29.346  32.017  1.00  0.00     0.049 A 
ATOM     58  H   UNL A   1      44.278  30.490  30.304  1.00  0.00     0.167 HD
ATOM     59  C   UNL A   1      42.194  29.913  31.867  1.00  0.00     0.074 A 
ATOM     60  C   UNL A   1      42.190  30.948  30.843  1.00  0.00     0.031 C 
ATOM     61  C   UNL A   1      43.228  29.269  32.478  1.00  0.00     0.037 A 
BRANCH  48  62
ATOM     62  C   UNL A   1      46.293  31.128  28.349  1.00  0.00     0.058 A 
ATOM     63  C   UNL A   1      45.073  31.574  27.797  1.00  0.00     0.135 A 
ATOM     64  C   UNL A   1      47.433  31.881  27.981  1.00  0.00     0.135 A 
ATOM     65  F   UNL A   1      43.929  30.922  28.059  1.00  0.00    -0.206 F 
ATOM     66  C   UNL A   1      45.003  32.647  26.906  1.00  0.00     0.059 A 
ATOM     67  C   UNL A   1      47.377  32.984  27.138  1.00  0.00     0.059 A 
ATOM     68  F   UNL A   1      48.675  31.531  28.332  1.00  0.00    -0.206 F 
ATOM     69  C   UNL A   1      46.165  33.339  26.575  1.00  0.00     0.060 A 
BRANCH  69  70
ATOM     70  S   UNL A   1      46.098  34.677  25.374  1.00  0.00     0.124 S 
ATOM     71  O   UNL A   1      45.601  35.777  26.192  1.00  0.00    -0.237 OA
ATOM     72  O   UNL A   1      47.491  34.769  24.949  1.00  0.00    -0.237 OA
ATOM     73  O   UNL A   1      45.174  34.171  24.363  1.00  0.00    -0.744 OA
ENDBRANCH  69  70
ENDBRANCH  48  62
BRANCH  49  74
ATOM     74  C   UNL A   1      38.272  29.298  29.308  1.00  0.00     0.058 A 
ATOM     75  C   UNL A   1      37.183  29.519  30.174  1.00  0.00     0.135 A 
ATOM     76  C   UNL A   1      38.133  29.809  28.002  1.00  0.00     0.135 A 
ATOM     77  F   UNL A   1      37.226  29.078  31.440  1.00  0.00    -0.206 F 
ATOM     78  C   UNL A   1      36.057  30.256  29.787  1.00  0.00     0.059 A 
ATOM     79  C   UNL A   1      37.014  30.531  27.589  1.00  0.00     0.059 A 
ATOM     80  F   UNL A   1      39.124  29.704  27.105  1.00  0.00    -0.206 F 
ATOM     81  C   UNL A   1      35.993  30.780  28.497  1.00  0.00     0.060 A 
BRANCH  81  82
ATOM     82  S   UNL A   1      34.638  31.892  28.052  1.00  0.00     0.124 S 
ATOM     83  O   UNL A   1      35.345  32.976  27.379  1.00  0.00    -0.237 OA
ATOM     84  O   UNL A   1      33.809  31.045  27.203  1.00  0.00    -0.237 OA
ATOM     85  O   UNL A   1      34.049  32.241  29.343  1.00  0.00    -0.744 OA
ENDBRANCH  81  82
ENDBRANCH  49  74
BRANCH  61  86
ATOM     86  C   UNL A   1      42.907  28.334  33.603  1.00  0.00     0.058 A 
ATOM     87  C   UNL A   1      43.053  26.938  33.567  1.00  0.00     0.135 A 
ATOM     88  C   UNL A   1      42.489  28.911  34.812  1.00  0.00     0.135 A 
ATOM     89  F   UNL A   1      43.526  26.320  32.474  1.00  0.00    -0.206 F 
ATOM     90  C   UNL A   1      42.756  26.148  34.679  1.00  0.00     0.059 A 
ATOM     91  C   UNL A   1      42.221  28.148  35.940  1.00  0.00     0.059 A 
ATOM     92  F   UNL A   1      42.374  30.245  34.917  1.00  0.00    -0.206 F 
ATOM     93  C   UNL A   1      42.341  26.763  35.862  1.00  0.00     0.060 A 
BRANCH  93  94
ATOM     94  S   UNL A   1      42.010  25.750  37.318  1.00  0.00     0.124 S 
ATOM     95  O   UNL A   1      40.615  26.070  37.604  1.00  0.00    -0.237 OA
ATOM     96  O   UNL A   1      42.264  24.399  36.827  1.00  0.00    -0.237 OA
ATOM     97  O   UNL A   1      42.975  26.238  38.301  1.00  0.00    -0.744 OA
ENDBRANCH  93  94
ENDBRANCH  61  86
ENDBRANCH  35  36
ENDBRANCH  28  30
ENDBRANCH  27  28
ENDBRANCH  26  27
ENDBRANCH   1  26
TORSDOF 18
ENDMDL
MODEL 2
REMARK VINA RESULT:     -12.0      1.156      2.195
REMARK SMILES CC1=C[C@@H]([C@@H]2N=N[C@H](S)N2/N=C/c2ccc(C(=O)OCCOC(=O)c3ccc(-c4c5nc(c(-c6c(F)cc(S(=O)(=O)[O-])cc6F)c6ccc([nH]6)c(-c6c(F)cc(S(=O)(=O)[O-])cc6F)c6nc(c(-c7c(F)cc(S(=O)(=O)[O-])cc7F)c7ccc4[nH]7)C=C6)C=C5)cc3)cc2)N=N1
REMARK SMILES IDX 20 1 19 2 17 3 18 4 16 5 13 6 14 7 92 8 15 9 91 10 12 11
REMARK SMILES IDX 11 12 10 13 5 14 6 15 7 16 8 17 4 18 1 19 2 20 3 21 94 22
REMARK SMILES IDX 93 23 9 24 21 26 22 27 23 28 24 29 25 30 26 31 90 32 27 33
REMARK SMILES IDX 89 34 28 35 29 36 30 37 83 38 31 39 88 40 82 41 84 42 32 43
REMARK SMILES IDX 87 44 81 45 80 46 33 48 67 49 46 50 66 51 47 52 50 53 65 54
REMARK SMILES IDX 85 55 48 56 49 57 64 59 86 60 51 61 34 62 35 63 44 64 36 65
REMARK SMILES IDX 37 66 43 67 45 68 38 69 39 70 40 71 41 72 42 73 68 74 69 75
REMARK SMILES IDX 78 76 70 77 71 78 77 79 79 80 72 81 73 82 74 83 75 84 76 85
REMARK SMILES IDX 52 86 53 87 62 88 54 89 55 90 61 91 63 92 56 93 57 94 58 95
REMARK SMILES IDX 59 96 60 97
REMARK H PARENT 9 25 84 47 50 58
REMARK Flexibility Score: inf
ROOT
ATOM      1  C   UNL A   1      41.841  19.555  26.454  1.00  0.00     0.275 C 
ENDROOT
BRANCH   1   2
ATOM      2  O   UNL A   1      40.827  20.426  25.928  1.00  0.00    -0.458 OA
BRANCH   2   3
ATOM      3  C   UNL A   1      40.555  21.521  26.681  1.00  0.00     0.338 C 
ATOM      4  O   UNL A   1      41.282  22.014  27.533  1.00  0.00    -0.246 OA
BRANCH   3   5
ATOM      5  C   UNL A   1      39.259  22.121  26.281  1.00  0.00     0.060 A 
ATOM      6  C   UNL A   1      36.821  23.313  25.657  1.00  0.00    -0.005 A 
ATOM      7  C   UNL A   1      37.795  24.053  26.332  1.00  0.00     0.010 A 
ATOM      8  C   UNL A   1      37.070  21.998  25.256  1.00  0.00     0.010 A 
ATOM      9  C   UNL A   1      39.009  23.450  26.656  1.00  0.00     0.016 A 
ATOM     10  C   UNL A   1      38.299  21.406  25.554  1.00  0.00     0.016 A 
BRANCH   6  11
ATOM     11  C   UNL A   1      35.519  23.950  25.398  1.00  0.00     0.141 C 
ATOM     12  N   UNL A   1      34.552  23.883  26.258  1.00  0.00    -0.180 NA
BRANCH  12  13
ATOM     13  N   UNL A   1      33.382  24.512  25.959  1.00  0.00    -0.233 NA
ATOM     14  C   UNL A   1      32.125  23.867  26.361  1.00  0.00     0.274 C 
ATOM     15  N   UNL A   1      31.140  24.931  26.693  1.00  0.00    -0.161 NA
ATOM     16  N   UNL A   1      31.659  26.063  26.561  1.00  0.00    -0.153 NA
ATOM     17  C   UNL A   1      33.069  25.936  26.134  1.00  0.00     0.298 C 
BRANCH  14  18
ATOM     18  C   UNL A   1      31.568  22.939  25.252  1.00  0.00     0.201 C 
ATOM     19  C   UNL A   1      33.468  19.884  24.388  1.00  0.00     0.068 C 
ATOM     20  C   UNL A   1      32.738  21.170  24.511  1.00  0.00     0.058 C 
ATOM     21  C   UNL A   1      31.868  21.495  25.465  1.00  0.00     0.031 C 
ATOM     22  N   UNL A   1      32.947  22.192  23.621  1.00  0.00    -0.160 NA
ATOM     23  N   UNL A   1      32.273  23.209  23.959  1.00  0.00    -0.177 NA
ENDBRANCH  14  18
BRANCH  17  24
ATOM     24  S   UNL A   1      33.449  26.866  24.604  1.00  0.00    -0.128 SA
ATOM     25  H   UNL A   1      32.744  28.029  24.593  1.00  0.00     0.106 HD
ENDBRANCH  17  24
ENDBRANCH  12  13
ENDBRANCH   6  11
ENDBRANCH   3   5
ENDBRANCH   2   3
ENDBRANCH   1   2
BRANCH   1  26
ATOM     26  C   UNL A   1      43.090  19.580  25.585  1.00  0.00     0.275 C 
BRANCH  26  27
ATOM     27  O   UNL A   1      43.959  20.661  25.921  1.00  0.00    -0.458 OA
BRANCH  27  28
ATOM     28  C   UNL A   1      44.074  21.605  24.960  1.00  0.00     0.338 C 
ATOM     29  O   UNL A   1      44.362  21.437  23.786  1.00  0.00    -0.246 OA
BRANCH  28  30
ATOM     30  C   UNL A   1      44.046  22.928  25.586  1.00  0.00     0.060 A 
ATOM     31  C   UNL A   1      44.771  23.114  26.767  1.00  0.00     0.016 A 
ATOM     32  C   UNL A   1      43.121  23.879  25.130  1.00  0.00     0.016 A 
ATOM     33  C   UNL A   1      44.499  24.224  27.543  1.00  0.00     0.010 A 
ATOM     34  C   UNL A   1      42.840  24.973  25.912  1.00  0.00     0.010 A 
ATOM     35  C   UNL A   1      43.502  25.116  27.131  1.00  0.00    -0.014 A 
BRANCH  35  36
ATOM     36  C   UNL A   1      43.304  26.334  27.896  1.00  0.00     0.031 A 
ATOM     37  C   UNL A   1      44.389  27.317  27.652  1.00  0.00     0.074 A 
ATOM     38  C   UNL A   1      42.160  26.592  28.564  1.00  0.00     0.049 A 
ATOM     39  N   UNL A   1      45.255  27.772  28.495  1.00  0.00    -0.248 NA
ATOM     40  C   UNL A   1      44.668  27.700  26.253  1.00  0.00     0.031 C 
ATOM     41  C   UNL A   1      40.948  25.764  28.546  1.00  0.00     0.029 A 
ATOM     42  N   UNL A   1      41.769  27.689  29.275  1.00  0.00    -0.354 N 
ATOM     43  C   UNL A   1      45.972  28.732  27.784  1.00  0.00     0.074 A 
ATOM     44  C   UNL A   1      45.756  28.459  26.391  1.00  0.00     0.031 C 
ATOM     45  C   UNL A   1      39.903  26.496  28.990  1.00  0.00     0.029 A 
ATOM     46  C   UNL A   1      40.389  27.791  29.437  1.00  0.00     0.049 A 
ATOM     47  H   UNL A   1      42.403  28.349  29.639  1.00  0.00     0.167 HD
ATOM     48  C   UNL A   1      46.334  29.892  28.393  1.00  0.00     0.037 A 
ATOM     49  C   UNL A   1      39.686  28.880  29.840  1.00  0.00     0.037 A 
ATOM     50  C   UNL A   1      46.264  29.760  29.825  1.00  0.00     0.049 A 
ATOM     51  C   UNL A   1      40.623  29.777  30.560  1.00  0.00     0.074 A 
ATOM     52  C   UNL A   1      46.977  29.120  30.814  1.00  0.00     0.029 A 
ATOM     53  N   UNL A   1      45.039  30.080  30.341  1.00  0.00    -0.354 N 
ATOM     54  N   UNL A   1      41.193  29.465  31.693  1.00  0.00    -0.248 NA
ATOM     55  C   UNL A   1      41.216  30.911  29.858  1.00  0.00     0.031 C 
ATOM     56  C   UNL A   1      46.081  28.960  31.912  1.00  0.00     0.029 A 
ATOM     57  C   UNL A   1      44.856  29.536  31.581  1.00  0.00     0.049 A 
ATOM     58  H   UNL A   1      44.371  30.635  29.877  1.00  0.00     0.167 HD
ATOM     59  C   UNL A   1      42.437  30.060  31.624  1.00  0.00     0.074 A 
ATOM     60  C   UNL A   1      42.327  31.070  30.581  1.00  0.00     0.031 C 
ATOM     61  C   UNL A   1      43.531  29.447  32.159  1.00  0.00     0.037 A 
BRANCH  48  62
ATOM     62  C   UNL A   1      46.201  31.260  27.745  1.00  0.00     0.058 A 
ATOM     63  C   UNL A   1      47.295  32.148  27.804  1.00  0.00     0.135 A 
ATOM     64  C   UNL A   1      44.968  31.845  27.370  1.00  0.00     0.135 A 
ATOM     65  F   UNL A   1      48.509  31.708  28.171  1.00  0.00    -0.206 F 
ATOM     66  C   UNL A   1      47.161  33.517  27.565  1.00  0.00     0.059 A 
ATOM     67  C   UNL A   1      44.825  33.195  27.075  1.00  0.00     0.059 A 
ATOM     68  F   UNL A   1      43.816  31.166  27.366  1.00  0.00    -0.206 F 
ATOM     69  C   UNL A   1      45.917  34.032  27.211  1.00  0.00     0.060 A 
BRANCH  69  70
ATOM     70  S   UNL A   1      45.718  35.804  26.970  1.00  0.00     0.124 S 
ATOM     71  O   UNL A   1      44.317  35.888  26.573  1.00  0.00    -0.237 OA
ATOM     72  O   UNL A   1      46.044  36.326  28.293  1.00  0.00    -0.237 OA
ATOM     73  O   UNL A   1      46.692  36.110  25.926  1.00  0.00    -0.744 OA
ENDBRANCH  69  70
ENDBRANCH  48  62
BRANCH  49  74
ATOM     74  C   UNL A   1      38.325  29.321  29.422  1.00  0.00     0.058 A 
ATOM     75  C   UNL A   1      37.328  29.604  30.375  1.00  0.00     0.135 A 
ATOM     76  C   UNL A   1      38.053  29.739  28.104  1.00  0.00     0.135 A 
ATOM     77  F   UNL A   1      37.500  29.252  31.658  1.00  0.00    -0.206 F 
ATOM     78  C   UNL A   1      36.165  30.315  30.054  1.00  0.00     0.059 A 
ATOM     79  C   UNL A   1      36.894  30.434  27.757  1.00  0.00     0.059 A 
ATOM     80  F   UNL A   1      38.949  29.569  27.121  1.00  0.00    -0.206 F 
ATOM     81  C   UNL A   1      35.970  30.748  28.744  1.00  0.00     0.060 A 
BRANCH  81  82
ATOM     82  S   UNL A   1      34.572  31.830  28.361  1.00  0.00     0.124 S 
ATOM     83  O   UNL A   1      35.196  32.844  27.519  1.00  0.00    -0.237 OA
ATOM     84  O   UNL A   1      33.651  30.920  27.689  1.00  0.00    -0.237 OA
ATOM     85  O   UNL A   1      34.135  32.296  29.675  1.00  0.00    -0.744 OA
ENDBRANCH  81  82
ENDBRANCH  49  74
BRANCH  61  86
ATOM     86  C   UNL A   1      43.323  28.533  33.327  1.00  0.00     0.058 A 
ATOM     87  C   UNL A   1      43.287  27.131  33.266  1.00  0.00     0.135 A 
ATOM     88  C   UNL A   1      43.225  29.130  34.593  1.00  0.00     0.135 A 
ATOM     89  F   UNL A   1      43.457  26.485  32.102  1.00  0.00    -0.206 F 
ATOM     90  C   UNL A   1      43.118  26.358  34.417  1.00  0.00     0.059 A 
ATOM     91  C   UNL A   1      43.091  28.379  35.754  1.00  0.00     0.059 A 
ATOM     92  F   UNL A   1      43.298  30.465  34.716  1.00  0.00    -0.206 F 
ATOM     93  C   UNL A   1      43.022  26.993  35.657  1.00  0.00     0.060 A 
BRANCH  93  94
ATOM     94  S   UNL A   1      42.860  25.996  37.152  1.00  0.00     0.124 S 
ATOM     95  O   UNL A   1      41.413  25.950  37.336  1.00  0.00    -0.237 OA
ATOM     96  O   UNL A   1      43.490  24.738  36.761  1.00  0.00    -0.237 OA
ATOM     97  O   UNL A   1      43.592  26.764  38.156  1.00  0.00    -0.744 OA
ENDBRANCH  93  94
ENDBRANCH  61  86
ENDBRANCH  35  36
ENDBRANCH  28  30
ENDBRANCH  27  28
ENDBRANCH  26  27
ENDBRANCH   1  26
TORSDOF 18
ENDMDL
MODEL 3
REMARK VINA RESULT:     -11.9      4.089     11.629
REMARK SMILES CC1=C[C@@H]([C@@H]2N=N[C@H](S)N2/N=C/c2ccc(C(=O)OCCOC(=O)c3ccc(-c4c5nc(c(-c6c(F)cc(S(=O)(=O)[O-])cc6F)c6ccc([nH]6)c(-c6c(F)cc(S(=O)(=O)[O-])cc6F)c6nc(c(-c7c(F)cc(S(=O)(=O)[O-])cc7F)c7ccc4[nH]7)C=C6)C=C5)cc3)cc2)N=N1
REMARK SMILES IDX 20 1 19 2 17 3 18 4 16 5 13 6 14 7 92 8 15 9 91 10 12 11
REMARK SMILES IDX 11 12 10 13 5 14 6 15 7 16 8 17 4 18 1 19 2 20 3 21 94 22
REMARK SMILES IDX 93 23 9 24 21 26 22 27 23 28 24 29 25 30 26 31 90 32 27 33
REMARK SMILES IDX 89 34 28 35 29 36 30 37 83 38 31 39 88 40 82 41 84 42 32 43
REMARK SMILES IDX 87 44 81 45 80 46 33 48 67 49 46 50 66 51 47 52 50 53 65 54
REMARK SMILES IDX 85 55 48 56 49 57 64 59 86 60 51 61 34 62 35 63 44 64 36 65
REMARK SMILES IDX 37 66 43 67 45 68 38 69 39 70 40 71 41 72 42 73 68 74 69 75
REMARK SMILES IDX 78 76 70 77 71 78 77 79 79 80 72 81 73 82 74 83 75 84 76 85
REMARK SMILES IDX 52 86 53 87 62 88 54 89 55 90 61 91 63 92 56 93 57 94 58 95
REMARK SMILES IDX 59 96 60 97
REMARK H PARENT 9 25 84 47 50 58
REMARK Flexibility Score: inf
ROOT
ATOM      1  C   UNL A   1      33.253  35.027  28.618  1.00  0.00     0.275 C 
ENDROOT
BRANCH   1   2
ATOM      2  O   UNL A   1      32.531  34.965  29.859  1.00  0.00    -0.458 OA
BRANCH   2   3
ATOM      3  C   UNL A   1      32.962  35.816  30.824  1.00  0.00     0.338 C 
ATOM      4  O   UNL A   1      32.567  36.958  31.014  1.00  0.00    -0.246 OA
BRANCH   3   5
ATOM      5  C   UNL A   1      33.950  35.147  31.705  1.00  0.00     0.060 A 
ATOM      6  C   UNL A   1      35.722  33.774  33.358  1.00  0.00    -0.005 A 
ATOM      7  C   UNL A   1      35.120  33.105  32.290  1.00  0.00     0.010 A 
ATOM      8  C   UNL A   1      35.478  35.131  33.583  1.00  0.00     0.010 A 
ATOM      9  C   UNL A   1      34.222  33.790  31.472  1.00  0.00     0.016 A 
ATOM     10  C   UNL A   1      34.602  35.824  32.743  1.00  0.00     0.016 A 
BRANCH   6  11
ATOM     11  C   UNL A   1      36.603  33.005  34.252  1.00  0.00     0.141 C 
ATOM     12  N   UNL A   1      36.734  33.316  35.503  1.00  0.00    -0.180 NA
BRANCH  12  13
ATOM     13  N   UNL A   1      37.552  32.548  36.274  1.00  0.00    -0.233 NA
ATOM     14  C   UNL A   1      36.945  31.753  37.350  1.00  0.00     0.274 C 
ATOM     15  N   UNL A   1      37.730  30.498  37.501  1.00  0.00    -0.161 NA
ATOM     16  N   UNL A   1      38.660  30.461  36.664  1.00  0.00    -0.153 NA
ATOM     17  C   UNL A   1      38.638  31.671  35.816  1.00  0.00     0.298 C 
BRANCH  14  18
ATOM     18  C   UNL A   1      36.901  32.529  38.691  1.00  0.00     0.201 C 
ATOM     19  C   UNL A   1      37.670  30.703  41.815  1.00  0.00     0.068 C 
ATOM     20  C   UNL A   1      37.154  31.478  40.660  1.00  0.00     0.058 C 
ATOM     21  C   UNL A   1      37.883  32.047  39.702  1.00  0.00     0.031 C 
ATOM     22  N   UNL A   1      35.807  31.643  40.462  1.00  0.00    -0.160 NA
ATOM     23  N   UNL A   1      35.598  32.275  39.384  1.00  0.00    -0.177 NA
ENDBRANCH  14  18
BRANCH  17  24
ATOM     24  S   UNL A   1      40.229  32.578  35.809  1.00  0.00    -0.128 SA
ATOM     25  H   UNL A   1      40.322  33.340  36.932  1.00  0.00     0.106 HD
ENDBRANCH  17  24
ENDBRANCH  12  13
ENDBRANCH   6  11
ENDBRANCH   3   5
ENDBRANCH   2   3
ENDBRANCH   1   2
BRANCH   1  26
ATOM     26  C   UNL A   1      33.274  33.671  27.929  1.00  0.00     0.275 C 
BRANCH  26  27
ATOM     27  O   UNL A   1      34.569  33.072  27.958  1.00  0.00    -0.458 OA
BRANCH  27  28
ATOM     28  C   UNL A   1      34.559  31.720  27.927  1.00  0.00     0.338 C 
ATOM     29  O   UNL A   1      33.608  30.990  27.701  1.00  0.00    -0.246 OA
BRANCH  28  30
ATOM     30  C   UNL A   1      35.830  31.222  28.460  1.00  0.00     0.060 A 
ATOM     31  C   UNL A   1      36.752  32.155  28.942  1.00  0.00     0.016 A 
ATOM     32  C   UNL A   1      36.177  29.879  28.252  1.00  0.00     0.016 A 
ATOM     33  C   UNL A   1      38.061  31.755  29.132  1.00  0.00     0.010 A 
ATOM     34  C   UNL A   1      37.482  29.487  28.426  1.00  0.00     0.010 A 
ATOM     35  C   UNL A   1      38.422  30.438  28.826  1.00  0.00    -0.014 A 
BRANCH  35  36
ATOM     36  C   UNL A   1      39.771  30.000  29.135  1.00  0.00     0.031 A 
ATOM     37  C   UNL A   1      40.029  30.008  30.597  1.00  0.00     0.074 A 
ATOM     38  C   UNL A   1      40.587  29.456  28.207  1.00  0.00     0.049 A 
ATOM     39  N   UNL A   1      40.874  30.731  31.252  1.00  0.00    -0.248 NA
ATOM     40  C   UNL A   1      39.097  29.258  31.464  1.00  0.00     0.031 C 
ATOM     41  C   UNL A   1      40.224  29.143  26.820  1.00  0.00     0.029 A 
ATOM     42  N   UNL A   1      41.844  28.936  28.319  1.00  0.00    -0.354 N 
ATOM     43  C   UNL A   1      40.785  30.280  32.567  1.00  0.00     0.074 A 
ATOM     44  C   UNL A   1      39.530  29.591  32.680  1.00  0.00     0.031 C 
ATOM     45  C   UNL A   1      41.126  28.278  26.309  1.00  0.00     0.029 A 
ATOM     46  C   UNL A   1      42.188  28.074  27.281  1.00  0.00     0.049 A 
ATOM     47  H   UNL A   1      42.451  29.150  29.064  1.00  0.00     0.167 HD
ATOM     48  C   UNL A   1      41.912  30.157  33.316  1.00  0.00     0.037 A 
ATOM     49  C   UNL A   1      43.228  27.201  27.246  1.00  0.00     0.037 A 
ATOM     50  C   UNL A   1      42.992  30.915  32.742  1.00  0.00     0.049 A 
ATOM     51  C   UNL A   1      44.226  27.654  28.247  1.00  0.00     0.074 A 
ATOM     52  C   UNL A   1      43.332  32.242  32.607  1.00  0.00     0.029 A 
ATOM     53  N   UNL A   1      43.732  30.206  31.836  1.00  0.00    -0.354 N 
ATOM     54  N   UNL A   1      44.890  28.774  28.147  1.00  0.00    -0.248 NA
ATOM     55  C   UNL A   1      44.259  27.028  29.564  1.00  0.00     0.031 C 
ATOM     56  C   UNL A   1      44.222  32.316  31.494  1.00  0.00     0.029 A 
ATOM     57  C   UNL A   1      44.430  31.031  30.999  1.00  0.00     0.049 A 
ATOM     58  H   UNL A   1      43.759  29.223  31.791  1.00  0.00     0.167 HD
ATOM     59  C   UNL A   1      45.042  29.198  29.452  1.00  0.00     0.074 A 
ATOM     60  C   UNL A   1      44.808  28.018  30.272  1.00  0.00     0.031 C 
ATOM     61  C   UNL A   1      44.991  30.524  29.764  1.00  0.00     0.037 A 
BRANCH  48  62
ATOM     62  C   UNL A   1      42.206  28.957  34.201  1.00  0.00     0.058 A 
ATOM     63  C   UNL A   1      42.238  27.674  33.614  1.00  0.00     0.135 A 
ATOM     64  C   UNL A   1      42.130  28.972  35.614  1.00  0.00     0.135 A 
ATOM     65  F   UNL A   1      42.287  27.538  32.279  1.00  0.00    -0.206 F 
ATOM     66  C   UNL A   1      42.145  26.503  34.369  1.00  0.00     0.059 A 
ATOM     67  C   UNL A   1      42.091  27.819  36.386  1.00  0.00     0.059 A 
ATOM     68  F   UNL A   1      41.987  30.100  36.318  1.00  0.00    -0.206 F 
ATOM     69  C   UNL A   1      42.062  26.588  35.756  1.00  0.00     0.060 A 
BRANCH  69  70
ATOM     70  S   UNL A   1      41.870  25.090  36.735  1.00  0.00     0.124 S 
ATOM     71  O   UNL A   1      43.095  25.100  37.525  1.00  0.00    -0.237 OA
ATOM     72  O   UNL A   1      40.634  25.361  37.460  1.00  0.00    -0.237 OA
ATOM     73  O   UNL A   1      41.777  24.041  35.723  1.00  0.00    -0.744 OA
ENDBRANCH  69  70
ENDBRANCH  48  62
BRANCH  49  74
ATOM     74  C   UNL A   1      43.303  25.862  26.597  1.00  0.00     0.058 A 
ATOM     75  C   UNL A   1      44.130  25.641  25.479  1.00  0.00     0.135 A 
ATOM     76  C   UNL A   1      42.786  24.707  27.217  1.00  0.00     0.135 A 
ATOM     77  F   UNL A   1      44.676  26.679  24.827  1.00  0.00    -0.206 F 
ATOM     78  C   UNL A   1      44.475  24.355  25.044  1.00  0.00     0.059 A 
ATOM     79  C   UNL A   1      43.102  23.416  26.792  1.00  0.00     0.059 A 
ATOM     80  F   UNL A   1      42.028  24.789  28.320  1.00  0.00    -0.206 F 
ATOM     81  C   UNL A   1      43.974  23.247  25.725  1.00  0.00     0.060 A 
BRANCH  81  82
ATOM     82  S   UNL A   1      44.565  21.593  25.295  1.00  0.00     0.124 S 
ATOM     83  O   UNL A   1      45.908  21.594  25.865  1.00  0.00    -0.237 OA
ATOM     84  O   UNL A   1      43.591  20.734  25.958  1.00  0.00    -0.237 OA
ATOM     85  O   UNL A   1      44.509  21.583  23.835  1.00  0.00    -0.744 OA
ENDBRANCH  81  82
ENDBRANCH  49  74
BRANCH  61  86
ATOM     86  C   UNL A   1      45.417  31.508  28.719  1.00  0.00     0.058 A 
ATOM     87  C   UNL A   1      44.572  32.103  27.769  1.00  0.00     0.135 A 
ATOM     88  C   UNL A   1      46.760  31.916  28.738  1.00  0.00     0.135 A 
ATOM     89  F   UNL A   1      43.260  31.827  27.741  1.00  0.00    -0.206 F 
ATOM     90  C   UNL A   1      45.056  33.037  26.851  1.00  0.00     0.059 A 
ATOM     91  C   UNL A   1      47.255  32.868  27.856  1.00  0.00     0.059 A 
ATOM     92  F   UNL A   1      47.604  31.412  29.654  1.00  0.00    -0.206 F 
ATOM     93  C   UNL A   1      46.400  33.413  26.903  1.00  0.00     0.060 A 
BRANCH  93  94
ATOM     94  S   UNL A   1      47.016  34.660  25.754  1.00  0.00     0.124 S 
ATOM     95  O   UNL A   1      48.337  34.139  25.414  1.00  0.00    -0.237 OA
ATOM     96  O   UNL A   1      46.024  34.621  24.684  1.00  0.00    -0.237 OA
ATOM     97  O   UNL A   1      47.016  35.886  26.548  1.00  0.00    -0.744 OA
ENDBRANCH  93  94
ENDBRANCH  61  86
ENDBRANCH  35  36
ENDBRANCH  28  30
ENDBRANCH  27  28
ENDBRANCH  26  27
ENDBRANCH   1  26
TORSDOF 18
ENDMDL
