MODEL 1
REMARK VINA RESULT:     -10.2      0.000      0.000
REMARK SMILES CC(C)[C@@H](NC(=O)[C@@](C)([NH3+])C(F)(F)F)C(=O)OCCOC(=O)c1ccc(-c2c3nc(c(-c4c(F)cc(S(=O)(=O)[O-])cc4F)c4ccc([nH]4)c(-c4c(F)cc(S(=O)(=O)[O-])cc4F)c4nc(c(-c5c(F)cc(S(=O)(=O)[O-])cc5F)c5ccc2[nH]5)C=C4)C=C3)cc1
REMARK SMILES IDX 18 1 17 2 15 3 16 4 4 5 2 6 1 7 3 8 5 9 6 10 7 12 8 13 9 14
REMARK SMILES IDX 10 15 11 19 12 20 13 21 14 22 19 23 20 24 21 25 22 26 23 27
REMARK SMILES IDX 24 28 88 29 25 30 87 31 26 32 27 33 28 34 81 35 29 36 86 37
REMARK SMILES IDX 80 38 82 39 30 40 85 41 79 42 78 43 31 45 65 46 44 47 64 48
REMARK SMILES IDX 45 49 48 50 63 51 83 52 46 53 47 54 62 56 84 57 49 58 32 59
REMARK SMILES IDX 33 60 42 61 34 62 35 63 41 64 43 65 36 66 37 67 38 68 39 69
REMARK SMILES IDX 40 70 66 71 67 72 76 73 68 74 69 75 75 76 77 77 70 78 71 79
REMARK SMILES IDX 72 80 73 81 74 82 50 83 51 84 60 85 52 86 53 87 59 88 61 89
REMARK SMILES IDX 54 90 55 91 56 92 57 93 58 94
REMARK H PARENT 5 11 10 16 10 17 10 18 82 44 48 55
REMARK Flexibility Score: inf
ROOT
ATOM      1  C   UNL A   1      33.364  28.191  25.859  1.00  0.00     0.274 C 
ENDROOT
BRANCH   1   2
ATOM      2  O   UNL A   1      32.598  28.069  24.641  1.00  0.00    -0.461 OA
BRANCH   2   3
ATOM      3  C   UNL A   1      31.384  27.470  24.759  1.00  0.00     0.329 C 
ATOM      4  O   UNL A   1      30.902  27.111  25.829  1.00  0.00    -0.250 OA
BRANCH   3   5
ATOM      5  C   UNL A   1      30.716  27.124  23.416  1.00  0.00     0.195 C 
BRANCH   5   6
ATOM      6  C   UNL A   1      29.537  28.009  22.921  1.00  0.00     0.017 C 
ATOM      7  C   UNL A   1      28.200  27.514  23.510  1.00  0.00     0.010 C 
ATOM      8  C   UNL A   1      29.682  29.481  23.341  1.00  0.00     0.010 C 
ENDBRANCH   5   6
BRANCH   5   9
ATOM      9  N   UNL A   1      31.643  26.713  22.324  1.00  0.00    -0.337 N 
ATOM     10  C   UNL A   1      32.569  25.726  22.107  1.00  0.00     0.291 C 
ATOM     11  H   UNL A   1      31.572  27.313  21.547  1.00  0.00     0.164 HD
ATOM     12  O   UNL A   1      33.479  26.033  21.332  1.00  0.00    -0.267 OA
BRANCH  10  13
ATOM     13  C   UNL A   1      32.462  24.311  22.716  1.00  0.00     0.267 C 
ATOM     14  C   UNL A   1      31.024  24.019  23.167  1.00  0.00     0.100 C 
BRANCH  13  15
ATOM     15  N   UNL A   1      32.954  23.312  21.720  1.00  0.00    -0.337 N 
ATOM     16  H   UNL A   1      33.554  22.632  22.187  1.00  0.00     0.345 HD
ATOM     17  H   UNL A   1      33.484  23.789  20.991  1.00  0.00     0.345 HD
ATOM     18  H   UNL A   1      32.158  22.831  21.299  1.00  0.00     0.345 HD
ENDBRANCH  13  15
BRANCH  13  19
ATOM     19  C   UNL A   1      33.362  24.262  23.989  1.00  0.00     0.453 C 
ATOM     20  F   UNL A   1      33.916  23.052  24.218  1.00  0.00    -0.164 F 
ATOM     21  F   UNL A   1      34.352  25.185  23.970  1.00  0.00    -0.164 F 
ATOM     22  F   UNL A   1      32.604  24.556  25.089  1.00  0.00    -0.164 F 
ENDBRANCH  13  19
ENDBRANCH  10  13
ENDBRANCH   5   9
ENDBRANCH   3   5
ENDBRANCH   2   3
ENDBRANCH   1   2
BRANCH   1  23
ATOM     23  C   UNL A   1      33.299  29.584  26.485  1.00  0.00     0.275 C 
BRANCH  23  24
ATOM     24  O   UNL A   1      33.713  29.561  27.857  1.00  0.00    -0.458 OA
BRANCH  24  25
ATOM     25  C   UNL A   1      34.514  30.590  28.222  1.00  0.00     0.338 C 
ATOM     26  O   UNL A   1      34.171  31.713  28.542  1.00  0.00    -0.246 OA
BRANCH  25  27
ATOM     27  C   UNL A   1      35.889  30.101  28.359  1.00  0.00     0.060 A 
ATOM     28  C   UNL A   1      36.322  29.721  29.633  1.00  0.00     0.016 A 
ATOM     29  C   UNL A   1      36.755  30.071  27.268  1.00  0.00     0.016 A 
ATOM     30  C   UNL A   1      37.626  29.290  29.828  1.00  0.00     0.010 A 
ATOM     31  C   UNL A   1      38.072  29.662  27.466  1.00  0.00     0.010 A 
ATOM     32  C   UNL A   1      38.510  29.278  28.746  1.00  0.00    -0.014 A 
BRANCH  32  33
ATOM     33  C   UNL A   1      39.930  28.952  28.971  1.00  0.00     0.031 A 
ATOM     34  C   UNL A   1      40.851  30.032  29.446  1.00  0.00     0.074 A 
ATOM     35  C   UNL A   1      40.370  27.703  28.741  1.00  0.00     0.049 A 
ATOM     36  N   UNL A   1      42.152  30.026  29.540  1.00  0.00    -0.248 NA
ATOM     37  C   UNL A   1      40.218  31.294  29.869  1.00  0.00     0.031 C 
ATOM     38  C   UNL A   1      39.530  26.571  28.351  1.00  0.00     0.029 A 
ATOM     39  N   UNL A   1      41.637  27.185  28.782  1.00  0.00    -0.354 N 
ATOM     40  C   UNL A   1      42.500  31.288  30.005  1.00  0.00     0.074 A 
ATOM     41  C   UNL A   1      41.272  32.034  30.176  1.00  0.00     0.031 C 
ATOM     42  C   UNL A   1      40.311  25.494  28.159  1.00  0.00     0.029 A 
ATOM     43  C   UNL A   1      41.704  25.879  28.362  1.00  0.00     0.049 A 
ATOM     44  H   UNL A   1      42.422  27.698  29.084  1.00  0.00     0.167 HD
ATOM     45  C   UNL A   1      43.738  31.772  30.256  1.00  0.00     0.037 A 
ATOM     46  C   UNL A   1      42.779  25.105  28.119  1.00  0.00     0.037 A 
ATOM     47  C   UNL A   1      44.941  31.006  30.072  1.00  0.00     0.049 A 
ATOM     48  C   UNL A   1      44.149  25.690  28.331  1.00  0.00     0.074 A 
ATOM     49  C   UNL A   1      46.253  31.390  30.285  1.00  0.00     0.029 A 
ATOM     50  N   UNL A   1      44.976  29.691  29.624  1.00  0.00    -0.354 N 
ATOM     51  N   UNL A   1      44.476  26.893  28.744  1.00  0.00    -0.248 NA
ATOM     52  C   UNL A   1      45.295  24.822  28.033  1.00  0.00     0.031 C 
ATOM     53  C   UNL A   1      47.082  30.320  29.929  1.00  0.00     0.029 A 
ATOM     54  C   UNL A   1      46.286  29.254  29.534  1.00  0.00     0.049 A 
ATOM     55  H   UNL A   1      44.185  29.150  29.403  1.00  0.00     0.167 HD
ATOM     56  C   UNL A   1      45.865  26.924  28.765  1.00  0.00     0.074 A 
ATOM     57  C   UNL A   1      46.315  25.613  28.338  1.00  0.00     0.031 C 
ATOM     58  C   UNL A   1      46.696  27.941  29.101  1.00  0.00     0.037 A 
BRANCH  45  59
ATOM     59  C   UNL A   1      43.844  33.201  30.704  1.00  0.00     0.058 A 
ATOM     60  C   UNL A   1      43.985  34.258  29.790  1.00  0.00     0.135 A 
ATOM     61  C   UNL A   1      43.805  33.520  32.071  1.00  0.00     0.135 A 
ATOM     62  F   UNL A   1      44.054  34.007  28.472  1.00  0.00    -0.206 F 
ATOM     63  C   UNL A   1      44.106  35.577  30.217  1.00  0.00     0.059 A 
ATOM     64  C   UNL A   1      43.903  34.835  32.519  1.00  0.00     0.059 A 
ATOM     65  F   UNL A   1      43.682  32.547  32.988  1.00  0.00    -0.206 F 
ATOM     66  C   UNL A   1      44.068  35.855  31.584  1.00  0.00     0.060 A 
BRANCH  66  67
ATOM     67  S   UNL A   1      44.237  37.569  32.124  1.00  0.00     0.124 S 
ATOM     68  O   UNL A   1      43.797  38.294  30.935  1.00  0.00    -0.237 OA
ATOM     69  O   UNL A   1      43.335  37.627  33.270  1.00  0.00    -0.237 OA
ATOM     70  O   UNL A   1      45.656  37.688  32.442  1.00  0.00    -0.744 OA
ENDBRANCH  66  67
ENDBRANCH  45  59
BRANCH  46  71
ATOM     71  C   UNL A   1      42.596  23.723  27.606  1.00  0.00     0.058 A 
ATOM     72  C   UNL A   1      42.564  23.460  26.229  1.00  0.00     0.135 A 
ATOM     73  C   UNL A   1      42.471  22.633  28.483  1.00  0.00     0.135 A 
ATOM     74  F   UNL A   1      42.669  24.469  25.352  1.00  0.00    -0.206 F 
ATOM     75  C   UNL A   1      42.408  22.167  25.739  1.00  0.00     0.059 A 
ATOM     76  C   UNL A   1      42.338  21.329  28.018  1.00  0.00     0.059 A 
ATOM     77  F   UNL A   1      42.506  22.831  29.810  1.00  0.00    -0.206 F 
ATOM     78  C   UNL A   1      42.300  21.107  26.641  1.00  0.00     0.060 A 
BRANCH  78  79
ATOM     79  S   UNL A   1      42.152  19.426  25.996  1.00  0.00     0.124 S 
ATOM     80  O   UNL A   1      42.958  19.506  24.784  1.00  0.00    -0.237 OA
ATOM     81  O   UNL A   1      42.710  18.629  27.083  1.00  0.00    -0.237 OA
ATOM     82  O   UNL A   1      40.714  19.272  25.790  1.00  0.00    -0.744 OA
ENDBRANCH  78  79
ENDBRANCH  46  71
BRANCH  58  83
ATOM     83  C   UNL A   1      48.171  27.666  29.037  1.00  0.00     0.058 A 
ATOM     84  C   UNL A   1      48.841  27.020  30.087  1.00  0.00     0.135 A 
ATOM     85  C   UNL A   1      48.908  28.009  27.893  1.00  0.00     0.135 A 
ATOM     86  F   UNL A   1      48.178  26.681  31.204  1.00  0.00    -0.206 F 
ATOM     87  C   UNL A   1      50.199  26.738  30.013  1.00  0.00     0.059 A 
ATOM     88  C   UNL A   1      50.263  27.716  27.788  1.00  0.00     0.059 A 
ATOM     89  F   UNL A   1      48.308  28.620  26.859  1.00  0.00    -0.206 F 
ATOM     90  C   UNL A   1      50.903  27.090  28.858  1.00  0.00     0.060 A 
BRANCH  90  91
ATOM     91  S   UNL A   1      52.658  26.688  28.756  1.00  0.00     0.124 S 
ATOM     92  O   UNL A   1      52.918  26.167  30.095  1.00  0.00    -0.237 OA
ATOM     93  O   UNL A   1      52.695  25.707  27.675  1.00  0.00    -0.237 OA
ATOM     94  O   UNL A   1      53.283  27.972  28.449  1.00  0.00    -0.744 OA
ENDBRANCH  90  91
ENDBRANCH  58  83
ENDBRANCH  32  33
ENDBRANCH  25  27
ENDBRANCH  24  25
ENDBRANCH  23  24
ENDBRANCH   1  23
TORSDOF 19
ENDMDL
MODEL 2
REMARK VINA RESULT:     -10.2      1.354      2.320
REMARK SMILES CC(C)[C@@H](NC(=O)[C@@](C)([NH3+])C(F)(F)F)C(=O)OCCOC(=O)c1ccc(-c2c3nc(c(-c4c(F)cc(S(=O)(=O)[O-])cc4F)c4ccc([nH]4)c(-c4c(F)cc(S(=O)(=O)[O-])cc4F)c4nc(c(-c5c(F)cc(S(=O)(=O)[O-])cc5F)c5ccc2[nH]5)C=C4)C=C3)cc1
REMARK SMILES IDX 18 1 17 2 15 3 16 4 4 5 2 6 1 7 3 8 5 9 6 10 7 12 8 13 9 14
REMARK SMILES IDX 10 15 11 19 12 20 13 21 14 22 19 23 20 24 21 25 22 26 23 27
REMARK SMILES IDX 24 28 88 29 25 30 87 31 26 32 27 33 28 34 81 35 29 36 86 37
REMARK SMILES IDX 80 38 82 39 30 40 85 41 79 42 78 43 31 45 65 46 44 47 64 48
REMARK SMILES IDX 45 49 48 50 63 51 83 52 46 53 47 54 62 56 84 57 49 58 32 59
REMARK SMILES IDX 33 60 42 61 34 62 35 63 41 64 43 65 36 66 37 67 38 68 39 69
REMARK SMILES IDX 40 70 66 71 67 72 76 73 68 74 69 75 75 76 77 77 70 78 71 79
REMARK SMILES IDX 72 80 73 81 74 82 50 83 51 84 60 85 52 86 53 87 59 88 61 89
REMARK SMILES IDX 54 90 55 91 56 92 57 93 58 94
REMARK H PARENT 5 11 10 16 10 17 10 18 82 44 48 55
REMARK Flexibility Score: inf
ROOT
ATOM      1  C   UNL A   1      33.824  28.503  25.611  1.00  0.00     0.274 C 
ENDROOT
BRANCH   1   2
ATOM      2  O   UNL A   1      33.523  27.165  26.062  1.00  0.00    -0.461 OA
BRANCH   2   3
ATOM      3  C   UNL A   1      32.731  26.424  25.244  1.00  0.00     0.329 C 
ATOM      4  O   UNL A   1      31.864  26.903  24.518  1.00  0.00    -0.250 OA
BRANCH   3   5
ATOM      5  C   UNL A   1      32.891  24.903  25.414  1.00  0.00     0.195 C 
BRANCH   5   6
ATOM      6  C   UNL A   1      31.927  24.156  26.379  1.00  0.00     0.017 C 
ATOM      7  C   UNL A   1      30.917  23.302  25.586  1.00  0.00     0.010 C 
ATOM      8  C   UNL A   1      32.663  23.194  27.326  1.00  0.00     0.010 C 
ENDBRANCH   5   6
BRANCH   5   9
ATOM      9  N   UNL A   1      33.180  24.143  24.164  1.00  0.00    -0.337 N 
ATOM     10  C   UNL A   1      34.282  23.642  23.523  1.00  0.00     0.291 C 
ATOM     11  H   UNL A   1      32.356  23.950  23.663  1.00  0.00     0.164 HD
ATOM     12  O   UNL A   1      34.173  23.559  22.297  1.00  0.00    -0.267 OA
BRANCH  10  13
ATOM     13  C   UNL A   1      35.544  23.147  24.263  1.00  0.00     0.267 C 
ATOM     14  C   UNL A   1      36.701  22.923  23.279  1.00  0.00     0.100 C 
BRANCH  13  15
ATOM     15  N   UNL A   1      35.898  24.126  25.335  1.00  0.00    -0.337 N 
ATOM     16  H   UNL A   1      35.394  23.891  26.190  1.00  0.00     0.345 HD
ATOM     17  H   UNL A   1      35.641  25.067  25.036  1.00  0.00     0.345 HD
ATOM     18  H   UNL A   1      36.903  24.089  25.511  1.00  0.00     0.345 HD
ENDBRANCH  13  15
BRANCH  13  19
ATOM     19  C   UNL A   1      35.216  21.765  24.908  1.00  0.00     0.453 C 
ATOM     20  F   UNL A   1      35.995  20.756  24.461  1.00  0.00    -0.164 F 
ATOM     21  F   UNL A   1      35.284  21.786  26.260  1.00  0.00    -0.164 F 
ATOM     22  F   UNL A   1      33.928  21.422  24.609  1.00  0.00    -0.164 F 
ENDBRANCH  13  19
ENDBRANCH  10  13
ENDBRANCH   5   9
ENDBRANCH   3   5
ENDBRANCH   2   3
ENDBRANCH   1   2
BRANCH   1  23
ATOM     23  C   UNL A   1      33.271  29.596  26.526  1.00  0.00     0.275 C 
BRANCH  23  24
ATOM     24  O   UNL A   1      33.816  29.496  27.848  1.00  0.00    -0.458 OA
BRANCH  24  25
ATOM     25  C   UNL A   1      34.622  30.524  28.205  1.00  0.00     0.338 C 
ATOM     26  O   UNL A   1      34.285  31.651  28.519  1.00  0.00    -0.246 OA
BRANCH  25  27
ATOM     27  C   UNL A   1      35.996  30.030  28.340  1.00  0.00     0.060 A 
ATOM     28  C   UNL A   1      36.397  29.556  29.593  1.00  0.00     0.016 A 
ATOM     29  C   UNL A   1      36.890  30.085  27.273  1.00  0.00     0.016 A 
ATOM     30  C   UNL A   1      37.698  29.115  29.789  1.00  0.00     0.010 A 
ATOM     31  C   UNL A   1      38.203  29.666  27.475  1.00  0.00     0.010 A 
ATOM     32  C   UNL A   1      38.610  29.188  28.734  1.00  0.00    -0.014 A 
BRANCH  32  33
ATOM     33  C   UNL A   1      40.025  28.850  28.970  1.00  0.00     0.031 A 
ATOM     34  C   UNL A   1      40.948  29.919  29.465  1.00  0.00     0.074 A 
ATOM     35  C   UNL A   1      40.459  27.600  28.733  1.00  0.00     0.049 A 
ATOM     36  N   UNL A   1      42.248  29.903  29.572  1.00  0.00    -0.248 NA
ATOM     37  C   UNL A   1      40.319  31.181  29.892  1.00  0.00     0.031 C 
ATOM     38  C   UNL A   1      39.615  26.477  28.325  1.00  0.00     0.029 A 
ATOM     39  N   UNL A   1      41.722  27.073  28.783  1.00  0.00    -0.354 N 
ATOM     40  C   UNL A   1      42.600  31.158  30.053  1.00  0.00     0.074 A 
ATOM     41  C   UNL A   1      41.375  31.911  30.218  1.00  0.00     0.031 C 
ATOM     42  C   UNL A   1      40.390  25.397  28.131  1.00  0.00     0.029 A 
ATOM     43  C   UNL A   1      41.784  25.771  28.352  1.00  0.00     0.049 A 
ATOM     44  H   UNL A   1      42.506  27.578  29.098  1.00  0.00     0.167 HD
ATOM     45  C   UNL A   1      43.838  31.632  30.321  1.00  0.00     0.037 A 
ATOM     46  C   UNL A   1      42.856  24.991  28.113  1.00  0.00     0.037 A 
ATOM     47  C   UNL A   1      45.038  30.858  30.143  1.00  0.00     0.049 A 
ATOM     48  C   UNL A   1      44.227  25.564  28.345  1.00  0.00     0.074 A 
ATOM     49  C   UNL A   1      46.350  31.231  30.373  1.00  0.00     0.029 A 
ATOM     50  N   UNL A   1      45.068  29.548  29.684  1.00  0.00    -0.354 N 
ATOM     51  N   UNL A   1      44.559  26.761  28.772  1.00  0.00    -0.248 NA
ATOM     52  C   UNL A   1      45.371  24.691  28.051  1.00  0.00     0.031 C 
ATOM     53  C   UNL A   1      47.176  30.159  30.017  1.00  0.00     0.029 A 
ATOM     54  C   UNL A   1      46.376  29.103  29.603  1.00  0.00     0.049 A 
ATOM     55  H   UNL A   1      44.276  29.014  29.449  1.00  0.00     0.167 HD
ATOM     56  C   UNL A   1      45.947  26.782  28.808  1.00  0.00     0.074 A 
ATOM     57  C   UNL A   1      46.393  25.472  28.374  1.00  0.00     0.031 C 
ATOM     58  C   UNL A   1      46.782  27.791  29.163  1.00  0.00     0.037 A 
BRANCH  45  59
ATOM     59  C   UNL A   1      43.950  33.056  30.783  1.00  0.00     0.058 A 
ATOM     60  C   UNL A   1      43.779  33.415  32.130  1.00  0.00     0.135 A 
ATOM     61  C   UNL A   1      44.233  34.079  29.864  1.00  0.00     0.135 A 
ATOM     62  F   UNL A   1      43.481  32.480  33.046  1.00  0.00    -0.206 F 
ATOM     63  C   UNL A   1      43.861  34.741  32.544  1.00  0.00     0.059 A 
ATOM     64  C   UNL A   1      44.341  35.410  30.260  1.00  0.00     0.059 A 
ATOM     65  F   UNL A   1      44.395  33.792  28.562  1.00  0.00    -0.206 F 
ATOM     66  C   UNL A   1      44.139  35.732  31.601  1.00  0.00     0.060 A 
BRANCH  66  67
ATOM     67  S   UNL A   1      44.233  37.449  32.151  1.00  0.00     0.124 S 
ATOM     68  O   UNL A   1      43.347  37.432  33.311  1.00  0.00    -0.237 OA
ATOM     69  O   UNL A   1      45.654  37.607  32.442  1.00  0.00    -0.237 OA
ATOM     70  O   UNL A   1      43.745  38.202  31.000  1.00  0.00    -0.744 OA
ENDBRANCH  66  67
ENDBRANCH  45  59
BRANCH  46  71
ATOM     71  C   UNL A   1      42.669  23.615  27.586  1.00  0.00     0.058 A 
ATOM     72  C   UNL A   1      42.698  23.357  26.208  1.00  0.00     0.135 A 
ATOM     73  C   UNL A   1      42.480  22.525  28.450  1.00  0.00     0.135 A 
ATOM     74  F   UNL A   1      42.866  24.367  25.341  1.00  0.00    -0.206 F 
ATOM     75  C   UNL A   1      42.538  22.070  25.705  1.00  0.00     0.059 A 
ATOM     76  C   UNL A   1      42.341  21.225  27.973  1.00  0.00     0.059 A 
ATOM     77  F   UNL A   1      42.455  22.717  29.779  1.00  0.00    -0.206 F 
ATOM     78  C   UNL A   1      42.365  21.009  26.596  1.00  0.00     0.060 A 
BRANCH  78  79
ATOM     79  S   UNL A   1      42.213  19.334  25.936  1.00  0.00     0.124 S 
ATOM     80  O   UNL A   1      40.776  19.240  25.705  1.00  0.00    -0.237 OA
ATOM     81  O   UNL A   1      43.050  19.396  24.743  1.00  0.00    -0.237 OA
ATOM     82  O   UNL A   1      42.735  18.501  27.016  1.00  0.00    -0.744 OA
ENDBRANCH  78  79
ENDBRANCH  46  71
BRANCH  58  83
ATOM     83  C   UNL A   1      48.255  27.505  29.112  1.00  0.00     0.058 A 
ATOM     84  C   UNL A   1      49.013  27.772  27.962  1.00  0.00     0.135 A 
ATOM     85  C   UNL A   1      48.922  27.005  30.241  1.00  0.00     0.135 A 
ATOM     86  F   UNL A   1      48.417  28.244  26.855  1.00  0.00    -0.206 F 
ATOM     87  C   UNL A   1      50.382  27.536  27.926  1.00  0.00     0.059 A 
ATOM     88  C   UNL A   1      50.294  26.783  30.236  1.00  0.00     0.059 A 
ATOM     89  F   UNL A   1      48.240  26.743  31.368  1.00  0.00    -0.206 F 
ATOM     90  C   UNL A   1      51.014  27.041  29.070  1.00  0.00     0.060 A 
BRANCH  90  91
ATOM     91  S   UNL A   1      52.797  26.772  29.026  1.00  0.00     0.124 S 
ATOM     92  O   UNL A   1      53.029  26.130  30.316  1.00  0.00    -0.237 OA
ATOM     93  O   UNL A   1      52.958  25.917  27.854  1.00  0.00    -0.237 OA
ATOM     94  O   UNL A   1      53.340  28.121  28.889  1.00  0.00    -0.744 OA
ENDBRANCH  90  91
ENDBRANCH  58  83
ENDBRANCH  32  33
ENDBRANCH  25  27
ENDBRANCH  24  25
ENDBRANCH  23  24
ENDBRANCH   1  23
TORSDOF 19
ENDMDL
MODEL 3
REMARK VINA RESULT:     -10.1      5.117     11.188
REMARK SMILES CC(C)[C@@H](NC(=O)[C@@](C)([NH3+])C(F)(F)F)C(=O)OCCOC(=O)c1ccc(-c2c3nc(c(-c4c(F)cc(S(=O)(=O)[O-])cc4F)c4ccc([nH]4)c(-c4c(F)cc(S(=O)(=O)[O-])cc4F)c4nc(c(-c5c(F)cc(S(=O)(=O)[O-])cc5F)c5ccc2[nH]5)C=C4)C=C3)cc1
REMARK SMILES IDX 18 1 17 2 15 3 16 4 4 5 2 6 1 7 3 8 5 9 6 10 7 12 8 13 9 14
REMARK SMILES IDX 10 15 11 19 12 20 13 21 14 22 19 23 20 24 21 25 22 26 23 27
REMARK SMILES IDX 24 28 88 29 25 30 87 31 26 32 27 33 28 34 81 35 29 36 86 37
REMARK SMILES IDX 80 38 82 39 30 40 85 41 79 42 78 43 31 45 65 46 44 47 64 48
REMARK SMILES IDX 45 49 48 50 63 51 83 52 46 53 47 54 62 56 84 57 49 58 32 59
REMARK SMILES IDX 33 60 42 61 34 62 35 63 41 64 43 65 36 66 37 67 38 68 39 69
REMARK SMILES IDX 40 70 66 71 67 72 76 73 68 74 69 75 75 76 77 77 70 78 71 79
REMARK SMILES IDX 72 80 73 81 74 82 50 83 51 84 60 85 52 86 53 87 59 88 61 89
REMARK SMILES IDX 54 90 55 91 56 92 57 93 58 94
REMARK H PARENT 5 11 10 16 10 17 10 18 82 44 48 55
REMARK Flexibility Score: inf
ROOT
ATOM      1  C   UNL A   1      40.065  20.073  26.040  1.00  0.00     0.274 C 
ENDROOT
BRANCH   1   2
ATOM      2  O   UNL A   1      41.389  20.464  25.620  1.00  0.00    -0.461 OA
BRANCH   2   3
ATOM      3  C   UNL A   1      42.420  19.787  26.190  1.00  0.00     0.329 C 
ATOM      4  O   UNL A   1      42.293  19.040  27.156  1.00  0.00    -0.250 OA
BRANCH   3   5
ATOM      5  C   UNL A   1      43.806  20.154  25.630  1.00  0.00     0.195 C 
BRANCH   5   6
ATOM      6  C   UNL A   1      44.657  19.038  24.959  1.00  0.00     0.017 C 
ATOM      7  C   UNL A   1      44.767  19.277  23.439  1.00  0.00     0.010 C 
ATOM      8  C   UNL A   1      46.096  18.984  25.498  1.00  0.00     0.010 C 
ENDBRANCH   5   6
BRANCH   5   9
ATOM      9  N   UNL A   1      43.887  21.463  24.922  1.00  0.00    -0.337 N 
ATOM     10  C   UNL A   1      43.763  22.790  25.242  1.00  0.00     0.291 C 
ATOM     11  H   UNL A   1      44.083  21.342  23.965  1.00  0.00     0.164 HD
ATOM     12  O   UNL A   1      43.373  23.509  24.318  1.00  0.00    -0.267 OA
BRANCH  10  13
ATOM     13  C   UNL A   1      44.145  23.371  26.621  1.00  0.00     0.267 C 
ATOM     14  C   UNL A   1      42.925  23.412  27.552  1.00  0.00     0.100 C 
BRANCH  13  15
ATOM     15  N   UNL A   1      45.266  22.568  27.196  1.00  0.00    -0.337 N 
ATOM     16  H   UNL A   1      45.627  21.930  26.486  1.00  0.00     0.345 HD
ATOM     17  H   UNL A   1      44.926  22.031  27.994  1.00  0.00     0.345 HD
ATOM     18  H   UNL A   1      46.011  23.194  27.502  1.00  0.00     0.345 HD
ENDBRANCH  13  15
BRANCH  13  19
ATOM     19  C   UNL A   1      44.614  24.844  26.413  1.00  0.00     0.453 C 
ATOM     20  F   UNL A   1      45.124  25.415  27.525  1.00  0.00    -0.164 F 
ATOM     21  F   UNL A   1      45.521  24.972  25.416  1.00  0.00    -0.164 F 
ATOM     22  F   UNL A   1      43.545  25.610  26.039  1.00  0.00    -0.164 F 
ENDBRANCH  13  19
ENDBRANCH  10  13
ENDBRANCH   5   9
ENDBRANCH   3   5
ENDBRANCH   2   3
ENDBRANCH   1   2
BRANCH   1  23
ATOM     23  C   UNL A   1      39.044  21.209  25.983  1.00  0.00     0.275 C 
BRANCH  23  24
ATOM     24  O   UNL A   1      39.688  22.489  25.953  1.00  0.00    -0.458 OA
BRANCH  24  25
ATOM     25  C   UNL A   1      38.842  23.546  25.916  1.00  0.00     0.338 C 
ATOM     26  O   UNL A   1      37.730  23.584  25.423  1.00  0.00    -0.246 OA
BRANCH  25  27
ATOM     27  C   UNL A   1      39.392  24.628  26.738  1.00  0.00     0.060 A 
ATOM     28  C   UNL A   1      39.023  24.675  28.086  1.00  0.00     0.016 A 
ATOM     29  C   UNL A   1      40.209  25.610  26.183  1.00  0.00     0.016 A 
ATOM     30  C   UNL A   1      39.480  25.701  28.900  1.00  0.00     0.010 A 
ATOM     31  C   UNL A   1      40.650  26.654  26.994  1.00  0.00     0.010 A 
ATOM     32  C   UNL A   1      40.280  26.704  28.350  1.00  0.00    -0.014 A 
BRANCH  32  33
ATOM     33  C   UNL A   1      40.658  27.867  29.173  1.00  0.00     0.031 A 
ATOM     34  C   UNL A   1      41.930  27.809  29.960  1.00  0.00     0.074 A 
ATOM     35  C   UNL A   1      39.858  28.946  29.208  1.00  0.00     0.049 A 
ATOM     36  N   UNL A   1      42.371  28.624  30.879  1.00  0.00    -0.248 NA
ATOM     37  C   UNL A   1      42.825  26.674  29.676  1.00  0.00     0.031 C 
ATOM     38  C   UNL A   1      38.641  29.120  28.415  1.00  0.00     0.029 A 
ATOM     39  N   UNL A   1      39.940  30.090  29.956  1.00  0.00    -0.354 N 
ATOM     40  C   UNL A   1      43.580  28.090  31.304  1.00  0.00     0.074 A 
ATOM     41  C   UNL A   1      43.805  26.881  30.542  1.00  0.00     0.031 C 
ATOM     42  C   UNL A   1      38.071  30.292  28.742  1.00  0.00     0.029 A 
ATOM     43  C   UNL A   1      38.856  30.920  29.800  1.00  0.00     0.049 A 
ATOM     44  H   UNL A   1      40.700  30.297  30.547  1.00  0.00     0.167 HD
ATOM     45  C   UNL A   1      44.416  28.570  32.253  1.00  0.00     0.037 A 
ATOM     46  C   UNL A   1      38.517  32.032  30.479  1.00  0.00     0.037 A 
ATOM     47  C   UNL A   1      44.163  29.775  32.997  1.00  0.00     0.049 A 
ATOM     48  C   UNL A   1      39.423  32.505  31.583  1.00  0.00     0.074 A 
ATOM     49  C   UNL A   1      44.931  30.358  33.989  1.00  0.00     0.029 A 
ATOM     50  N   UNL A   1      43.044  30.582  32.830  1.00  0.00    -0.354 N 
ATOM     51  N   UNL A   1      40.552  31.983  32.003  1.00  0.00    -0.248 NA
ATOM     52  C   UNL A   1      39.006  33.708  32.315  1.00  0.00     0.031 C 
ATOM     53  C   UNL A   1      44.258  31.497  34.447  1.00  0.00     0.029 A 
ATOM     54  C   UNL A   1      43.090  31.646  33.712  1.00  0.00     0.049 A 
ATOM     55  H   UNL A   1      42.324  30.420  32.179  1.00  0.00     0.167 HD
ATOM     56  C   UNL A   1      40.986  32.797  33.041  1.00  0.00     0.074 A 
ATOM     57  C   UNL A   1      40.005  33.858  33.175  1.00  0.00     0.031 C 
ATOM     58  C   UNL A   1      42.092  32.682  33.818  1.00  0.00     0.037 A 
BRANCH  45  59
ATOM     59  C   UNL A   1      45.645  27.765  32.565  1.00  0.00     0.058 A 
ATOM     60  C   UNL A   1      46.877  28.018  31.940  1.00  0.00     0.135 A 
ATOM     61  C   UNL A   1      45.590  26.723  33.505  1.00  0.00     0.135 A 
ATOM     62  F   UNL A   1      46.978  28.986  31.015  1.00  0.00    -0.206 F 
ATOM     63  C   UNL A   1      48.004  27.251  32.219  1.00  0.00     0.059 A 
ATOM     64  C   UNL A   1      46.710  25.958  33.815  1.00  0.00     0.059 A 
ATOM     65  F   UNL A   1      44.435  26.433  34.125  1.00  0.00    -0.206 F 
ATOM     66  C   UNL A   1      47.910  26.220  33.155  1.00  0.00     0.060 A 
BRANCH  66  67
ATOM     67  S   UNL A   1      49.377  25.227  33.500  1.00  0.00     0.124 S 
ATOM     68  O   UNL A   1      49.814  24.875  32.152  1.00  0.00    -0.237 OA
ATOM     69  O   UNL A   1      50.232  26.168  34.216  1.00  0.00    -0.237 OA
ATOM     70  O   UNL A   1      48.860  24.122  34.301  1.00  0.00    -0.744 OA
ENDBRANCH  66  67
ENDBRANCH  45  59
BRANCH  46  71
ATOM     71  C   UNL A   1      37.246  32.735  30.163  1.00  0.00     0.058 A 
ATOM     72  C   UNL A   1      37.199  33.743  29.189  1.00  0.00     0.135 A 
ATOM     73  C   UNL A   1      36.049  32.398  30.813  1.00  0.00     0.135 A 
ATOM     74  F   UNL A   1      38.319  34.107  28.547  1.00  0.00    -0.206 F 
ATOM     75  C   UNL A   1      36.012  34.397  28.876  1.00  0.00     0.059 A 
ATOM     76  C   UNL A   1      34.845  33.021  30.502  1.00  0.00     0.059 A 
ATOM     77  F   UNL A   1      36.039  31.433  31.746  1.00  0.00    -0.206 F 
ATOM     78  C   UNL A   1      34.838  34.026  29.535  1.00  0.00     0.060 A 
BRANCH  78  79
ATOM     79  S   UNL A   1      33.291  34.843  29.083  1.00  0.00     0.124 S 
ATOM     80  O   UNL A   1      32.753  33.921  28.090  1.00  0.00    -0.237 OA
ATOM     81  O   UNL A   1      32.585  34.891  30.359  1.00  0.00    -0.237 OA
ATOM     82  O   UNL A   1      33.733  36.137  28.571  1.00  0.00    -0.744 OA
ENDBRANCH  78  79
ENDBRANCH  46  71
BRANCH  58  83
ATOM     83  C   UNL A   1      42.302  33.738  34.865  1.00  0.00     0.058 A 
ATOM     84  C   UNL A   1      41.860  33.559  36.184  1.00  0.00     0.135 A 
ATOM     85  C   UNL A   1      42.994  34.919  34.553  1.00  0.00     0.135 A 
ATOM     86  F   UNL A   1      41.186  32.450  36.526  1.00  0.00    -0.206 F 
ATOM     87  C   UNL A   1      42.082  34.525  37.158  1.00  0.00     0.059 A 
ATOM     88  C   UNL A   1      43.249  35.887  35.517  1.00  0.00     0.059 A 
ATOM     89  F   UNL A   1      43.444  35.130  33.306  1.00  0.00    -0.206 F 
ATOM     90  C   UNL A   1      42.779  35.687  36.815  1.00  0.00     0.060 A 
BRANCH  90  91
ATOM     91  S   UNL A   1      43.094  36.918  38.095  1.00  0.00     0.124 S 
ATOM     92  O   UNL A   1      41.739  37.239  38.533  1.00  0.00    -0.237 OA
ATOM     93  O   UNL A   1      43.911  36.178  39.051  1.00  0.00    -0.237 OA
ATOM     94  O   UNL A   1      43.792  37.982  37.377  1.00  0.00    -0.744 OA
ENDBRANCH  90  91
ENDBRANCH  58  83
ENDBRANCH  32  33
ENDBRANCH  25  27
ENDBRANCH  24  25
ENDBRANCH  23  24
ENDBRANCH   1  23
TORSDOF 19
ENDMDL
