MODEL 1
REMARK VINA RESULT:     -11.1      0.000      0.000
REMARK SMILES O=C(OCCOC(=O)[C@H]1C[C@@H](O)CN1C(=O)c1cc(F)c(F)cc1Cl)c1ccc(-c2c3nc(c(-c4c(F)cc(S(=O)(=O)[O-])cc4F)c4ccc([nH]4)c(-c4c(F)cc(S(=O)(=O)[O-])cc4F)c4nc(c(-c5c(F)cc(S(=O)(=O)[O-])cc5F)c5ccc2[nH]5)C=C4)C=C3)cc1
REMARK SMILES IDX 4 1 3 2 2 3 1 4 26 5 27 6 91 7 28 8 90 9 29 10 30 11 31 12
REMARK SMILES IDX 84 13 32 14 89 15 83 16 85 17 33 18 88 19 82 20 81 21 34 23
REMARK SMILES IDX 68 24 47 25 67 26 48 27 51 28 66 29 86 30 49 31 50 32 65 34
REMARK SMILES IDX 87 35 52 36 35 37 36 38 45 39 37 40 38 41 44 42 46 43 39 44
REMARK SMILES IDX 40 45 41 46 42 47 43 48 69 49 70 50 79 51 71 52 72 53 78 54
REMARK SMILES IDX 80 55 73 56 74 57 75 58 76 59 77 60 53 61 54 62 63 63 55 64
REMARK SMILES IDX 56 65 62 66 64 67 57 68 58 69 59 70 60 71 61 72 5 73 6 74
REMARK SMILES IDX 7 75 8 76 9 77 10 78 14 79 11 80 13 81 15 82 16 83 17 84
REMARK SMILES IDX 18 85 24 86 19 87 23 88 25 89 20 90 21 91 22 92 12 93
REMARK H PARENT 85 22 51 33 12 94
REMARK Flexibility Score: inf
ROOT
ATOM      1  C   UNL A   1      33.972  28.207  26.764  1.00  0.00     0.275 C 
ENDROOT
BRANCH   1   2
ATOM      2  O   UNL A   1      33.675  29.440  27.436  1.00  0.00    -0.458 OA
BRANCH   2   3
ATOM      3  C   UNL A   1      34.580  30.410  27.728  1.00  0.00     0.338 C 
ATOM      4  O   UNL A   1      34.407  31.553  27.315  1.00  0.00    -0.246 OA
BRANCH   3   5
ATOM      5  C   UNL A   1      35.927  30.034  28.253  1.00  0.00     0.060 A 
ATOM      6  C   UNL A   1      36.987  30.148  27.342  1.00  0.00     0.016 A 
ATOM      7  C   UNL A   1      36.216  29.621  29.556  1.00  0.00     0.016 A 
ATOM      8  C   UNL A   1      38.267  29.701  27.682  1.00  0.00     0.010 A 
ATOM      9  C   UNL A   1      37.516  29.211  29.912  1.00  0.00     0.010 A 
ATOM     10  C   UNL A   1      38.544  29.197  28.967  1.00  0.00    -0.014 A 
BRANCH  10  11
ATOM     11  C   UNL A   1      39.938  28.779  29.285  1.00  0.00     0.031 A 
ATOM     12  C   UNL A   1      40.478  27.399  29.016  1.00  0.00     0.074 A 
ATOM     13  C   UNL A   1      40.781  29.732  29.727  1.00  0.00     0.049 A 
ATOM     14  N   UNL A   1      41.715  27.048  28.764  1.00  0.00    -0.248 NA
ATOM     15  C   UNL A   1      39.539  26.272  28.987  1.00  0.00     0.031 C 
ATOM     16  C   UNL A   1      40.392  31.105  30.052  1.00  0.00     0.029 A 
ATOM     17  N   UNL A   1      42.130  29.698  29.953  1.00  0.00    -0.354 N 
ATOM     18  C   UNL A   1      41.674  25.702  28.418  1.00  0.00     0.074 A 
ATOM     19  C   UNL A   1      40.301  25.276  28.546  1.00  0.00     0.031 C 
ATOM     20  C   UNL A   1      41.484  31.793  30.409  1.00  0.00     0.029 A 
ATOM     21  C   UNL A   1      42.638  30.898  30.381  1.00  0.00     0.049 A 
ATOM     22  H   UNL A   1      42.681  28.892  29.823  1.00  0.00     0.167 HD
ATOM     23  C   UNL A   1      42.699  24.902  28.041  1.00  0.00     0.037 A 
ATOM     24  C   UNL A   1      43.890  31.241  30.734  1.00  0.00     0.037 A 
ATOM     25  C   UNL A   1      44.086  25.269  28.178  1.00  0.00     0.049 A 
ATOM     26  C   UNL A   1      44.985  30.233  30.599  1.00  0.00     0.074 A 
ATOM     27  C   UNL A   1      45.211  24.534  27.843  1.00  0.00     0.029 A 
ATOM     28  N   UNL A   1      44.533  26.415  28.816  1.00  0.00    -0.354 N 
ATOM     29  N   UNL A   1      44.942  29.054  30.026  1.00  0.00    -0.248 NA
ATOM     30  C   UNL A   1      46.291  30.583  31.167  1.00  0.00     0.031 C 
ATOM     31  C   UNL A   1      46.328  25.182  28.387  1.00  0.00     0.029 A 
ATOM     32  C   UNL A   1      45.902  26.346  29.007  1.00  0.00     0.049 A 
ATOM     33  H   UNL A   1      43.961  27.166  29.094  1.00  0.00     0.167 HD
ATOM     34  C   UNL A   1      46.212  28.513  30.173  1.00  0.00     0.074 A 
ATOM     35  C   UNL A   1      47.006  29.503  30.875  1.00  0.00     0.031 C 
ATOM     36  C   UNL A   1      46.673  27.307  29.757  1.00  0.00     0.037 A 
BRANCH  23  37
ATOM     37  C   UNL A   1      42.404  23.531  27.499  1.00  0.00     0.058 A 
ATOM     38  C   UNL A   1      42.428  23.293  26.114  1.00  0.00     0.135 A 
ATOM     39  C   UNL A   1      42.285  22.425  28.351  1.00  0.00     0.135 A 
ATOM     40  F   UNL A   1      42.525  24.320  25.254  1.00  0.00    -0.206 F 
ATOM     41  C   UNL A   1      42.383  22.001  25.594  1.00  0.00     0.059 A 
ATOM     42  C   UNL A   1      42.225  21.126  27.852  1.00  0.00     0.059 A 
ATOM     43  F   UNL A   1      42.254  22.600  29.681  1.00  0.00    -0.206 F 
ATOM     44  C   UNL A   1      42.286  20.921  26.473  1.00  0.00     0.060 A 
BRANCH  44  45
ATOM     45  S   UNL A   1      42.319  19.222  25.846  1.00  0.00     0.124 S 
ATOM     46  O   UNL A   1      43.178  19.354  24.674  1.00  0.00    -0.237 OA
ATOM     47  O   UNL A   1      42.876  18.463  26.963  1.00  0.00    -0.237 OA
ATOM     48  O   UNL A   1      40.911  18.965  25.567  1.00  0.00    -0.744 OA
ENDBRANCH  44  45
ENDBRANCH  23  37
BRANCH  24  49
ATOM     49  C   UNL A   1      44.107  32.597  31.292  1.00  0.00     0.058 A 
ATOM     50  C   UNL A   1      44.287  33.708  30.460  1.00  0.00     0.135 A 
ATOM     51  C   UNL A   1      43.972  32.818  32.674  1.00  0.00     0.135 A 
ATOM     52  F   UNL A   1      44.427  33.542  29.137  1.00  0.00    -0.206 F 
ATOM     53  C   UNL A   1      44.278  35.000  30.976  1.00  0.00     0.059 A 
ATOM     54  C   UNL A   1      43.936  34.099  33.207  1.00  0.00     0.059 A 
ATOM     55  F   UNL A   1      43.783  31.780  33.505  1.00  0.00    -0.206 F 
ATOM     56  C   UNL A   1      44.078  35.186  32.347  1.00  0.00     0.060 A 
BRANCH  56  57
ATOM     57  S   UNL A   1      43.904  36.868  32.982  1.00  0.00     0.124 S 
ATOM     58  O   UNL A   1      45.121  37.010  33.770  1.00  0.00    -0.237 OA
ATOM     59  O   UNL A   1      43.839  37.654  31.754  1.00  0.00    -0.237 OA
ATOM     60  O   UNL A   1      42.660  36.810  33.744  1.00  0.00    -0.744 OA
ENDBRANCH  56  57
ENDBRANCH  24  49
BRANCH  36  61
ATOM     61  C   UNL A   1      48.086  26.948  30.109  1.00  0.00     0.058 A 
ATOM     62  C   UNL A   1      49.153  27.331  29.282  1.00  0.00     0.135 A 
ATOM     63  C   UNL A   1      48.387  26.289  31.311  1.00  0.00     0.135 A 
ATOM     64  F   UNL A   1      48.915  27.954  28.117  1.00  0.00    -0.206 F 
ATOM     65  C   UNL A   1      50.472  27.069  29.633  1.00  0.00     0.059 A 
ATOM     66  C   UNL A   1      49.701  26.038  31.693  1.00  0.00     0.059 A 
ATOM     67  F   UNL A   1      47.401  25.909  32.139  1.00  0.00    -0.206 F 
ATOM     68  C   UNL A   1      50.736  26.428  30.844  1.00  0.00     0.060 A 
BRANCH  68  69
ATOM     69  S   UNL A   1      52.457  26.143  31.310  1.00  0.00     0.124 S 
ATOM     70  O   UNL A   1      53.127  26.215  30.015  1.00  0.00    -0.237 OA
ATOM     71  O   UNL A   1      52.721  27.250  32.222  1.00  0.00    -0.237 OA
ATOM     72  O   UNL A   1      52.427  24.820  31.928  1.00  0.00    -0.744 OA
ENDBRANCH  68  69
ENDBRANCH  36  61
ENDBRANCH  10  11
ENDBRANCH   3   5
ENDBRANCH   2   3
ENDBRANCH   1   2
BRANCH   1  73
ATOM     73  C   UNL A   1      33.715  28.258  25.256  1.00  0.00     0.274 C 
BRANCH  73  74
ATOM     74  O   UNL A   1      33.972  27.015  24.583  1.00  0.00    -0.461 OA
BRANCH  74  75
ATOM     75  C   UNL A   1      32.902  26.176  24.420  1.00  0.00     0.329 C 
ATOM     76  O   UNL A   1      31.940  26.429  23.707  1.00  0.00    -0.250 OA
BRANCH  75  77
ATOM     77  C   UNL A   1      33.035  24.886  25.268  1.00  0.00     0.198 C 
ATOM     78  C   UNL A   1      31.863  24.701  26.234  1.00  0.00     0.071 C 
ATOM     79  N   UNL A   1      33.061  23.627  24.514  1.00  0.00    -0.322 N 
ATOM     80  C   UNL A   1      30.980  23.664  25.543  1.00  0.00     0.136 C 
ATOM     81  C   UNL A   1      31.992  22.720  24.938  1.00  0.00     0.152 C 
BRANCH  79  82
ATOM     82  C   UNL A   1      34.147  23.277  23.746  1.00  0.00     0.256 C 
ATOM     83  O   UNL A   1      34.156  23.259  22.529  1.00  0.00    -0.269 OA
BRANCH  82  84
ATOM     84  C   UNL A   1      35.349  22.859  24.484  1.00  0.00     0.061 A 
ATOM     85  C   UNL A   1      36.319  23.834  24.744  1.00  0.00     0.057 A 
ATOM     86  C   UNL A   1      35.544  21.523  24.854  1.00  0.00     0.056 A 
ATOM     87  C   UNL A   1      37.486  23.460  25.391  1.00  0.00     0.159 A 
ATOM     88  C   UNL A   1      36.716  21.165  25.513  1.00  0.00     0.063 A 
ATOM     89  Cl  UNL A   1      34.397  20.289  24.482  1.00  0.00    -0.083 Cl
ATOM     90  F   UNL A   1      38.425  24.386  25.612  1.00  0.00    -0.204 F 
ATOM     91  C   UNL A   1      37.672  22.140  25.787  1.00  0.00     0.160 A 
ATOM     92  F   UNL A   1      38.776  21.783  26.443  1.00  0.00    -0.204 F 
ENDBRANCH  82  84
ENDBRANCH  79  82
BRANCH  80  93
ATOM     93  O   UNL A   1      30.226  24.254  24.489  1.00  0.00    -0.391 OA
ATOM     94  H   UNL A   1      29.388  24.591  24.840  1.00  0.00     0.211 HD
ENDBRANCH  80  93
ENDBRANCH  75  77
ENDBRANCH  74  75
ENDBRANCH  73  74
ENDBRANCH   1  73
TORSDOF 17
ENDMDL
MODEL 2
REMARK VINA RESULT:     -11.0      3.357      9.313
REMARK SMILES O=C(OCCOC(=O)[C@H]1C[C@@H](O)CN1C(=O)c1cc(F)c(F)cc1Cl)c1ccc(-c2c3nc(c(-c4c(F)cc(S(=O)(=O)[O-])cc4F)c4ccc([nH]4)c(-c4c(F)cc(S(=O)(=O)[O-])cc4F)c4nc(c(-c5c(F)cc(S(=O)(=O)[O-])cc5F)c5ccc2[nH]5)C=C4)C=C3)cc1
REMARK SMILES IDX 4 1 3 2 2 3 1 4 26 5 27 6 91 7 28 8 90 9 29 10 30 11 31 12
REMARK SMILES IDX 84 13 32 14 89 15 83 16 85 17 33 18 88 19 82 20 81 21 34 23
REMARK SMILES IDX 68 24 47 25 67 26 48 27 51 28 66 29 86 30 49 31 50 32 65 34
REMARK SMILES IDX 87 35 52 36 35 37 36 38 45 39 37 40 38 41 44 42 46 43 39 44
REMARK SMILES IDX 40 45 41 46 42 47 43 48 69 49 70 50 79 51 71 52 72 53 78 54
REMARK SMILES IDX 80 55 73 56 74 57 75 58 76 59 77 60 53 61 54 62 63 63 55 64
REMARK SMILES IDX 56 65 62 66 64 67 57 68 58 69 59 70 60 71 61 72 5 73 6 74
REMARK SMILES IDX 7 75 8 76 9 77 10 78 14 79 11 80 13 81 15 82 16 83 17 84
REMARK SMILES IDX 18 85 24 86 19 87 23 88 25 89 20 90 21 91 22 92 12 93
REMARK H PARENT 85 22 51 33 12 94
REMARK Flexibility Score: inf
ROOT
ATOM      1  C   UNL A   1      36.862  22.488  24.430  1.00  0.00     0.275 C 
ENDROOT
BRANCH   1   2
ATOM      2  O   UNL A   1      37.385  23.034  25.650  1.00  0.00    -0.458 OA
BRANCH   2   3
ATOM      3  C   UNL A   1      38.695  23.029  26.011  1.00  0.00     0.338 C 
ATOM      4  O   UNL A   1      39.310  21.968  26.073  1.00  0.00    -0.246 OA
BRANCH   3   5
ATOM      5  C   UNL A   1      39.294  24.241  26.645  1.00  0.00     0.060 A 
ATOM      6  C   UNL A   1      38.899  24.493  27.967  1.00  0.00     0.016 A 
ATOM      7  C   UNL A   1      40.220  25.107  26.056  1.00  0.00     0.016 A 
ATOM      8  C   UNL A   1      39.292  25.666  28.615  1.00  0.00     0.010 A 
ATOM      9  C   UNL A   1      40.651  26.268  26.726  1.00  0.00     0.010 A 
ATOM     10  C   UNL A   1      40.154  26.589  27.991  1.00  0.00    -0.014 A 
BRANCH  10  11
ATOM     11  C   UNL A   1      40.576  27.799  28.750  1.00  0.00     0.031 A 
ATOM     12  C   UNL A   1      39.734  29.042  28.874  1.00  0.00     0.074 A 
ATOM     13  C   UNL A   1      41.720  27.717  29.453  1.00  0.00     0.049 A 
ATOM     14  N   UNL A   1      39.716  29.915  29.851  1.00  0.00    -0.248 NA
ATOM     15  C   UNL A   1      38.769  29.345  27.811  1.00  0.00     0.031 C 
ATOM     16  C   UNL A   1      42.646  26.585  29.411  1.00  0.00     0.029 A 
ATOM     17  N   UNL A   1      42.283  28.583  30.350  1.00  0.00    -0.354 N 
ATOM     18  C   UNL A   1      38.659  30.778  29.584  1.00  0.00     0.074 A 
ATOM     19  C   UNL A   1      38.088  30.366  28.324  1.00  0.00     0.031 C 
ATOM     20  C   UNL A   1      43.650  26.812  30.268  1.00  0.00     0.029 A 
ATOM     21  C   UNL A   1      43.460  28.122  30.884  1.00  0.00     0.049 A 
ATOM     22  H   UNL A   1      41.884  29.452  30.589  1.00  0.00     0.167 HD
ATOM     23  C   UNL A   1      38.222  31.823  30.326  1.00  0.00     0.037 A 
ATOM     24  C   UNL A   1      44.308  28.696  31.757  1.00  0.00     0.037 A 
ATOM     25  C   UNL A   1      38.962  32.379  31.429  1.00  0.00     0.049 A 
ATOM     26  C   UNL A   1      43.953  30.021  32.351  1.00  0.00     0.074 A 
ATOM     27  C   UNL A   1      38.626  33.447  32.245  1.00  0.00     0.029 A 
ATOM     28  N   UNL A   1      40.248  31.997  31.782  1.00  0.00    -0.354 N 
ATOM     29  N   UNL A   1      42.821  30.678  32.262  1.00  0.00    -0.248 NA
ATOM     30  C   UNL A   1      44.984  30.695  33.147  1.00  0.00     0.031 C 
ATOM     31  C   UNL A   1      39.755  33.782  33.004  1.00  0.00     0.029 A 
ATOM     32  C   UNL A   1      40.769  32.888  32.704  1.00  0.00     0.049 A 
ATOM     33  H   UNL A   1      40.720  31.210  31.427  1.00  0.00     0.167 HD
ATOM     34  C   UNL A   1      43.004  31.851  32.982  1.00  0.00     0.074 A 
ATOM     35  C   UNL A   1      44.353  31.804  33.515  1.00  0.00     0.031 C 
ATOM     36  C   UNL A   1      42.130  32.867  33.183  1.00  0.00     0.037 A 
BRANCH  23  37
ATOM     37  C   UNL A   1      36.925  32.492  29.965  1.00  0.00     0.058 A 
ATOM     38  C   UNL A   1      35.755  32.212  30.690  1.00  0.00     0.135 A 
ATOM     39  C   UNL A   1      36.884  33.538  29.033  1.00  0.00     0.135 A 
ATOM     40  F   UNL A   1      35.737  31.209  31.584  1.00  0.00    -0.206 F 
ATOM     41  C   UNL A   1      34.598  32.974  30.532  1.00  0.00     0.059 A 
ATOM     42  C   UNL A   1      35.735  34.302  28.849  1.00  0.00     0.059 A 
ATOM     43  F   UNL A   1      37.974  33.841  28.313  1.00  0.00    -0.206 F 
ATOM     44  C   UNL A   1      34.599  34.021  29.611  1.00  0.00     0.060 A 
BRANCH  44  45
ATOM     45  S   UNL A   1      33.150  35.094  29.440  1.00  0.00     0.124 S 
ATOM     46  O   UNL A   1      32.429  34.448  28.348  1.00  0.00    -0.237 OA
ATOM     47  O   UNL A   1      32.519  35.019  30.755  1.00  0.00    -0.237 OA
ATOM     48  O   UNL A   1      33.752  36.383  29.118  1.00  0.00    -0.744 OA
ENDBRANCH  44  45
ENDBRANCH  23  37
BRANCH  24  49
ATOM     49  C   UNL A   1      45.584  28.000  32.044  1.00  0.00     0.058 A 
ATOM     50  C   UNL A   1      46.753  28.296  31.333  1.00  0.00     0.135 A 
ATOM     51  C   UNL A   1      45.683  27.143  33.154  1.00  0.00     0.135 A 
ATOM     52  F   UNL A   1      46.703  29.103  30.263  1.00  0.00    -0.206 F 
ATOM     53  C   UNL A   1      47.987  27.801  31.741  1.00  0.00     0.059 A 
ATOM     54  C   UNL A   1      46.907  26.658  33.594  1.00  0.00     0.059 A 
ATOM     55  F   UNL A   1      44.588  26.846  33.874  1.00  0.00    -0.206 F 
ATOM     56  C   UNL A   1      48.057  27.003  32.886  1.00  0.00     0.060 A 
BRANCH  56  57
ATOM     57  S   UNL A   1      49.679  26.502  33.502  1.00  0.00     0.124 S 
ATOM     58  O   UNL A   1      50.545  26.892  32.396  1.00  0.00    -0.237 OA
ATOM     59  O   UNL A   1      49.802  27.294  34.722  1.00  0.00    -0.237 OA
ATOM     60  O   UNL A   1      49.529  25.065  33.711  1.00  0.00    -0.744 OA
ENDBRANCH  56  57
ENDBRANCH  24  49
BRANCH  36  61
ATOM     61  C   UNL A   1      42.617  34.057  33.956  1.00  0.00     0.058 A 
ATOM     62  C   UNL A   1      42.646  34.039  35.358  1.00  0.00     0.135 A 
ATOM     63  C   UNL A   1      43.130  35.185  33.299  1.00  0.00     0.135 A 
ATOM     64  F   UNL A   1      42.157  32.987  36.032  1.00  0.00    -0.206 F 
ATOM     65  C   UNL A   1      43.163  35.106  36.085  1.00  0.00     0.059 A 
ATOM     66  C   UNL A   1      43.674  36.253  34.006  1.00  0.00     0.059 A 
ATOM     67  F   UNL A   1      43.130  35.246  31.958  1.00  0.00    -0.206 F 
ATOM     68  C   UNL A   1      43.681  36.205  35.399  1.00  0.00     0.060 A 
BRANCH  68  69
ATOM     69  S   UNL A   1      44.397  37.558  36.356  1.00  0.00     0.124 S 
ATOM     70  O   UNL A   1      44.330  38.660  35.402  1.00  0.00    -0.237 OA
ATOM     71  O   UNL A   1      43.489  37.649  37.495  1.00  0.00    -0.237 OA
ATOM     72  O   UNL A   1      45.741  37.080  36.669  1.00  0.00    -0.744 OA
ENDBRANCH  68  69
ENDBRANCH  36  61
ENDBRANCH  10  11
ENDBRANCH   3   5
ENDBRANCH   2   3
ENDBRANCH   1   2
BRANCH   1  73
ATOM     73  C   UNL A   1      35.344  22.292  24.453  1.00  0.00     0.274 C 
BRANCH  73  74
ATOM     74  O   UNL A   1      34.604  23.466  24.080  1.00  0.00    -0.461 OA
BRANCH  74  75
ATOM     75  C   UNL A   1      33.808  24.020  25.047  1.00  0.00     0.329 C 
ATOM     76  O   UNL A   1      34.120  24.090  26.229  1.00  0.00    -0.250 OA
BRANCH  75  77
ATOM     77  C   UNL A   1      32.454  24.514  24.479  1.00  0.00     0.198 C 
ATOM     78  C   UNL A   1      31.276  23.663  24.958  1.00  0.00     0.071 C 
ATOM     79  N   UNL A   1      32.067  25.880  24.855  1.00  0.00    -0.322 N 
ATOM     80  C   UNL A   1      30.647  24.500  26.069  1.00  0.00     0.136 C 
ATOM     81  C   UNL A   1      30.768  25.907  25.531  1.00  0.00     0.152 C 
BRANCH  79  82
ATOM     82  C   UNL A   1      32.723  26.975  24.342  1.00  0.00     0.256 C 
ATOM     83  O   UNL A   1      33.180  27.041  23.217  1.00  0.00    -0.269 OA
BRANCH  82  84
ATOM     84  C   UNL A   1      32.903  28.107  25.263  1.00  0.00     0.061 A 
ATOM     85  C   UNL A   1      33.944  28.023  26.195  1.00  0.00     0.057 A 
ATOM     86  C   UNL A   1      32.025  29.198  25.250  1.00  0.00     0.056 A 
ATOM     87  C   UNL A   1      34.106  29.051  27.110  1.00  0.00     0.159 A 
ATOM     88  C   UNL A   1      32.208  30.227  26.169  1.00  0.00     0.063 A 
ATOM     89  Cl  UNL A   1      30.692  29.293  24.160  1.00  0.00    -0.083 Cl
ATOM     90  F   UNL A   1      35.082  28.955  28.020  1.00  0.00    -0.204 F 
ATOM     91  C   UNL A   1      33.255  30.150  27.083  1.00  0.00     0.160 A 
ATOM     92  F   UNL A   1      33.432  31.159  27.937  1.00  0.00    -0.204 F 
ENDBRANCH  82  84
ENDBRANCH  79  82
BRANCH  80  93
ATOM     93  O   UNL A   1      31.407  24.410  27.271  1.00  0.00    -0.391 OA
ATOM     94  H   UNL A   1      31.100  25.082  27.898  1.00  0.00     0.211 HD
ENDBRANCH  80  93
ENDBRANCH  75  77
ENDBRANCH  74  75
ENDBRANCH  73  74
ENDBRANCH   1  73
TORSDOF 17
ENDMDL
MODEL 3
REMARK VINA RESULT:     -10.9      4.081     10.515
REMARK SMILES O=C(OCCOC(=O)[C@H]1C[C@@H](O)CN1C(=O)c1cc(F)c(F)cc1Cl)c1ccc(-c2c3nc(c(-c4c(F)cc(S(=O)(=O)[O-])cc4F)c4ccc([nH]4)c(-c4c(F)cc(S(=O)(=O)[O-])cc4F)c4nc(c(-c5c(F)cc(S(=O)(=O)[O-])cc5F)c5ccc2[nH]5)C=C4)C=C3)cc1
REMARK SMILES IDX 4 1 3 2 2 3 1 4 26 5 27 6 91 7 28 8 90 9 29 10 30 11 31 12
REMARK SMILES IDX 84 13 32 14 89 15 83 16 85 17 33 18 88 19 82 20 81 21 34 23
REMARK SMILES IDX 68 24 47 25 67 26 48 27 51 28 66 29 86 30 49 31 50 32 65 34
REMARK SMILES IDX 87 35 52 36 35 37 36 38 45 39 37 40 38 41 44 42 46 43 39 44
REMARK SMILES IDX 40 45 41 46 42 47 43 48 69 49 70 50 79 51 71 52 72 53 78 54
REMARK SMILES IDX 80 55 73 56 74 57 75 58 76 59 77 60 53 61 54 62 63 63 55 64
REMARK SMILES IDX 56 65 62 66 64 67 57 68 58 69 59 70 60 71 61 72 5 73 6 74
REMARK SMILES IDX 7 75 8 76 9 77 10 78 14 79 11 80 13 81 15 82 16 83 17 84
REMARK SMILES IDX 18 85 24 86 19 87 23 88 25 89 20 90 21 91 22 92 12 93
REMARK H PARENT 85 22 51 33 12 94
REMARK Flexibility Score: inf
ROOT
ATOM      1  C   UNL A   1      40.032  21.025  26.589  1.00  0.00     0.275 C 
ENDROOT
BRANCH   1   2
ATOM      2  O   UNL A   1      39.405  21.973  25.714  1.00  0.00    -0.458 OA
BRANCH   2   3
ATOM      3  C   UNL A   1      38.615  23.004  26.114  1.00  0.00     0.338 C 
ATOM      4  O   UNL A   1      37.449  23.065  25.733  1.00  0.00    -0.246 OA
BRANCH   3   5
ATOM      5  C   UNL A   1      39.232  24.218  26.727  1.00  0.00     0.060 A 
ATOM      6  C   UNL A   1      38.904  24.454  28.070  1.00  0.00     0.016 A 
ATOM      7  C   UNL A   1      40.117  25.098  26.099  1.00  0.00     0.016 A 
ATOM      8  C   UNL A   1      39.318  25.626  28.708  1.00  0.00     0.010 A 
ATOM      9  C   UNL A   1      40.570  26.259  26.756  1.00  0.00     0.010 A 
ATOM     10  C   UNL A   1      40.136  26.563  28.048  1.00  0.00    -0.014 A 
BRANCH  10  11
ATOM     11  C   UNL A   1      40.583  27.772  28.794  1.00  0.00     0.031 A 
ATOM     12  C   UNL A   1      39.757  29.025  28.927  1.00  0.00     0.074 A 
ATOM     13  C   UNL A   1      41.739  27.680  29.478  1.00  0.00     0.049 A 
ATOM     14  N   UNL A   1      39.766  29.901  29.901  1.00  0.00    -0.248 NA
ATOM     15  C   UNL A   1      38.778  29.333  27.880  1.00  0.00     0.031 C 
ATOM     16  C   UNL A   1      42.652  26.538  29.425  1.00  0.00     0.029 A 
ATOM     17  N   UNL A   1      42.326  28.544  30.362  1.00  0.00    -0.354 N 
ATOM     18  C   UNL A   1      38.714  30.774  29.648  1.00  0.00     0.074 A 
ATOM     19  C   UNL A   1      38.117  30.364  28.400  1.00  0.00     0.031 C 
ATOM     20  C   UNL A   1      43.672  26.757  30.265  1.00  0.00     0.029 A 
ATOM     21  C   UNL A   1      43.506  28.072  30.878  1.00  0.00     0.049 A 
ATOM     22  H   UNL A   1      41.940  29.417  30.604  1.00  0.00     0.167 HD
ATOM     23  C   UNL A   1      38.301  31.827  30.393  1.00  0.00     0.037 A 
ATOM     24  C   UNL A   1      44.375  28.640  31.734  1.00  0.00     0.037 A 
ATOM     25  C   UNL A   1      39.065  32.379  31.482  1.00  0.00     0.049 A 
ATOM     26  C   UNL A   1      44.045  29.971  32.329  1.00  0.00     0.074 A 
ATOM     27  C   UNL A   1      38.754  33.454  32.298  1.00  0.00     0.029 A 
ATOM     28  N   UNL A   1      40.353  31.985  31.814  1.00  0.00    -0.354 N 
ATOM     29  N   UNL A   1      42.919  30.640  32.256  1.00  0.00    -0.248 NA
ATOM     30  C   UNL A   1      45.097  30.637  33.105  1.00  0.00     0.031 C 
ATOM     31  C   UNL A   1      39.899  33.780  33.037  1.00  0.00     0.029 A 
ATOM     32  C   UNL A   1      40.899  32.874  32.723  1.00  0.00     0.049 A 
ATOM     33  H   UNL A   1      40.810  31.191  31.454  1.00  0.00     0.167 HD
ATOM     34  C   UNL A   1      43.127  31.813  32.968  1.00  0.00     0.074 A 
ATOM     35  C   UNL A   1      44.483  31.754  33.478  1.00  0.00     0.031 C 
ATOM     36  C   UNL A   1      42.267  32.840  33.179  1.00  0.00     0.037 A 
BRANCH  23  37
ATOM     37  C   UNL A   1      37.005  32.509  30.051  1.00  0.00     0.058 A 
ATOM     38  C   UNL A   1      35.842  32.236  30.790  1.00  0.00     0.135 A 
ATOM     39  C   UNL A   1      36.961  33.559  29.124  1.00  0.00     0.135 A 
ATOM     40  F   UNL A   1      35.826  31.230  31.679  1.00  0.00    -0.206 F 
ATOM     41  C   UNL A   1      34.690  33.008  30.649  1.00  0.00     0.059 A 
ATOM     42  C   UNL A   1      35.816  34.334  28.958  1.00  0.00     0.059 A 
ATOM     43  F   UNL A   1      38.045  33.856  28.392  1.00  0.00    -0.206 F 
ATOM     44  C   UNL A   1      34.688  34.060  29.733  1.00  0.00     0.060 A 
BRANCH  44  45
ATOM     45  S   UNL A   1      33.246  35.146  29.584  1.00  0.00     0.124 S 
ATOM     46  O   UNL A   1      32.493  34.495  28.518  1.00  0.00    -0.237 OA
ATOM     47  O   UNL A   1      32.646  35.091  30.915  1.00  0.00    -0.237 OA
ATOM     48  O   UNL A   1      33.853  36.425  29.234  1.00  0.00    -0.744 OA
ENDBRANCH  44  45
ENDBRANCH  23  37
BRANCH  24  49
ATOM     49  C   UNL A   1      45.649  27.931  32.003  1.00  0.00     0.058 A 
ATOM     50  C   UNL A   1      46.805  28.202  31.262  1.00  0.00     0.135 A 
ATOM     51  C   UNL A   1      45.762  27.088  33.122  1.00  0.00     0.135 A 
ATOM     52  F   UNL A   1      46.742  28.996  30.183  1.00  0.00    -0.206 F 
ATOM     53  C   UNL A   1      48.042  27.697  31.650  1.00  0.00     0.059 A 
ATOM     54  C   UNL A   1      46.988  26.592  33.541  1.00  0.00     0.059 A 
ATOM     55  F   UNL A   1      44.679  26.815  33.869  1.00  0.00    -0.206 F 
ATOM     56  C   UNL A   1      48.126  26.913  32.804  1.00  0.00     0.060 A 
BRANCH  56  57
ATOM     57  S   UNL A   1      49.756  26.399  33.391  1.00  0.00     0.124 S 
ATOM     58  O   UNL A   1      50.257  27.634  33.983  1.00  0.00    -0.237 OA
ATOM     59  O   UNL A   1      49.421  25.329  34.325  1.00  0.00    -0.237 OA
ATOM     60  O   UNL A   1      50.429  25.965  32.170  1.00  0.00    -0.744 OA
ENDBRANCH  56  57
ENDBRANCH  24  49
BRANCH  36  61
ATOM     61  C   UNL A   1      42.780  34.027  33.939  1.00  0.00     0.058 A 
ATOM     62  C   UNL A   1      43.243  35.167  33.264  1.00  0.00     0.135 A 
ATOM     63  C   UNL A   1      42.737  34.062  35.341  1.00  0.00     0.135 A 
ATOM     64  F   UNL A   1      43.312  35.178  31.925  1.00  0.00    -0.206 F 
ATOM     65  C   UNL A   1      43.651  36.302  33.956  1.00  0.00     0.059 A 
ATOM     66  C   UNL A   1      43.119  35.195  36.052  1.00  0.00     0.059 A 
ATOM     67  F   UNL A   1      42.296  32.998  36.031  1.00  0.00    -0.206 F 
ATOM     68  C   UNL A   1      43.579  36.309  35.350  1.00  0.00     0.060 A 
BRANCH  68  69
ATOM     69  S   UNL A   1      44.063  37.808  36.230  1.00  0.00     0.124 S 
ATOM     70  O   UNL A   1      43.169  37.773  37.383  1.00  0.00    -0.237 OA
ATOM     71  O   UNL A   1      45.473  37.562  36.514  1.00  0.00    -0.237 OA
ATOM     72  O   UNL A   1      43.798  38.870  35.264  1.00  0.00    -0.744 OA
ENDBRANCH  68  69
ENDBRANCH  36  61
ENDBRANCH  10  11
ENDBRANCH   3   5
ENDBRANCH   2   3
ENDBRANCH   1   2
BRANCH   1  73
ATOM     73  C   UNL A   1      41.401  21.481  27.100  1.00  0.00     0.274 C 
BRANCH  73  74
ATOM     74  O   UNL A   1      42.505  20.946  26.352  1.00  0.00    -0.461 OA
BRANCH  74  75
ATOM     75  C   UNL A   1      43.250  21.845  25.635  1.00  0.00     0.329 C 
ATOM     76  O   UNL A   1      42.788  22.571  24.763  1.00  0.00    -0.250 OA
BRANCH  75  77
ATOM     77  C   UNL A   1      44.747  21.812  26.029  1.00  0.00     0.198 C 
ATOM     78  C   UNL A   1      45.617  21.150  24.959  1.00  0.00     0.071 C 
ATOM     79  N   UNL A   1      45.382  23.120  26.229  1.00  0.00    -0.322 N 
ATOM     80  C   UNL A   1      46.259  22.329  24.229  1.00  0.00     0.136 C 
ATOM     81  C   UNL A   1      46.544  23.297  25.354  1.00  0.00     0.152 C 
BRANCH  79  82
ATOM     82  C   UNL A   1      45.076  23.904  27.317  1.00  0.00     0.256 C 
ATOM     83  O   UNL A   1      44.800  23.475  28.421  1.00  0.00    -0.269 OA
BRANCH  82  84
ATOM     84  C   UNL A   1      45.047  25.355  27.078  1.00  0.00     0.061 A 
ATOM     85  C   UNL A   1      44.082  25.845  26.190  1.00  0.00     0.057 A 
ATOM     86  C   UNL A   1      45.991  26.205  27.666  1.00  0.00     0.056 A 
ATOM     87  C   UNL A   1      44.064  27.200  25.903  1.00  0.00     0.159 A 
ATOM     88  C   UNL A   1      45.953  27.566  27.377  1.00  0.00     0.063 A 
ATOM     89  Cl  UNL A   1      47.235  25.618  28.707  1.00  0.00    -0.083 Cl
ATOM     90  F   UNL A   1      43.161  27.663  25.031  1.00  0.00    -0.204 F 
ATOM     91  C   UNL A   1      44.981  28.053  26.507  1.00  0.00     0.160 A 
ATOM     92  F   UNL A   1      44.943  29.364  26.264  1.00  0.00    -0.204 F 
ENDBRANCH  82  84
ENDBRANCH  79  82
BRANCH  80  93
ATOM     93  O   UNL A   1      45.337  22.939  23.331  1.00  0.00    -0.391 OA
ATOM     94  H   UNL A   1      45.510  23.892  23.288  1.00  0.00     0.211 HD
ENDBRANCH  80  93
ENDBRANCH  75  77
ENDBRANCH  74  75
ENDBRANCH  73  74
ENDBRANCH   1  73
TORSDOF 17
ENDMDL
