MODEL 1
REMARK VINA RESULT:     -12.9      0.000      0.000
REMARK SMILES COc1ccc2c(c1)c(CC(=O)OCCOC(=O)c1ccc(-c3c4nc(c(-c5c(F)cc(S(=O)(=O)[O-])cc5F)c5ccc([nH]5)c(-c5c(F)cc(S(=O)(=O)[O-])cc5F)c5nc(c(-c6c(F)cc(S(=O)(=O)[O-])cc6F)c6ccc3[nH]6)C=C5)C=C4)cc1)c(C(F)(F)F)n2C(=O)c1ccc(Cl)cc1
REMARK SMILES IDX 14 1 13 2 11 3 12 4 10 5 9 6 3 7 4 8 8 9 5 10 7 11 6 12
REMARK SMILES IDX 90 13 85 14 2 15 1 16 91 17 92 18 93 19 94 20 99 21 95 22
REMARK SMILES IDX 98 23 96 24 97 25 86 26 87 27 88 28 89 29 15 30 16 31 17 32
REMARK SMILES IDX 18 33 19 34 20 35 84 36 21 37 83 38 22 39 23 40 24 41 77 42
REMARK SMILES IDX 25 43 82 44 76 45 78 46 26 47 81 48 75 49 74 50 27 52 61 53
REMARK SMILES IDX 40 54 60 55 41 56 44 57 59 58 79 59 42 60 43 61 58 63 80 64
REMARK SMILES IDX 45 65 28 66 29 67 38 68 30 69 31 70 37 71 39 72 32 73 33 74
REMARK SMILES IDX 34 75 35 76 36 77 62 78 63 79 72 80 64 81 65 82 71 83 73 84
REMARK SMILES IDX 66 85 67 86 68 87 69 88 70 89 46 90 47 91 56 92 48 93 49 94
REMARK SMILES IDX 55 95 57 96 50 97 51 98 52 99 53 100 54 101
REMARK H PARENT 78 51 44 62
REMARK Flexibility Score: inf
ROOT
ATOM      1  C   UNL A   1      36.543  22.399  25.519  1.00  0.00     0.274 C 
ENDROOT
BRANCH   1   2
ATOM      2  O   UNL A   1      36.100  23.511  24.707  1.00  0.00    -0.462 OA
BRANCH   2   3
ATOM      3  C   UNL A   1      34.955  24.105  25.123  1.00  0.00     0.310 C 
ATOM      4  O   UNL A   1      34.377  23.826  26.170  1.00  0.00    -0.252 OA
BRANCH   3   5
ATOM      5  C   UNL A   1      34.379  25.118  24.174  1.00  0.00     0.161 C 
BRANCH   5   6
ATOM      6  C   UNL A   1      33.216  25.992  24.571  1.00  0.00     0.002 A 
ATOM      7  C   UNL A   1      33.749  28.824  27.142  1.00  0.00     0.119 A 
ATOM      8  C   UNL A   1      32.412  29.124  27.306  1.00  0.00     0.048 A 
ATOM      9  C   UNL A   1      34.118  27.845  26.206  1.00  0.00     0.057 A 
ATOM     10  C   UNL A   1      31.440  28.445  26.567  1.00  0.00     0.031 A 
ATOM     11  C   UNL A   1      33.161  27.109  25.468  1.00  0.00     0.008 A 
ATOM     12  C   UNL A   1      31.814  27.448  25.638  1.00  0.00     0.057 A 
ATOM     13  N   UNL A   1      31.071  26.685  24.722  1.00  0.00    -0.271 N 
ATOM     14  C   UNL A   1      31.894  25.663  24.273  1.00  0.00     0.135 A 
BRANCH   7  15
ATOM     15  O   UNL A   1      34.777  29.425  27.815  1.00  0.00    -0.497 OA
ATOM     16  C   UNL A   1      34.896  30.838  27.688  1.00  0.00     0.278 C 
ENDBRANCH   7  15
BRANCH  13  17
ATOM     17  C   UNL A   1      29.742  26.938  24.298  1.00  0.00     0.262 C 
ATOM     18  O   UNL A   1      28.851  26.171  24.649  1.00  0.00    -0.268 OA
BRANCH  17  19
ATOM     19  C   UNL A   1      29.355  28.005  23.367  1.00  0.00     0.040 A 
ATOM     20  C   UNL A   1      30.354  28.668  22.645  1.00  0.00     0.015 A 
ATOM     21  C   UNL A   1      28.013  28.379  23.266  1.00  0.00     0.015 A 
ATOM     22  C   UNL A   1      30.008  29.759  21.851  1.00  0.00     0.021 A 
ATOM     23  C   UNL A   1      27.673  29.467  22.461  1.00  0.00     0.021 A 
ATOM     24  C   UNL A   1      28.671  30.159  21.767  1.00  0.00     0.041 A 
ATOM     25  Cl  UNL A   1      28.256  31.531  20.817  1.00  0.00    -0.084 Cl
ENDBRANCH  17  19
ENDBRANCH  13  17
BRANCH  14  26
ATOM     26  C   UNL A   1      31.403  24.433  23.576  1.00  0.00     0.432 C 
ATOM     27  F   UNL A   1      30.995  23.497  24.466  1.00  0.00    -0.165 F 
ATOM     28  F   UNL A   1      30.315  24.738  22.814  1.00  0.00    -0.165 F 
ATOM     29  F   UNL A   1      32.277  23.866  22.716  1.00  0.00    -0.165 F 
ENDBRANCH  14  26
ENDBRANCH   5   6
ENDBRANCH   3   5
ENDBRANCH   2   3
ENDBRANCH   1   2
BRANCH   1  30
ATOM     30  C   UNL A   1      38.035  22.134  25.301  1.00  0.00     0.275 C 
BRANCH  30  31
ATOM     31  O   UNL A   1      38.672  22.012  26.579  1.00  0.00    -0.458 OA
BRANCH  31  32
ATOM     32  C   UNL A   1      39.992  22.304  26.654  1.00  0.00     0.338 C 
ATOM     33  O   UNL A   1      40.897  21.816  25.998  1.00  0.00    -0.246 OA
BRANCH  32  34
ATOM     34  C   UNL A   1      40.071  23.556  27.430  1.00  0.00     0.060 A 
ATOM     35  C   UNL A   1      39.044  24.494  27.333  1.00  0.00     0.016 A 
ATOM     36  C   UNL A   1      41.287  23.885  28.040  1.00  0.00     0.016 A 
ATOM     37  C   UNL A   1      39.293  25.803  27.720  1.00  0.00     0.010 A 
ATOM     38  C   UNL A   1      41.547  25.204  28.386  1.00  0.00     0.010 A 
ATOM     39  C   UNL A   1      40.567  26.170  28.177  1.00  0.00    -0.014 A 
BRANCH  39  40
ATOM     40  C   UNL A   1      40.725  27.497  28.746  1.00  0.00     0.031 A 
ATOM     41  C   UNL A   1      41.853  28.218  28.120  1.00  0.00     0.074 A 
ATOM     42  C   UNL A   1      40.005  28.117  29.697  1.00  0.00     0.049 A 
ATOM     43  N   UNL A   1      43.054  28.292  28.580  1.00  0.00    -0.248 NA
ATOM     44  C   UNL A   1      41.683  28.746  26.762  1.00  0.00     0.031 C 
ATOM     45  C   UNL A   1      38.708  27.773  30.268  1.00  0.00     0.029 A 
ATOM     46  N   UNL A   1      40.328  29.285  30.328  1.00  0.00    -0.354 N 
ATOM     47  C   UNL A   1      43.761  29.049  27.662  1.00  0.00     0.074 A 
ATOM     48  C   UNL A   1      42.929  29.137  26.489  1.00  0.00     0.031 C 
ATOM     49  C   UNL A   1      38.275  28.807  31.034  1.00  0.00     0.029 A 
ATOM     50  C   UNL A   1      39.323  29.816  31.122  1.00  0.00     0.049 A 
ATOM     51  H   UNL A   1      41.207  29.715  30.228  1.00  0.00     0.167 HD
ATOM     52  C   UNL A   1      44.886  29.718  28.028  1.00  0.00     0.037 A 
ATOM     53  C   UNL A   1      39.363  31.013  31.767  1.00  0.00     0.037 A 
ATOM     54  C   UNL A   1      45.385  29.254  29.302  1.00  0.00     0.049 A 
ATOM     55  C   UNL A   1      40.802  31.338  31.991  1.00  0.00     0.074 A 
ATOM     56  C   UNL A   1      45.759  28.017  29.796  1.00  0.00     0.029 A 
ATOM     57  N   UNL A   1      45.180  30.047  30.407  1.00  0.00    -0.354 N 
ATOM     58  N   UNL A   1      41.583  30.683  32.807  1.00  0.00    -0.248 NA
ATOM     59  C   UNL A   1      41.490  32.151  30.998  1.00  0.00     0.031 C 
ATOM     60  C   UNL A   1      45.281  27.993  31.137  1.00  0.00     0.029 A 
ATOM     61  C   UNL A   1      44.695  29.233  31.400  1.00  0.00     0.049 A 
ATOM     62  H   UNL A   1      45.350  31.015  30.474  1.00  0.00     0.167 HD
ATOM     63  C   UNL A   1      42.817  30.653  32.174  1.00  0.00     0.074 A 
ATOM     64  C   UNL A   1      42.725  31.659  31.119  1.00  0.00     0.031 C 
ATOM     65  C   UNL A   1      43.707  29.637  32.380  1.00  0.00     0.037 A 
BRANCH  52  66
ATOM     66  C   UNL A   1      45.332  31.010  27.402  1.00  0.00     0.058 A 
ATOM     67  C   UNL A   1      46.635  31.102  26.876  1.00  0.00     0.135 A 
ATOM     68  C   UNL A   1      44.637  32.233  27.536  1.00  0.00     0.135 A 
ATOM     69  F   UNL A   1      47.388  30.002  26.713  1.00  0.00    -0.206 F 
ATOM     70  C   UNL A   1      47.233  32.326  26.582  1.00  0.00     0.059 A 
ATOM     71  C   UNL A   1      45.191  33.457  27.191  1.00  0.00     0.059 A 
ATOM     72  F   UNL A   1      43.428  32.313  28.106  1.00  0.00    -0.206 F 
ATOM     73  C   UNL A   1      46.505  33.499  26.761  1.00  0.00     0.060 A 
BRANCH  73  74
ATOM     74  S   UNL A   1      47.313  35.085  26.504  1.00  0.00     0.124 S 
ATOM     75  O   UNL A   1      48.275  35.098  27.602  1.00  0.00    -0.237 OA
ATOM     76  O   UNL A   1      47.870  34.928  25.165  1.00  0.00    -0.237 OA
ATOM     77  O   UNL A   1      46.216  36.042  26.612  1.00  0.00    -0.744 OA
ENDBRANCH  73  74
ENDBRANCH  52  66
BRANCH  53  78
ATOM     78  C   UNL A   1      38.275  32.010  31.967  1.00  0.00     0.058 A 
ATOM     79  C   UNL A   1      37.879  32.878  30.929  1.00  0.00     0.135 A 
ATOM     80  C   UNL A   1      37.405  31.947  33.075  1.00  0.00     0.135 A 
ATOM     81  F   UNL A   1      38.627  32.996  29.821  1.00  0.00    -0.206 F 
ATOM     82  C   UNL A   1      36.670  33.585  30.959  1.00  0.00     0.059 A 
ATOM     83  C   UNL A   1      36.204  32.655  33.135  1.00  0.00     0.059 A 
ATOM     84  F   UNL A   1      37.649  31.121  34.102  1.00  0.00    -0.206 F 
ATOM     85  C   UNL A   1      35.826  33.448  32.059  1.00  0.00     0.060 A 
BRANCH  85  86
ATOM     86  S   UNL A   1      34.185  34.207  32.025  1.00  0.00     0.124 S 
ATOM     87  O   UNL A   1      33.766  33.966  30.648  1.00  0.00    -0.237 OA
ATOM     88  O   UNL A   1      33.474  33.451  33.050  1.00  0.00    -0.237 OA
ATOM     89  O   UNL A   1      34.449  35.605  32.359  1.00  0.00    -0.744 OA
ENDBRANCH  85  86
ENDBRANCH  53  78
BRANCH  65  90
ATOM     90  C   UNL A   1      43.504  28.700  33.544  1.00  0.00     0.058 A 
ATOM     91  C   UNL A   1      44.022  28.912  34.834  1.00  0.00     0.135 A 
ATOM     92  C   UNL A   1      42.576  27.655  33.394  1.00  0.00     0.135 A 
ATOM     93  F   UNL A   1      44.841  29.942  35.092  1.00  0.00    -0.206 F 
ATOM     94  C   UNL A   1      43.642  28.116  35.918  1.00  0.00     0.059 A 
ATOM     95  C   UNL A   1      42.157  26.872  34.466  1.00  0.00     0.059 A 
ATOM     96  F   UNL A   1      42.006  27.430  32.197  1.00  0.00    -0.206 F 
ATOM     97  C   UNL A   1      42.696  27.108  35.728  1.00  0.00     0.060 A 
BRANCH  97  98
ATOM     98  S   UNL A   1      42.100  26.180  37.159  1.00  0.00     0.124 S 
ATOM     99  O   UNL A   1      42.056  24.815  36.646  1.00  0.00    -0.237 OA
ATOM    100  O   UNL A   1      43.127  26.448  38.161  1.00  0.00    -0.237 OA
ATOM    101  O   UNL A   1      40.797  26.782  37.440  1.00  0.00    -0.744 OA
ENDBRANCH  97  98
ENDBRANCH  65  90
ENDBRANCH  39  40
ENDBRANCH  32  34
ENDBRANCH  31  32
ENDBRANCH  30  31
ENDBRANCH   1  30
TORSDOF 19
ENDMDL
MODEL 2
REMARK VINA RESULT:     -12.7      2.249      4.147
REMARK SMILES COc1ccc2c(c1)c(CC(=O)OCCOC(=O)c1ccc(-c3c4nc(c(-c5c(F)cc(S(=O)(=O)[O-])cc5F)c5ccc([nH]5)c(-c5c(F)cc(S(=O)(=O)[O-])cc5F)c5nc(c(-c6c(F)cc(S(=O)(=O)[O-])cc6F)c6ccc3[nH]6)C=C5)C=C4)cc1)c(C(F)(F)F)n2C(=O)c1ccc(Cl)cc1
REMARK SMILES IDX 14 1 13 2 11 3 12 4 10 5 9 6 3 7 4 8 8 9 5 10 7 11 6 12
REMARK SMILES IDX 90 13 85 14 2 15 1 16 91 17 92 18 93 19 94 20 99 21 95 22
REMARK SMILES IDX 98 23 96 24 97 25 86 26 87 27 88 28 89 29 15 30 16 31 17 32
REMARK SMILES IDX 18 33 19 34 20 35 84 36 21 37 83 38 22 39 23 40 24 41 77 42
REMARK SMILES IDX 25 43 82 44 76 45 78 46 26 47 81 48 75 49 74 50 27 52 61 53
REMARK SMILES IDX 40 54 60 55 41 56 44 57 59 58 79 59 42 60 43 61 58 63 80 64
REMARK SMILES IDX 45 65 28 66 29 67 38 68 30 69 31 70 37 71 39 72 32 73 33 74
REMARK SMILES IDX 34 75 35 76 36 77 62 78 63 79 72 80 64 81 65 82 71 83 73 84
REMARK SMILES IDX 66 85 67 86 68 87 69 88 70 89 46 90 47 91 56 92 48 93 49 94
REMARK SMILES IDX 55 95 57 96 50 97 51 98 52 99 53 100 54 101
REMARK H PARENT 78 51 44 62
REMARK Flexibility Score: inf
ROOT
ATOM      1  C   UNL A   1      40.089  20.447  26.515  1.00  0.00     0.274 C 
ENDROOT
BRANCH   1   2
ATOM      2  O   UNL A   1      39.099  21.296  25.890  1.00  0.00    -0.462 OA
BRANCH   2   3
ATOM      3  C   UNL A   1      38.188  20.648  25.123  1.00  0.00     0.310 C 
ATOM      4  O   UNL A   1      38.199  19.436  24.920  1.00  0.00    -0.252 OA
BRANCH   3   5
ATOM      5  C   UNL A   1      37.164  21.528  24.464  1.00  0.00     0.161 C 
BRANCH   5   6
ATOM      6  C   UNL A   1      35.707  21.459  24.850  1.00  0.00     0.002 A 
ATOM      7  C   UNL A   1      33.797  18.121  24.499  1.00  0.00     0.119 A 
ATOM      8  C   UNL A   1      32.543  18.646  24.740  1.00  0.00     0.048 A 
ATOM      9  C   UNL A   1      34.916  18.964  24.580  1.00  0.00     0.057 A 
ATOM     10  C   UNL A   1      32.391  20.002  25.037  1.00  0.00     0.031 A 
ATOM     11  C   UNL A   1      34.798  20.350  24.839  1.00  0.00     0.008 A 
ATOM     12  C   UNL A   1      33.518  20.853  25.102  1.00  0.00     0.057 A 
ATOM     13  N   UNL A   1      33.662  22.205  25.454  1.00  0.00    -0.271 N 
ATOM     14  C   UNL A   1      34.933  22.599  25.066  1.00  0.00     0.135 A 
BRANCH   7  15
ATOM     15  O   UNL A   1      34.056  16.812  24.198  1.00  0.00    -0.497 OA
ATOM     16  C   UNL A   1      33.889  15.862  25.245  1.00  0.00     0.278 C 
ENDBRANCH   7  15
BRANCH  13  17
ATOM     17  C   UNL A   1      32.704  23.006  26.124  1.00  0.00     0.262 C 
ATOM     18  O   UNL A   1      32.493  22.806  27.315  1.00  0.00    -0.268 OA
BRANCH  17  19
ATOM     19  C   UNL A   1      31.850  24.004  25.469  1.00  0.00     0.040 A 
ATOM     20  C   UNL A   1      31.543  25.185  26.153  1.00  0.00     0.015 A 
ATOM     21  C   UNL A   1      31.313  23.732  24.207  1.00  0.00     0.015 A 
ATOM     22  C   UNL A   1      30.638  26.082  25.588  1.00  0.00     0.021 A 
ATOM     23  C   UNL A   1      30.415  24.640  23.645  1.00  0.00     0.021 A 
ATOM     24  C   UNL A   1      30.072  25.803  24.341  1.00  0.00     0.041 A 
ATOM     25  Cl  UNL A   1      28.926  26.894  23.669  1.00  0.00    -0.084 Cl
ENDBRANCH  17  19
ENDBRANCH  13  17
BRANCH  14  26
ATOM     26  C   UNL A   1      35.366  24.025  24.926  1.00  0.00     0.432 C 
ATOM     27  F   UNL A   1      35.253  24.687  26.103  1.00  0.00    -0.165 F 
ATOM     28  F   UNL A   1      36.684  24.075  24.584  1.00  0.00    -0.165 F 
ATOM     29  F   UNL A   1      34.734  24.732  23.964  1.00  0.00    -0.165 F 
ENDBRANCH  14  26
ENDBRANCH   5   6
ENDBRANCH   3   5
ENDBRANCH   2   3
ENDBRANCH   1   2
BRANCH   1  30
ATOM     30  C   UNL A   1      41.501  20.875  26.105  1.00  0.00     0.275 C 
BRANCH  30  31
ATOM     31  O   UNL A   1      41.704  22.235  26.510  1.00  0.00    -0.458 OA
BRANCH  31  32
ATOM     32  C   UNL A   1      42.557  22.989  25.776  1.00  0.00     0.338 C 
ATOM     33  O   UNL A   1      43.060  22.704  24.702  1.00  0.00    -0.246 OA
BRANCH  32  34
ATOM     34  C   UNL A   1      42.482  24.342  26.358  1.00  0.00     0.060 A 
ATOM     35  C   UNL A   1      43.058  24.591  27.603  1.00  0.00     0.016 A 
ATOM     36  C   UNL A   1      41.617  25.272  25.769  1.00  0.00     0.016 A 
ATOM     37  C   UNL A   1      42.652  25.707  28.318  1.00  0.00     0.010 A 
ATOM     38  C   UNL A   1      41.180  26.365  26.506  1.00  0.00     0.010 A 
ATOM     39  C   UNL A   1      41.660  26.552  27.799  1.00  0.00    -0.014 A 
BRANCH  39  40
ATOM     40  C   UNL A   1      41.405  27.803  28.492  1.00  0.00     0.031 A 
ATOM     41  C   UNL A   1      42.401  28.832  28.125  1.00  0.00     0.074 A 
ATOM     42  C   UNL A   1      40.426  28.125  29.355  1.00  0.00     0.049 A 
ATOM     43  N   UNL A   1      43.468  29.122  28.784  1.00  0.00    -0.248 NA
ATOM     44  C   UNL A   1      42.305  29.464  26.805  1.00  0.00     0.031 C 
ATOM     45  C   UNL A   1      39.184  27.429  29.670  1.00  0.00     0.029 A 
ATOM     46  N   UNL A   1      40.359  29.253  30.123  1.00  0.00    -0.354 N 
ATOM     47  C   UNL A   1      44.093  30.125  28.063  1.00  0.00     0.074 A 
ATOM     48  C   UNL A   1      43.444  30.158  26.776  1.00  0.00     0.031 C 
ATOM     49  C   UNL A   1      38.406  28.239  30.433  1.00  0.00     0.029 A 
ATOM     50  C   UNL A   1      39.151  29.443  30.777  1.00  0.00     0.049 A 
ATOM     51  H   UNL A   1      41.112  29.881  30.208  1.00  0.00     0.167 HD
ATOM     52  C   UNL A   1      44.956  30.984  28.665  1.00  0.00     0.037 A 
ATOM     53  C   UNL A   1      38.805  30.532  31.514  1.00  0.00     0.037 A 
ATOM     54  C   UNL A   1      45.365  30.500  29.963  1.00  0.00     0.049 A 
ATOM     55  C   UNL A   1      40.073  31.149  32.002  1.00  0.00     0.074 A 
ATOM     56  C   UNL A   1      45.954  29.331  30.411  1.00  0.00     0.029 A 
ATOM     57  N   UNL A   1      44.815  31.088  31.078  1.00  0.00    -0.354 N 
ATOM     58  N   UNL A   1      40.865  30.597  32.882  1.00  0.00    -0.248 NA
ATOM     59  C   UNL A   1      40.677  32.209  31.207  1.00  0.00     0.031 C 
ATOM     60  C   UNL A   1      45.308  29.040  31.647  1.00  0.00     0.029 A 
ATOM     61  C   UNL A   1      44.406  30.073  31.907  1.00  0.00     0.049 A 
ATOM     62  H   UNL A   1      44.732  32.054  31.250  1.00  0.00     0.167 HD
ATOM     63  C   UNL A   1      42.146  30.926  32.466  1.00  0.00     0.074 A 
ATOM     64  C   UNL A   1      41.964  32.001  31.494  1.00  0.00     0.031 C 
ATOM     65  C   UNL A   1      43.218  30.122  32.735  1.00  0.00     0.037 A 
BRANCH  52  66
ATOM     66  C   UNL A   1      45.159  32.409  28.229  1.00  0.00     0.058 A 
ATOM     67  C   UNL A   1      46.455  32.844  27.892  1.00  0.00     0.135 A 
ATOM     68  C   UNL A   1      44.191  33.427  28.384  1.00  0.00     0.135 A 
ATOM     69  F   UNL A   1      47.453  31.961  27.727  1.00  0.00    -0.206 F 
ATOM     70  C   UNL A   1      46.784  34.195  27.797  1.00  0.00     0.059 A 
ATOM     71  C   UNL A   1      44.483  34.775  28.233  1.00  0.00     0.059 A 
ATOM     72  F   UNL A   1      42.941  33.174  28.793  1.00  0.00    -0.206 F 
ATOM     73  C   UNL A   1      45.791  35.152  27.988  1.00  0.00     0.060 A 
BRANCH  73  74
ATOM     74  S   UNL A   1      46.235  36.895  27.993  1.00  0.00     0.124 S 
ATOM     75  O   UNL A   1      45.958  37.258  29.378  1.00  0.00    -0.237 OA
ATOM     76  O   UNL A   1      47.643  36.848  27.611  1.00  0.00    -0.237 OA
ATOM     77  O   UNL A   1      45.340  37.472  26.995  1.00  0.00    -0.744 OA
ENDBRANCH  73  74
ENDBRANCH  52  66
BRANCH  53  78
ATOM     78  C   UNL A   1      37.489  31.224  31.607  1.00  0.00     0.058 A 
ATOM     79  C   UNL A   1      36.870  31.454  32.853  1.00  0.00     0.135 A 
ATOM     80  C   UNL A   1      36.941  31.926  30.514  1.00  0.00     0.135 A 
ATOM     81  F   UNL A   1      37.328  30.848  33.960  1.00  0.00    -0.206 F 
ATOM     82  C   UNL A   1      35.822  32.369  33.015  1.00  0.00     0.059 A 
ATOM     83  C   UNL A   1      35.887  32.830  30.649  1.00  0.00     0.059 A 
ATOM     84  F   UNL A   1      37.475  31.828  29.289  1.00  0.00    -0.206 F 
ATOM     85  C   UNL A   1      35.352  33.072  31.908  1.00  0.00     0.060 A 
BRANCH  85  86
ATOM     86  S   UNL A   1      34.132  34.387  32.137  1.00  0.00     0.124 S 
ATOM     87  O   UNL A   1      33.227  33.795  33.118  1.00  0.00    -0.237 OA
ATOM     88  O   UNL A   1      34.955  35.492  32.615  1.00  0.00    -0.237 OA
ATOM     89  O   UNL A   1      33.569  34.566  30.801  1.00  0.00    -0.744 OA
ENDBRANCH  85  86
ENDBRANCH  53  78
BRANCH  65  90
ATOM     90  C   UNL A   1      43.085  29.033  33.770  1.00  0.00     0.058 A 
ATOM     91  C   UNL A   1      43.329  29.207  35.143  1.00  0.00     0.135 A 
ATOM     92  C   UNL A   1      42.487  27.823  33.377  1.00  0.00     0.135 A 
ATOM     93  F   UNL A   1      43.809  30.365  35.621  1.00  0.00    -0.206 F 
ATOM     94  C   UNL A   1      43.002  28.221  36.079  1.00  0.00     0.059 A 
ATOM     95  C   UNL A   1      42.122  26.841  34.295  1.00  0.00     0.059 A 
ATOM     96  F   UNL A   1      42.182  27.612  32.085  1.00  0.00    -0.206 F 
ATOM     97  C   UNL A   1      42.383  27.047  35.647  1.00  0.00     0.060 A 
BRANCH  97  98
ATOM     98  S   UNL A   1      41.832  25.841  36.874  1.00  0.00     0.124 S 
ATOM     99  O   UNL A   1      41.754  24.614  36.088  1.00  0.00    -0.237 OA
ATOM    100  O   UNL A   1      42.899  25.891  37.869  1.00  0.00    -0.237 OA
ATOM    101  O   UNL A   1      40.547  26.374  37.326  1.00  0.00    -0.744 OA
ENDBRANCH  97  98
ENDBRANCH  65  90
ENDBRANCH  39  40
ENDBRANCH  32  34
ENDBRANCH  31  32
ENDBRANCH  30  31
ENDBRANCH   1  30
TORSDOF 19
ENDMDL
MODEL 3
REMARK VINA RESULT:     -12.4      2.580      4.654
REMARK SMILES COc1ccc2c(c1)c(CC(=O)OCCOC(=O)c1ccc(-c3c4nc(c(-c5c(F)cc(S(=O)(=O)[O-])cc5F)c5ccc([nH]5)c(-c5c(F)cc(S(=O)(=O)[O-])cc5F)c5nc(c(-c6c(F)cc(S(=O)(=O)[O-])cc6F)c6ccc3[nH]6)C=C5)C=C4)cc1)c(C(F)(F)F)n2C(=O)c1ccc(Cl)cc1
REMARK SMILES IDX 14 1 13 2 11 3 12 4 10 5 9 6 3 7 4 8 8 9 5 10 7 11 6 12
REMARK SMILES IDX 90 13 85 14 2 15 1 16 91 17 92 18 93 19 94 20 99 21 95 22
REMARK SMILES IDX 98 23 96 24 97 25 86 26 87 27 88 28 89 29 15 30 16 31 17 32
REMARK SMILES IDX 18 33 19 34 20 35 84 36 21 37 83 38 22 39 23 40 24 41 77 42
REMARK SMILES IDX 25 43 82 44 76 45 78 46 26 47 81 48 75 49 74 50 27 52 61 53
REMARK SMILES IDX 40 54 60 55 41 56 44 57 59 58 79 59 42 60 43 61 58 63 80 64
REMARK SMILES IDX 45 65 28 66 29 67 38 68 30 69 31 70 37 71 39 72 32 73 33 74
REMARK SMILES IDX 34 75 35 76 36 77 62 78 63 79 72 80 64 81 65 82 71 83 73 84
REMARK SMILES IDX 66 85 67 86 68 87 69 88 70 89 46 90 47 91 56 92 48 93 49 94
REMARK SMILES IDX 55 95 57 96 50 97 51 98 52 99 53 100 54 101
REMARK H PARENT 78 51 44 62
REMARK Flexibility Score: inf
ROOT
ATOM      1  C   UNL A   1      40.618  20.586  26.678  1.00  0.00     0.274 C 
ENDROOT
BRANCH   1   2
ATOM      2  O   UNL A   1      39.551  20.419  25.717  1.00  0.00    -0.462 OA
BRANCH   2   3
ATOM      3  C   UNL A   1      38.671  21.448  25.652  1.00  0.00     0.310 C 
ATOM      4  O   UNL A   1      38.692  22.419  26.404  1.00  0.00    -0.252 OA
BRANCH   3   5
ATOM      5  C   UNL A   1      37.596  21.306  24.611  1.00  0.00     0.161 C 
BRANCH   5   6
ATOM      6  C   UNL A   1      36.136  21.289  24.990  1.00  0.00     0.002 A 
ATOM      7  C   UNL A   1      34.093  18.040  24.571  1.00  0.00     0.119 A 
ATOM      8  C   UNL A   1      32.861  18.610  24.817  1.00  0.00     0.048 A 
ATOM      9  C   UNL A   1      35.245  18.834  24.672  1.00  0.00     0.057 A 
ATOM     10  C   UNL A   1      32.762  19.966  25.138  1.00  0.00     0.031 A 
ATOM     11  C   UNL A   1      35.183  20.219  24.956  1.00  0.00     0.008 A 
ATOM     12  C   UNL A   1      33.923  20.768  25.223  1.00  0.00     0.057 A 
ATOM     13  N   UNL A   1      34.120  22.107  25.600  1.00  0.00    -0.271 N 
ATOM     14  C   UNL A   1      35.408  22.456  25.224  1.00  0.00     0.135 A 
BRANCH   7  15
ATOM     15  O   UNL A   1      34.300  16.727  24.246  1.00  0.00    -0.497 OA
ATOM     16  C   UNL A   1      33.978  15.756  25.238  1.00  0.00     0.278 C 
ENDBRANCH   7  15
BRANCH  13  17
ATOM     17  C   UNL A   1      33.193  22.934  26.281  1.00  0.00     0.262 C 
ATOM     18  O   UNL A   1      33.090  22.832  27.499  1.00  0.00    -0.268 OA
BRANCH  17  19
ATOM     19  C   UNL A   1      32.250  23.845  25.622  1.00  0.00     0.040 A 
ATOM     20  C   UNL A   1      31.894  25.034  26.267  1.00  0.00     0.015 A 
ATOM     21  C   UNL A   1      31.681  23.482  24.398  1.00  0.00     0.015 A 
ATOM     22  C   UNL A   1      30.911  25.846  25.704  1.00  0.00     0.021 A 
ATOM     23  C   UNL A   1      30.703  24.305  23.836  1.00  0.00     0.021 A 
ATOM     24  C   UNL A   1      30.315  25.474  24.496  1.00  0.00     0.041 A 
ATOM     25  Cl  UNL A   1      29.074  26.459  23.827  1.00  0.00    -0.084 Cl
ENDBRANCH  17  19
ENDBRANCH  13  17
BRANCH  14  26
ATOM     26  C   UNL A   1      35.899  23.865  25.113  1.00  0.00     0.432 C 
ATOM     27  F   UNL A   1      36.316  24.334  26.313  1.00  0.00    -0.165 F 
ATOM     28  F   UNL A   1      36.982  23.912  24.286  1.00  0.00    -0.165 F 
ATOM     29  F   UNL A   1      35.023  24.745  24.581  1.00  0.00    -0.165 F 
ENDBRANCH  14  26
ENDBRANCH   5   6
ENDBRANCH   3   5
ENDBRANCH   2   3
ENDBRANCH   1   2
BRANCH   1  30
ATOM     30  C   UNL A   1      41.836  19.746  26.281  1.00  0.00     0.275 C 
BRANCH  30  31
ATOM     31  O   UNL A   1      42.544  20.427  25.237  1.00  0.00    -0.458 OA
BRANCH  31  32
ATOM     32  C   UNL A   1      43.813  20.824  25.493  1.00  0.00     0.338 C 
ATOM     33  O   UNL A   1      44.844  20.257  25.176  1.00  0.00    -0.246 OA
BRANCH  32  34
ATOM     34  C   UNL A   1      43.703  22.232  25.921  1.00  0.00     0.060 A 
ATOM     35  C   UNL A   1      44.172  22.609  27.179  1.00  0.00     0.016 A 
ATOM     36  C   UNL A   1      42.902  23.096  25.166  1.00  0.00     0.016 A 
ATOM     37  C   UNL A   1      43.718  23.795  27.736  1.00  0.00     0.010 A 
ATOM     38  C   UNL A   1      42.415  24.261  25.744  1.00  0.00     0.010 A 
ATOM     39  C   UNL A   1      42.784  24.582  27.047  1.00  0.00    -0.014 A 
BRANCH  39  40
ATOM     40  C   UNL A   1      42.484  25.900  27.580  1.00  0.00     0.031 A 
ATOM     41  C   UNL A   1      43.499  26.890  27.165  1.00  0.00     0.074 A 
ATOM     42  C   UNL A   1      41.451  26.306  28.339  1.00  0.00     0.049 A 
ATOM     43  N   UNL A   1      44.523  27.260  27.855  1.00  0.00    -0.248 NA
ATOM     44  C   UNL A   1      43.487  27.372  25.780  1.00  0.00     0.031 C 
ATOM     45  C   UNL A   1      40.192  25.639  28.649  1.00  0.00     0.029 A 
ATOM     46  N   UNL A   1      41.334  27.511  28.972  1.00  0.00    -0.354 N 
ATOM     47  C   UNL A   1      45.191  28.182  27.069  1.00  0.00     0.074 A 
ATOM     48  C   UNL A   1      44.625  28.069  25.748  1.00  0.00     0.031 C 
ATOM     49  C   UNL A   1      39.366  26.521  29.268  1.00  0.00     0.029 A 
ATOM     50  C   UNL A   1      40.087  27.762  29.523  1.00  0.00     0.049 A 
ATOM     51  H   UNL A   1      42.079  28.151  29.034  1.00  0.00     0.167 HD
ATOM     52  C   UNL A   1      46.013  29.110  27.626  1.00  0.00     0.037 A 
ATOM     53  C   UNL A   1      39.693  28.923  30.112  1.00  0.00     0.037 A 
ATOM     54  C   UNL A   1      46.338  28.774  28.993  1.00  0.00     0.049 A 
ATOM     55  C   UNL A   1      40.926  29.600  30.609  1.00  0.00     0.074 A 
ATOM     56  C   UNL A   1      46.899  27.666  29.604  1.00  0.00     0.029 A 
ATOM     57  N   UNL A   1      45.718  29.477  30.000  1.00  0.00    -0.354 N 
ATOM     58  N   UNL A   1      41.661  29.155  31.593  1.00  0.00    -0.248 NA
ATOM     59  C   UNL A   1      41.579  30.571  29.742  1.00  0.00     0.031 C 
ATOM     60  C   UNL A   1      46.176  27.508  30.821  1.00  0.00     0.029 A 
ATOM     61  C   UNL A   1      45.257  28.555  30.907  1.00  0.00     0.049 A 
ATOM     62  H   UNL A   1      45.623  30.455  30.058  1.00  0.00     0.167 HD
ATOM     63  C   UNL A   1      42.966  29.446  31.225  1.00  0.00     0.074 A 
ATOM     64  C   UNL A   1      42.845  30.406  30.131  1.00  0.00     0.031 C 
ATOM     65  C   UNL A   1      44.019  28.686  31.648  1.00  0.00     0.037 A 
BRANCH  52  66
ATOM     66  C   UNL A   1      46.241  30.480  27.050  1.00  0.00     0.058 A 
ATOM     67  C   UNL A   1      47.558  30.969  26.948  1.00  0.00     0.135 A 
ATOM     68  C   UNL A   1      45.215  31.430  26.844  1.00  0.00     0.135 A 
ATOM     69  F   UNL A   1      48.608  30.153  27.132  1.00  0.00    -0.206 F 
ATOM     70  C   UNL A   1      47.834  32.318  26.738  1.00  0.00     0.059 A 
ATOM     71  C   UNL A   1      45.470  32.767  26.573  1.00  0.00     0.059 A 
ATOM     72  F   UNL A   1      43.920  31.133  27.000  1.00  0.00    -0.206 F 
ATOM     73  C   UNL A   1      46.780  33.211  26.570  1.00  0.00     0.060 A 
BRANCH  73  74
ATOM     74  S   UNL A   1      47.128  34.970  26.428  1.00  0.00     0.124 S 
ATOM     75  O   UNL A   1      46.090  35.393  25.494  1.00  0.00    -0.237 OA
ATOM     76  O   UNL A   1      46.972  35.421  27.806  1.00  0.00    -0.237 OA
ATOM     77  O   UNL A   1      48.494  35.001  25.914  1.00  0.00    -0.744 OA
ENDBRANCH  73  74
ENDBRANCH  52  66
BRANCH  53  78
ATOM     78  C   UNL A   1      38.372  29.609  30.045  1.00  0.00     0.058 A 
ATOM     79  C   UNL A   1      37.645  29.912  31.215  1.00  0.00     0.135 A 
ATOM     80  C   UNL A   1      37.922  30.238  28.866  1.00  0.00     0.135 A 
ATOM     81  F   UNL A   1      38.004  29.380  32.393  1.00  0.00    -0.206 F 
ATOM     82  C   UNL A   1      36.586  30.829  31.226  1.00  0.00     0.059 A 
ATOM     83  C   UNL A   1      36.860  31.142  28.850  1.00  0.00     0.059 A 
ATOM     84  F   UNL A   1      38.563  30.068  27.702  1.00  0.00    -0.206 F 
ATOM     85  C   UNL A   1      36.215  31.458  30.039  1.00  0.00     0.060 A 
BRANCH  85  86
ATOM     86  S   UNL A   1      34.977  32.776  30.077  1.00  0.00     0.124 S 
ATOM     87  O   UNL A   1      35.802  33.973  29.953  1.00  0.00    -0.237 OA
ATOM     88  O   UNL A   1      34.145  32.451  28.924  1.00  0.00    -0.237 OA
ATOM     89  O   UNL A   1      34.330  32.598  31.376  1.00  0.00    -0.744 OA
ENDBRANCH  85  86
ENDBRANCH  53  78
BRANCH  65  90
ATOM     90  C   UNL A   1      43.822  27.715  32.787  1.00  0.00     0.058 A 
ATOM     91  C   UNL A   1      43.689  26.325  32.631  1.00  0.00     0.135 A 
ATOM     92  C   UNL A   1      43.982  28.198  34.097  1.00  0.00     0.135 A 
ATOM     93  F   UNL A   1      43.625  25.766  31.414  1.00  0.00    -0.206 F 
ATOM     94  C   UNL A   1      43.705  25.458  33.728  1.00  0.00     0.059 A 
ATOM     95  C   UNL A   1      44.036  27.351  35.201  1.00  0.00     0.059 A 
ATOM     96  F   UNL A   1      44.163  29.513  34.312  1.00  0.00    -0.206 F 
ATOM     97  C   UNL A   1      43.896  25.979  35.008  1.00  0.00     0.060 A 
BRANCH  97  98
ATOM     98  S   UNL A   1      44.062  24.843  36.404  1.00  0.00     0.124 S 
ATOM     99  O   UNL A   1      42.961  25.253  37.269  1.00  0.00    -0.237 OA
ATOM    100  O   UNL A   1      43.918  23.537  35.769  1.00  0.00    -0.237 OA
ATOM    101  O   UNL A   1      45.400  25.129  36.921  1.00  0.00    -0.744 OA
ENDBRANCH  97  98
ENDBRANCH  65  90
ENDBRANCH  39  40
ENDBRANCH  32  34
ENDBRANCH  31  32
ENDBRANCH  30  31
ENDBRANCH   1  30
TORSDOF 19
ENDMDL
