MODEL 1
REMARK VINA RESULT:     -13.6      0.000      0.000
REMARK SMILES O=C(OCCOC(=O)c1ccc(-c2c3nc(c(-c4c(F)cc(S(=O)(=O)[O-])cc4F)c4ccc([nH]4)c(-c4c(F)cc(S(=O)(=O)[O-])cc4F)c4nc(c(-c5c(F)cc(S(=O)(=O)[O-])cc5F)c5ccc2[nH]5)C=C4)C=C3)cc1)C1=Cc2cc(C(F)(F)F)ccc2O[C@@H]1C(F)(F)F
REMARK SMILES IDX 5 1 4 2 3 3 2 4 1 5 75 6 76 7 88 8 77 9 87 10 78 11 86 12
REMARK SMILES IDX 79 13 85 14 84 15 89 16 90 17 91 18 92 19 80 20 81 21 82 22
REMARK SMILES IDX 83 23 6 24 7 25 8 26 9 27 10 28 74 29 11 30 73 31 12 32
REMARK SMILES IDX 13 33 14 34 67 35 15 36 72 37 66 38 68 39 16 40 71 41 65 42
REMARK SMILES IDX 64 43 17 45 51 46 30 47 50 48 31 49 34 50 49 51 69 52 32 53
REMARK SMILES IDX 33 54 48 56 70 57 35 58 18 59 19 60 28 61 20 62 21 63 27 64
REMARK SMILES IDX 29 65 22 66 23 67 24 68 25 69 26 70 52 71 53 72 62 73 54 74
REMARK SMILES IDX 55 75 61 76 63 77 56 78 57 79 58 80 59 81 60 82 36 83 37 84
REMARK SMILES IDX 46 85 38 86 39 87 45 88 47 89 40 90 41 91 42 92 43 93 44 94
REMARK H PARENT 68 44 34 55
REMARK Flexibility Score: inf
ROOT
ATOM      1  C   UNL A   1      38.955  20.977  25.545  1.00  0.00     0.275 C 
ENDROOT
BRANCH   1   2
ATOM      2  C   UNL A   1      36.866  21.558  25.698  1.00  0.00     0.275 C 
BRANCH   2   3
ATOM      3  O   UNL A   1      36.273  22.974  25.496  1.00  0.00    -0.459 OA
BRANCH   3   4
ATOM      4  C   UNL A   1      35.913  23.205  24.228  1.00  0.00     0.338 C 
ATOM      5  O   UNL A   1      36.591  23.367  23.246  1.00  0.00    -0.246 OA
BRANCH   4   6
ATOM      6  C   UNL A   1      34.563  23.592  24.548  1.00  0.00     0.087 C 
ATOM      7  C   UNL A   1      34.458  24.664  25.490  1.00  0.00     0.027 C 
ATOM      8  C   UNL A   1      33.921  23.602  22.747  1.00  0.00     0.316 C 
ATOM      9  C   UNL A   1      33.956  26.287  25.045  1.00  0.00     0.018 A 
ATOM     10  O   UNL A   1      33.509  25.429  22.178  1.00  0.00    -0.475 OA
ATOM     11  C   UNL A   1      33.890  27.189  26.057  1.00  0.00     0.025 A 
ATOM     12  C   UNL A   1      33.634  26.783  23.424  1.00  0.00     0.128 A 
ATOM     13  C   UNL A   1      33.571  28.500  25.676  1.00  0.00     0.056 A 
ATOM     14  C   UNL A   1      33.343  28.079  23.107  1.00  0.00     0.048 A 
ATOM     15  C   UNL A   1      33.335  28.917  24.273  1.00  0.00     0.017 A 
BRANCH   8  16
ATOM     16  C   UNL A   1      33.071  22.279  23.290  1.00  0.00     0.430 C 
ATOM     17  F   UNL A   1      32.298  22.383  24.335  1.00  0.00    -0.167 F 
ATOM     18  F   UNL A   1      32.249  21.883  22.277  1.00  0.00    -0.167 F 
ATOM     19  F   UNL A   1      33.818  21.176  23.586  1.00  0.00    -0.167 F 
ENDBRANCH   8  16
BRANCH  13  20
ATOM     20  C   UNL A   1      33.413  29.456  26.852  1.00  0.00     0.416 C 
ATOM     21  F   UNL A   1      34.221  29.115  27.894  1.00  0.00    -0.166 F 
ATOM     22  F   UNL A   1      33.763  30.736  26.528  1.00  0.00    -0.166 F 
ATOM     23  F   UNL A   1      32.152  29.530  27.348  1.00  0.00    -0.166 F 
ENDBRANCH  13  20
ENDBRANCH   4   6
ENDBRANCH   3   4
ENDBRANCH   2   3
ENDBRANCH   1   2
BRANCH   1  24
ATOM     24  O   UNL A   1      40.245  21.821  26.435  1.00  0.00    -0.458 OA
BRANCH  24  25
ATOM     25  C   UNL A   1      41.272  22.750  26.206  1.00  0.00     0.338 C 
ATOM     26  O   UNL A   1      42.336  22.593  25.629  1.00  0.00    -0.246 OA
BRANCH  25  27
ATOM     27  C   UNL A   1      40.731  24.142  26.441  1.00  0.00     0.060 A 
ATOM     28  C   UNL A   1      39.669  24.307  27.374  1.00  0.00     0.016 A 
ATOM     29  C   UNL A   1      41.571  25.219  26.160  1.00  0.00     0.016 A 
ATOM     30  C   UNL A   1      39.651  25.447  28.222  1.00  0.00     0.010 A 
ATOM     31  C   UNL A   1      41.535  26.348  26.993  1.00  0.00     0.010 A 
ATOM     32  C   UNL A   1      40.655  26.429  28.097  1.00  0.00    -0.014 A 
BRANCH  32  33
ATOM     33  C   UNL A   1      40.746  27.638  28.980  1.00  0.00     0.031 A 
ATOM     34  C   UNL A   1      41.840  27.585  30.001  1.00  0.00     0.074 A 
ATOM     35  C   UNL A   1      39.857  28.663  29.011  1.00  0.00     0.049 A 
ATOM     36  N   UNL A   1      42.048  28.341  31.042  1.00  0.00    -0.248 NA
ATOM     37  C   UNL A   1      42.803  26.482  29.841  1.00  0.00     0.031 C 
ATOM     38  C   UNL A   1      38.733  28.865  28.097  1.00  0.00     0.029 A 
ATOM     39  N   UNL A   1      39.740  29.734  29.884  1.00  0.00    -0.354 N 
ATOM     40  C   UNL A   1      43.143  27.781  31.680  1.00  0.00     0.074 A 
ATOM     41  C   UNL A   1      43.529  26.605  30.937  1.00  0.00     0.031 C 
ATOM     42  C   UNL A   1      38.041  29.966  28.459  1.00  0.00     0.029 A 
ATOM     43  C   UNL A   1      38.639  30.545  29.659  1.00  0.00     0.049 A 
ATOM     44  H   UNL A   1      40.388  29.904  30.606  1.00  0.00     0.167 HD
ATOM     45  C   UNL A   1      43.785  28.211  32.785  1.00  0.00     0.037 A 
ATOM     46  C   UNL A   1      38.160  31.610  30.351  1.00  0.00     0.037 A 
ATOM     47  C   UNL A   1      43.425  29.388  33.518  1.00  0.00     0.049 A 
ATOM     48  C   UNL A   1      38.889  32.053  31.610  1.00  0.00     0.074 A 
ATOM     49  C   UNL A   1      44.059  29.931  34.619  1.00  0.00     0.029 A 
ATOM     50  N   UNL A   1      42.335  30.193  33.234  1.00  0.00    -0.354 N 
ATOM     51  N   UNL A   1      39.982  31.563  32.148  1.00  0.00    -0.248 NA
ATOM     52  C   UNL A   1      38.317  33.185  32.363  1.00  0.00     0.031 C 
ATOM     53  C   UNL A   1      43.318  31.038  35.038  1.00  0.00     0.029 A 
ATOM     54  C   UNL A   1      42.258  31.215  34.162  1.00  0.00     0.049 A 
ATOM     55  H   UNL A   1      41.710  30.059  32.486  1.00  0.00     0.167 HD
ATOM     56  C   UNL A   1      40.240  32.344  33.275  1.00  0.00     0.074 A 
ATOM     57  C   UNL A   1      39.204  33.350  33.334  1.00  0.00     0.031 C 
ATOM     58  C   UNL A   1      41.238  32.232  34.184  1.00  0.00     0.037 A 
BRANCH  45  59
ATOM     59  C   UNL A   1      44.936  27.385  33.263  1.00  0.00     0.058 A 
ATOM     60  C   UNL A   1      46.251  27.659  32.858  1.00  0.00     0.135 A 
ATOM     61  C   UNL A   1      44.717  26.311  34.136  1.00  0.00     0.135 A 
ATOM     62  F   UNL A   1      46.501  28.650  31.987  1.00  0.00    -0.206 F 
ATOM     63  C   UNL A   1      47.315  26.884  33.298  1.00  0.00     0.059 A 
ATOM     64  C   UNL A   1      45.771  25.542  34.613  1.00  0.00     0.059 A 
ATOM     65  F   UNL A   1      43.471  25.997  34.526  1.00  0.00    -0.206 F 
ATOM     66  C   UNL A   1      47.065  25.835  34.183  1.00  0.00     0.060 A 
BRANCH  66  67
ATOM     67  S   UNL A   1      48.466  24.877  34.788  1.00  0.00     0.124 S 
ATOM     68  O   UNL A   1      48.358  25.081  36.230  1.00  0.00    -0.237 OA
ATOM     69  O   UNL A   1      48.150  23.534  34.313  1.00  0.00    -0.237 OA
ATOM     70  O   UNL A   1      49.614  25.513  34.149  1.00  0.00    -0.744 OA
ENDBRANCH  66  67
ENDBRANCH  45  59
BRANCH  46  71
ATOM     71  C   UNL A   1      36.912  32.345  29.944  1.00  0.00     0.058 A 
ATOM     72  C   UNL A   1      36.963  33.439  29.058  1.00  0.00     0.135 A 
ATOM     73  C   UNL A   1      35.665  32.060  30.524  1.00  0.00     0.135 A 
ATOM     74  F   UNL A   1      38.130  33.784  28.490  1.00  0.00    -0.206 F 
ATOM     75  C   UNL A   1      35.849  34.241  28.800  1.00  0.00     0.059 A 
ATOM     76  C   UNL A   1      34.528  32.830  30.258  1.00  0.00     0.059 A 
ATOM     77  F   UNL A   1      35.541  31.036  31.382  1.00  0.00    -0.206 F 
ATOM     78  C   UNL A   1      34.636  33.933  29.412  1.00  0.00     0.060 A 
BRANCH  78  79
ATOM     79  S   UNL A   1      33.199  34.985  29.085  1.00  0.00     0.124 S 
ATOM     80  O   UNL A   1      32.485  34.209  28.077  1.00  0.00    -0.237 OA
ATOM     81  O   UNL A   1      32.565  35.058  30.399  1.00  0.00    -0.237 OA
ATOM     82  O   UNL A   1      33.794  36.232  28.614  1.00  0.00    -0.744 OA
ENDBRANCH  78  79
ENDBRANCH  46  71
BRANCH  58  83
ATOM     83  C   UNL A   1      41.303  33.233  35.307  1.00  0.00     0.058 A 
ATOM     84  C   UNL A   1      41.914  34.484  35.142  1.00  0.00     0.135 A 
ATOM     85  C   UNL A   1      40.628  32.984  36.515  1.00  0.00     0.135 A 
ATOM     86  F   UNL A   1      42.572  34.771  34.009  1.00  0.00    -0.206 F 
ATOM     87  C   UNL A   1      41.856  35.455  36.136  1.00  0.00     0.059 A 
ATOM     88  C   UNL A   1      40.531  33.953  37.509  1.00  0.00     0.059 A 
ATOM     89  F   UNL A   1      40.013  31.809  36.717  1.00  0.00    -0.206 F 
ATOM     90  C   UNL A   1      41.150  35.186  37.311  1.00  0.00     0.060 A 
BRANCH  90  91
ATOM     91  S   UNL A   1      41.014  36.486  38.555  1.00  0.00     0.124 S 
ATOM     92  O   UNL A   1      39.745  37.109  38.195  1.00  0.00    -0.237 OA
ATOM     93  O   UNL A   1      41.017  35.727  39.801  1.00  0.00    -0.237 OA
ATOM     94  O   UNL A   1      42.202  37.305  38.324  1.00  0.00    -0.744 OA
ENDBRANCH  90  91
ENDBRANCH  58  83
ENDBRANCH  32  33
ENDBRANCH  25  27
ENDBRANCH  24  25
ENDBRANCH   1  24
TORSDOF 16
ENDMDL
MODEL 2
REMARK VINA RESULT:     -13.3      4.670     10.512
REMARK SMILES O=C(OCCOC(=O)c1ccc(-c2c3nc(c(-c4c(F)cc(S(=O)(=O)[O-])cc4F)c4ccc([nH]4)c(-c4c(F)cc(S(=O)(=O)[O-])cc4F)c4nc(c(-c5c(F)cc(S(=O)(=O)[O-])cc5F)c5ccc2[nH]5)C=C4)C=C3)cc1)C1=Cc2cc(C(F)(F)F)ccc2O[C@@H]1C(F)(F)F
REMARK SMILES IDX 5 1 4 2 3 3 2 4 1 5 75 6 76 7 88 8 77 9 87 10 78 11 86 12
REMARK SMILES IDX 79 13 85 14 84 15 89 16 90 17 91 18 92 19 80 20 81 21 82 22
REMARK SMILES IDX 83 23 6 24 7 25 8 26 9 27 10 28 74 29 11 30 73 31 12 32
REMARK SMILES IDX 13 33 14 34 67 35 15 36 72 37 66 38 68 39 16 40 71 41 65 42
REMARK SMILES IDX 64 43 17 45 51 46 30 47 50 48 31 49 34 50 49 51 69 52 32 53
REMARK SMILES IDX 33 54 48 56 70 57 35 58 18 59 19 60 28 61 20 62 21 63 27 64
REMARK SMILES IDX 29 65 22 66 23 67 24 68 25 69 26 70 52 71 53 72 62 73 54 74
REMARK SMILES IDX 55 75 61 76 63 77 56 78 57 79 58 80 59 81 60 82 36 83 37 84
REMARK SMILES IDX 46 85 38 86 39 87 45 88 47 89 40 90 41 91 42 92 43 93 44 94
REMARK H PARENT 68 44 34 55
REMARK Flexibility Score: inf
ROOT
ATOM      1  C   UNL A   1      33.965  32.492  27.779  1.00  0.00     0.275 C 
ENDROOT
BRANCH   1   2
ATOM      2  C   UNL A   1      32.836  30.703  27.279  1.00  0.00     0.275 C 
BRANCH   2   3
ATOM      3  O   UNL A   1      33.352  29.243  27.278  1.00  0.00    -0.459 OA
BRANCH   3   4
ATOM      4  C   UNL A   1      32.366  28.349  27.133  1.00  0.00     0.338 C 
ATOM      5  O   UNL A   1      31.647  27.848  27.957  1.00  0.00    -0.246 OA
BRANCH   4   6
ATOM      6  C   UNL A   1      32.767  27.932  25.813  1.00  0.00     0.087 C 
ATOM      7  C   UNL A   1      33.900  27.060  25.781  1.00  0.00     0.027 C 
ATOM      8  C   UNL A   1      31.007  27.523  25.187  1.00  0.00     0.316 C 
ATOM      9  C   UNL A   1      33.784  25.349  25.405  1.00  0.00     0.018 A 
ATOM     10  O   UNL A   1      30.809  25.595  24.916  1.00  0.00    -0.475 OA
ATOM     11  C   UNL A   1      34.953  24.660  25.400  1.00  0.00     0.025 A 
ATOM     12  C   UNL A   1      32.294  24.523  25.133  1.00  0.00     0.128 A 
ATOM     13  C   UNL A   1      34.838  23.279  25.182  1.00  0.00     0.056 A 
ATOM     14  C   UNL A   1      32.238  23.172  24.941  1.00  0.00     0.048 A 
ATOM     15  C   UNL A   1      33.545  22.580  24.988  1.00  0.00     0.017 A 
BRANCH   8  16
ATOM     16  C   UNL A   1      31.288  28.860  24.236  1.00  0.00     0.430 C 
ATOM     17  F   UNL A   1      32.508  29.189  23.916  1.00  0.00    -0.167 F 
ATOM     18  F   UNL A   1      30.651  28.652  23.049  1.00  0.00    -0.167 F 
ATOM     19  F   UNL A   1      30.780  30.036  24.705  1.00  0.00    -0.167 F 
ENDBRANCH   8  16
BRANCH  13  20
ATOM     20  C   UNL A   1      36.179  22.561  25.087  1.00  0.00     0.416 C 
ATOM     21  F   UNL A   1      37.224  23.431  25.156  1.00  0.00    -0.166 F 
ATOM     22  F   UNL A   1      36.370  21.686  26.118  1.00  0.00    -0.166 F 
ATOM     23  F   UNL A   1      36.349  21.840  23.950  1.00  0.00    -0.166 F 
ENDBRANCH  13  20
ENDBRANCH   4   6
ENDBRANCH   3   4
ENDBRANCH   2   3
ENDBRANCH   1   2
BRANCH   1  24
ATOM     24  O   UNL A   1      35.122  32.541  29.131  1.00  0.00    -0.458 OA
BRANCH  24  25
ATOM     25  C   UNL A   1      35.413  31.847  30.316  1.00  0.00     0.338 C 
ATOM     26  O   UNL A   1      34.890  31.947  31.414  1.00  0.00    -0.246 OA
BRANCH  25  27
ATOM     27  C   UNL A   1      36.246  30.632  29.977  1.00  0.00     0.060 A 
ATOM     28  C   UNL A   1      36.742  30.500  28.650  1.00  0.00     0.016 A 
ATOM     29  C   UNL A   1      36.904  29.985  31.023  1.00  0.00     0.016 A 
ATOM     30  C   UNL A   1      38.045  29.974  28.437  1.00  0.00     0.010 A 
ATOM     31  C   UNL A   1      38.183  29.454  30.800  1.00  0.00     0.010 A 
ATOM     32  C   UNL A   1      38.814  29.540  29.537  1.00  0.00    -0.014 A 
BRANCH  32  33
ATOM     33  C   UNL A   1      40.214  29.019  29.415  1.00  0.00     0.031 A 
ATOM     34  C   UNL A   1      41.283  30.054  29.582  1.00  0.00     0.074 A 
ATOM     35  C   UNL A   1      40.560  27.762  29.036  1.00  0.00     0.049 A 
ATOM     36  N   UNL A   1      42.558  29.989  29.319  1.00  0.00    -0.248 NA
ATOM     37  C   UNL A   1      40.823  31.366  30.071  1.00  0.00     0.031 C 
ATOM     38  C   UNL A   1      39.649  26.638  28.824  1.00  0.00     0.029 A 
ATOM     39  N   UNL A   1      41.797  27.218  28.727  1.00  0.00    -0.354 N 
ATOM     40  C   UNL A   1      43.043  31.261  29.574  1.00  0.00     0.074 A 
ATOM     41  C   UNL A   1      41.926  32.085  29.973  1.00  0.00     0.031 C 
ATOM     42  C   UNL A   1      40.344  25.557  28.411  1.00  0.00     0.029 A 
ATOM     43  C   UNL A   1      41.757  25.904  28.287  1.00  0.00     0.049 A 
ATOM     44  H   UNL A   1      42.638  27.724  28.813  1.00  0.00     0.167 HD
ATOM     45  C   UNL A   1      44.313  31.710  29.497  1.00  0.00     0.037 A 
ATOM     46  C   UNL A   1      42.738  25.091  27.819  1.00  0.00     0.037 A 
ATOM     47  C   UNL A   1      45.432  30.898  29.125  1.00  0.00     0.049 A 
ATOM     48  C   UNL A   1      44.154  25.634  27.716  1.00  0.00     0.074 A 
ATOM     49  C   UNL A   1      46.765  31.257  29.077  1.00  0.00     0.029 A 
ATOM     50  N   UNL A   1      45.350  29.574  28.727  1.00  0.00    -0.354 N 
ATOM     51  N   UNL A   1      44.611  26.819  28.052  1.00  0.00    -0.248 NA
ATOM     52  C   UNL A   1      45.187  24.739  27.162  1.00  0.00     0.031 C 
ATOM     53  C   UNL A   1      47.488  30.163  28.595  1.00  0.00     0.029 A 
ATOM     54  C   UNL A   1      46.609  29.108  28.399  1.00  0.00     0.049 A 
ATOM     55  H   UNL A   1      44.521  29.045  28.684  1.00  0.00     0.167 HD
ATOM     56  C   UNL A   1      45.979  26.795  27.779  1.00  0.00     0.074 A 
ATOM     57  C   UNL A   1      46.283  25.477  27.271  1.00  0.00     0.031 C 
ATOM     58  C   UNL A   1      46.899  27.779  27.928  1.00  0.00     0.037 A 
BRANCH  45  59
ATOM     59  C   UNL A   1      44.540  33.153  29.816  1.00  0.00     0.058 A 
ATOM     60  C   UNL A   1      44.458  34.143  28.825  1.00  0.00     0.135 A 
ATOM     61  C   UNL A   1      44.841  33.545  31.127  1.00  0.00     0.135 A 
ATOM     62  F   UNL A   1      44.217  33.807  27.548  1.00  0.00    -0.206 F 
ATOM     63  C   UNL A   1      44.678  35.480  29.124  1.00  0.00     0.059 A 
ATOM     64  C   UNL A   1      45.034  34.882  31.455  1.00  0.00     0.059 A 
ATOM     65  F   UNL A   1      44.958  32.627  32.100  1.00  0.00    -0.206 F 
ATOM     66  C   UNL A   1      44.955  35.839  30.445  1.00  0.00     0.060 A 
BRANCH  66  67
ATOM     67  S   UNL A   1      45.179  37.586  30.823  1.00  0.00     0.124 S 
ATOM     68  O   UNL A   1      44.890  38.204  29.532  1.00  0.00    -0.237 OA
ATOM     69  O   UNL A   1      44.183  37.806  31.867  1.00  0.00    -0.237 OA
ATOM     70  O   UNL A   1      46.570  37.665  31.259  1.00  0.00    -0.744 OA
ENDBRANCH  66  67
ENDBRANCH  45  59
BRANCH  46  71
ATOM     71  C   UNL A   1      42.471  23.683  27.360  1.00  0.00     0.058 A 
ATOM     72  C   UNL A   1      42.323  22.628  28.282  1.00  0.00     0.135 A 
ATOM     73  C   UNL A   1      42.485  23.335  26.000  1.00  0.00     0.135 A 
ATOM     74  F   UNL A   1      42.329  22.887  29.599  1.00  0.00    -0.206 F 
ATOM     75  C   UNL A   1      42.247  21.293  27.879  1.00  0.00     0.059 A 
ATOM     76  C   UNL A   1      42.379  22.008  25.570  1.00  0.00     0.059 A 
ATOM     77  F   UNL A   1      42.628  24.286  25.063  1.00  0.00    -0.206 F 
ATOM     78  C   UNL A   1      42.283  20.991  26.519  1.00  0.00     0.060 A 
BRANCH  78  79
ATOM     79  S   UNL A   1      42.199  19.257  26.005  1.00  0.00     0.124 S 
ATOM     80  O   UNL A   1      40.788  19.118  25.659  1.00  0.00    -0.237 OA
ATOM     81  O   UNL A   1      43.135  19.222  24.885  1.00  0.00    -0.237 OA
ATOM     82  O   UNL A   1      42.630  18.530  27.195  1.00  0.00    -0.744 OA
ENDBRANCH  78  79
ENDBRANCH  46  71
BRANCH  58  83
ATOM     83  C   UNL A   1      48.333  27.480  27.579  1.00  0.00     0.058 A 
ATOM     84  C   UNL A   1      48.845  27.725  26.297  1.00  0.00     0.135 A 
ATOM     85  C   UNL A   1      49.232  27.069  28.579  1.00  0.00     0.135 A 
ATOM     86  F   UNL A   1      48.028  28.117  25.307  1.00  0.00    -0.206 F 
ATOM     87  C   UNL A   1      50.198  27.573  26.016  1.00  0.00     0.059 A 
ATOM     88  C   UNL A   1      50.594  26.942  28.327  1.00  0.00     0.059 A 
ATOM     89  F   UNL A   1      48.796  26.837  29.827  1.00  0.00    -0.206 F 
ATOM     90  C   UNL A   1      51.069  27.194  27.041  1.00  0.00     0.060 A 
BRANCH  90  91
ATOM     91  S   UNL A   1      52.833  27.082  26.680  1.00  0.00     0.124 S 
ATOM     92  O   UNL A   1      53.358  28.230  27.412  1.00  0.00    -0.237 OA
ATOM     93  O   UNL A   1      53.179  25.772  27.220  1.00  0.00    -0.237 OA
ATOM     94  O   UNL A   1      52.890  27.188  25.224  1.00  0.00    -0.744 OA
ENDBRANCH  90  91
ENDBRANCH  58  83
ENDBRANCH  32  33
ENDBRANCH  25  27
ENDBRANCH  24  25
ENDBRANCH   1  24
TORSDOF 16
ENDMDL
MODEL 3
REMARK VINA RESULT:     -13.0      1.006      1.700
REMARK SMILES O=C(OCCOC(=O)c1ccc(-c2c3nc(c(-c4c(F)cc(S(=O)(=O)[O-])cc4F)c4ccc([nH]4)c(-c4c(F)cc(S(=O)(=O)[O-])cc4F)c4nc(c(-c5c(F)cc(S(=O)(=O)[O-])cc5F)c5ccc2[nH]5)C=C4)C=C3)cc1)C1=Cc2cc(C(F)(F)F)ccc2O[C@@H]1C(F)(F)F
REMARK SMILES IDX 5 1 4 2 3 3 2 4 1 5 75 6 76 7 88 8 77 9 87 10 78 11 86 12
REMARK SMILES IDX 79 13 85 14 84 15 89 16 90 17 91 18 92 19 80 20 81 21 82 22
REMARK SMILES IDX 83 23 6 24 7 25 8 26 9 27 10 28 74 29 11 30 73 31 12 32
REMARK SMILES IDX 13 33 14 34 67 35 15 36 72 37 66 38 68 39 16 40 71 41 65 42
REMARK SMILES IDX 64 43 17 45 51 46 30 47 50 48 31 49 34 50 49 51 69 52 32 53
REMARK SMILES IDX 33 54 48 56 70 57 35 58 18 59 19 60 28 61 20 62 21 63 27 64
REMARK SMILES IDX 29 65 22 66 23 67 24 68 25 69 26 70 52 71 53 72 62 73 54 74
REMARK SMILES IDX 55 75 61 76 63 77 56 78 57 79 58 80 59 81 60 82 36 83 37 84
REMARK SMILES IDX 46 85 38 86 39 87 45 88 47 89 40 90 41 91 42 92 43 93 44 94
REMARK H PARENT 68 44 34 55
REMARK Flexibility Score: inf
ROOT
ATOM      1  C   UNL A   1      39.901  20.957  26.494  1.00  0.00     0.275 C 
ENDROOT
BRANCH   1   2
ATOM      2  C   UNL A   1      38.151  21.464  25.308  1.00  0.00     0.275 C 
BRANCH   2   3
ATOM      3  O   UNL A   1      37.131  22.596  25.586  1.00  0.00    -0.459 OA
BRANCH   3   4
ATOM      4  C   UNL A   1      36.364  22.869  24.523  1.00  0.00     0.338 C 
ATOM      5  O   UNL A   1      36.661  23.327  23.450  1.00  0.00    -0.246 OA
BRANCH   4   6
ATOM      6  C   UNL A   1      35.122  22.831  25.251  1.00  0.00     0.087 C 
ATOM      7  C   UNL A   1      34.784  24.051  25.919  1.00  0.00     0.027 C 
ATOM      8  C   UNL A   1      34.106  21.978  23.873  1.00  0.00     0.316 C 
ATOM      9  C   UNL A   1      33.498  25.117  25.378  1.00  0.00     0.018 A 
ATOM     10  O   UNL A   1      32.771  23.210  23.145  1.00  0.00    -0.475 OA
ATOM     11  C   UNL A   1      33.291  26.228  26.129  1.00  0.00     0.025 A 
ATOM     12  C   UNL A   1      32.579  24.862  23.940  1.00  0.00     0.128 A 
ATOM     13  C   UNL A   1      32.319  27.114  25.639  1.00  0.00     0.056 A 
ATOM     14  C   UNL A   1      31.655  25.767  23.501  1.00  0.00     0.048 A 
ATOM     15  C   UNL A   1      31.566  26.898  24.381  1.00  0.00     0.017 A 
BRANCH   8  16
ATOM     16  C   UNL A   1      34.130  20.718  24.961  1.00  0.00     0.430 C 
ATOM     17  F   UNL A   1      34.179  20.961  26.240  1.00  0.00    -0.167 F 
ATOM     18  F   UNL A   1      32.983  20.004  24.777  1.00  0.00    -0.167 F 
ATOM     19  F   UNL A   1      35.137  19.812  24.795  1.00  0.00    -0.167 F 
ENDBRANCH   8  16
BRANCH  13  20
ATOM     20  C   UNL A   1      32.051  28.296  26.562  1.00  0.00     0.416 C 
ATOM     21  F   UNL A   1      31.404  29.306  25.917  1.00  0.00    -0.166 F 
ATOM     22  F   UNL A   1      31.240  27.961  27.609  1.00  0.00    -0.166 F 
ATOM     23  F   UNL A   1      33.165  28.840  27.113  1.00  0.00    -0.166 F 
ENDBRANCH  13  20
ENDBRANCH   4   6
ENDBRANCH   3   4
ENDBRANCH   2   3
ENDBRANCH   1   2
BRANCH   1  24
ATOM     24  O   UNL A   1      41.250  22.093  26.734  1.00  0.00    -0.458 OA
BRANCH  24  25
ATOM     25  C   UNL A   1      41.885  23.156  26.073  1.00  0.00     0.338 C 
ATOM     26  O   UNL A   1      42.666  23.121  25.135  1.00  0.00    -0.246 OA
BRANCH  25  27
ATOM     27  C   UNL A   1      41.175  24.443  26.425  1.00  0.00     0.060 A 
ATOM     28  C   UNL A   1      40.191  24.413  27.454  1.00  0.00     0.016 A 
ATOM     29  C   UNL A   1      41.823  25.642  26.131  1.00  0.00     0.016 A 
ATOM     30  C   UNL A   1      40.089  25.504  28.358  1.00  0.00     0.010 A 
ATOM     31  C   UNL A   1      41.704  26.719  27.021  1.00  0.00     0.010 A 
ATOM     32  C   UNL A   1      40.927  26.627  28.200  1.00  0.00    -0.014 A 
BRANCH  32  33
ATOM     33  C   UNL A   1      40.926  27.800  29.133  1.00  0.00     0.031 A 
ATOM     34  C   UNL A   1      41.942  27.728  30.230  1.00  0.00     0.074 A 
ATOM     35  C   UNL A   1      40.013  28.806  29.138  1.00  0.00     0.049 A 
ATOM     36  N   UNL A   1      42.056  28.445  31.312  1.00  0.00    -0.248 NA
ATOM     37  C   UNL A   1      42.939  26.651  30.099  1.00  0.00     0.031 C 
ATOM     38  C   UNL A   1      38.956  29.023  28.152  1.00  0.00     0.029 A 
ATOM     39  N   UNL A   1      39.809  29.838  30.041  1.00  0.00    -0.354 N 
ATOM     40  C   UNL A   1      43.114  27.880  32.008  1.00  0.00     0.074 A 
ATOM     41  C   UNL A   1      43.580  26.744  31.250  1.00  0.00     0.031 C 
ATOM     42  C   UNL A   1      38.214  30.094  28.504  1.00  0.00     0.029 A 
ATOM     43  C   UNL A   1      38.709  30.636  29.768  1.00  0.00     0.049 A 
ATOM     44  H   UNL A   1      40.398  29.992  30.815  1.00  0.00     0.167 HD
ATOM     45  C   UNL A   1      43.663  28.278  33.173  1.00  0.00     0.037 A 
ATOM     46  C   UNL A   1      38.157  31.662  30.464  1.00  0.00     0.037 A 
ATOM     47  C   UNL A   1      43.224  29.417  33.923  1.00  0.00     0.049 A 
ATOM     48  C   UNL A   1      38.781  32.068  31.789  1.00  0.00     0.074 A 
ATOM     49  C   UNL A   1      43.763  29.927  35.088  1.00  0.00     0.029 A 
ATOM     50  N   UNL A   1      42.140  30.211  33.590  1.00  0.00    -0.354 N 
ATOM     51  N   UNL A   1      39.842  31.578  32.387  1.00  0.00    -0.248 NA
ATOM     52  C   UNL A   1      38.130  33.157  32.541  1.00  0.00     0.031 C 
ATOM     53  C   UNL A   1      42.968  31.001  35.494  1.00  0.00     0.029 A 
ATOM     54  C   UNL A   1      41.972  31.193  34.549  1.00  0.00     0.049 A 
ATOM     55  H   UNL A   1      41.575  30.095  32.793  1.00  0.00     0.167 HD
ATOM     56  C   UNL A   1      39.999  32.317  33.560  1.00  0.00     0.074 A 
ATOM     57  C   UNL A   1      38.940  33.299  33.581  1.00  0.00     0.031 C 
ATOM     58  C   UNL A   1      40.930  32.187  34.536  1.00  0.00     0.037 A 
BRANCH  45  59
ATOM     59  C   UNL A   1      44.794  27.456  33.702  1.00  0.00     0.058 A 
ATOM     60  C   UNL A   1      44.569  26.349  34.534  1.00  0.00     0.135 A 
ATOM     61  C   UNL A   1      46.117  27.781  33.369  1.00  0.00     0.135 A 
ATOM     62  F   UNL A   1      43.322  26.029  34.916  1.00  0.00    -0.206 F 
ATOM     63  C   UNL A   1      45.623  25.594  35.029  1.00  0.00     0.059 A 
ATOM     64  C   UNL A   1      47.185  27.020  33.827  1.00  0.00     0.059 A 
ATOM     65  F   UNL A   1      46.379  28.849  32.598  1.00  0.00    -0.206 F 
ATOM     66  C   UNL A   1      46.926  25.933  34.661  1.00  0.00     0.060 A 
BRANCH  66  67
ATOM     67  S   UNL A   1      48.277  24.905  35.266  1.00  0.00     0.124 S 
ATOM     68  O   UNL A   1      48.328  25.290  36.673  1.00  0.00    -0.237 OA
ATOM     69  O   UNL A   1      47.784  23.558  34.996  1.00  0.00    -0.237 OA
ATOM     70  O   UNL A   1      49.416  25.328  34.458  1.00  0.00    -0.744 OA
ENDBRANCH  66  67
ENDBRANCH  45  59
BRANCH  46  71
ATOM     71  C   UNL A   1      36.926  32.388  29.994  1.00  0.00     0.058 A 
ATOM     72  C   UNL A   1      37.016  33.505  29.140  1.00  0.00     0.135 A 
ATOM     73  C   UNL A   1      35.649  32.070  30.483  1.00  0.00     0.135 A 
ATOM     74  F   UNL A   1      38.211  33.882  28.658  1.00  0.00    -0.206 F 
ATOM     75  C   UNL A   1      35.908  34.297  28.831  1.00  0.00     0.059 A 
ATOM     76  C   UNL A   1      34.519  32.829  30.163  1.00  0.00     0.059 A 
ATOM     77  F   UNL A   1      35.486  31.022  31.307  1.00  0.00    -0.206 F 
ATOM     78  C   UNL A   1      34.662  33.955  29.353  1.00  0.00     0.060 A 
BRANCH  78  79
ATOM     79  S   UNL A   1      33.232  34.993  28.959  1.00  0.00     0.124 S 
ATOM     80  O   UNL A   1      32.525  34.168  27.986  1.00  0.00    -0.237 OA
ATOM     81  O   UNL A   1      32.587  35.135  30.262  1.00  0.00    -0.237 OA
ATOM     82  O   UNL A   1      33.836  36.213  28.432  1.00  0.00    -0.744 OA
ENDBRANCH  78  79
ENDBRANCH  46  71
BRANCH  58  83
ATOM     83  C   UNL A   1      40.890  33.143  35.699  1.00  0.00     0.058 A 
ATOM     84  C   UNL A   1      40.150  32.862  36.856  1.00  0.00     0.135 A 
ATOM     85  C   UNL A   1      41.708  34.286  35.703  1.00  0.00     0.135 A 
ATOM     86  F   UNL A   1      39.352  31.784  36.904  1.00  0.00    -0.206 F 
ATOM     87  C   UNL A   1      40.221  33.681  37.978  1.00  0.00     0.059 A 
ATOM     88  C   UNL A   1      41.817  35.101  36.825  1.00  0.00     0.059 A 
ATOM     89  F   UNL A   1      42.449  34.592  34.626  1.00  0.00    -0.206 F 
ATOM     90  C   UNL A   1      41.068  34.791  37.958  1.00  0.00     0.060 A 
BRANCH  90  91
ATOM     91  S   UNL A   1      41.211  35.796  39.450  1.00  0.00     0.124 S 
ATOM     92  O   UNL A   1      40.620  37.057  39.016  1.00  0.00    -0.237 OA
ATOM     93  O   UNL A   1      40.431  35.030  40.417  1.00  0.00    -0.237 OA
ATOM     94  O   UNL A   1      42.649  35.831  39.702  1.00  0.00    -0.744 OA
ENDBRANCH  90  91
ENDBRANCH  58  83
ENDBRANCH  32  33
ENDBRANCH  25  27
ENDBRANCH  24  25
ENDBRANCH   1  24
TORSDOF 16
ENDMDL
