MODEL 1
REMARK VINA RESULT:     -12.2      0.000      0.000
REMARK SMILES O=C(CC1CC[NH+](C[C@H]2Cc3ccccc3O2)CC1)OCCOC(=O)c1ccc(-c2c3nc(c(-c4c(F)cc(S(=O)(=O)[O-])cc4F)c4ccc([nH]4)c(-c4c(F)cc(S(=O)(=O)[O-])cc4F)c4nc(c(-c5c(F)cc(S(=O)(=O)[O-])cc5F)c5ccc2[nH]5)C=C4)C=C3)cc1
REMARK SMILES IDX 21 1 20 2 2 3 1 4 3 5 4 6 5 7 19 8 6 9 18 10 7 11 8 13 9 14
REMARK SMILES IDX 10 15 17 16 11 17 16 18 12 19 15 20 13 21 14 22 22 23 23 24
REMARK SMILES IDX 24 25 25 26 26 27 27 28 91 29 28 30 90 31 29 32 30 33 31 34
REMARK SMILES IDX 84 35 32 36 89 37 83 38 85 39 33 40 88 41 82 42 81 43 34 45
REMARK SMILES IDX 68 46 47 47 67 48 48 49 51 50 66 51 86 52 49 53 50 54 65 56
REMARK SMILES IDX 87 57 52 58 35 59 36 60 45 61 37 62 38 63 44 64 46 65 39 66
REMARK SMILES IDX 40 67 41 68 42 69 43 70 69 71 70 72 79 73 71 74 72 75 78 76
REMARK SMILES IDX 80 77 73 78 74 79 75 80 76 81 77 82 53 83 54 84 63 85 55 86
REMARK SMILES IDX 56 87 62 88 64 89 57 90 58 91 59 92 60 93 61 94
REMARK H PARENT 7 12 85 44 51 55
REMARK Flexibility Score: inf
ROOT
ATOM      1  C   UNL A   1      40.308  20.671  26.590  1.00  0.00     0.274 C 
ENDROOT
BRANCH   1   2
ATOM      2  O   UNL A   1      39.413  21.440  25.779  1.00  0.00    -0.462 OA
BRANCH   2   3
ATOM      3  C   UNL A   1      38.195  21.028  25.360  1.00  0.00     0.306 C 
ATOM      4  O   UNL A   1      38.054  19.856  25.012  1.00  0.00    -0.252 OA
BRANCH   3   5
ATOM      5  C   UNL A   1      37.072  22.033  25.125  1.00  0.00     0.126 C 
BRANCH   5   6
ATOM      6  C   UNL A   1      35.692  21.869  25.783  1.00  0.00     0.011 C 
ATOM      7  C   UNL A   1      34.644  21.441  24.722  1.00  0.00     0.066 C 
ATOM      8  C   UNL A   1      35.100  23.122  26.448  1.00  0.00     0.066 C 
ATOM      9  C   UNL A   1      34.213  22.590  23.780  1.00  0.00     0.262 C 
ATOM     10  C   UNL A   1      34.817  24.254  25.466  1.00  0.00     0.262 C 
ATOM     11  N   UNL A   1      33.846  23.839  24.478  1.00  0.00    -0.332 N 
ATOM     12  H   UNL A   1      32.998  23.562  24.973  1.00  0.00     0.348 HD
BRANCH  11  13
ATOM     13  C   UNL A   1      33.407  24.972  23.623  1.00  0.00     0.308 C 
BRANCH  13  14
ATOM     14  C   UNL A   1      31.999  25.053  22.960  1.00  0.00     0.232 C 
ATOM     15  C   UNL A   1      30.618  24.815  23.747  1.00  0.00     0.090 C 
ATOM     16  O   UNL A   1      32.038  26.310  22.277  1.00  0.00    -0.484 OA
ATOM     17  C   UNL A   1      29.940  26.156  23.717  1.00  0.00    -0.002 A 
ATOM     18  C   UNL A   1      31.156  27.082  22.990  1.00  0.00     0.123 A 
ATOM     19  C   UNL A   1      28.248  26.711  23.875  1.00  0.00     0.007 A 
ATOM     20  C   UNL A   1      30.814  28.666  22.377  1.00  0.00     0.047 A 
ATOM     21  C   UNL A   1      27.692  28.309  23.254  1.00  0.00     0.001 A 
ATOM     22  C   UNL A   1      28.928  29.380  22.446  1.00  0.00     0.004 A 
ENDBRANCH  13  14
ENDBRANCH  11  13
ENDBRANCH   5   6
ENDBRANCH   3   5
ENDBRANCH   2   3
ENDBRANCH   1   2
BRANCH   1  23
ATOM     23  C   UNL A   1      41.763  20.687  26.126  1.00  0.00     0.275 C 
BRANCH  23  24
ATOM     24  O   UNL A   1      42.524  21.769  26.674  1.00  0.00    -0.458 OA
BRANCH  24  25
ATOM     25  C   UNL A   1      42.839  22.781  25.821  1.00  0.00     0.338 C 
ATOM     26  O   UNL A   1      43.029  22.633  24.622  1.00  0.00    -0.246 OA
BRANCH  25  27
ATOM     27  C   UNL A   1      42.774  24.196  26.492  1.00  0.00     0.060 A 
ATOM     28  C   UNL A   1      41.306  24.083  27.555  1.00  0.00     0.016 A 
ATOM     29  C   UNL A   1      43.544  26.055  26.217  1.00  0.00     0.016 A 
ATOM     30  C   UNL A   1      40.683  25.550  28.324  1.00  0.00     0.010 A 
ATOM     31  C   UNL A   1      42.813  27.438  27.072  1.00  0.00     0.010 A 
ATOM     32  C   UNL A   1      41.431  27.149  28.136  1.00  0.00    -0.014 A 
BRANCH  32  33
ATOM     33  C   UNL A   1      41.329  28.221  29.203  1.00  0.00     0.031 A 
ATOM     34  C   UNL A   1      42.147  27.981  30.448  1.00  0.00     0.074 A 
ATOM     35  C   UNL A   1      40.314  29.126  29.240  1.00  0.00     0.049 A 
ATOM     36  N   UNL A   1      42.005  28.477  31.647  1.00  0.00    -0.248 NA
ATOM     37  C   UNL A   1      43.192  26.945  30.344  1.00  0.00     0.031 C 
ATOM     38  C   UNL A   1      39.315  29.388  28.194  1.00  0.00     0.029 A 
ATOM     39  N   UNL A   1      39.902  29.971  30.258  1.00  0.00    -0.354 N 
ATOM     40  C   UNL A   1      42.904  27.772  32.439  1.00  0.00     0.074 A 
ATOM     41  C   UNL A   1      43.470  26.728  31.620  1.00  0.00     0.031 C 
ATOM     42  C   UNL A   1      38.409  30.282  28.630  1.00  0.00     0.029 A 
ATOM     43  C   UNL A   1      38.755  30.694  29.980  1.00  0.00     0.049 A 
ATOM     44  H   UNL A   1      40.387  30.050  31.111  1.00  0.00     0.167 HD
ATOM     45  C   UNL A   1      43.291  28.022  33.709  1.00  0.00     0.037 A 
ATOM     46  C   UNL A   1      38.068  31.600  30.714  1.00  0.00     0.037 A 
ATOM     47  C   UNL A   1      42.811  29.140  34.471  1.00  0.00     0.049 A 
ATOM     48  C   UNL A   1      38.589  31.949  32.088  1.00  0.00     0.074 A 
ATOM     49  C   UNL A   1      43.275  29.615  35.682  1.00  0.00     0.029 A 
ATOM     50  N   UNL A   1      41.770  29.966  34.081  1.00  0.00    -0.354 N 
ATOM     51  N   UNL A   1      39.593  31.417  32.746  1.00  0.00    -0.248 NA
ATOM     52  C   UNL A   1      37.914  33.038  32.811  1.00  0.00     0.031 C 
ATOM     53  C   UNL A   1      42.486  30.708  36.047  1.00  0.00     0.029 A 
ATOM     54  C   UNL A   1      41.562  30.939  35.039  1.00  0.00     0.049 A 
ATOM     55  H   UNL A   1      41.256  29.874  33.246  1.00  0.00     0.167 HD
ATOM     56  C   UNL A   1      39.693  32.134  33.934  1.00  0.00     0.074 A 
ATOM     57  C   UNL A   1      38.665  33.151  33.897  1.00  0.00     0.031 C 
ATOM     58  C   UNL A   1      40.554  31.964  34.965  1.00  0.00     0.037 A 
BRANCH  45  59
ATOM     59  C   UNL A   1      44.357  27.148  34.307  1.00  0.00     0.058 A 
ATOM     60  C   UNL A   1      45.717  27.494  34.216  1.00  0.00     0.135 A 
ATOM     61  C   UNL A   1      44.025  25.991  35.027  1.00  0.00     0.135 A 
ATOM     62  F   UNL A   1      46.096  28.585  33.529  1.00  0.00    -0.206 F 
ATOM     63  C   UNL A   1      46.708  26.711  34.789  1.00  0.00     0.059 A 
ATOM     64  C   UNL A   1      44.999  25.213  35.646  1.00  0.00     0.059 A 
ATOM     65  F   UNL A   1      42.743  25.610  35.145  1.00  0.00    -0.206 F 
ATOM     66  C   UNL A   1      46.339  25.578  35.513  1.00  0.00     0.060 A 
BRANCH  66  67
ATOM     67  S   UNL A   1      47.642  24.621  36.311  1.00  0.00     0.124 S 
ATOM     68  O   UNL A   1      46.922  24.023  37.431  1.00  0.00    -0.237 OA
ATOM     69  O   UNL A   1      48.041  23.700  35.251  1.00  0.00    -0.237 OA
ATOM     70  O   UNL A   1      48.634  25.629  36.669  1.00  0.00    -0.744 OA
ENDBRANCH  66  67
ENDBRANCH  45  59
BRANCH  46  71
ATOM     71  C   UNL A   1      36.870  32.322  30.170  1.00  0.00     0.058 A 
ATOM     72  C   UNL A   1      37.029  33.424  29.310  1.00  0.00     0.135 A 
ATOM     73  C   UNL A   1      35.557  31.987  30.540  1.00  0.00     0.135 A 
ATOM     74  F   UNL A   1      38.259  33.798  28.924  1.00  0.00    -0.206 F 
ATOM     75  C   UNL A   1      35.950  34.198  28.888  1.00  0.00     0.059 A 
ATOM     76  C   UNL A   1      34.455  32.729  30.104  1.00  0.00     0.059 A 
ATOM     77  F   UNL A   1      35.332  30.935  31.341  1.00  0.00    -0.206 F 
ATOM     78  C   UNL A   1      34.664  33.847  29.295  1.00  0.00     0.060 A 
BRANCH  78  79
ATOM     79  S   UNL A   1      33.275  34.868  28.746  1.00  0.00     0.124 S 
ATOM     80  O   UNL A   1      33.961  36.027  28.187  1.00  0.00    -0.237 OA
ATOM     81  O   UNL A   1      32.614  33.993  27.783  1.00  0.00    -0.237 OA
ATOM     82  O   UNL A   1      32.528  35.111  29.977  1.00  0.00    -0.744 OA
ENDBRANCH  78  79
ENDBRANCH  46  71
BRANCH  58  83
ATOM     83  C   UNL A   1      40.456  32.909  36.127  1.00  0.00     0.058 A 
ATOM     84  C   UNL A   1      41.248  34.063  36.199  1.00  0.00     0.135 A 
ATOM     85  C   UNL A   1      39.480  32.713  37.119  1.00  0.00     0.135 A 
ATOM     86  F   UNL A   1      42.198  34.291  35.278  1.00  0.00    -0.206 F 
ATOM     87  C   UNL A   1      41.081  34.991  37.220  1.00  0.00     0.059 A 
ATOM     88  C   UNL A   1      39.273  33.646  38.128  1.00  0.00     0.059 A 
ATOM     89  F   UNL A   1      38.689  31.629  37.086  1.00  0.00    -0.206 F 
ATOM     90  C   UNL A   1      40.082  34.780  38.172  1.00  0.00     0.060 A 
BRANCH  90  91
ATOM     91  S   UNL A   1      39.828  36.035  39.442  1.00  0.00     0.124 S 
ATOM     92  O   UNL A   1      39.361  37.167  38.648  1.00  0.00    -0.237 OA
ATOM     93  O   UNL A   1      38.830  35.407  40.301  1.00  0.00    -0.237 OA
ATOM     94  O   UNL A   1      41.152  36.191  40.038  1.00  0.00    -0.744 OA
ENDBRANCH  90  91
ENDBRANCH  58  83
ENDBRANCH  32  33
ENDBRANCH  25  27
ENDBRANCH  24  25
ENDBRANCH  23  24
ENDBRANCH   1  23
TORSDOF 17
ENDMDL
MODEL 2
REMARK VINA RESULT:     -11.9      1.279      1.743
REMARK SMILES O=C(CC1CC[NH+](C[C@H]2Cc3ccccc3O2)CC1)OCCOC(=O)c1ccc(-c2c3nc(c(-c4c(F)cc(S(=O)(=O)[O-])cc4F)c4ccc([nH]4)c(-c4c(F)cc(S(=O)(=O)[O-])cc4F)c4nc(c(-c5c(F)cc(S(=O)(=O)[O-])cc5F)c5ccc2[nH]5)C=C4)C=C3)cc1
REMARK SMILES IDX 21 1 20 2 2 3 1 4 3 5 4 6 5 7 19 8 6 9 18 10 7 11 8 13 9 14
REMARK SMILES IDX 10 15 17 16 11 17 16 18 12 19 15 20 13 21 14 22 22 23 23 24
REMARK SMILES IDX 24 25 25 26 26 27 27 28 91 29 28 30 90 31 29 32 30 33 31 34
REMARK SMILES IDX 84 35 32 36 89 37 83 38 85 39 33 40 88 41 82 42 81 43 34 45
REMARK SMILES IDX 68 46 47 47 67 48 48 49 51 50 66 51 86 52 49 53 50 54 65 56
REMARK SMILES IDX 87 57 52 58 35 59 36 60 45 61 37 62 38 63 44 64 46 65 39 66
REMARK SMILES IDX 40 67 41 68 42 69 43 70 69 71 70 72 79 73 71 74 72 75 78 76
REMARK SMILES IDX 80 77 73 78 74 79 75 80 76 81 77 82 53 83 54 84 63 85 55 86
REMARK SMILES IDX 56 87 62 88 64 89 57 90 58 91 59 92 60 93 61 94
REMARK H PARENT 7 12 85 44 51 55
REMARK Flexibility Score: inf
ROOT
ATOM      1  C   UNL A   1      38.204  21.660  25.624  1.00  0.00     0.274 C 
ENDROOT
BRANCH   1   2
ATOM      2  O   UNL A   1      37.496  21.438  24.400  1.00  0.00    -0.462 OA
BRANCH   2   3
ATOM      3  C   UNL A   1      36.524  22.240  23.907  1.00  0.00     0.306 C 
ATOM      4  O   UNL A   1      36.776  22.942  22.927  1.00  0.00    -0.252 OA
BRANCH   3   5
ATOM      5  C   UNL A   1      35.215  22.432  24.664  1.00  0.00     0.126 C 
BRANCH   5   6
ATOM      6  C   UNL A   1      34.495  21.254  25.343  1.00  0.00     0.011 C 
ATOM      7  C   UNL A   1      33.164  20.948  24.606  1.00  0.00     0.066 C 
ATOM      8  C   UNL A   1      34.101  21.452  26.815  1.00  0.00     0.066 C 
ATOM      9  C   UNL A   1      32.047  21.979  24.895  1.00  0.00     0.262 C 
ATOM     10  C   UNL A   1      33.086  22.569  27.028  1.00  0.00     0.262 C 
ATOM     11  N   UNL A   1      31.854  22.276  26.329  1.00  0.00    -0.332 N 
ATOM     12  H   UNL A   1      31.500  21.387  26.682  1.00  0.00     0.348 HD
BRANCH  11  13
ATOM     13  C   UNL A   1      30.781  23.247  26.666  1.00  0.00     0.308 C 
BRANCH  13  14
ATOM     14  C   UNL A   1      30.984  24.793  26.648  1.00  0.00     0.232 C 
ATOM     15  C   UNL A   1      32.220  25.530  25.932  1.00  0.00     0.090 C 
ATOM     16  O   UNL A   1      29.714  25.277  26.200  1.00  0.00    -0.484 OA
ATOM     17  C   UNL A   1      31.588  26.301  24.807  1.00  0.00    -0.002 A 
ATOM     18  C   UNL A   1      29.989  25.765  24.947  1.00  0.00     0.123 A 
ATOM     19  C   UNL A   1      32.061  27.730  23.844  1.00  0.00     0.007 A 
ATOM     20  C   UNL A   1      28.706  26.580  24.116  1.00  0.00     0.047 A 
ATOM     21  C   UNL A   1      30.861  28.734  22.949  1.00  0.00     0.001 A 
ATOM     22  C   UNL A   1      29.107  28.242  23.043  1.00  0.00     0.004 A 
ENDBRANCH  13  14
ENDBRANCH  11  13
ENDBRANCH   5   6
ENDBRANCH   3   5
ENDBRANCH   2   3
ENDBRANCH   1   2
BRANCH   1  23
ATOM     23  C   UNL A   1      39.572  20.986  25.701  1.00  0.00     0.275 C 
BRANCH  23  24
ATOM     24  O   UNL A   1      40.451  21.589  26.658  1.00  0.00    -0.458 OA
BRANCH  24  25
ATOM     25  C   UNL A   1      41.552  22.213  26.160  1.00  0.00     0.338 C 
ATOM     26  O   UNL A   1      42.252  21.758  25.265  1.00  0.00    -0.246 OA
BRANCH  25  27
ATOM     27  C   UNL A   1      41.751  23.660  26.728  1.00  0.00     0.060 A 
ATOM     28  C   UNL A   1      40.234  23.940  27.687  1.00  0.00     0.016 A 
ATOM     29  C   UNL A   1      42.912  25.291  26.387  1.00  0.00     0.016 A 
ATOM     30  C   UNL A   1      39.894  25.561  28.309  1.00  0.00     0.010 A 
ATOM     31  C   UNL A   1      42.444  26.859  27.093  1.00  0.00     0.010 A 
ATOM     32  C   UNL A   1      40.974  26.949  28.070  1.00  0.00    -0.014 A 
BRANCH  32  33
ATOM     33  C   UNL A   1      41.041  28.102  29.053  1.00  0.00     0.031 A 
ATOM     34  C   UNL A   1      41.995  27.918  30.207  1.00  0.00     0.074 A 
ATOM     35  C   UNL A   1      40.072  29.052  29.138  1.00  0.00     0.049 A 
ATOM     36  N   UNL A   1      42.018  28.508  31.372  1.00  0.00    -0.248 NA
ATOM     37  C   UNL A   1      42.982  26.831  30.064  1.00  0.00     0.031 C 
ATOM     38  C   UNL A   1      38.963  29.281  28.200  1.00  0.00     0.029 A 
ATOM     39  N   UNL A   1      39.817  29.989  30.127  1.00  0.00    -0.354 N 
ATOM     40  C   UNL A   1      42.980  27.824  32.105  1.00  0.00     0.074 A 
ATOM     41  C   UNL A   1      43.404  26.697  31.310  1.00  0.00     0.031 C 
ATOM     42  C   UNL A   1      38.149  30.245  28.668  1.00  0.00     0.029 A 
ATOM     43  C   UNL A   1      38.672  30.740  29.931  1.00  0.00     0.049 A 
ATOM     44  H   UNL A   1      40.405  30.109  30.907  1.00  0.00     0.167 HD
ATOM     45  C   UNL A   1      43.528  28.150  33.297  1.00  0.00     0.037 A 
ATOM     46  C   UNL A   1      38.113  31.729  30.666  1.00  0.00     0.037 A 
ATOM     47  C   UNL A   1      43.185  29.342  34.018  1.00  0.00     0.049 A 
ATOM     48  C   UNL A   1      38.809  32.155  31.937  1.00  0.00     0.074 A 
ATOM     49  C   UNL A   1      43.810  29.885  35.125  1.00  0.00     0.029 A 
ATOM     50  N   UNL A   1      42.134  30.183  33.690  1.00  0.00    -0.354 N 
ATOM     51  N   UNL A   1      39.865  31.628  32.512  1.00  0.00    -0.248 NA
ATOM     52  C   UNL A   1      38.266  33.325  32.645  1.00  0.00     0.031 C 
ATOM     53  C   UNL A   1      43.111  31.036  35.492  1.00  0.00     0.029 A 
ATOM     54  C   UNL A   1      42.080  31.234  34.586  1.00  0.00     0.049 A 
ATOM     55  H   UNL A   1      41.520  30.053  32.932  1.00  0.00     0.167 HD
ATOM     56  C   UNL A   1      40.135  32.427  33.618  1.00  0.00     0.074 A 
ATOM     57  C   UNL A   1      39.148  33.484  33.623  1.00  0.00     0.031 C 
ATOM     58  C   UNL A   1      41.109  32.295  34.551  1.00  0.00     0.037 A 
BRANCH  45  59
ATOM     59  C   UNL A   1      44.626  27.275  33.831  1.00  0.00     0.058 A 
ATOM     60  C   UNL A   1      45.975  27.538  33.534  1.00  0.00     0.135 A 
ATOM     61  C   UNL A   1      44.344  26.206  34.694  1.00  0.00     0.135 A 
ATOM     62  F   UNL A   1      46.305  28.542  32.704  1.00  0.00    -0.206 F 
ATOM     63  C   UNL A   1      47.000  26.756  34.045  1.00  0.00     0.059 A 
ATOM     64  C   UNL A   1      45.359  25.433  35.252  1.00  0.00     0.059 A 
ATOM     65  F   UNL A   1      43.075  25.907  35.011  1.00  0.00    -0.206 F 
ATOM     66  C   UNL A   1      46.683  25.713  34.915  1.00  0.00     0.060 A 
BRANCH  66  67
ATOM     67  S   UNL A   1      48.040  24.760  35.624  1.00  0.00     0.124 S 
ATOM     68  O   UNL A   1      48.893  25.818  36.158  1.00  0.00    -0.237 OA
ATOM     69  O   UNL A   1      47.353  23.939  36.617  1.00  0.00    -0.237 OA
ATOM     70  O   UNL A   1      48.582  24.035  34.480  1.00  0.00    -0.744 OA
ENDBRANCH  66  67
ENDBRANCH  45  59
BRANCH  46  71
ATOM     71  C   UNL A   1      36.885  32.462  30.212  1.00  0.00     0.058 A 
ATOM     72  C   UNL A   1      36.977  33.487  29.253  1.00  0.00     0.135 A 
ATOM     73  C   UNL A   1      35.615  32.218  30.762  1.00  0.00     0.135 A 
ATOM     74  F   UNL A   1      38.163  33.772  28.693  1.00  0.00    -0.206 F 
ATOM     75  C   UNL A   1      35.883  34.275  28.900  1.00  0.00     0.059 A 
ATOM     76  C   UNL A   1      34.496  32.975  30.402  1.00  0.00     0.059 A 
ATOM     77  F   UNL A   1      35.452  31.242  31.668  1.00  0.00    -0.206 F 
ATOM     78  C   UNL A   1      34.645  34.017  29.486  1.00  0.00     0.060 A 
BRANCH  78  79
ATOM     79  S   UNL A   1      33.238  35.057  29.025  1.00  0.00     0.124 S 
ATOM     80  O   UNL A   1      33.904  36.240  28.495  1.00  0.00    -0.237 OA
ATOM     81  O   UNL A   1      32.548  34.222  28.048  1.00  0.00    -0.237 OA
ATOM     82  O   UNL A   1      32.530  35.245  30.289  1.00  0.00    -0.744 OA
ENDBRANCH  78  79
ENDBRANCH  46  71
BRANCH  58  83
ATOM     83  C   UNL A   1      41.187  33.328  35.637  1.00  0.00     0.058 A 
ATOM     84  C   UNL A   1      41.846  34.549  35.439  1.00  0.00     0.135 A 
ATOM     85  C   UNL A   1      40.498  33.136  36.847  1.00  0.00     0.135 A 
ATOM     86  F   UNL A   1      42.523  34.776  34.302  1.00  0.00    -0.206 F 
ATOM     87  C   UNL A   1      41.827  35.545  36.407  1.00  0.00     0.059 A 
ATOM     88  C   UNL A   1      40.436  34.133  37.813  1.00  0.00     0.059 A 
ATOM     89  F   UNL A   1      39.841  31.988  37.078  1.00  0.00    -0.206 F 
ATOM     90  C   UNL A   1      41.108  35.333  37.584  1.00  0.00     0.060 A 
BRANCH  90  91
ATOM     91  S   UNL A   1      41.028  36.670  38.794  1.00  0.00     0.124 S 
ATOM     92  O   UNL A   1      41.077  35.932  40.051  1.00  0.00    -0.237 OA
ATOM     93  O   UNL A   1      42.215  37.452  38.469  1.00  0.00    -0.237 OA
ATOM     94  O   UNL A   1      39.754  37.321  38.499  1.00  0.00    -0.744 OA
ENDBRANCH  90  91
ENDBRANCH  58  83
ENDBRANCH  32  33
ENDBRANCH  25  27
ENDBRANCH  24  25
ENDBRANCH  23  24
ENDBRANCH   1  23
TORSDOF 17
ENDMDL
MODEL 3
REMARK VINA RESULT:     -11.6      1.540      2.482
REMARK SMILES O=C(CC1CC[NH+](C[C@H]2Cc3ccccc3O2)CC1)OCCOC(=O)c1ccc(-c2c3nc(c(-c4c(F)cc(S(=O)(=O)[O-])cc4F)c4ccc([nH]4)c(-c4c(F)cc(S(=O)(=O)[O-])cc4F)c4nc(c(-c5c(F)cc(S(=O)(=O)[O-])cc5F)c5ccc2[nH]5)C=C4)C=C3)cc1
REMARK SMILES IDX 21 1 20 2 2 3 1 4 3 5 4 6 5 7 19 8 6 9 18 10 7 11 8 13 9 14
REMARK SMILES IDX 10 15 17 16 11 17 16 18 12 19 15 20 13 21 14 22 22 23 23 24
REMARK SMILES IDX 24 25 25 26 26 27 27 28 91 29 28 30 90 31 29 32 30 33 31 34
REMARK SMILES IDX 84 35 32 36 89 37 83 38 85 39 33 40 88 41 82 42 81 43 34 45
REMARK SMILES IDX 68 46 47 47 67 48 48 49 51 50 66 51 86 52 49 53 50 54 65 56
REMARK SMILES IDX 87 57 52 58 35 59 36 60 45 61 37 62 38 63 44 64 46 65 39 66
REMARK SMILES IDX 40 67 41 68 42 69 43 70 69 71 70 72 79 73 71 74 72 75 78 76
REMARK SMILES IDX 80 77 73 78 74 79 75 80 76 81 77 82 53 83 54 84 63 85 55 86
REMARK SMILES IDX 56 87 62 88 64 89 57 90 58 91 59 92 60 93 61 94
REMARK H PARENT 7 12 85 44 51 55
REMARK Flexibility Score: inf
ROOT
ATOM      1  C   UNL A   1      38.069  21.804  25.619  1.00  0.00     0.274 C 
ENDROOT
BRANCH   1   2
ATOM      2  O   UNL A   1      37.247  21.538  24.478  1.00  0.00    -0.462 OA
BRANCH   2   3
ATOM      3  C   UNL A   1      36.493  22.456  23.832  1.00  0.00     0.306 C 
ATOM      4  O   UNL A   1      36.971  23.034  22.854  1.00  0.00    -0.252 OA
BRANCH   3   5
ATOM      5  C   UNL A   1      35.163  22.921  24.415  1.00  0.00     0.126 C 
BRANCH   5   6
ATOM      6  C   UNL A   1      33.888  22.069  24.296  1.00  0.00     0.011 C 
ATOM      7  C   UNL A   1      33.131  22.424  22.989  1.00  0.00     0.066 C 
ATOM      8  C   UNL A   1      32.850  22.235  25.418  1.00  0.00     0.066 C 
ATOM      9  C   UNL A   1      32.388  23.779  23.054  1.00  0.00     0.262 C 
ATOM     10  C   UNL A   1      32.254  23.636  25.492  1.00  0.00     0.262 C 
ATOM     11  N   UNL A   1      31.559  23.957  24.264  1.00  0.00    -0.332 N 
ATOM     12  H   UNL A   1      30.831  23.255  24.126  1.00  0.00     0.348 HD
BRANCH  11  13
ATOM     13  C   UNL A   1      30.808  25.234  24.371  1.00  0.00     0.308 C 
BRANCH  13  14
ATOM     14  C   UNL A   1      31.429  26.627  24.047  1.00  0.00     0.232 C 
ATOM     15  C   UNL A   1      30.685  28.027  24.307  1.00  0.00     0.090 C 
ATOM     16  O   UNL A   1      32.714  26.558  24.673  1.00  0.00    -0.484 OA
ATOM     17  C   UNL A   1      31.506  28.689  25.379  1.00  0.00    -0.002 A 
ATOM     18  C   UNL A   1      32.605  27.446  25.713  1.00  0.00     0.123 A 
ATOM     19  C   UNL A   1      31.742  30.376  25.916  1.00  0.00     0.007 A 
ATOM     20  C   UNL A   1      34.033  27.755  26.644  1.00  0.00     0.047 A 
ATOM     21  C   UNL A   1      33.190  30.900  26.854  1.00  0.00     0.001 A 
ATOM     22  C   UNL A   1      34.439  29.634  27.259  1.00  0.00     0.004 A 
ENDBRANCH  13  14
ENDBRANCH  11  13
ENDBRANCH   5   6
ENDBRANCH   3   5
ENDBRANCH   2   3
ENDBRANCH   1   2
BRANCH   1  23
ATOM     23  C   UNL A   1      39.380  21.024  25.658  1.00  0.00     0.275 C 
BRANCH  23  24
ATOM     24  O   UNL A   1      40.297  21.499  26.650  1.00  0.00    -0.458 OA
BRANCH  24  25
ATOM     25  C   UNL A   1      41.438  22.081  26.191  1.00  0.00     0.338 C 
ATOM     26  O   UNL A   1      42.191  21.567  25.376  1.00  0.00    -0.246 OA
BRANCH  25  27
ATOM     27  C   UNL A   1      41.616  23.559  26.683  1.00  0.00     0.060 A 
ATOM     28  C   UNL A   1      40.213  23.792  27.812  1.00  0.00     0.016 A 
ATOM     29  C   UNL A   1      42.627  25.238  26.147  1.00  0.00     0.016 A 
ATOM     30  C   UNL A   1      39.855  25.415  28.419  1.00  0.00     0.010 A 
ATOM     31  C   UNL A   1      42.154  26.804  26.853  1.00  0.00     0.010 A 
ATOM     32  C   UNL A   1      40.811  26.851  28.002  1.00  0.00    -0.014 A 
BRANCH  32  33
ATOM     33  C   UNL A   1      40.928  28.044  28.930  1.00  0.00     0.031 A 
ATOM     34  C   UNL A   1      41.922  27.898  30.056  1.00  0.00     0.074 A 
ATOM     35  C   UNL A   1      39.973  29.009  29.009  1.00  0.00     0.049 A 
ATOM     36  N   UNL A   1      41.995  28.538  31.192  1.00  0.00    -0.248 NA
ATOM     37  C   UNL A   1      42.891  26.793  29.924  1.00  0.00     0.031 C 
ATOM     38  C   UNL A   1      38.833  29.212  28.104  1.00  0.00     0.029 A 
ATOM     39  N   UNL A   1      39.767  29.991  29.965  1.00  0.00    -0.354 N 
ATOM     40  C   UNL A   1      42.976  27.873  31.919  1.00  0.00     0.074 A 
ATOM     41  C   UNL A   1      43.358  26.708  31.158  1.00  0.00     0.031 C 
ATOM     42  C   UNL A   1      38.048  30.206  28.559  1.00  0.00     0.029 A 
ATOM     43  C   UNL A   1      38.623  30.748  29.779  1.00  0.00     0.049 A 
ATOM     44  H   UNL A   1      40.384  30.138  30.718  1.00  0.00     0.167 HD
ATOM     45  C   UNL A   1      43.572  28.243  33.074  1.00  0.00     0.037 A 
ATOM     46  C   UNL A   1      38.103  31.774  30.490  1.00  0.00     0.037 A 
ATOM     47  C   UNL A   1      43.269  29.470  33.755  1.00  0.00     0.049 A 
ATOM     48  C   UNL A   1      38.851  32.247  31.715  1.00  0.00     0.074 A 
ATOM     49  C   UNL A   1      43.941  30.052  34.813  1.00  0.00     0.029 A 
ATOM     50  N   UNL A   1      42.217  30.309  33.429  1.00  0.00    -0.354 N 
ATOM     51  N   UNL A   1      39.921  31.731  32.273  1.00  0.00    -0.248 NA
ATOM     52  C   UNL A   1      38.348  33.453  32.391  1.00  0.00     0.031 C 
ATOM     53  C   UNL A   1      43.269  31.227  35.155  1.00  0.00     0.029 A 
ATOM     54  C   UNL A   1      42.207  31.398  34.280  1.00  0.00     0.049 A 
ATOM     55  H   UNL A   1      41.573  30.154  32.700  1.00  0.00     0.167 HD
ATOM     56  C   UNL A   1      40.241  32.574  33.333  1.00  0.00     0.074 A 
ATOM     57  C   UNL A   1      39.267  33.642  33.328  1.00  0.00     0.031 C 
ATOM     58  C   UNL A   1      41.247  32.469  34.234  1.00  0.00     0.037 A 
BRANCH  45  59
ATOM     59  C   UNL A   1      44.679  27.378  33.606  1.00  0.00     0.058 A 
ATOM     60  C   UNL A   1      44.425  26.373  34.555  1.00  0.00     0.135 A 
ATOM     61  C   UNL A   1      45.991  27.506  33.125  1.00  0.00     0.135 A 
ATOM     62  F   UNL A   1      43.190  26.213  35.061  1.00  0.00    -0.206 F 
ATOM     63  C   UNL A   1      45.434  25.549  35.032  1.00  0.00     0.059 A 
ATOM     64  C   UNL A   1      47.010  26.662  33.557  1.00  0.00     0.059 A 
ATOM     65  F   UNL A   1      46.292  28.449  32.219  1.00  0.00    -0.206 F 
ATOM     66  C   UNL A   1      46.721  25.692  34.517  1.00  0.00     0.060 A 
BRANCH  66  67
ATOM     67  S   UNL A   1      47.997  24.557  35.097  1.00  0.00     0.124 S 
ATOM     68  O   UNL A   1      47.649  23.334  34.379  1.00  0.00    -0.237 OA
ATOM     69  O   UNL A   1      49.221  25.220  34.662  1.00  0.00    -0.237 OA
ATOM     70  O   UNL A   1      47.786  24.518  36.540  1.00  0.00    -0.744 OA
ENDBRANCH  66  67
ENDBRANCH  45  59
BRANCH  46  71
ATOM     71  C   UNL A   1      36.867  32.503  30.050  1.00  0.00     0.058 A 
ATOM     72  C   UNL A   1      36.960  33.624  29.205  1.00  0.00     0.135 A 
ATOM     73  C   UNL A   1      35.585  32.156  30.507  1.00  0.00     0.135 A 
ATOM     74  F   UNL A   1      38.158  34.010  28.739  1.00  0.00    -0.206 F 
ATOM     75  C   UNL A   1      35.851  34.402  28.878  1.00  0.00     0.059 A 
ATOM     76  C   UNL A   1      34.452  32.902  30.168  1.00  0.00     0.059 A 
ATOM     77  F   UNL A   1      35.421  31.086  31.300  1.00  0.00    -0.206 F 
ATOM     78  C   UNL A   1      34.599  34.038  29.370  1.00  0.00     0.060 A 
BRANCH  78  79
ATOM     79  S   UNL A   1      33.172  35.065  28.945  1.00  0.00     0.124 S 
ATOM     80  O   UNL A   1      32.461  34.210  28.002  1.00  0.00    -0.237 OA
ATOM     81  O   UNL A   1      32.532  35.252  30.243  1.00  0.00    -0.237 OA
ATOM     82  O   UNL A   1      33.778  36.265  28.374  1.00  0.00    -0.744 OA
ENDBRANCH  78  79
ENDBRANCH  46  71
BRANCH  58  83
ATOM     83  C   UNL A   1      41.377  33.547  35.271  1.00  0.00     0.058 A 
ATOM     84  C   UNL A   1      40.765  33.430  36.526  1.00  0.00     0.135 A 
ATOM     85  C   UNL A   1      42.215  34.652  35.043  1.00  0.00     0.135 A 
ATOM     86  F   UNL A   1      39.951  32.395  36.790  1.00  0.00    -0.206 F 
ATOM     87  C   UNL A   1      40.973  34.377  37.522  1.00  0.00     0.059 A 
ATOM     88  C   UNL A   1      42.464  35.591  36.036  1.00  0.00     0.059 A 
ATOM     89  F   UNL A   1      42.833  34.801  33.860  1.00  0.00    -0.206 F 
ATOM     90  C   UNL A   1      41.835  35.446  37.272  1.00  0.00     0.060 A 
BRANCH  90  91
ATOM     91  S   UNL A   1      42.155  36.620  38.603  1.00  0.00     0.124 S 
ATOM     92  O   UNL A   1      40.821  37.157  38.850  1.00  0.00    -0.237 OA
ATOM     93  O   UNL A   1      42.698  35.761  39.650  1.00  0.00    -0.237 OA
ATOM     94  O   UNL A   1      43.108  37.556  38.011  1.00  0.00    -0.744 OA
ENDBRANCH  90  91
ENDBRANCH  58  83
ENDBRANCH  32  33
ENDBRANCH  25  27
ENDBRANCH  24  25
ENDBRANCH  23  24
ENDBRANCH   1  23
TORSDOF 17
ENDMDL
