MODEL 1
REMARK VINA RESULT:     -11.5      0.000      0.000
REMARK SMILES Cc1nn(C)c(=O)c(C(=O)N2CCCC[C@H]2C(=O)OCCOC(=O)c2ccc(-c3c4nc(c(-c5c(F)cc(S(=O)(=O)[O-])cc5F)c5ccc([nH]5)c(-c5c(F)cc(S(=O)(=O)[O-])cc5F)c5nc(c(-c6c(F)cc(S(=O)(=O)[O-])cc6F)c6ccc3[nH]6)C=C5)C=C4)cc2)c1C
REMARK SMILES IDX 21 1 20 2 19 3 17 4 18 5 16 6 11 7 12 8 13 9 15 10 14 11
REMARK SMILES IDX 9 12 10 13 8 14 1 15 2 16 3 17 91 18 4 19 92 20 5 21 6 22
REMARK SMILES IDX 7 23 22 24 23 25 24 26 25 27 26 28 90 29 27 30 89 31 28 32
REMARK SMILES IDX 29 33 30 34 83 35 31 36 88 37 82 38 84 39 32 40 87 41 81 42
REMARK SMILES IDX 80 43 33 45 67 46 46 47 66 48 47 49 50 50 65 51 85 52 48 53
REMARK SMILES IDX 49 54 64 56 86 57 51 58 34 59 35 60 44 61 36 62 37 63 43 64
REMARK SMILES IDX 45 65 38 66 39 67 40 68 41 69 42 70 68 71 69 72 78 73 70 74
REMARK SMILES IDX 71 75 77 76 79 77 72 78 73 79 74 80 75 81 76 82 52 83 53 84
REMARK SMILES IDX 62 85 54 86 55 87 61 88 63 89 56 90 57 91 58 92 59 93 60 94
REMARK H PARENT 84 44 50 55
REMARK Flexibility Score: inf
ROOT
ATOM      1  C   UNL A   1      32.942  29.616  26.671  1.00  0.00     0.275 C 
ENDROOT
BRANCH   1   2
ATOM      2  C   UNL A   1      31.787  28.614  26.799  1.00  0.00     0.274 C 
BRANCH   2   3
ATOM      3  O   UNL A   1      32.004  27.513  25.892  1.00  0.00    -0.461 OA
BRANCH   3   4
ATOM      4  C   UNL A   1      31.550  26.271  26.196  1.00  0.00     0.328 C 
ATOM      5  O   UNL A   1      30.385  26.047  26.492  1.00  0.00    -0.250 OA
BRANCH   4   6
ATOM      6  C   UNL A   1      32.711  25.211  26.117  1.00  0.00     0.195 C 
ATOM      7  N   UNL A   1      32.225  23.831  25.885  1.00  0.00    -0.325 N 
ATOM      8  C   UNL A   1      31.490  23.688  24.619  1.00  0.00     0.121 C 
ATOM      9  C   UNL A   1      32.345  24.072  23.408  1.00  0.00     0.022 C 
ATOM     10  C   UNL A   1      33.696  25.521  24.960  1.00  0.00     0.037 C 
ATOM     11  C   UNL A   1      33.036  25.420  23.581  1.00  0.00     0.005 C 
BRANCH   7  12
ATOM     12  C   UNL A   1      32.800  22.670  26.414  1.00  0.00     0.260 C 
ATOM     13  O   UNL A   1      32.649  22.430  27.617  1.00  0.00    -0.269 OA
BRANCH  12  14
ATOM     14  C   UNL A   1      33.730  21.751  25.636  1.00  0.00     0.111 A 
ATOM     15  C   UNL A   1      37.342  20.928  24.731  1.00  0.00     0.069 C 
ATOM     16  C   UNL A   1      35.865  20.741  25.020  1.00  0.00     0.062 A 
ATOM     17  N   UNL A   1      35.390  19.563  24.802  1.00  0.00    -0.175 NA
ATOM     18  C   UNL A   1      35.073  21.879  25.578  1.00  0.00    -0.010 A 
ATOM     19  N   UNL A   1      34.050  19.389  24.964  1.00  0.00    -0.232 N 
ATOM     20  C   UNL A   1      35.895  22.981  26.131  1.00  0.00     0.047 C 
ATOM     21  C   UNL A   1      33.589  18.025  24.772  1.00  0.00     0.178 C 
ATOM     22  C   UNL A   1      33.148  20.435  25.164  1.00  0.00     0.279 A 
ATOM     23  O   UNL A   1      31.938  20.293  24.994  1.00  0.00    -0.267 OA
ENDBRANCH  12  14
ENDBRANCH   7  12
ENDBRANCH   4   6
ENDBRANCH   3   4
ENDBRANCH   2   3
ENDBRANCH   1   2
BRANCH   1  24
ATOM     24  O   UNL A   1      33.979  29.319  27.624  1.00  0.00    -0.458 OA
BRANCH  24  25
ATOM     25  C   UNL A   1      34.567  30.402  28.184  1.00  0.00     0.338 C 
ATOM     26  O   UNL A   1      34.012  31.397  28.618  1.00  0.00    -0.246 OA
BRANCH  25  27
ATOM     27  C   UNL A   1      35.972  30.073  28.472  1.00  0.00     0.060 A 
ATOM     28  C   UNL A   1      36.853  30.218  27.407  1.00  0.00     0.016 A 
ATOM     29  C   UNL A   1      36.437  29.631  29.706  1.00  0.00     0.016 A 
ATOM     30  C   UNL A   1      38.196  29.919  27.529  1.00  0.00     0.010 A 
ATOM     31  C   UNL A   1      37.802  29.340  29.846  1.00  0.00     0.010 A 
ATOM     32  C   UNL A   1      38.686  29.482  28.757  1.00  0.00    -0.014 A 
BRANCH  32  33
ATOM     33  C   UNL A   1      40.114  29.113  28.855  1.00  0.00     0.031 A 
ATOM     34  C   UNL A   1      41.093  30.120  29.375  1.00  0.00     0.074 A 
ATOM     35  C   UNL A   1      40.510  27.859  28.565  1.00  0.00     0.049 A 
ATOM     36  N   UNL A   1      42.396  30.066  29.406  1.00  0.00    -0.248 NA
ATOM     37  C   UNL A   1      40.523  31.353  29.941  1.00  0.00     0.031 C 
ATOM     38  C   UNL A   1      39.620  26.760  28.181  1.00  0.00     0.029 A 
ATOM     39  N   UNL A   1      41.758  27.293  28.565  1.00  0.00    -0.354 N 
ATOM     40  C   UNL A   1      42.809  31.275  29.951  1.00  0.00     0.074 A 
ATOM     41  C   UNL A   1      41.616  32.041  30.240  1.00  0.00     0.031 C 
ATOM     42  C   UNL A   1      40.351  25.649  27.997  1.00  0.00     0.029 A 
ATOM     43  C   UNL A   1      41.763  25.976  28.170  1.00  0.00     0.049 A 
ATOM     44  H   UNL A   1      42.573  27.781  28.823  1.00  0.00     0.167 HD
ATOM     45  C   UNL A   1      44.073  31.703  30.176  1.00  0.00     0.037 A 
ATOM     46  C   UNL A   1      42.793  25.143  27.929  1.00  0.00     0.037 A 
ATOM     47  C   UNL A   1      45.242  30.910  29.893  1.00  0.00     0.049 A 
ATOM     48  C   UNL A   1      44.192  25.663  28.100  1.00  0.00     0.074 A 
ATOM     49  C   UNL A   1      46.574  31.256  30.030  1.00  0.00     0.029 A 
ATOM     50  N   UNL A   1      45.213  29.602  29.425  1.00  0.00    -0.354 N 
ATOM     51  N   UNL A   1      44.583  26.850  28.505  1.00  0.00    -0.248 NA
ATOM     52  C   UNL A   1      45.289  24.749  27.765  1.00  0.00     0.031 C 
ATOM     53  C   UNL A   1      47.350  30.170  29.607  1.00  0.00     0.029 A 
ATOM     54  C   UNL A   1      46.504  29.129  29.256  1.00  0.00     0.049 A 
ATOM     55  H   UNL A   1      44.395  29.088  29.240  1.00  0.00     0.167 HD
ATOM     56  C   UNL A   1      45.972  26.822  28.484  1.00  0.00     0.074 A 
ATOM     57  C   UNL A   1      46.352  25.495  28.038  1.00  0.00     0.031 C 
ATOM     58  C   UNL A   1      46.852  27.804  28.804  1.00  0.00     0.037 A 
BRANCH  45  59
ATOM     59  C   UNL A   1      44.244  33.109  30.681  1.00  0.00     0.058 A 
ATOM     60  C   UNL A   1      44.319  33.409  32.049  1.00  0.00     0.135 A 
ATOM     61  C   UNL A   1      44.307  34.178  29.772  1.00  0.00     0.135 A 
ATOM     62  F   UNL A   1      44.236  32.429  32.962  1.00  0.00    -0.206 F 
ATOM     63  C   UNL A   1      44.414  34.723  32.501  1.00  0.00     0.059 A 
ATOM     64  C   UNL A   1      44.429  35.496  30.200  1.00  0.00     0.059 A 
ATOM     65  F   UNL A   1      44.232  33.949  28.451  1.00  0.00    -0.206 F 
ATOM     66  C   UNL A   1      44.461  35.760  31.568  1.00  0.00     0.060 A 
BRANCH  66  67
ATOM     67  S   UNL A   1      44.549  37.461  32.167  1.00  0.00     0.124 S 
ATOM     68  O   UNL A   1      43.896  38.185  31.080  1.00  0.00    -0.237 OA
ATOM     69  O   UNL A   1      43.803  37.391  33.419  1.00  0.00    -0.237 OA
ATOM     70  O   UNL A   1      45.983  37.700  32.306  1.00  0.00    -0.744 OA
ENDBRANCH  66  67
ENDBRANCH  45  59
BRANCH  46  71
ATOM     71  C   UNL A   1      42.521  23.756  27.468  1.00  0.00     0.058 A 
ATOM     72  C   UNL A   1      42.460  23.444  26.103  1.00  0.00     0.135 A 
ATOM     73  C   UNL A   1      42.395  22.698  28.385  1.00  0.00     0.135 A 
ATOM     74  F   UNL A   1      42.559  24.421  25.188  1.00  0.00    -0.206 F 
ATOM     75  C   UNL A   1      42.308  22.133  25.662  1.00  0.00     0.059 A 
ATOM     76  C   UNL A   1      42.267  21.377  27.968  1.00  0.00     0.059 A 
ATOM     77  F   UNL A   1      42.451  22.942  29.704  1.00  0.00    -0.206 F 
ATOM     78  C   UNL A   1      42.230  21.103  26.602  1.00  0.00     0.060 A 
BRANCH  78  79
ATOM     79  S   UNL A   1      42.147  19.397  26.015  1.00  0.00     0.124 S 
ATOM     80  O   UNL A   1      43.070  19.426  24.888  1.00  0.00    -0.237 OA
ATOM     81  O   UNL A   1      42.593  18.650  27.187  1.00  0.00    -0.237 OA
ATOM     82  O   UNL A   1      40.738  19.226  25.673  1.00  0.00    -0.744 OA
ENDBRANCH  78  79
ENDBRANCH  46  71
BRANCH  58  83
ATOM     83  C   UNL A   1      48.314  27.469  28.707  1.00  0.00     0.058 A 
ATOM     84  C   UNL A   1      49.057  27.744  27.550  1.00  0.00     0.135 A 
ATOM     85  C   UNL A   1      48.988  26.916  29.807  1.00  0.00     0.135 A 
ATOM     86  F   UNL A   1      48.458  28.268  26.469  1.00  0.00    -0.206 F 
ATOM     87  C   UNL A   1      50.418  27.462  27.479  1.00  0.00     0.059 A 
ATOM     88  C   UNL A   1      50.351  26.650  29.767  1.00  0.00     0.059 A 
ATOM     89  F   UNL A   1      48.322  26.646  30.942  1.00  0.00    -0.206 F 
ATOM     90  C   UNL A   1      51.056  26.916  28.595  1.00  0.00     0.060 A 
BRANCH  90  91
ATOM     91  S   UNL A   1      52.826  26.580  28.498  1.00  0.00     0.124 S 
ATOM     92  O   UNL A   1      53.357  27.898  28.166  1.00  0.00    -0.237 OA
ATOM     93  O   UNL A   1      53.127  26.096  29.842  1.00  0.00    -0.237 OA
ATOM     94  O   UNL A   1      52.925  25.578  27.441  1.00  0.00    -0.744 OA
ENDBRANCH  90  91
ENDBRANCH  58  83
ENDBRANCH  32  33
ENDBRANCH  25  27
ENDBRANCH  24  25
ENDBRANCH   1  24
TORSDOF 16
ENDMDL
MODEL 2
REMARK VINA RESULT:     -11.5      1.072      2.052
REMARK SMILES Cc1nn(C)c(=O)c(C(=O)N2CCCC[C@H]2C(=O)OCCOC(=O)c2ccc(-c3c4nc(c(-c5c(F)cc(S(=O)(=O)[O-])cc5F)c5ccc([nH]5)c(-c5c(F)cc(S(=O)(=O)[O-])cc5F)c5nc(c(-c6c(F)cc(S(=O)(=O)[O-])cc6F)c6ccc3[nH]6)C=C5)C=C4)cc2)c1C
REMARK SMILES IDX 21 1 20 2 19 3 17 4 18 5 16 6 11 7 12 8 13 9 15 10 14 11
REMARK SMILES IDX 9 12 10 13 8 14 1 15 2 16 3 17 91 18 4 19 92 20 5 21 6 22
REMARK SMILES IDX 7 23 22 24 23 25 24 26 25 27 26 28 90 29 27 30 89 31 28 32
REMARK SMILES IDX 29 33 30 34 83 35 31 36 88 37 82 38 84 39 32 40 87 41 81 42
REMARK SMILES IDX 80 43 33 45 67 46 46 47 66 48 47 49 50 50 65 51 85 52 48 53
REMARK SMILES IDX 49 54 64 56 86 57 51 58 34 59 35 60 44 61 36 62 37 63 43 64
REMARK SMILES IDX 45 65 38 66 39 67 40 68 41 69 42 70 68 71 69 72 78 73 70 74
REMARK SMILES IDX 71 75 77 76 79 77 72 78 73 79 74 80 75 81 76 82 52 83 53 84
REMARK SMILES IDX 62 85 54 86 55 87 61 88 63 89 56 90 57 91 58 92 59 93 60 94
REMARK H PARENT 84 44 50 55
REMARK Flexibility Score: inf
ROOT
ATOM      1  C   UNL A   1      32.253  29.190  27.120  1.00  0.00     0.275 C 
ENDROOT
BRANCH   1   2
ATOM      2  C   UNL A   1      31.445  27.930  27.455  1.00  0.00     0.274 C 
BRANCH   2   3
ATOM      3  O   UNL A   1      31.207  27.177  26.248  1.00  0.00    -0.461 OA
BRANCH   3   4
ATOM      4  C   UNL A   1      31.649  25.899  26.136  1.00  0.00     0.328 C 
ATOM      5  O   UNL A   1      31.175  24.976  26.784  1.00  0.00    -0.250 OA
BRANCH   4   6
ATOM      6  C   UNL A   1      32.821  25.796  25.090  1.00  0.00     0.195 C 
ATOM      7  N   UNL A   1      32.703  24.622  24.196  1.00  0.00    -0.325 N 
ATOM      8  C   UNL A   1      31.472  24.637  23.390  1.00  0.00     0.121 C 
ATOM      9  C   UNL A   1      31.374  25.884  22.508  1.00  0.00     0.022 C 
ATOM     10  C   UNL A   1      32.877  27.039  24.164  1.00  0.00     0.037 C 
ATOM     11  C   UNL A   1      31.631  27.172  23.281  1.00  0.00     0.005 C 
BRANCH   7  12
ATOM     12  C   UNL A   1      33.774  23.873  23.695  1.00  0.00     0.260 C 
ATOM     13  O   UNL A   1      34.235  24.168  22.587  1.00  0.00    -0.269 OA
BRANCH  12  14
ATOM     14  C   UNL A   1      34.318  22.617  24.359  1.00  0.00     0.111 A 
ATOM     15  C   UNL A   1      33.953  18.845  24.784  1.00  0.00     0.069 C 
ATOM     16  C   UNL A   1      34.595  20.217  24.703  1.00  0.00     0.062 A 
ATOM     17  N   UNL A   1      35.846  20.276  25.009  1.00  0.00    -0.175 NA
ATOM     18  C   UNL A   1      33.787  21.383  24.232  1.00  0.00    -0.010 A 
ATOM     19  N   UNL A   1      36.426  21.507  25.034  1.00  0.00    -0.232 N 
ATOM     20  C   UNL A   1      32.525  21.014  23.549  1.00  0.00     0.047 C 
ATOM     21  C   UNL A   1      37.852  21.497  25.316  1.00  0.00     0.178 C 
ATOM     22  C   UNL A   1      35.717  22.704  24.935  1.00  0.00     0.279 A 
ATOM     23  O   UNL A   1      36.207  23.781  25.270  1.00  0.00    -0.267 OA
ENDBRANCH  12  14
ENDBRANCH   7  12
ENDBRANCH   4   6
ENDBRANCH   3   4
ENDBRANCH   2   3
ENDBRANCH   1   2
BRANCH   1  24
ATOM     24  O   UNL A   1      33.608  29.063  27.588  1.00  0.00    -0.458 OA
BRANCH  24  25
ATOM     25  C   UNL A   1      34.209  30.228  27.921  1.00  0.00     0.338 C 
ATOM     26  O   UNL A   1      33.666  31.298  28.143  1.00  0.00    -0.246 OA
BRANCH  25  27
ATOM     27  C   UNL A   1      35.609  29.947  28.278  1.00  0.00     0.060 A 
ATOM     28  C   UNL A   1      36.531  30.092  27.249  1.00  0.00     0.016 A 
ATOM     29  C   UNL A   1      36.031  29.547  29.541  1.00  0.00     0.016 A 
ATOM     30  C   UNL A   1      37.876  29.834  27.436  1.00  0.00     0.010 A 
ATOM     31  C   UNL A   1      37.396  29.298  29.747  1.00  0.00     0.010 A 
ATOM     32  C   UNL A   1      38.323  29.440  28.694  1.00  0.00    -0.014 A 
BRANCH  32  33
ATOM     33  C   UNL A   1      39.755  29.114  28.863  1.00  0.00     0.031 A 
ATOM     34  C   UNL A   1      40.674  30.146  29.441  1.00  0.00     0.074 A 
ATOM     35  C   UNL A   1      40.204  27.876  28.583  1.00  0.00     0.049 A 
ATOM     36  N   UNL A   1      41.975  30.132  29.539  1.00  0.00    -0.248 NA
ATOM     37  C   UNL A   1      40.037  31.355  29.987  1.00  0.00     0.031 C 
ATOM     38  C   UNL A   1      39.370  26.754  28.144  1.00  0.00     0.029 A 
ATOM     39  N   UNL A   1      41.468  27.349  28.643  1.00  0.00    -0.354 N 
ATOM     40  C   UNL A   1      42.320  31.347  30.114  1.00  0.00     0.074 A 
ATOM     41  C   UNL A   1      41.091  32.073  30.348  1.00  0.00     0.031 C 
ATOM     42  C   UNL A   1      40.144  25.668  27.989  1.00  0.00     0.029 A 
ATOM     43  C   UNL A   1      41.534  26.037  28.237  1.00  0.00     0.049 A 
ATOM     44  H   UNL A   1      42.252  27.859  28.947  1.00  0.00     0.167 HD
ATOM     45  C   UNL A   1      43.558  31.812  30.408  1.00  0.00     0.037 A 
ATOM     46  C   UNL A   1      42.601  25.238  28.043  1.00  0.00     0.037 A 
ATOM     47  C   UNL A   1      44.764  31.058  30.180  1.00  0.00     0.049 A 
ATOM     48  C   UNL A   1      43.972  25.799  28.291  1.00  0.00     0.074 A 
ATOM     49  C   UNL A   1      46.075  31.443  30.388  1.00  0.00     0.029 A 
ATOM     50  N   UNL A   1      44.800  29.755  29.700  1.00  0.00    -0.354 N 
ATOM     51  N   UNL A   1      44.304  26.993  28.725  1.00  0.00    -0.248 NA
ATOM     52  C   UNL A   1      45.113  24.923  28.005  1.00  0.00     0.031 C 
ATOM     53  C   UNL A   1      46.906  30.387  29.996  1.00  0.00     0.029 A 
ATOM     54  C   UNL A   1      46.112  29.324  29.593  1.00  0.00     0.049 A 
ATOM     55  H   UNL A   1      44.009  29.217  29.468  1.00  0.00     0.167 HD
ATOM     56  C   UNL A   1      45.693  27.009  28.775  1.00  0.00     0.074 A 
ATOM     57  C   UNL A   1      46.136  25.698  28.339  1.00  0.00     0.031 C 
ATOM     58  C   UNL A   1      46.524  28.014  29.148  1.00  0.00     0.037 A 
BRANCH  45  59
ATOM     59  C   UNL A   1      43.658  33.217  30.933  1.00  0.00     0.058 A 
ATOM     60  C   UNL A   1      43.812  34.324  30.085  1.00  0.00     0.135 A 
ATOM     61  C   UNL A   1      43.624  33.452  32.317  1.00  0.00     0.135 A 
ATOM     62  F   UNL A   1      43.878  34.154  28.756  1.00  0.00    -0.206 F 
ATOM     63  C   UNL A   1      43.967  35.612  30.592  1.00  0.00     0.059 A 
ATOM     64  C   UNL A   1      43.749  34.734  32.845  1.00  0.00     0.059 A 
ATOM     65  F   UNL A   1      43.486  32.429  33.175  1.00  0.00    -0.206 F 
ATOM     66  C   UNL A   1      43.941  35.805  31.975  1.00  0.00     0.060 A 
BRANCH  66  67
ATOM     67  S   UNL A   1      44.177  37.475  32.620  1.00  0.00     0.124 S 
ATOM     68  O   UNL A   1      45.610  37.475  32.904  1.00  0.00    -0.237 OA
ATOM     69  O   UNL A   1      43.753  38.307  31.500  1.00  0.00    -0.237 OA
ATOM     70  O   UNL A   1      43.307  37.513  33.793  1.00  0.00    -0.744 OA
ENDBRANCH  66  67
ENDBRANCH  45  59
BRANCH  46  71
ATOM     71  C   UNL A   1      42.397  23.848  27.557  1.00  0.00     0.058 A 
ATOM     72  C   UNL A   1      42.351  23.559  26.187  1.00  0.00     0.135 A 
ATOM     73  C   UNL A   1      42.322  22.769  28.454  1.00  0.00     0.135 A 
ATOM     74  F   UNL A   1      42.402  24.555  25.289  1.00  0.00    -0.206 F 
ATOM     75  C   UNL A   1      42.263  22.250  25.721  1.00  0.00     0.059 A 
ATOM     76  C   UNL A   1      42.258  21.451  28.014  1.00  0.00     0.059 A 
ATOM     77  F   UNL A   1      42.366  22.992  29.778  1.00  0.00    -0.206 F 
ATOM     78  C   UNL A   1      42.234  21.201  26.643  1.00  0.00     0.060 A 
BRANCH  78  79
ATOM     79  S   UNL A   1      42.234  19.503  26.026  1.00  0.00     0.124 S 
ATOM     80  O   UNL A   1      40.837  19.323  25.652  1.00  0.00    -0.237 OA
ATOM     81  O   UNL A   1      43.186  19.581  24.922  1.00  0.00    -0.237 OA
ATOM     82  O   UNL A   1      42.685  18.726  27.177  1.00  0.00    -0.744 OA
ENDBRANCH  78  79
ENDBRANCH  46  71
BRANCH  58  83
ATOM     83  C   UNL A   1      47.999  27.725  29.124  1.00  0.00     0.058 A 
ATOM     84  C   UNL A   1      48.661  27.181  30.235  1.00  0.00     0.135 A 
ATOM     85  C   UNL A   1      48.744  27.946  27.955  1.00  0.00     0.135 A 
ATOM     86  F   UNL A   1      47.994  26.958  31.378  1.00  0.00    -0.206 F 
ATOM     87  C   UNL A   1      50.020  26.886  30.194  1.00  0.00     0.059 A 
ATOM     88  C   UNL A   1      50.097  27.634  27.884  1.00  0.00     0.059 A 
ATOM     89  F   UNL A   1      48.152  28.453  26.861  1.00  0.00    -0.206 F 
ATOM     90  C   UNL A   1      50.728  27.115  29.012  1.00  0.00     0.060 A 
BRANCH  90  91
ATOM     91  S   UNL A   1      52.484  26.702  28.966  1.00  0.00     0.124 S 
ATOM     92  O   UNL A   1      53.096  28.025  28.895  1.00  0.00    -0.237 OA
ATOM     93  O   UNL A   1      52.670  25.985  30.223  1.00  0.00    -0.237 OA
ATOM     94  O   UNL A   1      52.611  25.886  27.761  1.00  0.00    -0.744 OA
ENDBRANCH  90  91
ENDBRANCH  58  83
ENDBRANCH  32  33
ENDBRANCH  25  27
ENDBRANCH  24  25
ENDBRANCH   1  24
TORSDOF 16
ENDMDL
MODEL 3
REMARK VINA RESULT:     -11.5      5.474     10.959
REMARK SMILES Cc1nn(C)c(=O)c(C(=O)N2CCCC[C@H]2C(=O)OCCOC(=O)c2ccc(-c3c4nc(c(-c5c(F)cc(S(=O)(=O)[O-])cc5F)c5ccc([nH]5)c(-c5c(F)cc(S(=O)(=O)[O-])cc5F)c5nc(c(-c6c(F)cc(S(=O)(=O)[O-])cc6F)c6ccc3[nH]6)C=C5)C=C4)cc2)c1C
REMARK SMILES IDX 21 1 20 2 19 3 17 4 18 5 16 6 11 7 12 8 13 9 15 10 14 11
REMARK SMILES IDX 9 12 10 13 8 14 1 15 2 16 3 17 91 18 4 19 92 20 5 21 6 22
REMARK SMILES IDX 7 23 22 24 23 25 24 26 25 27 26 28 90 29 27 30 89 31 28 32
REMARK SMILES IDX 29 33 30 34 83 35 31 36 88 37 82 38 84 39 32 40 87 41 81 42
REMARK SMILES IDX 80 43 33 45 67 46 46 47 66 48 47 49 50 50 65 51 85 52 48 53
REMARK SMILES IDX 49 54 64 56 86 57 51 58 34 59 35 60 44 61 36 62 37 63 43 64
REMARK SMILES IDX 45 65 38 66 39 67 40 68 41 69 42 70 68 71 69 72 78 73 70 74
REMARK SMILES IDX 71 75 77 76 79 77 72 78 73 79 74 80 75 81 76 82 52 83 53 84
REMARK SMILES IDX 62 85 54 86 55 87 61 88 63 89 56 90 57 91 58 92 59 93 60 94
REMARK H PARENT 84 44 50 55
REMARK Flexibility Score: inf
ROOT
ATOM      1  C   UNL A   1      37.841  23.368  25.812  1.00  0.00     0.275 C 
ENDROOT
BRANCH   1   2
ATOM      2  C   UNL A   1      36.376  23.738  26.078  1.00  0.00     0.274 C 
BRANCH   2   3
ATOM      3  O   UNL A   1      35.533  23.095  25.100  1.00  0.00    -0.461 OA
BRANCH   3   4
ATOM      4  C   UNL A   1      35.245  23.713  23.927  1.00  0.00     0.328 C 
ATOM      5  O   UNL A   1      35.681  23.328  22.851  1.00  0.00    -0.250 OA
BRANCH   4   6
ATOM      6  C   UNL A   1      34.306  24.955  24.160  1.00  0.00     0.195 C 
ATOM      7  N   UNL A   1      33.675  25.450  22.914  1.00  0.00    -0.325 N 
ATOM      8  C   UNL A   1      32.822  24.442  22.265  1.00  0.00     0.121 C 
ATOM      9  C   UNL A   1      31.692  23.964  23.181  1.00  0.00     0.022 C 
ATOM     10  C   UNL A   1      33.142  24.624  25.130  1.00  0.00     0.037 C 
ATOM     11  C   UNL A   1      32.189  23.565  24.566  1.00  0.00     0.005 C 
BRANCH   7  12
ATOM     12  C   UNL A   1      33.399  26.790  22.623  1.00  0.00     0.260 C 
ATOM     13  O   UNL A   1      34.092  27.367  21.778  1.00  0.00    -0.269 OA
BRANCH  12  14
ATOM     14  C   UNL A   1      32.391  27.637  23.386  1.00  0.00     0.111 A 
ATOM     15  C   UNL A   1      31.826  30.027  26.304  1.00  0.00     0.069 C 
ATOM     16  C   UNL A   1      31.657  29.358  24.953  1.00  0.00     0.062 A 
ATOM     17  N   UNL A   1      30.646  29.745  24.252  1.00  0.00    -0.175 NA
ATOM     18  C   UNL A   1      32.669  28.359  24.492  1.00  0.00    -0.010 A 
ATOM     19  N   UNL A   1      30.416  29.098  23.077  1.00  0.00    -0.232 N 
ATOM     20  C   UNL A   1      33.938  28.381  25.256  1.00  0.00     0.047 C 
ATOM     21  C   UNL A   1      29.307  29.628  22.303  1.00  0.00     0.178 C 
ATOM     22  C   UNL A   1      31.084  27.938  22.683  1.00  0.00     0.279 A 
ATOM     23  O   UNL A   1      30.652  27.209  21.791  1.00  0.00    -0.267 OA
ENDBRANCH  12  14
ENDBRANCH   7  12
ENDBRANCH   4   6
ENDBRANCH   3   4
ENDBRANCH   2   3
ENDBRANCH   1   2
BRANCH   1  24
ATOM     24  O   UNL A   1      38.698  24.505  26.023  1.00  0.00    -0.458 OA
BRANCH  24  25
ATOM     25  C   UNL A   1      39.803  24.258  26.764  1.00  0.00     0.338 C 
ATOM     26  O   UNL A   1      40.661  23.419  26.547  1.00  0.00    -0.246 OA
BRANCH  25  27
ATOM     27  C   UNL A   1      39.982  25.363  27.719  1.00  0.00     0.060 A 
ATOM     28  C   UNL A   1      39.063  25.410  28.761  1.00  0.00     0.016 A 
ATOM     29  C   UNL A   1      40.977  26.329  27.624  1.00  0.00     0.016 A 
ATOM     30  C   UNL A   1      39.096  26.410  29.714  1.00  0.00     0.010 A 
ATOM     31  C   UNL A   1      41.031  27.339  28.595  1.00  0.00     0.010 A 
ATOM     32  C   UNL A   1      40.089  27.383  29.644  1.00  0.00    -0.014 A 
BRANCH  32  33
ATOM     33  C   UNL A   1      40.076  28.476  30.639  1.00  0.00     0.031 A 
ATOM     34  C   UNL A   1      41.084  28.465  31.747  1.00  0.00     0.074 A 
ATOM     35  C   UNL A   1      39.227  29.511  30.495  1.00  0.00     0.049 A 
ATOM     36  N   UNL A   1      41.162  29.230  32.801  1.00  0.00    -0.248 NA
ATOM     37  C   UNL A   1      42.152  27.456  31.649  1.00  0.00     0.031 C 
ATOM     38  C   UNL A   1      38.296  29.692  29.379  1.00  0.00     0.029 A 
ATOM     39  N   UNL A   1      39.021  30.614  31.283  1.00  0.00    -0.354 N 
ATOM     40  C   UNL A   1      42.258  28.768  33.519  1.00  0.00     0.074 A 
ATOM     41  C   UNL A   1      42.817  27.660  32.777  1.00  0.00     0.031 C 
ATOM     42  C   UNL A   1      37.630  30.845  29.546  1.00  0.00     0.029 A 
ATOM     43  C   UNL A   1      38.026  31.441  30.818  1.00  0.00     0.049 A 
ATOM     44  H   UNL A   1      39.535  30.797  32.102  1.00  0.00     0.167 HD
ATOM     45  C   UNL A   1      42.740  29.229  34.697  1.00  0.00     0.037 A 
ATOM     46  C   UNL A   1      37.466  32.530  31.379  1.00  0.00     0.037 A 
ATOM     47  C   UNL A   1      42.172  30.348  35.404  1.00  0.00     0.049 A 
ATOM     48  C   UNL A   1      37.955  32.975  32.728  1.00  0.00     0.074 A 
ATOM     49  C   UNL A   1      42.541  30.872  36.629  1.00  0.00     0.029 A 
ATOM     50  N   UNL A   1      41.117  31.122  34.938  1.00  0.00    -0.354 N 
ATOM     51  N   UNL A   1      38.917  32.465  33.461  1.00  0.00    -0.248 NA
ATOM     52  C   UNL A   1      37.277  34.124  33.337  1.00  0.00     0.031 C 
ATOM     53  C   UNL A   1      41.683  31.939  36.922  1.00  0.00     0.029 A 
ATOM     54  C   UNL A   1      40.812  32.113  35.856  1.00  0.00     0.049 A 
ATOM     55  H   UNL A   1      40.653  30.985  34.082  1.00  0.00     0.167 HD
ATOM     56  C   UNL A   1      38.968  33.236  34.616  1.00  0.00     0.074 A 
ATOM     57  C   UNL A   1      37.947  34.257  34.475  1.00  0.00     0.031 C 
ATOM     58  C   UNL A   1      39.784  33.113  35.692  1.00  0.00     0.037 A 
BRANCH  45  59
ATOM     59  C   UNL A   1      43.885  28.474  35.314  1.00  0.00     0.058 A 
ATOM     60  C   UNL A   1      43.686  27.394  36.186  1.00  0.00     0.135 A 
ATOM     61  C   UNL A   1      45.207  28.862  35.042  1.00  0.00     0.135 A 
ATOM     62  F   UNL A   1      42.443  26.999  36.502  1.00  0.00    -0.206 F 
ATOM     63  C   UNL A   1      44.757  26.747  36.798  1.00  0.00     0.059 A 
ATOM     64  C   UNL A   1      46.294  28.212  35.620  1.00  0.00     0.059 A 
ATOM     65  F   UNL A   1      45.456  29.894  34.221  1.00  0.00    -0.206 F 
ATOM     66  C   UNL A   1      46.057  27.169  36.514  1.00  0.00     0.060 A 
BRANCH  66  67
ATOM     67  S   UNL A   1      47.434  26.344  37.340  1.00  0.00     0.124 S 
ATOM     68  O   UNL A   1      48.018  25.583  36.239  1.00  0.00    -0.237 OA
ATOM     69  O   UNL A   1      48.228  27.468  37.824  1.00  0.00    -0.237 OA
ATOM     70  O   UNL A   1      46.783  25.547  38.375  1.00  0.00    -0.744 OA
ENDBRANCH  66  67
ENDBRANCH  45  59
BRANCH  46  71
ATOM     71  C   UNL A   1      36.362  33.233  30.672  1.00  0.00     0.058 A 
ATOM     72  C   UNL A   1      35.038  33.136  31.118  1.00  0.00     0.135 A 
ATOM     73  C   UNL A   1      36.623  34.080  29.581  1.00  0.00     0.135 A 
ATOM     74  F   UNL A   1      34.734  32.328  32.145  1.00  0.00    -0.206 F 
ATOM     75  C   UNL A   1      34.014  33.870  30.525  1.00  0.00     0.059 A 
ATOM     76  C   UNL A   1      35.622  34.842  28.988  1.00  0.00     0.059 A 
ATOM     77  F   UNL A   1      37.877  34.212  29.117  1.00  0.00    -0.206 F 
ATOM     78  C   UNL A   1      34.319  34.734  29.472  1.00  0.00     0.060 A 
BRANCH  78  79
ATOM     79  S   UNL A   1      33.004  35.765  28.787  1.00  0.00     0.124 S 
ATOM     80  O   UNL A   1      33.765  36.766  28.050  1.00  0.00    -0.237 OA
ATOM     81  O   UNL A   1      32.256  34.808  27.978  1.00  0.00    -0.237 OA
ATOM     82  O   UNL A   1      32.305  36.251  29.973  1.00  0.00    -0.744 OA
ENDBRANCH  78  79
ENDBRANCH  46  71
BRANCH  58  83
ATOM     83  C   UNL A   1      39.621  34.123  36.792  1.00  0.00     0.058 A 
ATOM     84  C   UNL A   1      38.871  33.844  37.944  1.00  0.00     0.135 A 
ATOM     85  C   UNL A   1      40.271  35.366  36.714  1.00  0.00     0.135 A 
ATOM     86  F   UNL A   1      38.226  32.673  38.063  1.00  0.00    -0.206 F 
ATOM     87  C   UNL A   1      38.752  34.772  38.974  1.00  0.00     0.059 A 
ATOM     88  C   UNL A   1      40.187  36.297  37.743  1.00  0.00     0.059 A 
ATOM     89  F   UNL A   1      41.012  35.675  35.638  1.00  0.00    -0.206 F 
ATOM     90  C   UNL A   1      39.416  35.996  38.863  1.00  0.00     0.060 A 
BRANCH  90  91
ATOM     91  S   UNL A   1      39.274  37.179  40.218  1.00  0.00     0.124 S 
ATOM     92  O   UNL A   1      38.527  36.406  41.206  1.00  0.00    -0.237 OA
ATOM     93  O   UNL A   1      40.670  37.446  40.547  1.00  0.00    -0.237 OA
ATOM     94  O   UNL A   1      38.552  38.298  39.620  1.00  0.00    -0.744 OA
ENDBRANCH  90  91
ENDBRANCH  58  83
ENDBRANCH  32  33
ENDBRANCH  25  27
ENDBRANCH  24  25
ENDBRANCH   1  24
TORSDOF 16
ENDMDL
