MODEL 1
REMARK VINA RESULT:     -10.2      0.000      0.000
REMARK SMILES O=C(CCCNc1ccccc1SC(F)F)OCCOC(=O)c1ccc(-c2c3nc(c(-c4c(F)cc(S(=O)(=O)[O-])cc4F)c4ccc([nH]4)c(-c4c(F)cc(S(=O)(=O)[O-])cc4F)c4nc(c(-c5c(F)cc(S(=O)(=O)[O-])cc5F)c5ccc2[nH]5)C=C4)C=C3)cc1
REMARK SMILES IDX 17 1 2 2 1 3 3 4 4 5 5 6 6 7 7 9 8 10 12 11 9 12 11 13 10 14
REMARK SMILES IDX 13 15 14 16 15 17 16 18 18 19 19 20 20 21 21 22 22 23 23 24
REMARK SMILES IDX 24 25 88 26 25 27 87 28 26 29 27 30 28 31 81 32 29 33 86 34
REMARK SMILES IDX 80 35 82 36 30 37 85 38 79 39 78 40 31 42 65 43 44 44 64 45
REMARK SMILES IDX 45 46 48 47 63 48 83 49 46 50 47 51 62 53 84 54 49 55 32 56
REMARK SMILES IDX 33 57 42 58 34 59 35 60 41 61 43 62 36 63 37 64 38 65 39 66
REMARK SMILES IDX 40 67 66 68 67 69 76 70 68 71 69 72 75 73 77 74 70 75 71 76
REMARK SMILES IDX 72 77 73 78 74 79 50 80 51 81 60 82 52 83 53 84 59 85 61 86
REMARK SMILES IDX 54 87 55 88 56 89 57 90 58 91
REMARK H PARENT 6 8 82 41 48 52
REMARK Flexibility Score: inf
ROOT
ATOM      1  O   UNL A   1      39.554  21.421  25.740  1.00  0.00    -0.462 OA
ENDROOT
BRANCH   1   2
ATOM      2  C   UNL A   1      38.528  22.311  25.766  1.00  0.00     0.305 C 
ATOM      3  O   UNL A   1      38.445  23.156  26.652  1.00  0.00    -0.252 OA
BRANCH   2   4
ATOM      4  C   UNL A   1      37.417  22.085  24.765  1.00  0.00     0.124 C 
BRANCH   4   5
ATOM      5  C   UNL A   1      36.441  20.982  25.167  1.00  0.00     0.033 C 
BRANCH   5   6
ATOM      6  C   UNL A   1      35.400  21.439  26.188  1.00  0.00     0.113 C 
BRANCH   6   7
ATOM      7  N   UNL A   1      34.148  20.726  26.007  1.00  0.00    -0.384 N 
ATOM      8  H   UNL A   1      33.761  20.327  26.820  1.00  0.00     0.160 HD
BRANCH   7   9
ATOM      9  C   UNL A   1      33.426  20.535  24.837  1.00  0.00     0.048 A 
ATOM     10  C   UNL A   1      33.230  21.701  24.057  1.00  0.00     0.027 A 
ATOM     11  C   UNL A   1      32.842  19.340  24.354  1.00  0.00     0.036 A 
ATOM     12  C   UNL A   1      32.557  21.689  22.833  1.00  0.00     0.002 A 
ATOM     13  C   UNL A   1      32.170  19.341  23.111  1.00  0.00     0.017 A 
ATOM     14  C   UNL A   1      32.033  20.502  22.354  1.00  0.00     0.001 A 
BRANCH  11  15
ATOM     15  S   UNL A   1      32.972  17.717  25.108  1.00  0.00    -0.053 SA
BRANCH  15  16
ATOM     16  C   UNL A   1      34.485  17.095  24.346  1.00  0.00     0.405 C 
ATOM     17  F   UNL A   1      34.199  16.585  23.118  1.00  0.00    -0.198 F 
ATOM     18  F   UNL A   1      35.423  18.055  24.154  1.00  0.00    -0.198 F 
ENDBRANCH  15  16
ENDBRANCH  11  15
ENDBRANCH   7   9
ENDBRANCH   6   7
ENDBRANCH   5   6
ENDBRANCH   4   5
ENDBRANCH   2   4
ENDBRANCH   1   2
BRANCH   1  19
ATOM     19  C   UNL A   1      40.534  21.446  26.797  1.00  0.00     0.274 C 
BRANCH  19  20
ATOM     20  C   UNL A   1      41.761  22.278  26.419  1.00  0.00     0.275 C 
BRANCH  20  21
ATOM     21  O   UNL A   1      41.901  23.396  27.311  1.00  0.00    -0.458 OA
BRANCH  21  22
ATOM     22  C   UNL A   1      41.980  24.607  26.700  1.00  0.00     0.338 C 
ATOM     23  O   UNL A   1      42.195  24.814  25.520  1.00  0.00    -0.246 OA
BRANCH  22  24
ATOM     24  C   UNL A   1      41.570  25.662  27.656  1.00  0.00     0.060 A 
ATOM     25  C   UNL A   1      42.372  26.808  27.738  1.00  0.00     0.016 A 
ATOM     26  C   UNL A   1      40.409  25.560  28.431  1.00  0.00     0.016 A 
ATOM     27  C   UNL A   1      42.033  27.839  28.615  1.00  0.00     0.010 A 
ATOM     28  C   UNL A   1      40.074  26.591  29.314  1.00  0.00     0.010 A 
ATOM     29  C   UNL A   1      40.899  27.721  29.429  1.00  0.00    -0.014 A 
BRANCH  29  30
ATOM     30  C   UNL A   1      40.691  28.690  30.531  1.00  0.00     0.031 A 
ATOM     31  C   UNL A   1      41.561  28.578  31.752  1.00  0.00     0.074 A 
ATOM     32  C   UNL A   1      39.768  29.664  30.442  1.00  0.00     0.049 A 
ATOM     33  N   UNL A   1      41.589  29.327  32.822  1.00  0.00    -0.248 NA
ATOM     34  C   UNL A   1      42.529  27.467  31.766  1.00  0.00     0.031 C 
ATOM     35  C   UNL A   1      38.874  29.886  29.307  1.00  0.00     0.029 A 
ATOM     36  N   UNL A   1      39.428  30.650  31.335  1.00  0.00    -0.354 N 
ATOM     37  C   UNL A   1      42.585  28.791  33.629  1.00  0.00     0.074 A 
ATOM     38  C   UNL A   1      43.106  27.627  32.947  1.00  0.00     0.031 C 
ATOM     39  C   UNL A   1      38.080  30.938  29.576  1.00  0.00     0.029 A 
ATOM     40  C   UNL A   1      38.402  31.456  30.906  1.00  0.00     0.049 A 
ATOM     41  H   UNL A   1      39.879  30.769  32.203  1.00  0.00     0.167 HD
ATOM     42  C   UNL A   1      43.036  29.236  34.825  1.00  0.00     0.037 A 
ATOM     43  C   UNL A   1      37.791  32.488  31.521  1.00  0.00     0.037 A 
ATOM     44  C   UNL A   1      42.506  30.381  35.513  1.00  0.00     0.049 A 
ATOM     45  C   UNL A   1      38.266  32.926  32.884  1.00  0.00     0.074 A 
ATOM     46  C   UNL A   1      42.909  30.921  36.721  1.00  0.00     0.029 A 
ATOM     47  N   UNL A   1      41.449  31.154  35.060  1.00  0.00    -0.354 N 
ATOM     48  N   UNL A   1      39.246  32.444  33.612  1.00  0.00    -0.248 NA
ATOM     49  C   UNL A   1      37.556  34.053  33.507  1.00  0.00     0.031 C 
ATOM     50  C   UNL A   1      42.066  31.999  37.019  1.00  0.00     0.029 A 
ATOM     51  C   UNL A   1      41.166  32.152  35.976  1.00  0.00     0.049 A 
ATOM     52  H   UNL A   1      40.969  31.015  34.211  1.00  0.00     0.167 HD
ATOM     53  C   UNL A   1      39.287  33.225  34.763  1.00  0.00     0.074 A 
ATOM     54  C   UNL A   1      38.237  34.214  34.633  1.00  0.00     0.031 C 
ATOM     55  C   UNL A   1      40.121  33.134  35.829  1.00  0.00     0.037 A 
BRANCH  42  56
ATOM     56  C   UNL A   1      44.151  28.461  35.465  1.00  0.00     0.058 A 
ATOM     57  C   UNL A   1      45.496  28.720  35.153  1.00  0.00     0.135 A 
ATOM     58  C   UNL A   1      43.875  27.450  36.397  1.00  0.00     0.135 A 
ATOM     59  F   UNL A   1      45.811  29.663  34.249  1.00  0.00    -0.206 F 
ATOM     60  C   UNL A   1      46.528  27.982  35.721  1.00  0.00     0.059 A 
ATOM     61  C   UNL A   1      44.894  26.714  36.995  1.00  0.00     0.059 A 
ATOM     62  F   UNL A   1      42.607  27.159  36.724  1.00  0.00    -0.206 F 
ATOM     63  C   UNL A   1      46.216  26.976  36.636  1.00  0.00     0.060 A 
BRANCH  63  64
ATOM     64  S   UNL A   1      47.563  26.013  37.355  1.00  0.00     0.124 S 
ATOM     65  O   UNL A   1      48.388  25.750  36.180  1.00  0.00    -0.237 OA
ATOM     66  O   UNL A   1      48.127  26.940  38.331  1.00  0.00    -0.237 OA
ATOM     67  O   UNL A   1      46.885  24.850  37.919  1.00  0.00    -0.744 OA
ENDBRANCH  63  64
ENDBRANCH  42  56
BRANCH  43  68
ATOM     68  C   UNL A   1      36.662  33.189  30.855  1.00  0.00     0.058 A 
ATOM     69  C   UNL A   1      36.885  34.089  29.804  1.00  0.00     0.135 A 
ATOM     70  C   UNL A   1      35.337  32.981  31.269  1.00  0.00     0.135 A 
ATOM     71  F   UNL A   1      38.135  34.331  29.383  1.00  0.00    -0.206 F 
ATOM     72  C   UNL A   1      35.837  34.771  29.192  1.00  0.00     0.059 A 
ATOM     73  C   UNL A   1      34.270  33.635  30.660  1.00  0.00     0.059 A 
ATOM     74  F   UNL A   1      35.069  32.124  32.266  1.00  0.00    -0.206 F 
ATOM     75  C   UNL A   1      34.531  34.537  29.629  1.00  0.00     0.060 A 
BRANCH  75  76
ATOM     76  S   UNL A   1      33.173  35.394  28.803  1.00  0.00     0.124 S 
ATOM     77  O   UNL A   1      32.433  35.933  29.937  1.00  0.00    -0.237 OA
ATOM     78  O   UNL A   1      33.880  36.369  27.979  1.00  0.00    -0.237 OA
ATOM     79  O   UNL A   1      32.506  34.326  28.064  1.00  0.00    -0.744 OA
ENDBRANCH  75  76
ENDBRANCH  43  68
BRANCH  55  80
ATOM     80  C   UNL A   1      39.954  34.142  36.932  1.00  0.00     0.058 A 
ATOM     81  C   UNL A   1      40.524  35.421  36.851  1.00  0.00     0.135 A 
ATOM     82  C   UNL A   1      39.157  33.848  38.050  1.00  0.00     0.135 A 
ATOM     83  F   UNL A   1      41.297  35.752  35.806  1.00  0.00    -0.206 F 
ATOM     84  C   UNL A   1      40.323  36.370  37.850  1.00  0.00     0.059 A 
ATOM     85  C   UNL A   1      38.925  34.787  39.049  1.00  0.00     0.059 A 
ATOM     86  F   UNL A   1      38.579  32.641  38.169  1.00  0.00    -0.206 F 
ATOM     87  C   UNL A   1      39.520  36.043  38.945  1.00  0.00     0.060 A 
BRANCH  87  88
ATOM     88  S   UNL A   1      39.229  37.296  40.213  1.00  0.00     0.124 S 
ATOM     89  O   UNL A   1      38.469  38.295  39.469  1.00  0.00    -0.237 OA
ATOM     90  O   UNL A   1      38.479  36.554  41.223  1.00  0.00    -0.237 OA
ATOM     91  O   UNL A   1      40.575  37.696  40.609  1.00  0.00    -0.744 OA
ENDBRANCH  87  88
ENDBRANCH  55  80
ENDBRANCH  29  30
ENDBRANCH  22  24
ENDBRANCH  21  22
ENDBRANCH  20  21
ENDBRANCH  19  20
ENDBRANCH   1  19
TORSDOF 20
ENDMDL
MODEL 2
REMARK VINA RESULT:     -10.1      4.922     12.155
REMARK SMILES O=C(CCCNc1ccccc1SC(F)F)OCCOC(=O)c1ccc(-c2c3nc(c(-c4c(F)cc(S(=O)(=O)[O-])cc4F)c4ccc([nH]4)c(-c4c(F)cc(S(=O)(=O)[O-])cc4F)c4nc(c(-c5c(F)cc(S(=O)(=O)[O-])cc5F)c5ccc2[nH]5)C=C4)C=C3)cc1
REMARK SMILES IDX 17 1 2 2 1 3 3 4 4 5 5 6 6 7 7 9 8 10 12 11 9 12 11 13 10 14
REMARK SMILES IDX 13 15 14 16 15 17 16 18 18 19 19 20 20 21 21 22 22 23 23 24
REMARK SMILES IDX 24 25 88 26 25 27 87 28 26 29 27 30 28 31 81 32 29 33 86 34
REMARK SMILES IDX 80 35 82 36 30 37 85 38 79 39 78 40 31 42 65 43 44 44 64 45
REMARK SMILES IDX 45 46 48 47 63 48 83 49 46 50 47 51 62 53 84 54 49 55 32 56
REMARK SMILES IDX 33 57 42 58 34 59 35 60 41 61 43 62 36 63 37 64 38 65 39 66
REMARK SMILES IDX 40 67 66 68 67 69 76 70 68 71 69 72 75 73 77 74 70 75 71 76
REMARK SMILES IDX 72 77 73 78 74 79 50 80 51 81 60 82 52 83 53 84 59 85 61 86
REMARK SMILES IDX 54 87 55 88 56 89 57 90 58 91
REMARK H PARENT 6 8 82 41 48 52
REMARK Flexibility Score: inf
ROOT
ATOM      1  O   UNL A   1      32.965  34.459  29.341  1.00  0.00    -0.462 OA
ENDROOT
BRANCH   1   2
ATOM      2  C   UNL A   1      32.688  35.767  29.582  1.00  0.00     0.305 C 
ATOM      3  O   UNL A   1      32.235  36.490  28.701  1.00  0.00    -0.252 OA
BRANCH   2   4
ATOM      4  C   UNL A   1      33.137  36.313  30.919  1.00  0.00     0.124 C 
BRANCH   4   5
ATOM      5  C   UNL A   1      33.724  35.255  31.851  1.00  0.00     0.033 C 
BRANCH   5   6
ATOM      6  C   UNL A   1      34.618  35.840  32.943  1.00  0.00     0.113 C 
BRANCH   6   7
ATOM      7  N   UNL A   1      35.968  35.314  32.847  1.00  0.00    -0.384 N 
ATOM      8  H   UNL A   1      36.612  35.873  32.355  1.00  0.00     0.160 HD
BRANCH   7   9
ATOM      9  C   UNL A   1      36.467  34.124  33.359  1.00  0.00     0.048 A 
ATOM     10  C   UNL A   1      37.125  34.238  34.608  1.00  0.00     0.027 A 
ATOM     11  C   UNL A   1      36.428  32.835  32.775  1.00  0.00     0.036 A 
ATOM     12  C   UNL A   1      37.659  33.140  35.286  1.00  0.00     0.002 A 
ATOM     13  C   UNL A   1      36.966  31.732  33.475  1.00  0.00     0.017 A 
ATOM     14  C   UNL A   1      37.570  31.881  34.721  1.00  0.00     0.001 A 
BRANCH  11  15
ATOM     15  S   UNL A   1      35.623  32.395  31.232  1.00  0.00    -0.053 SA
BRANCH  15  16
ATOM     16  C   UNL A   1      36.703  33.200  30.031  1.00  0.00     0.405 C 
ATOM     17  F   UNL A   1      36.093  34.315  29.548  1.00  0.00    -0.198 F 
ATOM     18  F   UNL A   1      37.885  33.606  30.558  1.00  0.00    -0.198 F 
ENDBRANCH  15  16
ENDBRANCH  11  15
ENDBRANCH   7   9
ENDBRANCH   6   7
ENDBRANCH   5   6
ENDBRANCH   4   5
ENDBRANCH   2   4
ENDBRANCH   1   2
BRANCH   1  19
ATOM     19  C   UNL A   1      33.417  34.065  28.030  1.00  0.00     0.274 C 
BRANCH  19  20
ATOM     20  C   UNL A   1      33.273  32.559  27.804  1.00  0.00     0.275 C 
BRANCH  20  21
ATOM     21  O   UNL A   1      34.568  31.943  27.700  1.00  0.00    -0.458 OA
BRANCH  21  22
ATOM     22  C   UNL A   1      34.566  30.589  27.811  1.00  0.00     0.338 C 
ATOM     23  O   UNL A   1      33.658  29.836  27.513  1.00  0.00    -0.246 OA
BRANCH  22  24
ATOM     24  C   UNL A   1      35.925  30.129  28.180  1.00  0.00     0.060 A 
ATOM     25  C   UNL A   1      36.076  29.475  29.409  1.00  0.00     0.016 A 
ATOM     26  C   UNL A   1      37.026  30.296  27.332  1.00  0.00     0.016 A 
ATOM     27  C   UNL A   1      37.330  29.012  29.807  1.00  0.00     0.010 A 
ATOM     28  C   UNL A   1      38.285  29.837  27.735  1.00  0.00     0.010 A 
ATOM     29  C   UNL A   1      38.446  29.220  28.986  1.00  0.00    -0.014 A 
BRANCH  29  30
ATOM     30  C   UNL A   1      39.803  28.961  29.522  1.00  0.00     0.031 A 
ATOM     31  C   UNL A   1      40.312  29.845  30.627  1.00  0.00     0.074 A 
ATOM     32  C   UNL A   1      40.560  27.949  29.059  1.00  0.00     0.049 A 
ATOM     33  N   UNL A   1      41.444  29.793  31.277  1.00  0.00    -0.248 NA
ATOM     34  C   UNL A   1      39.421  30.938  31.054  1.00  0.00     0.031 C 
ATOM     35  C   UNL A   1      40.174  27.016  28.003  1.00  0.00     0.029 A 
ATOM     36  N   UNL A   1      41.820  27.545  29.422  1.00  0.00    -0.354 N 
ATOM     37  C   UNL A   1      41.397  30.831  32.198  1.00  0.00     0.074 A 
ATOM     38  C   UNL A   1      40.145  31.525  31.994  1.00  0.00     0.031 C 
ATOM     39  C   UNL A   1      41.183  26.151  27.796  1.00  0.00     0.029 A 
ATOM     40  C   UNL A   1      42.288  26.477  28.697  1.00  0.00     0.049 A 
ATOM     41  H   UNL A   1      42.340  27.981  30.136  1.00  0.00     0.167 HD
ATOM     42  C   UNL A   1      42.307  31.169  33.141  1.00  0.00     0.037 A 
ATOM     43  C   UNL A   1      43.476  25.842  28.752  1.00  0.00     0.037 A 
ATOM     44  C   UNL A   1      43.561  30.492  33.333  1.00  0.00     0.049 A 
ATOM     45  C   UNL A   1      44.504  26.278  29.766  1.00  0.00     0.074 A 
ATOM     46  C   UNL A   1      44.542  30.748  34.273  1.00  0.00     0.029 A 
ATOM     47  N   UNL A   1      44.011  29.433  32.560  1.00  0.00    -0.354 N 
ATOM     48  N   UNL A   1      44.424  27.226  30.669  1.00  0.00    -0.248 NA
ATOM     49  C   UNL A   1      45.783  25.551  29.773  1.00  0.00     0.031 C 
ATOM     50  C   UNL A   1      45.607  29.869  34.042  1.00  0.00     0.029 A 
ATOM     51  C   UNL A   1      45.270  29.040  32.984  1.00  0.00     0.049 A 
ATOM     52  H   UNL A   1      43.511  29.020  31.819  1.00  0.00     0.167 HD
ATOM     53  C   UNL A   1      45.627  27.193  31.367  1.00  0.00     0.074 A 
ATOM     54  C   UNL A   1      46.416  26.126  30.787  1.00  0.00     0.031 C 
ATOM     55  C   UNL A   1      46.040  27.971  32.399  1.00  0.00     0.037 A 
BRANCH  42  56
ATOM     56  C   UNL A   1      41.976  32.338  34.022  1.00  0.00     0.058 A 
ATOM     57  C   UNL A   1      41.399  32.158  35.290  1.00  0.00     0.135 A 
ATOM     58  C   UNL A   1      42.235  33.650  33.597  1.00  0.00     0.135 A 
ATOM     59  F   UNL A   1      41.111  30.923  35.733  1.00  0.00    -0.206 F 
ATOM     60  C   UNL A   1      41.062  33.241  36.095  1.00  0.00     0.059 A 
ATOM     61  C   UNL A   1      41.927  34.747  34.395  1.00  0.00     0.059 A 
ATOM     62  F   UNL A   1      42.779  33.875  32.391  1.00  0.00    -0.206 F 
ATOM     63  C   UNL A   1      41.325  34.533  35.634  1.00  0.00     0.060 A 
BRANCH  63  64
ATOM     64  S   UNL A   1      40.868  35.932  36.680  1.00  0.00     0.124 S 
ATOM     65  O   UNL A   1      40.373  35.251  37.873  1.00  0.00    -0.237 OA
ATOM     66  O   UNL A   1      42.137  36.637  36.833  1.00  0.00    -0.237 OA
ATOM     67  O   UNL A   1      39.859  36.630  35.891  1.00  0.00    -0.744 OA
ENDBRANCH  63  64
ENDBRANCH  42  56
BRANCH  43  68
ATOM     68  C   UNL A   1      43.764  24.718  27.822  1.00  0.00     0.058 A 
ATOM     69  C   UNL A   1      43.340  23.413  28.108  1.00  0.00     0.135 A 
ATOM     70  C   UNL A   1      44.482  24.928  26.634  1.00  0.00     0.135 A 
ATOM     71  F   UNL A   1      42.663  23.161  29.238  1.00  0.00    -0.206 F 
ATOM     72  C   UNL A   1      43.628  22.350  27.257  1.00  0.00     0.059 A 
ATOM     73  C   UNL A   1      44.765  23.885  25.757  1.00  0.00     0.059 A 
ATOM     74  F   UNL A   1      44.904  26.160  26.311  1.00  0.00    -0.206 F 
ATOM     75  C   UNL A   1      44.343  22.597  26.083  1.00  0.00     0.060 A 
BRANCH  75  76
ATOM     76  S   UNL A   1      44.676  21.220  24.964  1.00  0.00     0.124 S 
ATOM     77  O   UNL A   1      46.008  20.809  25.392  1.00  0.00    -0.237 OA
ATOM     78  O   UNL A   1      43.591  20.296  25.279  1.00  0.00    -0.237 OA
ATOM     79  O   UNL A   1      44.600  21.837  23.643  1.00  0.00    -0.744 OA
ENDBRANCH  75  76
ENDBRANCH  43  68
BRANCH  55  80
ATOM     80  C   UNL A   1      47.394  27.688  32.987  1.00  0.00     0.058 A 
ATOM     81  C   UNL A   1      47.574  26.719  33.984  1.00  0.00     0.135 A 
ATOM     82  C   UNL A   1      48.534  28.347  32.498  1.00  0.00     0.135 A 
ATOM     83  F   UNL A   1      46.517  26.064  34.489  1.00  0.00    -0.206 F 
ATOM     84  C   UNL A   1      48.837  26.422  34.489  1.00  0.00     0.059 A 
ATOM     85  C   UNL A   1      49.808  28.051  32.971  1.00  0.00     0.059 A 
ATOM     86  F   UNL A   1      48.416  29.275  31.534  1.00  0.00    -0.206 F 
ATOM     87  C   UNL A   1      49.949  27.093  33.974  1.00  0.00     0.060 A 
BRANCH  87  88
ATOM     88  S   UNL A   1      51.588  26.668  34.603  1.00  0.00     0.124 S 
ATOM     89  O   UNL A   1      52.450  27.191  33.549  1.00  0.00    -0.237 OA
ATOM     90  O   UNL A   1      51.633  27.387  35.874  1.00  0.00    -0.237 OA
ATOM     91  O   UNL A   1      51.541  25.214  34.715  1.00  0.00    -0.744 OA
ENDBRANCH  87  88
ENDBRANCH  55  80
ENDBRANCH  29  30
ENDBRANCH  22  24
ENDBRANCH  21  22
ENDBRANCH  20  21
ENDBRANCH  19  20
ENDBRANCH   1  19
TORSDOF 20
ENDMDL
MODEL 3
REMARK VINA RESULT:      -9.8      5.387     12.626
REMARK SMILES O=C(CCCNc1ccccc1SC(F)F)OCCOC(=O)c1ccc(-c2c3nc(c(-c4c(F)cc(S(=O)(=O)[O-])cc4F)c4ccc([nH]4)c(-c4c(F)cc(S(=O)(=O)[O-])cc4F)c4nc(c(-c5c(F)cc(S(=O)(=O)[O-])cc5F)c5ccc2[nH]5)C=C4)C=C3)cc1
REMARK SMILES IDX 17 1 2 2 1 3 3 4 4 5 5 6 6 7 7 9 8 10 12 11 9 12 11 13 10 14
REMARK SMILES IDX 13 15 14 16 15 17 16 18 18 19 19 20 20 21 21 22 22 23 23 24
REMARK SMILES IDX 24 25 88 26 25 27 87 28 26 29 27 30 28 31 81 32 29 33 86 34
REMARK SMILES IDX 80 35 82 36 30 37 85 38 79 39 78 40 31 42 65 43 44 44 64 45
REMARK SMILES IDX 45 46 48 47 63 48 83 49 46 50 47 51 62 53 84 54 49 55 32 56
REMARK SMILES IDX 33 57 42 58 34 59 35 60 41 61 43 62 36 63 37 64 38 65 39 66
REMARK SMILES IDX 40 67 66 68 67 69 76 70 68 71 69 72 75 73 77 74 70 75 71 76
REMARK SMILES IDX 72 77 73 78 74 79 50 80 51 81 60 82 52 83 53 84 59 85 61 86
REMARK SMILES IDX 54 87 55 88 56 89 57 90 58 91
REMARK H PARENT 6 8 82 41 48 52
REMARK Flexibility Score: inf
ROOT
ATOM      1  O   UNL A   1      33.240  34.248  29.722  1.00  0.00    -0.462 OA
ENDROOT
BRANCH   1   2
ATOM      2  C   UNL A   1      32.886  35.434  30.283  1.00  0.00     0.305 C 
ATOM      3  O   UNL A   1      32.431  36.346  29.601  1.00  0.00    -0.252 OA
BRANCH   2   4
ATOM      4  C   UNL A   1      33.253  35.624  31.738  1.00  0.00     0.124 C 
BRANCH   4   5
ATOM      5  C   UNL A   1      34.477  34.822  32.174  1.00  0.00     0.033 C 
BRANCH   5   6
ATOM      6  C   UNL A   1      34.969  35.185  33.575  1.00  0.00     0.113 C 
BRANCH   6   7
ATOM      7  N   UNL A   1      36.405  34.998  33.686  1.00  0.00    -0.384 N 
ATOM      8  H   UNL A   1      36.928  35.808  33.888  1.00  0.00     0.160 HD
BRANCH   7   9
ATOM      9  C   UNL A   1      37.135  33.826  33.542  1.00  0.00     0.048 A 
ATOM     10  C   UNL A   1      36.955  32.878  34.578  1.00  0.00     0.027 A 
ATOM     11  C   UNL A   1      38.050  33.485  32.517  1.00  0.00     0.036 A 
ATOM     12  C   UNL A   1      37.584  31.630  34.580  1.00  0.00     0.002 A 
ATOM     13  C   UNL A   1      38.673  32.217  32.528  1.00  0.00     0.017 A 
ATOM     14  C   UNL A   1      38.439  31.295  33.546  1.00  0.00     0.001 A 
BRANCH  11  15
ATOM     15  S   UNL A   1      38.432  34.470  31.066  1.00  0.00    -0.053 SA
BRANCH  15  16
ATOM     16  C   UNL A   1      37.350  33.715  29.834  1.00  0.00     0.405 C 
ATOM     17  F   UNL A   1      38.039  32.767  29.145  1.00  0.00    -0.198 F 
ATOM     18  F   UNL A   1      36.274  33.091  30.375  1.00  0.00    -0.198 F 
ENDBRANCH  15  16
ENDBRANCH  11  15
ENDBRANCH   7   9
ENDBRANCH   6   7
ENDBRANCH   5   6
ENDBRANCH   4   5
ENDBRANCH   2   4
ENDBRANCH   1   2
BRANCH   1  19
ATOM     19  C   UNL A   1      33.757  34.232  28.377  1.00  0.00     0.274 C 
BRANCH  19  20
ATOM     20  C   UNL A   1      33.693  32.836  27.755  1.00  0.00     0.275 C 
BRANCH  20  21
ATOM     21  O   UNL A   1      34.942  32.148  27.942  1.00  0.00    -0.458 OA
BRANCH  21  22
ATOM     22  C   UNL A   1      34.832  30.805  28.111  1.00  0.00     0.338 C 
ATOM     23  O   UNL A   1      33.817  30.140  28.022  1.00  0.00    -0.246 OA
BRANCH  22  24
ATOM     24  C   UNL A   1      36.188  30.219  28.239  1.00  0.00     0.060 A 
ATOM     25  C   UNL A   1      36.545  29.679  29.482  1.00  0.00     0.016 A 
ATOM     26  C   UNL A   1      37.081  30.160  27.164  1.00  0.00     0.016 A 
ATOM     27  C   UNL A   1      37.805  29.107  29.660  1.00  0.00     0.010 A 
ATOM     28  C   UNL A   1      38.346  29.592  27.345  1.00  0.00     0.010 A 
ATOM     29  C   UNL A   1      38.722  29.089  28.601  1.00  0.00    -0.014 A 
BRANCH  29  30
ATOM     30  C   UNL A   1      40.132  28.719  28.867  1.00  0.00     0.031 A 
ATOM     31  C   UNL A   1      41.024  29.738  29.521  1.00  0.00     0.074 A 
ATOM     32  C   UNL A   1      40.608  27.499  28.558  1.00  0.00     0.049 A 
ATOM     33  N   UNL A   1      42.276  29.635  29.883  1.00  0.00    -0.248 NA
ATOM     34  C   UNL A   1      40.421  31.052  29.803  1.00  0.00     0.031 C 
ATOM     35  C   UNL A   1      39.841  26.423  27.935  1.00  0.00     0.029 A 
ATOM     36  N   UNL A   1      41.861  26.966  28.726  1.00  0.00    -0.354 N 
ATOM     37  C   UNL A   1      42.605  30.860  30.448  1.00  0.00     0.074 A 
ATOM     38  C   UNL A   1      41.437  31.707  30.341  1.00  0.00     0.031 C 
ATOM     39  C   UNL A   1      40.645  25.357  27.765  1.00  0.00     0.029 A 
ATOM     40  C   UNL A   1      41.984  25.681  28.256  1.00  0.00     0.049 A 
ATOM     41  H   UNL A   1      42.604  27.459  29.146  1.00  0.00     0.167 HD
ATOM     42  C   UNL A   1      43.770  31.243  31.019  1.00  0.00     0.037 A 
ATOM     43  C   UNL A   1      43.057  24.866  28.222  1.00  0.00     0.037 A 
ATOM     44  C   UNL A   1      44.939  30.410  31.109  1.00  0.00     0.049 A 
ATOM     45  C   UNL A   1      44.366  25.338  28.804  1.00  0.00     0.074 A 
ATOM     46  C   UNL A   1      46.162  30.702  31.686  1.00  0.00     0.029 A 
ATOM     47  N   UNL A   1      45.032  29.125  30.597  1.00  0.00    -0.354 N 
ATOM     48  N   UNL A   1      44.648  26.479  29.386  1.00  0.00    -0.248 NA
ATOM     49  C   UNL A   1      45.501  24.406  28.731  1.00  0.00     0.031 C 
ATOM     50  C   UNL A   1      47.010  29.607  31.484  1.00  0.00     0.029 A 
ATOM     51  C   UNL A   1      46.301  28.619  30.818  1.00  0.00     0.049 A 
ATOM     52  H   UNL A   1      44.304  28.644  30.141  1.00  0.00     0.167 HD
ATOM     53  C   UNL A   1      45.982  26.393  29.771  1.00  0.00     0.074 A 
ATOM     54  C   UNL A   1      46.450  25.085  29.362  1.00  0.00     0.031 C 
ATOM     55  C   UNL A   1      46.750  27.311  30.410  1.00  0.00     0.037 A 
BRANCH  42  56
ATOM     56  C   UNL A   1      43.834  32.637  31.574  1.00  0.00     0.058 A 
ATOM     57  C   UNL A   1      44.172  33.733  30.764  1.00  0.00     0.135 A 
ATOM     58  C   UNL A   1      43.556  32.880  32.928  1.00  0.00     0.135 A 
ATOM     59  F   UNL A   1      44.469  33.549  29.467  1.00  0.00    -0.206 F 
ATOM     60  C   UNL A   1      44.263  35.019  31.284  1.00  0.00     0.059 A 
ATOM     61  C   UNL A   1      43.620  34.162  33.464  1.00  0.00     0.059 A 
ATOM     62  F   UNL A   1      43.235  31.865  33.745  1.00  0.00    -0.206 F 
ATOM     63  C   UNL A   1      43.991  35.222  32.638  1.00  0.00     0.060 A 
BRANCH  63  64
ATOM     64  S   UNL A   1      44.128  36.893  33.306  1.00  0.00     0.124 S 
ATOM     65  O   UNL A   1      42.769  37.124  33.787  1.00  0.00    -0.237 OA
ATOM     66  O   UNL A   1      45.147  36.736  34.339  1.00  0.00    -0.237 OA
ATOM     67  O   UNL A   1      44.528  37.689  32.151  1.00  0.00    -0.744 OA
ENDBRANCH  63  64
ENDBRANCH  42  56
BRANCH  43  68
ATOM     68  C   UNL A   1      42.944  23.512  27.618  1.00  0.00     0.058 A 
ATOM     69  C   UNL A   1      43.319  23.278  26.288  1.00  0.00     0.135 A 
ATOM     70  C   UNL A   1      42.447  22.429  28.358  1.00  0.00     0.135 A 
ATOM     71  F   UNL A   1      43.787  24.285  25.536  1.00  0.00    -0.206 F 
ATOM     72  C   UNL A   1      43.192  22.020  25.705  1.00  0.00     0.059 A 
ATOM     73  C   UNL A   1      42.330  21.157  27.805  1.00  0.00     0.059 A 
ATOM     74  F   UNL A   1      42.082  22.599  29.638  1.00  0.00    -0.206 F 
ATOM     75  C   UNL A   1      42.695  20.965  26.473  1.00  0.00     0.060 A 
BRANCH  75  76
ATOM     76  S   UNL A   1      42.573  19.327  25.723  1.00  0.00     0.124 S 
ATOM     77  O   UNL A   1      41.164  19.280  25.350  1.00  0.00    -0.237 OA
ATOM     78  O   UNL A   1      43.523  19.422  24.619  1.00  0.00    -0.237 OA
ATOM     79  O   UNL A   1      42.970  18.434  26.806  1.00  0.00    -0.744 OA
ENDBRANCH  75  76
ENDBRANCH  43  68
BRANCH  55  80
ATOM     80  C   UNL A   1      48.169  26.932  30.731  1.00  0.00     0.058 A 
ATOM     81  C   UNL A   1      49.203  27.099  29.799  1.00  0.00     0.135 A 
ATOM     82  C   UNL A   1      48.507  26.460  32.010  1.00  0.00     0.135 A 
ATOM     83  F   UNL A   1      48.933  27.543  28.561  1.00  0.00    -0.206 F 
ATOM     84  C   UNL A   1      50.524  26.797  30.118  1.00  0.00     0.059 A 
ATOM     85  C   UNL A   1      49.822  26.173  32.358  1.00  0.00     0.059 A 
ATOM     86  F   UNL A   1      47.554  26.294  32.942  1.00  0.00    -0.206 F 
ATOM     87  C   UNL A   1      50.824  26.335  31.401  1.00  0.00     0.060 A 
BRANCH  87  88
ATOM     88  S   UNL A   1      52.546  25.989  31.820  1.00  0.00     0.124 S 
ATOM     89  O   UNL A   1      53.229  26.367  30.587  1.00  0.00    -0.237 OA
ATOM     90  O   UNL A   1      52.775  26.866  32.965  1.00  0.00    -0.237 OA
ATOM     91  O   UNL A   1      52.540  24.561  32.124  1.00  0.00    -0.744 OA
ENDBRANCH  87  88
ENDBRANCH  55  80
ENDBRANCH  29  30
ENDBRANCH  22  24
ENDBRANCH  21  22
ENDBRANCH  20  21
ENDBRANCH  19  20
ENDBRANCH   1  19
TORSDOF 20
ENDMDL
