MODEL 1
REMARK VINA RESULT:     -10.1      0.000      0.000
REMARK SMILES COC(=O)N[C@@H](C(=O)OCCOC(=O)c1ccc(-c2c3nc(c(-c4c(F)cc(S(=O)(=O)[O-])cc4F)c4ccc([nH]4)c(-c4c(F)cc(S(=O)(=O)[O-])cc4F)c4nc(c(-c5c(F)cc(S(=O)(=O)[O-])cc5F)c5ccc2[nH]5)C=C4)C=C3)cc1)C1COC1
REMARK SMILES IDX 11 1 10 2 9 3 7 4 8 5 6 6 5 7 3 8 4 9 2 11 1 12 81 13 82 14
REMARK SMILES IDX 84 15 83 16 12 17 13 18 14 19 15 20 16 21 80 22 17 23 79 24
REMARK SMILES IDX 18 25 19 26 20 27 73 28 21 29 78 30 72 31 74 32 22 33 77 34
REMARK SMILES IDX 71 35 70 36 23 38 57 39 36 40 56 41 37 42 40 43 55 44 75 45
REMARK SMILES IDX 38 46 39 47 54 49 76 50 41 51 24 52 25 53 34 54 26 55 27 56
REMARK SMILES IDX 33 57 35 58 28 59 29 60 30 61 31 62 32 63 58 64 59 65 68 66
REMARK SMILES IDX 60 67 61 68 67 69 69 70 62 71 63 72 64 73 65 74 66 75 42 76
REMARK SMILES IDX 43 77 52 78 44 79 45 80 51 81 53 82 46 83 47 84 48 85 49 86
REMARK SMILES IDX 50 87
REMARK H PARENT 5 10 74 37 40 48
REMARK Flexibility Score: inf
ROOT
ATOM      1  C   UNL A   1      40.531  22.666  26.392  1.00  0.00     0.275 C 
ENDROOT
BRANCH   1   2
ATOM      2  C   UNL A   1      40.555  21.418  27.272  1.00  0.00     0.274 C 
BRANCH   2   3
ATOM      3  O   UNL A   1      41.855  20.795  27.257  1.00  0.00    -0.461 OA
BRANCH   3   4
ATOM      4  C   UNL A   1      42.201  20.106  26.130  1.00  0.00     0.329 C 
ATOM      5  O   UNL A   1      41.528  19.207  25.645  1.00  0.00    -0.250 OA
BRANCH   4   6
ATOM      6  C   UNL A   1      43.619  20.455  25.666  1.00  0.00     0.203 C 
BRANCH   6   7
ATOM      7  N   UNL A   1      43.658  21.647  24.818  1.00  0.00    -0.307 N 
ATOM      8  C   UNL A   1      44.185  22.850  25.179  1.00  0.00     0.407 C 
ATOM      9  O   UNL A   1      44.193  23.815  24.433  1.00  0.00    -0.225 OA
ATOM     10  H   UNL A   1      43.273  21.574  23.916  1.00  0.00     0.168 HD
BRANCH   8  11
ATOM     11  O   UNL A   1      44.675  22.830  26.444  1.00  0.00    -0.453 OA
ATOM     12  C   UNL A   1      45.990  23.360  26.581  1.00  0.00     0.284 C 
ENDBRANCH   8  11
ENDBRANCH   6   7
BRANCH   6  13
ATOM     13  C   UNL A   1      44.447  19.408  24.935  1.00  0.00     0.075 C 
ATOM     14  C   UNL A   1      45.905  19.662  24.519  1.00  0.00     0.168 C 
ATOM     15  C   UNL A   1      45.023  18.209  25.693  1.00  0.00     0.168 C 
ATOM     16  O   UNL A   1      46.297  18.365  25.027  1.00  0.00    -0.380 OA
ENDBRANCH   6  13
ENDBRANCH   4   6
ENDBRANCH   3   4
ENDBRANCH   2   3
ENDBRANCH   1   2
BRANCH   1  17
ATOM     17  O   UNL A   1      41.370  23.698  26.943  1.00  0.00    -0.458 OA
BRANCH  17  18
ATOM     18  C   UNL A   1      41.283  24.890  26.311  1.00  0.00     0.338 C 
ATOM     19  O   UNL A   1      41.486  25.112  25.128  1.00  0.00    -0.246 OA
BRANCH  18  20
ATOM     20  C   UNL A   1      40.728  25.914  27.207  1.00  0.00     0.060 A 
ATOM     21  C   UNL A   1      41.328  27.161  27.162  1.00  0.00     0.016 A 
ATOM     22  C   UNL A   1      39.871  25.594  28.259  1.00  0.00     0.016 A 
ATOM     23  C   UNL A   1      41.219  28.010  28.256  1.00  0.00     0.010 A 
ATOM     24  C   UNL A   1      39.641  26.534  29.283  1.00  0.00     0.010 A 
ATOM     25  C   UNL A   1      40.362  27.740  29.333  1.00  0.00    -0.014 A 
BRANCH  25  26
ATOM     26  C   UNL A   1      40.304  28.708  30.484  1.00  0.00     0.031 A 
ATOM     27  C   UNL A   1      41.310  28.652  31.617  1.00  0.00     0.074 A 
ATOM     28  C   UNL A   1      39.401  29.717  30.483  1.00  0.00     0.049 A 
ATOM     29  N   UNL A   1      41.317  29.313  32.751  1.00  0.00    -0.248 NA
ATOM     30  C   UNL A   1      42.447  27.730  31.469  1.00  0.00     0.031 C 
ATOM     31  C   UNL A   1      38.396  29.958  29.442  1.00  0.00     0.029 A 
ATOM     32  N   UNL A   1      39.201  30.759  31.361  1.00  0.00    -0.354 N 
ATOM     33  C   UNL A   1      42.410  28.839  33.473  1.00  0.00     0.074 A 
ATOM     34  C   UNL A   1      43.045  27.834  32.650  1.00  0.00     0.031 C 
ATOM     35  C   UNL A   1      37.778  31.121  29.676  1.00  0.00     0.029 A 
ATOM     36  C   UNL A   1      38.204  31.626  30.972  1.00  0.00     0.049 A 
ATOM     37  H   UNL A   1      39.723  30.874  32.188  1.00  0.00     0.167 HD
ATOM     38  C   UNL A   1      42.841  29.207  34.707  1.00  0.00     0.037 A 
ATOM     39  C   UNL A   1      37.631  32.671  31.601  1.00  0.00     0.037 A 
ATOM     40  C   UNL A   1      42.247  30.263  35.494  1.00  0.00     0.049 A 
ATOM     41  C   UNL A   1      38.085  33.020  32.987  1.00  0.00     0.074 A 
ATOM     42  C   UNL A   1      42.611  30.704  36.756  1.00  0.00     0.029 A 
ATOM     43  N   UNL A   1      41.183  31.058  35.092  1.00  0.00    -0.354 N 
ATOM     44  N   UNL A   1      39.052  32.489  33.695  1.00  0.00    -0.248 NA
ATOM     45  C   UNL A   1      37.346  34.087  33.674  1.00  0.00     0.031 C 
ATOM     46  C   UNL A   1      41.735  31.726  37.138  1.00  0.00     0.029 A 
ATOM     47  C   UNL A   1      40.863  31.968  36.091  1.00  0.00     0.049 A 
ATOM     48  H   UNL A   1      40.722  30.986  34.225  1.00  0.00     0.167 HD
ATOM     49  C   UNL A   1      39.042  33.160  34.911  1.00  0.00     0.074 A 
ATOM     50  C   UNL A   1      37.996  34.161  34.826  1.00  0.00     0.031 C 
ATOM     51  C   UNL A   1      39.818  32.956  36.004  1.00  0.00     0.037 A 
BRANCH  38  52
ATOM     52  C   UNL A   1      43.981  28.433  35.323  1.00  0.00     0.058 A 
ATOM     53  C   UNL A   1      43.785  27.282  36.101  1.00  0.00     0.135 A 
ATOM     54  C   UNL A   1      45.310  28.826  35.072  1.00  0.00     0.135 A 
ATOM     55  F   UNL A   1      42.541  26.863  36.385  1.00  0.00    -0.206 F 
ATOM     56  C   UNL A   1      44.857  26.565  36.629  1.00  0.00     0.059 A 
ATOM     57  C   UNL A   1      46.397  28.107  35.563  1.00  0.00     0.059 A 
ATOM     58  F   UNL A   1      45.562  29.916  34.330  1.00  0.00    -0.206 F 
ATOM     59  C   UNL A   1      46.160  26.985  36.352  1.00  0.00     0.060 A 
BRANCH  59  60
ATOM     60  S   UNL A   1      47.540  26.041  37.036  1.00  0.00     0.124 S 
ATOM     61  O   UNL A   1      48.647  26.490  36.196  1.00  0.00    -0.237 OA
ATOM     62  O   UNL A   1      47.572  26.495  38.422  1.00  0.00    -0.237 OA
ATOM     63  O   UNL A   1      47.133  24.652  36.843  1.00  0.00    -0.744 OA
ENDBRANCH  59  60
ENDBRANCH  38  52
BRANCH  39  64
ATOM     64  C   UNL A   1      36.491  33.393  30.963  1.00  0.00     0.058 A 
ATOM     65  C   UNL A   1      35.173  33.226  31.412  1.00  0.00     0.135 A 
ATOM     66  C   UNL A   1      36.704  34.269  29.884  1.00  0.00     0.135 A 
ATOM     67  F   UNL A   1      34.910  32.386  32.425  1.00  0.00    -0.206 F 
ATOM     68  C   UNL A   1      34.108  33.893  30.812  1.00  0.00     0.059 A 
ATOM     69  C   UNL A   1      35.663  34.980  29.298  1.00  0.00     0.059 A 
ATOM     70  F   UNL A   1      37.944  34.470  29.411  1.00  0.00    -0.206 F 
ATOM     71  C   UNL A   1      34.366  34.775  29.760  1.00  0.00     0.060 A 
BRANCH  71  72
ATOM     72  S   UNL A   1      32.988  35.675  29.018  1.00  0.00     0.124 S 
ATOM     73  O   UNL A   1      32.225  36.067  30.197  1.00  0.00    -0.237 OA
ATOM     74  O   UNL A   1      33.671  36.753  28.310  1.00  0.00    -0.237 OA
ATOM     75  O   UNL A   1      32.357  34.674  28.161  1.00  0.00    -0.744 OA
ENDBRANCH  71  72
ENDBRANCH  39  64
BRANCH  51  76
ATOM     76  C   UNL A   1      39.581  33.862  37.182  1.00  0.00     0.058 A 
ATOM     77  C   UNL A   1      40.199  35.120  37.284  1.00  0.00     0.135 A 
ATOM     78  C   UNL A   1      38.738  33.461  38.231  1.00  0.00     0.135 A 
ATOM     79  F   UNL A   1      41.022  35.549  36.315  1.00  0.00    -0.206 F 
ATOM     80  C   UNL A   1      40.031  35.923  38.407  1.00  0.00     0.059 A 
ATOM     81  C   UNL A   1      38.527  34.264  39.347  1.00  0.00     0.059 A 
ATOM     82  F   UNL A   1      38.113  32.274  38.181  1.00  0.00    -0.206 F 
ATOM     83  C   UNL A   1      39.197  35.484  39.436  1.00  0.00     0.060 A 
BRANCH  83  84
ATOM     84  S   UNL A   1      38.996  36.530  40.894  1.00  0.00     0.124 S 
ATOM     85  O   UNL A   1      40.355  36.555  41.426  1.00  0.00    -0.237 OA
ATOM     86  O   UNL A   1      38.519  37.782  40.317  1.00  0.00    -0.237 OA
ATOM     87  O   UNL A   1      38.019  35.806  41.702  1.00  0.00    -0.744 OA
ENDBRANCH  83  84
ENDBRANCH  51  76
ENDBRANCH  25  26
ENDBRANCH  18  20
ENDBRANCH  17  18
ENDBRANCH   1  17
TORSDOF 17
ENDMDL
MODEL 2
REMARK VINA RESULT:     -10.0      5.645     10.289
REMARK SMILES COC(=O)N[C@@H](C(=O)OCCOC(=O)c1ccc(-c2c3nc(c(-c4c(F)cc(S(=O)(=O)[O-])cc4F)c4ccc([nH]4)c(-c4c(F)cc(S(=O)(=O)[O-])cc4F)c4nc(c(-c5c(F)cc(S(=O)(=O)[O-])cc5F)c5ccc2[nH]5)C=C4)C=C3)cc1)C1COC1
REMARK SMILES IDX 11 1 10 2 9 3 7 4 8 5 6 6 5 7 3 8 4 9 2 11 1 12 81 13 82 14
REMARK SMILES IDX 84 15 83 16 12 17 13 18 14 19 15 20 16 21 80 22 17 23 79 24
REMARK SMILES IDX 18 25 19 26 20 27 73 28 21 29 78 30 72 31 74 32 22 33 77 34
REMARK SMILES IDX 71 35 70 36 23 38 57 39 36 40 56 41 37 42 40 43 55 44 75 45
REMARK SMILES IDX 38 46 39 47 54 49 76 50 41 51 24 52 25 53 34 54 26 55 27 56
REMARK SMILES IDX 33 57 35 58 28 59 29 60 30 61 31 62 32 63 58 64 59 65 68 66
REMARK SMILES IDX 60 67 61 68 67 69 69 70 62 71 63 72 64 73 65 74 66 75 42 76
REMARK SMILES IDX 43 77 52 78 44 79 45 80 51 81 53 82 46 83 47 84 48 85 49 86
REMARK SMILES IDX 50 87
REMARK H PARENT 5 10 74 37 40 48
REMARK Flexibility Score: inf
ROOT
ATOM      1  C   UNL A   1      40.520  19.734  26.237  1.00  0.00     0.275 C 
ENDROOT
BRANCH   1   2
ATOM      2  C   UNL A   1      41.985  19.604  25.826  1.00  0.00     0.274 C 
BRANCH   2   3
ATOM      3  O   UNL A   1      42.778  20.673  26.382  1.00  0.00    -0.461 OA
BRANCH   3   4
ATOM      4  C   UNL A   1      43.341  21.552  25.501  1.00  0.00     0.329 C 
ATOM      5  O   UNL A   1      42.753  22.514  25.026  1.00  0.00    -0.250 OA
BRANCH   4   6
ATOM      6  C   UNL A   1      44.719  21.075  25.029  1.00  0.00     0.203 C 
BRANCH   6   7
ATOM      7  N   UNL A   1      45.092  19.778  25.594  1.00  0.00    -0.307 N 
ATOM      8  C   UNL A   1      45.680  18.762  24.905  1.00  0.00     0.407 C 
ATOM      9  O   UNL A   1      45.972  17.698  25.424  1.00  0.00    -0.225 OA
ATOM     10  H   UNL A   1      44.903  19.629  26.548  1.00  0.00     0.168 HD
BRANCH   8  11
ATOM     11  O   UNL A   1      45.881  19.082  23.602  1.00  0.00    -0.453 OA
ATOM     12  C   UNL A   1      44.797  18.761  22.736  1.00  0.00     0.284 C 
ENDBRANCH   8  11
ENDBRANCH   6   7
BRANCH   6  13
ATOM     13  C   UNL A   1      45.932  21.973  25.232  1.00  0.00     0.075 C 
ATOM     14  C   UNL A   1      46.272  23.118  24.264  1.00  0.00     0.168 C 
ATOM     15  C   UNL A   1      45.911  23.072  26.297  1.00  0.00     0.168 C 
ATOM     16  O   UNL A   1      46.504  24.015  25.375  1.00  0.00    -0.380 OA
ENDBRANCH   6  13
ENDBRANCH   4   6
ENDBRANCH   3   4
ENDBRANCH   2   3
ENDBRANCH   1   2
BRANCH   1  17
ATOM     17  O   UNL A   1      40.336  20.845  27.135  1.00  0.00    -0.458 OA
BRANCH  17  18
ATOM     18  C   UNL A   1      39.680  21.898  26.598  1.00  0.00     0.338 C 
ATOM     19  O   UNL A   1      38.807  21.864  25.745  1.00  0.00    -0.246 OA
BRANCH  18  20
ATOM     20  C   UNL A   1      40.028  23.141  27.301  1.00  0.00     0.060 A 
ATOM     21  C   UNL A   1      39.570  24.317  26.732  1.00  0.00     0.016 A 
ATOM     22  C   UNL A   1      41.007  23.183  28.291  1.00  0.00     0.016 A 
ATOM     23  C   UNL A   1      40.222  25.510  27.018  1.00  0.00     0.010 A 
ATOM     24  C   UNL A   1      41.544  24.423  28.690  1.00  0.00     0.010 A 
ATOM     25  C   UNL A   1      41.204  25.609  28.014  1.00  0.00    -0.014 A 
BRANCH  25  26
ATOM     26  C   UNL A   1      41.867  26.937  28.261  1.00  0.00     0.031 A 
ATOM     27  C   UNL A   1      41.155  28.052  29.002  1.00  0.00     0.074 A 
ATOM     28  C   UNL A   1      43.159  27.133  27.905  1.00  0.00     0.049 A 
ATOM     29  N   UNL A   1      41.524  29.300  29.173  1.00  0.00    -0.248 NA
ATOM     30  C   UNL A   1      39.858  27.735  29.621  1.00  0.00     0.031 C 
ATOM     31  C   UNL A   1      44.015  26.148  27.236  1.00  0.00     0.029 A 
ATOM     32  N   UNL A   1      44.001  28.207  28.090  1.00  0.00    -0.354 N 
ATOM     33  C   UNL A   1      40.482  29.926  29.853  1.00  0.00     0.074 A 
ATOM     34  C   UNL A   1      39.463  28.922  30.064  1.00  0.00     0.031 C 
ATOM     35  C   UNL A   1      45.269  26.610  27.176  1.00  0.00     0.029 A 
ATOM     36  C   UNL A   1      45.281  27.991  27.632  1.00  0.00     0.049 A 
ATOM     37  H   UNL A   1      43.713  29.050  28.511  1.00  0.00     0.167 HD
ATOM     38  C   UNL A   1      40.384  31.218  30.259  1.00  0.00     0.037 A 
ATOM     39  C   UNL A   1      46.340  28.816  27.514  1.00  0.00     0.037 A 
ATOM     40  C   UNL A   1      41.434  32.199  30.110  1.00  0.00     0.049 A 
ATOM     41  C   UNL A   1      46.188  30.253  27.916  1.00  0.00     0.074 A 
ATOM     42  C   UNL A   1      41.425  33.533  30.486  1.00  0.00     0.029 A 
ATOM     43  N   UNL A   1      42.685  31.954  29.562  1.00  0.00    -0.354 N 
ATOM     44  N   UNL A   1      45.157  30.851  28.460  1.00  0.00    -0.248 NA
ATOM     45  C   UNL A   1      47.332  31.136  27.654  1.00  0.00     0.031 C 
ATOM     46  C   UNL A   1      42.647  34.106  30.117  1.00  0.00     0.029 A 
ATOM     47  C   UNL A   1      43.444  33.117  29.568  1.00  0.00     0.049 A 
ATOM     48  H   UNL A   1      42.989  31.083  29.219  1.00  0.00     0.167 HD
ATOM     49  C   UNL A   1      45.528  32.181  28.611  1.00  0.00     0.074 A 
ATOM     50  C   UNL A   1      46.893  32.289  28.135  1.00  0.00     0.031 C 
ATOM     51  C   UNL A   1      44.799  33.221  29.086  1.00  0.00     0.037 A 
BRANCH  38  52
ATOM     52  C   UNL A   1      39.077  31.678  30.860  1.00  0.00     0.058 A 
ATOM     53  C   UNL A   1      38.836  31.678  32.242  1.00  0.00     0.135 A 
ATOM     54  C   UNL A   1      38.064  32.188  30.026  1.00  0.00     0.135 A 
ATOM     55  F   UNL A   1      39.758  31.193  33.089  1.00  0.00    -0.206 F 
ATOM     56  C   UNL A   1      37.634  32.142  32.774  1.00  0.00     0.059 A 
ATOM     57  C   UNL A   1      36.868  32.686  30.537  1.00  0.00     0.059 A 
ATOM     58  F   UNL A   1      38.238  32.219  28.695  1.00  0.00    -0.206 F 
ATOM     59  C   UNL A   1      36.657  32.646  31.913  1.00  0.00     0.060 A 
BRANCH  59  60
ATOM     60  S   UNL A   1      35.107  33.251  32.617  1.00  0.00     0.124 S 
ATOM     61  O   UNL A   1      34.123  32.460  31.883  1.00  0.00    -0.237 OA
ATOM     62  O   UNL A   1      35.257  32.921  34.030  1.00  0.00    -0.237 OA
ATOM     63  O   UNL A   1      35.123  34.677  32.303  1.00  0.00    -0.744 OA
ENDBRANCH  59  60
ENDBRANCH  38  52
BRANCH  39  64
ATOM     64  C   UNL A   1      47.605  28.323  26.894  1.00  0.00     0.058 A 
ATOM     65  C   UNL A   1      47.741  28.201  25.503  1.00  0.00     0.135 A 
ATOM     66  C   UNL A   1      48.708  27.964  27.688  1.00  0.00     0.135 A 
ATOM     67  F   UNL A   1      46.712  28.510  24.698  1.00  0.00    -0.206 F 
ATOM     68  C   UNL A   1      48.918  27.734  24.923  1.00  0.00     0.059 A 
ATOM     69  C   UNL A   1      49.908  27.538  27.131  1.00  0.00     0.059 A 
ATOM     70  F   UNL A   1      48.638  28.061  29.025  1.00  0.00    -0.206 F 
ATOM     71  C   UNL A   1      49.998  27.413  25.747  1.00  0.00     0.060 A 
BRANCH  71  72
ATOM     72  S   UNL A   1      51.538  26.854  24.988  1.00  0.00     0.124 S 
ATOM     73  O   UNL A   1      51.238  27.006  23.569  1.00  0.00    -0.237 OA
ATOM     74  O   UNL A   1      52.511  27.792  25.539  1.00  0.00    -0.237 OA
ATOM     75  O   UNL A   1      51.667  25.479  25.462  1.00  0.00    -0.744 OA
ENDBRANCH  71  72
ENDBRANCH  39  64
BRANCH  51  76
ATOM     76  C   UNL A   1      45.484  34.559  29.144  1.00  0.00     0.058 A 
ATOM     77  C   UNL A   1      45.417  35.471  28.076  1.00  0.00     0.135 A 
ATOM     78  C   UNL A   1      46.231  34.929  30.273  1.00  0.00     0.135 A 
ATOM     79  F   UNL A   1      44.724  35.165  26.968  1.00  0.00    -0.206 F 
ATOM     80  C   UNL A   1      46.108  36.677  28.107  1.00  0.00     0.059 A 
ATOM     81  C   UNL A   1      46.901  36.147  30.340  1.00  0.00     0.059 A 
ATOM     82  F   UNL A   1      46.321  34.102  31.327  1.00  0.00    -0.206 F 
ATOM     83  C   UNL A   1      46.852  37.004  29.242  1.00  0.00     0.060 A 
BRANCH  83  84
ATOM     84  S   UNL A   1      47.755  38.567  29.264  1.00  0.00     0.124 S 
ATOM     85  O   UNL A   1      46.687  39.518  29.556  1.00  0.00    -0.237 OA
ATOM     86  O   UNL A   1      48.724  38.353  30.334  1.00  0.00    -0.237 OA
ATOM     87  O   UNL A   1      48.322  38.653  27.921  1.00  0.00    -0.744 OA
ENDBRANCH  83  84
ENDBRANCH  51  76
ENDBRANCH  25  26
ENDBRANCH  18  20
ENDBRANCH  17  18
ENDBRANCH   1  17
TORSDOF 17
ENDMDL
MODEL 3
REMARK VINA RESULT:      -9.8      5.554     10.089
REMARK SMILES COC(=O)N[C@@H](C(=O)OCCOC(=O)c1ccc(-c2c3nc(c(-c4c(F)cc(S(=O)(=O)[O-])cc4F)c4ccc([nH]4)c(-c4c(F)cc(S(=O)(=O)[O-])cc4F)c4nc(c(-c5c(F)cc(S(=O)(=O)[O-])cc5F)c5ccc2[nH]5)C=C4)C=C3)cc1)C1COC1
REMARK SMILES IDX 11 1 10 2 9 3 7 4 8 5 6 6 5 7 3 8 4 9 2 11 1 12 81 13 82 14
REMARK SMILES IDX 84 15 83 16 12 17 13 18 14 19 15 20 16 21 80 22 17 23 79 24
REMARK SMILES IDX 18 25 19 26 20 27 73 28 21 29 78 30 72 31 74 32 22 33 77 34
REMARK SMILES IDX 71 35 70 36 23 38 57 39 36 40 56 41 37 42 40 43 55 44 75 45
REMARK SMILES IDX 38 46 39 47 54 49 76 50 41 51 24 52 25 53 34 54 26 55 27 56
REMARK SMILES IDX 33 57 35 58 28 59 29 60 30 61 31 62 32 63 58 64 59 65 68 66
REMARK SMILES IDX 60 67 61 68 67 69 69 70 62 71 63 72 64 73 65 74 66 75 42 76
REMARK SMILES IDX 43 77 52 78 44 79 45 80 51 81 53 82 46 83 47 84 48 85 49 86
REMARK SMILES IDX 50 87
REMARK H PARENT 5 10 74 37 40 48
REMARK Flexibility Score: inf
ROOT
ATOM      1  C   UNL A   1      40.611  20.139  26.274  1.00  0.00     0.275 C 
ENDROOT
BRANCH   1   2
ATOM      2  C   UNL A   1      42.097  20.387  26.530  1.00  0.00     0.274 C 
BRANCH   2   3
ATOM      3  O   UNL A   1      42.761  20.842  25.333  1.00  0.00    -0.461 OA
BRANCH   3   4
ATOM      4  C   UNL A   1      43.434  22.028  25.408  1.00  0.00     0.329 C 
ATOM      5  O   UNL A   1      42.887  23.123  25.430  1.00  0.00    -0.250 OA
BRANCH   4   6
ATOM      6  C   UNL A   1      44.946  21.832  25.258  1.00  0.00     0.203 C 
BRANCH   6   7
ATOM      7  N   UNL A   1      45.579  22.895  24.477  1.00  0.00    -0.307 N 
ATOM      8  C   UNL A   1      46.446  23.822  24.970  1.00  0.00     0.407 C 
ATOM      9  O   UNL A   1      46.947  24.689  24.275  1.00  0.00    -0.225 OA
ATOM     10  H   UNL A   1      45.360  22.944  23.519  1.00  0.00     0.168 HD
BRANCH   8  11
ATOM     11  O   UNL A   1      46.661  23.657  26.300  1.00  0.00    -0.453 OA
ATOM     12  C   UNL A   1      47.658  24.513  26.851  1.00  0.00     0.284 C 
ENDBRANCH   8  11
ENDBRANCH   6   7
BRANCH   6  13
ATOM     13  C   UNL A   1      45.478  20.528  24.679  1.00  0.00     0.075 C 
ATOM     14  C   UNL A   1      46.937  20.373  24.221  1.00  0.00     0.168 C 
ATOM     15  C   UNL A   1      45.790  19.344  25.598  1.00  0.00     0.168 C 
ATOM     16  O   UNL A   1      47.038  19.102  24.907  1.00  0.00    -0.380 OA
ENDBRANCH   6  13
ENDBRANCH   4   6
ENDBRANCH   3   4
ENDBRANCH   2   3
ENDBRANCH   1   2
BRANCH   1  17
ATOM     17  O   UNL A   1      39.800  21.011  27.083  1.00  0.00    -0.458 OA
BRANCH  17  18
ATOM     18  C   UNL A   1      39.361  22.120  26.445  1.00  0.00     0.338 C 
ATOM     19  O   UNL A   1      38.628  22.166  25.470  1.00  0.00    -0.246 OA
BRANCH  18  20
ATOM     20  C   UNL A   1      39.742  23.330  27.185  1.00  0.00     0.060 A 
ATOM     21  C   UNL A   1      39.275  24.532  26.681  1.00  0.00     0.016 A 
ATOM     22  C   UNL A   1      40.755  23.327  28.143  1.00  0.00     0.016 A 
ATOM     23  C   UNL A   1      39.945  25.708  26.991  1.00  0.00     0.010 A 
ATOM     24  C   UNL A   1      41.315  24.546  28.572  1.00  0.00     0.010 A 
ATOM     25  C   UNL A   1      40.962  25.760  27.956  1.00  0.00    -0.014 A 
BRANCH  25  26
ATOM     26  C   UNL A   1      41.643  27.073  28.233  1.00  0.00     0.031 A 
ATOM     27  C   UNL A   1      40.944  28.184  28.992  1.00  0.00     0.074 A 
ATOM     28  C   UNL A   1      42.940  27.255  27.889  1.00  0.00     0.049 A 
ATOM     29  N   UNL A   1      41.330  29.423  29.190  1.00  0.00    -0.248 NA
ATOM     30  C   UNL A   1      39.638  27.874  29.597  1.00  0.00     0.031 C 
ATOM     31  C   UNL A   1      43.786  26.270  27.207  1.00  0.00     0.029 A 
ATOM     32  N   UNL A   1      43.797  28.312  28.101  1.00  0.00    -0.354 N 
ATOM     33  C   UNL A   1      40.294  30.051  29.876  1.00  0.00     0.074 A 
ATOM     34  C   UNL A   1      39.259  29.059  30.061  1.00  0.00     0.031 C 
ATOM     35  C   UNL A   1      45.046  26.715  27.163  1.00  0.00     0.029 A 
ATOM     36  C   UNL A   1      45.077  28.086  27.647  1.00  0.00     0.049 A 
ATOM     37  H   UNL A   1      43.520  29.151  28.537  1.00  0.00     0.167 HD
ATOM     38  C   UNL A   1      40.213  31.336  30.307  1.00  0.00     0.037 A 
ATOM     39  C   UNL A   1      46.150  28.897  27.551  1.00  0.00     0.037 A 
ATOM     40  C   UNL A   1      41.279  32.304  30.183  1.00  0.00     0.049 A 
ATOM     41  C   UNL A   1      46.017  30.327  27.980  1.00  0.00     0.074 A 
ATOM     42  C   UNL A   1      41.288  33.630  30.586  1.00  0.00     0.029 A 
ATOM     43  N   UNL A   1      42.529  32.050  29.638  1.00  0.00    -0.354 N 
ATOM     44  N   UNL A   1      44.991  30.930  28.530  1.00  0.00    -0.248 NA
ATOM     45  C   UNL A   1      47.175  31.198  27.743  1.00  0.00     0.031 C 
ATOM     46  C   UNL A   1      42.521  34.191  30.236  1.00  0.00     0.029 A 
ATOM     47  C   UNL A   1      43.307  33.200  29.672  1.00  0.00     0.049 A 
ATOM     48  H   UNL A   1      42.822  31.181  29.280  1.00  0.00     0.167 HD
ATOM     49  C   UNL A   1      45.381  32.251  28.709  1.00  0.00     0.074 A 
ATOM     50  C   UNL A   1      46.751  32.348  28.244  1.00  0.00     0.031 C 
ATOM     51  C   UNL A   1      44.665  33.293  29.201  1.00  0.00     0.037 A 
BRANCH  38  52
ATOM     52  C   UNL A   1      38.910  31.804  30.909  1.00  0.00     0.058 A 
ATOM     53  C   UNL A   1      38.659  31.777  32.289  1.00  0.00     0.135 A 
ATOM     54  C   UNL A   1      37.912  32.350  30.079  1.00  0.00     0.135 A 
ATOM     55  F   UNL A   1      39.566  31.258  33.131  1.00  0.00    -0.206 F 
ATOM     56  C   UNL A   1      37.461  32.249  32.823  1.00  0.00     0.059 A 
ATOM     57  C   UNL A   1      36.720  32.855  30.594  1.00  0.00     0.059 A 
ATOM     58  F   UNL A   1      38.096  32.407  28.751  1.00  0.00    -0.206 F 
ATOM     59  C   UNL A   1      36.498  32.789  31.966  1.00  0.00     0.060 A 
BRANCH  59  60
ATOM     60  S   UNL A   1      34.954  33.403  32.673  1.00  0.00     0.124 S 
ATOM     61  O   UNL A   1      35.147  33.118  34.092  1.00  0.00    -0.237 OA
ATOM     62  O   UNL A   1      34.980  34.813  32.302  1.00  0.00    -0.237 OA
ATOM     63  O   UNL A   1      33.930  32.601  32.009  1.00  0.00    -0.744 OA
ENDBRANCH  59  60
ENDBRANCH  38  52
BRANCH  39  64
ATOM     64  C   UNL A   1      47.410  28.397  26.929  1.00  0.00     0.058 A 
ATOM     65  C   UNL A   1      48.533  28.071  27.704  1.00  0.00     0.135 A 
ATOM     66  C   UNL A   1      47.514  28.235  25.536  1.00  0.00     0.135 A 
ATOM     67  F   UNL A   1      48.497  28.226  29.036  1.00  0.00    -0.206 F 
ATOM     68  C   UNL A   1      49.712  27.612  27.123  1.00  0.00     0.059 A 
ATOM     69  C   UNL A   1      48.664  27.736  24.937  1.00  0.00     0.059 A 
ATOM     70  F   UNL A   1      46.472  28.529  24.742  1.00  0.00    -0.206 F 
ATOM     71  C   UNL A   1      49.764  27.440  25.738  1.00  0.00     0.060 A 
BRANCH  71  72
ATOM     72  S   UNL A   1      51.279  26.798  24.994  1.00  0.00     0.124 S 
ATOM     73  O   UNL A   1      51.301  25.433  25.506  1.00  0.00    -0.237 OA
ATOM     74  O   UNL A   1      51.006  26.943  23.568  1.00  0.00    -0.237 OA
ATOM     75  O   UNL A   1      52.313  27.686  25.520  1.00  0.00    -0.744 OA
ENDBRANCH  71  72
ENDBRANCH  39  64
BRANCH  51  76
ATOM     76  C   UNL A   1      45.371  34.619  29.289  1.00  0.00     0.058 A 
ATOM     77  C   UNL A   1      45.327  35.551  28.238  1.00  0.00     0.135 A 
ATOM     78  C   UNL A   1      46.113  34.957  30.431  1.00  0.00     0.135 A 
ATOM     79  F   UNL A   1      44.640  35.276  27.118  1.00  0.00    -0.206 F 
ATOM     80  C   UNL A   1      46.037  36.746  28.297  1.00  0.00     0.059 A 
ATOM     81  C   UNL A   1      46.802  36.162  30.526  1.00  0.00     0.059 A 
ATOM     82  F   UNL A   1      46.181  34.109  31.470  1.00  0.00    -0.206 F 
ATOM     83  C   UNL A   1      46.776  37.040  29.443  1.00  0.00     0.060 A 
BRANCH  83  84
ATOM     84  S   UNL A   1      47.702  38.589  29.502  1.00  0.00     0.124 S 
ATOM     85  O   UNL A   1      47.637  39.022  28.110  1.00  0.00    -0.237 OA
ATOM     86  O   UNL A   1      46.926  39.381  30.450  1.00  0.00    -0.237 OA
ATOM     87  O   UNL A   1      49.023  38.178  29.970  1.00  0.00    -0.744 OA
ENDBRANCH  83  84
ENDBRANCH  51  76
ENDBRANCH  25  26
ENDBRANCH  18  20
ENDBRANCH  17  18
ENDBRANCH   1  17
TORSDOF 17
ENDMDL
