MODEL 1
REMARK VINA RESULT:     -10.1      0.000      0.000
REMARK SMILES COC(CNS(=O)(=O)c1ccc(Cl)c(C(=O)OCCOC(=O)c2ccc(-c3c4nc(c(-c5c(F)cc(S(=O)(=O)[O-])cc5F)c5ccc([nH]5)c(-c5c(F)cc(S(=O)(=O)[O-])cc5F)c5nc(c(-c6c(F)cc(S(=O)(=O)[O-])cc6F)c6ccc3[nH]6)C=C5)C=C4)cc2)c1Cl)OC
REMARK SMILES IDX 18 1 17 2 15 3 16 4 14 5 9 6 10 7 89 8 11 9 90 10 12 11
REMARK SMILES IDX 13 12 6 13 7 14 8 15 5 16 4 18 3 19 2 20 1 21 91 22 92 23
REMARK SMILES IDX 19 24 20 25 21 26 22 27 23 28 24 29 88 30 25 31 87 32 26 33
REMARK SMILES IDX 27 34 28 35 81 36 29 37 86 38 80 39 82 40 30 41 85 42 79 43
REMARK SMILES IDX 78 44 31 46 65 47 44 48 64 49 45 50 48 51 63 52 83 53 46 54
REMARK SMILES IDX 47 55 62 57 84 58 49 59 32 60 33 61 42 62 34 63 35 64 41 65
REMARK SMILES IDX 43 66 36 67 37 68 38 69 39 70 40 71 66 72 67 73 76 74 68 75
REMARK SMILES IDX 69 76 75 77 77 78 70 79 71 80 72 81 73 82 74 83 50 84 51 85
REMARK SMILES IDX 60 86 52 87 53 88 59 89 61 90 54 91 55 92 56 93 57 94 58 95
REMARK H PARENT 5 17 82 45 48 56
REMARK Flexibility Score: inf
ROOT
ATOM      1  C   UNL A   1      33.933  28.559  25.034  1.00  0.00     0.275 C 
ENDROOT
BRANCH   1   2
ATOM      2  O   UNL A   1      33.311  28.968  23.803  1.00  0.00    -0.458 OA
BRANCH   2   3
ATOM      3  C   UNL A   1      33.220  28.024  22.832  1.00  0.00     0.341 C 
ATOM      4  O   UNL A   1      33.936  27.880  21.861  1.00  0.00    -0.246 OA
BRANCH   3   5
ATOM      5  C   UNL A   1      32.046  27.199  23.170  1.00  0.00     0.098 A 
ATOM      6  C   UNL A   1      31.095  25.346  24.402  1.00  0.00     0.102 A 
ATOM      7  C   UNL A   1      29.825  25.933  24.251  1.00  0.00     0.025 A 
ATOM      8  C   UNL A   1      32.210  25.942  23.790  1.00  0.00     0.077 A 
ATOM      9  C   UNL A   1      29.661  27.109  23.521  1.00  0.00     0.023 A 
ATOM     10  Cl  UNL A   1      33.771  25.196  23.722  1.00  0.00    -0.082 Cl
ATOM     11  C   UNL A   1      30.775  27.764  23.006  1.00  0.00     0.057 A 
ATOM     12  Cl  UNL A   1      30.517  29.264  22.189  1.00  0.00    -0.083 Cl
BRANCH   6  13
ATOM     13  S   UNL A   1      31.216  24.067  25.645  1.00  0.00     0.242 S 
ATOM     14  O   UNL A   1      31.134  22.805  24.948  1.00  0.00    -0.207 OA
ATOM     15  O   UNL A   1      30.360  24.373  26.764  1.00  0.00    -0.207 OA
BRANCH  13  16
ATOM     16  N   UNL A   1      32.763  24.221  26.284  1.00  0.00    -0.206 NA
ATOM     17  H   UNL A   1      33.363  24.584  25.543  1.00  0.00     0.141 HD
BRANCH  16  18
ATOM     18  C   UNL A   1      33.416  23.001  26.824  1.00  0.00     0.161 C 
BRANCH  18  19
ATOM     19  C   UNL A   1      34.786  22.688  26.159  1.00  0.00     0.263 C 
BRANCH  19  20
ATOM     20  O   UNL A   1      35.780  23.710  26.119  1.00  0.00    -0.355 OA
ATOM     21  C   UNL A   1      36.918  23.496  25.307  1.00  0.00     0.198 C 
ENDBRANCH  19  20
BRANCH  19  22
ATOM     22  O   UNL A   1      34.681  21.922  24.951  1.00  0.00    -0.355 OA
ATOM     23  C   UNL A   1      33.992  20.690  25.063  1.00  0.00     0.198 C 
ENDBRANCH  19  22
ENDBRANCH  18  19
ENDBRANCH  16  18
ENDBRANCH  13  16
ENDBRANCH   6  13
ENDBRANCH   3   5
ENDBRANCH   2   3
ENDBRANCH   1   2
BRANCH   1  24
ATOM     24  C   UNL A   1      33.016  28.907  26.213  1.00  0.00     0.275 C 
BRANCH  24  25
ATOM     25  O   UNL A   1      33.764  28.875  27.444  1.00  0.00    -0.458 OA
BRANCH  25  26
ATOM     26  C   UNL A   1      34.287  30.067  27.824  1.00  0.00     0.338 C 
ATOM     27  O   UNL A   1      33.686  31.109  28.024  1.00  0.00    -0.246 OA
BRANCH  26  28
ATOM     28  C   UNL A   1      35.695  29.865  28.197  1.00  0.00     0.060 A 
ATOM     29  C   UNL A   1      36.637  30.050  27.188  1.00  0.00     0.016 A 
ATOM     30  C   UNL A   1      36.096  29.462  29.470  1.00  0.00     0.016 A 
ATOM     31  C   UNL A   1      37.988  29.844  27.440  1.00  0.00     0.010 A 
ATOM     32  C   UNL A   1      37.459  29.241  29.720  1.00  0.00     0.010 A 
ATOM     33  C   UNL A   1      38.414  29.423  28.702  1.00  0.00    -0.014 A 
BRANCH  33  34
ATOM     34  C   UNL A   1      39.848  29.083  28.903  1.00  0.00     0.031 A 
ATOM     35  C   UNL A   1      40.772  30.105  29.504  1.00  0.00     0.074 A 
ATOM     36  C   UNL A   1      40.309  27.850  28.622  1.00  0.00     0.049 A 
ATOM     37  N   UNL A   1      42.068  30.055  29.672  1.00  0.00    -0.248 NA
ATOM     38  C   UNL A   1      40.150  31.351  29.982  1.00  0.00     0.031 C 
ATOM     39  C   UNL A   1      39.502  26.736  28.125  1.00  0.00     0.029 A 
ATOM     40  N   UNL A   1      41.574  27.323  28.728  1.00  0.00    -0.354 N 
ATOM     41  C   UNL A   1      42.424  31.272  30.239  1.00  0.00     0.074 A 
ATOM     42  C   UNL A   1      41.207  32.042  30.385  1.00  0.00     0.031 C 
ATOM     43  C   UNL A   1      40.289  25.656  27.976  1.00  0.00     0.029 A 
ATOM     44  C   UNL A   1      41.664  26.015  28.316  1.00  0.00     0.049 A 
ATOM     45  H   UNL A   1      42.343  27.835  29.066  1.00  0.00     0.167 HD
ATOM     46  C   UNL A   1      43.654  31.707  30.603  1.00  0.00     0.037 A 
ATOM     47  C   UNL A   1      42.734  25.204  28.199  1.00  0.00     0.037 A 
ATOM     48  C   UNL A   1      44.857  30.925  30.493  1.00  0.00     0.049 A 
ATOM     49  C   UNL A   1      44.100  25.728  28.559  1.00  0.00     0.074 A 
ATOM     50  C   UNL A   1      46.152  31.285  30.826  1.00  0.00     0.029 A 
ATOM     51  N   UNL A   1      44.913  29.621  30.025  1.00  0.00    -0.354 N 
ATOM     52  N   UNL A   1      44.433  26.904  29.035  1.00  0.00    -0.248 NA
ATOM     53  C   UNL A   1      45.237  24.819  28.351  1.00  0.00     0.031 C 
ATOM     54  C   UNL A   1      46.995  30.207  30.532  1.00  0.00     0.029 A 
ATOM     55  C   UNL A   1      46.221  29.164  30.050  1.00  0.00     0.049 A 
ATOM     56  H   UNL A   1      44.138  29.097  29.720  1.00  0.00     0.167 HD
ATOM     57  C   UNL A   1      45.813  26.873  29.194  1.00  0.00     0.074 A 
ATOM     58  C   UNL A   1      46.253  25.556  28.780  1.00  0.00     0.031 C 
ATOM     59  C   UNL A   1      46.644  27.849  29.639  1.00  0.00     0.037 A 
BRANCH  46  60
ATOM     60  C   UNL A   1      43.762  33.114  31.118  1.00  0.00     0.058 A 
ATOM     61  C   UNL A   1      43.622  33.420  32.480  1.00  0.00     0.135 A 
ATOM     62  C   UNL A   1      44.027  34.171  30.232  1.00  0.00     0.135 A 
ATOM     63  F   UNL A   1      43.350  32.450  33.367  1.00  0.00    -0.206 F 
ATOM     64  C   UNL A   1      43.712  34.730  32.942  1.00  0.00     0.059 A 
ATOM     65  C   UNL A   1      44.146  35.484  30.674  1.00  0.00     0.059 A 
ATOM     66  F   UNL A   1      44.170  33.931  28.918  1.00  0.00    -0.206 F 
ATOM     67  C   UNL A   1      43.969  35.756  32.030  1.00  0.00     0.060 A 
BRANCH  67  68
ATOM     68  S   UNL A   1      44.078  37.452  32.639  1.00  0.00     0.124 S 
ATOM     69  O   UNL A   1      45.465  37.508  33.094  1.00  0.00    -0.237 OA
ATOM     70  O   UNL A   1      43.772  38.236  31.447  1.00  0.00    -0.237 OA
ATOM     71  O   UNL A   1      43.070  37.500  33.693  1.00  0.00    -0.744 OA
ENDBRANCH  67  68
ENDBRANCH  46  60
BRANCH  47  72
ATOM     72  C   UNL A   1      42.566  23.820  27.682  1.00  0.00     0.058 A 
ATOM     73  C   UNL A   1      42.524  23.560  26.305  1.00  0.00     0.135 A 
ATOM     74  C   UNL A   1      42.445  22.730  28.557  1.00  0.00     0.135 A 
ATOM     75  F   UNL A   1      42.620  24.571  25.428  1.00  0.00    -0.206 F 
ATOM     76  C   UNL A   1      42.363  22.269  25.812  1.00  0.00     0.059 A 
ATOM     77  C   UNL A   1      42.307  21.428  28.089  1.00  0.00     0.059 A 
ATOM     78  F   UNL A   1      42.482  22.926  29.886  1.00  0.00    -0.206 F 
ATOM     79  C   UNL A   1      42.258  21.208  26.714  1.00  0.00     0.060 A 
BRANCH  79  80
ATOM     80  S   UNL A   1      42.104  19.527  26.069  1.00  0.00     0.124 S 
ATOM     81  O   UNL A   1      43.038  19.557  24.951  1.00  0.00    -0.237 OA
ATOM     82  O   UNL A   1      42.504  18.716  27.215  1.00  0.00    -0.237 OA
ATOM     83  O   UNL A   1      40.691  19.436  25.712  1.00  0.00    -0.744 OA
ENDBRANCH  79  80
ENDBRANCH  47  72
BRANCH  59  84
ATOM     84  C   UNL A   1      48.108  27.525  29.726  1.00  0.00     0.058 A 
ATOM     85  C   UNL A   1      48.957  27.664  28.617  1.00  0.00     0.135 A 
ATOM     86  C   UNL A   1      48.677  27.117  30.943  1.00  0.00     0.135 A 
ATOM     87  F   UNL A   1      48.460  28.046  27.430  1.00  0.00    -0.206 F 
ATOM     88  C   UNL A   1      50.319  27.395  28.708  1.00  0.00     0.059 A 
ATOM     89  C   UNL A   1      50.040  26.862  31.061  1.00  0.00     0.059 A 
ATOM     90  F   UNL A   1      47.908  26.977  32.035  1.00  0.00    -0.206 F 
ATOM     91  C   UNL A   1      50.851  26.993  29.934  1.00  0.00     0.060 A 
BRANCH  91  92
ATOM     92  S   UNL A   1      52.625  26.678  30.051  1.00  0.00     0.124 S 
ATOM     93  O   UNL A   1      52.960  26.369  28.665  1.00  0.00    -0.237 OA
ATOM     94  O   UNL A   1      53.139  27.946  30.561  1.00  0.00    -0.237 OA
ATOM     95  O   UNL A   1      52.709  25.557  30.982  1.00  0.00    -0.744 OA
ENDBRANCH  91  92
ENDBRANCH  59  84
ENDBRANCH  33  34
ENDBRANCH  26  28
ENDBRANCH  25  26
ENDBRANCH  24  25
ENDBRANCH   1  24
TORSDOF 20
ENDMDL
MODEL 2
REMARK VINA RESULT:      -9.7      2.392      3.364
REMARK SMILES COC(CNS(=O)(=O)c1ccc(Cl)c(C(=O)OCCOC(=O)c2ccc(-c3c4nc(c(-c5c(F)cc(S(=O)(=O)[O-])cc5F)c5ccc([nH]5)c(-c5c(F)cc(S(=O)(=O)[O-])cc5F)c5nc(c(-c6c(F)cc(S(=O)(=O)[O-])cc6F)c6ccc3[nH]6)C=C5)C=C4)cc2)c1Cl)OC
REMARK SMILES IDX 18 1 17 2 15 3 16 4 14 5 9 6 10 7 89 8 11 9 90 10 12 11
REMARK SMILES IDX 13 12 6 13 7 14 8 15 5 16 4 18 3 19 2 20 1 21 91 22 92 23
REMARK SMILES IDX 19 24 20 25 21 26 22 27 23 28 24 29 88 30 25 31 87 32 26 33
REMARK SMILES IDX 27 34 28 35 81 36 29 37 86 38 80 39 82 40 30 41 85 42 79 43
REMARK SMILES IDX 78 44 31 46 65 47 44 48 64 49 45 50 48 51 63 52 83 53 46 54
REMARK SMILES IDX 47 55 62 57 84 58 49 59 32 60 33 61 42 62 34 63 35 64 41 65
REMARK SMILES IDX 43 66 36 67 37 68 38 69 39 70 40 71 66 72 67 73 76 74 68 75
REMARK SMILES IDX 69 76 75 77 77 78 70 79 71 80 72 81 73 82 74 83 50 84 51 85
REMARK SMILES IDX 60 86 52 87 53 88 59 89 61 90 54 91 55 92 56 93 57 94 58 95
REMARK H PARENT 5 17 82 45 48 56
REMARK Flexibility Score: inf
ROOT
ATOM      1  C   UNL A   1      33.515  28.824  27.157  1.00  0.00     0.275 C 
ENDROOT
BRANCH   1   2
ATOM      2  O   UNL A   1      32.487  29.084  26.185  1.00  0.00    -0.458 OA
BRANCH   2   3
ATOM      3  C   UNL A   1      32.789  28.791  24.895  1.00  0.00     0.341 C 
ATOM      4  O   UNL A   1      33.548  29.384  24.153  1.00  0.00    -0.246 OA
BRANCH   3   5
ATOM      5  C   UNL A   1      31.988  27.605  24.544  1.00  0.00     0.098 A 
ATOM      6  C   UNL A   1      31.584  25.230  24.772  1.00  0.00     0.102 A 
ATOM      7  C   UNL A   1      30.257  25.444  24.357  1.00  0.00     0.025 A 
ATOM      8  C   UNL A   1      32.485  26.307  24.792  1.00  0.00     0.077 A 
ATOM      9  C   UNL A   1      29.817  26.714  23.987  1.00  0.00     0.023 A 
ATOM     10  Cl  UNL A   1      34.184  26.122  25.070  1.00  0.00    -0.082 Cl
ATOM     11  C   UNL A   1      30.672  27.804  24.110  1.00  0.00     0.057 A 
ATOM     12  Cl  UNL A   1      30.042  29.366  23.723  1.00  0.00    -0.083 Cl
BRANCH   6  13
ATOM     13  S   UNL A   1      31.908  23.655  25.554  1.00  0.00     0.242 S 
ATOM     14  O   UNL A   1      30.666  22.918  25.528  1.00  0.00    -0.207 OA
ATOM     15  O   UNL A   1      32.652  23.845  26.774  1.00  0.00    -0.207 OA
BRANCH  13  16
ATOM     16  N   UNL A   1      33.005  22.881  24.544  1.00  0.00    -0.206 NA
ATOM     17  H   UNL A   1      32.626  21.957  24.335  1.00  0.00     0.141 HD
BRANCH  16  18
ATOM     18  C   UNL A   1      34.391  22.687  25.040  1.00  0.00     0.161 C 
BRANCH  18  19
ATOM     19  C   UNL A   1      34.835  21.198  25.068  1.00  0.00     0.263 C 
BRANCH  19  20
ATOM     20  O   UNL A   1      33.869  20.198  25.388  1.00  0.00    -0.355 OA
ATOM     21  C   UNL A   1      33.629  19.181  24.436  1.00  0.00     0.198 C 
ENDBRANCH  19  20
BRANCH  19  22
ATOM     22  O   UNL A   1      36.120  20.989  25.671  1.00  0.00    -0.355 OA
ATOM     23  C   UNL A   1      37.066  20.297  24.877  1.00  0.00     0.198 C 
ENDBRANCH  19  22
ENDBRANCH  18  19
ENDBRANCH  16  18
ENDBRANCH  13  16
ENDBRANCH   6  13
ENDBRANCH   3   5
ENDBRANCH   2   3
ENDBRANCH   1   2
BRANCH   1  24
ATOM     24  C   UNL A   1      34.147  30.148  27.603  1.00  0.00     0.275 C 
BRANCH  24  25
ATOM     25  O   UNL A   1      35.582  30.022  27.632  1.00  0.00    -0.458 OA
BRANCH  25  26
ATOM     26  C   UNL A   1      36.147  30.211  28.850  1.00  0.00     0.338 C 
ATOM     27  O   UNL A   1      35.575  30.390  29.912  1.00  0.00    -0.246 OA
BRANCH  26  28
ATOM     28  C   UNL A   1      37.588  29.933  28.748  1.00  0.00     0.060 A 
ATOM     29  C   UNL A   1      38.089  29.719  27.467  1.00  0.00     0.016 A 
ATOM     30  C   UNL A   1      38.424  29.834  29.859  1.00  0.00     0.016 A 
ATOM     31  C   UNL A   1      39.432  29.412  27.279  1.00  0.00     0.010 A 
ATOM     32  C   UNL A   1      39.776  29.510  29.669  1.00  0.00     0.010 A 
ATOM     33  C   UNL A   1      40.288  29.290  28.377  1.00  0.00    -0.014 A 
BRANCH  33  34
ATOM     34  C   UNL A   1      41.684  28.830  28.154  1.00  0.00     0.031 A 
ATOM     35  C   UNL A   1      42.813  29.815  28.275  1.00  0.00     0.074 A 
ATOM     36  C   UNL A   1      41.954  27.532  27.920  1.00  0.00     0.049 A 
ATOM     37  N   UNL A   1      44.087  29.653  28.024  1.00  0.00    -0.248 NA
ATOM     38  C   UNL A   1      42.459  31.165  28.743  1.00  0.00     0.031 C 
ATOM     39  C   UNL A   1      40.964  26.456  27.872  1.00  0.00     0.029 A 
ATOM     40  N   UNL A   1      43.150  26.895  27.689  1.00  0.00    -0.354 N 
ATOM     41  C   UNL A   1      44.681  30.885  28.267  1.00  0.00     0.074 A 
ATOM     42  C   UNL A   1      43.629  31.787  28.684  1.00  0.00     0.031 C 
ATOM     43  C   UNL A   1      41.592  25.292  27.635  1.00  0.00     0.029 A 
ATOM     44  C   UNL A   1      43.021  25.545  27.462  1.00  0.00     0.049 A 
ATOM     45  H   UNL A   1      44.016  27.361  27.687  1.00  0.00     0.167 HD
ATOM     46  C   UNL A   1      45.985  31.231  28.152  1.00  0.00     0.037 A 
ATOM     47  C   UNL A   1      43.943  24.621  27.126  1.00  0.00     0.037 A 
ATOM     48  C   UNL A   1      47.037  30.323  27.776  1.00  0.00     0.049 A 
ATOM     49  C   UNL A   1      45.379  25.041  26.950  1.00  0.00     0.074 A 
ATOM     50  C   UNL A   1      48.387  30.584  27.621  1.00  0.00     0.029 A 
ATOM     51  N   UNL A   1      46.858  28.974  27.506  1.00  0.00    -0.354 N 
ATOM     52  N   UNL A   1      45.919  26.224  27.121  1.00  0.00    -0.248 NA
ATOM     53  C   UNL A   1      46.328  24.003  26.521  1.00  0.00     0.031 C 
ATOM     54  C   UNL A   1      49.021  29.399  27.230  1.00  0.00     0.029 A 
ATOM     55  C   UNL A   1      48.072  28.392  27.176  1.00  0.00     0.049 A 
ATOM     56  H   UNL A   1      45.996  28.500  27.543  1.00  0.00     0.167 HD
ATOM     57  C   UNL A   1      47.270  26.070  26.833  1.00  0.00     0.074 A 
ATOM     58  C   UNL A   1      47.470  24.677  26.492  1.00  0.00     0.031 C 
ATOM     59  C   UNL A   1      48.256  27.002  26.843  1.00  0.00     0.037 A 
BRANCH  46  60
ATOM     60  C   UNL A   1      46.341  32.670  28.399  1.00  0.00     0.058 A 
ATOM     61  C   UNL A   1      46.300  33.631  27.378  1.00  0.00     0.135 A 
ATOM     62  C   UNL A   1      46.714  33.093  29.685  1.00  0.00     0.135 A 
ATOM     63  F   UNL A   1      45.967  33.275  26.127  1.00  0.00    -0.206 F 
ATOM     64  C   UNL A   1      46.644  34.958  27.618  1.00  0.00     0.059 A 
ATOM     65  C   UNL A   1      47.039  34.419  29.953  1.00  0.00     0.059 A 
ATOM     66  F   UNL A   1      46.770  32.211  30.697  1.00  0.00    -0.206 F 
ATOM     67  C   UNL A   1      47.017  35.341  28.908  1.00  0.00     0.060 A 
BRANCH  67  68
ATOM     68  S   UNL A   1      47.468  37.064  29.207  1.00  0.00     0.124 S 
ATOM     69  O   UNL A   1      48.833  37.100  28.689  1.00  0.00    -0.237 OA
ATOM     70  O   UNL A   1      46.475  37.791  28.423  1.00  0.00    -0.237 OA
ATOM     71  O   UNL A   1      47.343  37.202  30.654  1.00  0.00    -0.744 OA
ENDBRANCH  67  68
ENDBRANCH  46  60
BRANCH  47  72
ATOM     72  C   UNL A   1      43.532  23.211  26.893  1.00  0.00     0.058 A 
ATOM     73  C   UNL A   1      43.221  22.360  27.963  1.00  0.00     0.135 A 
ATOM     74  C   UNL A   1      43.439  22.689  25.594  1.00  0.00     0.135 A 
ATOM     75  F   UNL A   1      43.310  22.809  29.225  1.00  0.00    -0.206 F 
ATOM     76  C   UNL A   1      42.839  21.038  27.756  1.00  0.00     0.059 A 
ATOM     77  C   UNL A   1      43.037  21.378  25.359  1.00  0.00     0.059 A 
ATOM     78  F   UNL A   1      43.722  23.465  24.535  1.00  0.00    -0.206 F 
ATOM     79  C   UNL A   1      42.747  20.557  26.448  1.00  0.00     0.060 A 
BRANCH  79  80
ATOM     80  S   UNL A   1      42.198  18.857  26.180  1.00  0.00     0.124 S 
ATOM     81  O   UNL A   1      42.420  18.268  27.495  1.00  0.00    -0.237 OA
ATOM     82  O   UNL A   1      40.803  19.039  25.790  1.00  0.00    -0.237 OA
ATOM     83  O   UNL A   1      43.081  18.386  25.117  1.00  0.00    -0.744 OA
ENDBRANCH  79  80
ENDBRANCH  47  72
BRANCH  59  84
ATOM     84  C   UNL A   1      49.645  26.542  26.502  1.00  0.00     0.058 A 
ATOM     85  C   UNL A   1      50.478  25.948  27.463  1.00  0.00     0.135 A 
ATOM     86  C   UNL A   1      50.130  26.652  25.189  1.00  0.00     0.135 A 
ATOM     87  F   UNL A   1      50.062  25.825  28.734  1.00  0.00    -0.206 F 
ATOM     88  C   UNL A   1      51.752  25.494  27.138  1.00  0.00     0.059 A 
ATOM     89  C   UNL A   1      51.393  26.186  24.837  1.00  0.00     0.059 A 
ATOM     90  F   UNL A   1      49.369  27.205  24.231  1.00  0.00    -0.206 F 
ATOM     91  C   UNL A   1      52.202  25.618  25.822  1.00  0.00     0.060 A 
BRANCH  91  92
ATOM     92  S   UNL A   1      53.843  24.995  25.402  1.00  0.00     0.124 S 
ATOM     93  O   UNL A   1      54.123  25.716  24.165  1.00  0.00    -0.237 OA
ATOM     94  O   UNL A   1      54.638  25.391  26.560  1.00  0.00    -0.237 OA
ATOM     95  O   UNL A   1      53.633  23.557  25.258  1.00  0.00    -0.744 OA
ENDBRANCH  91  92
ENDBRANCH  59  84
ENDBRANCH  33  34
ENDBRANCH  26  28
ENDBRANCH  25  26
ENDBRANCH  24  25
ENDBRANCH   1  24
TORSDOF 20
ENDMDL
MODEL 3
REMARK VINA RESULT:      -9.6      3.977      9.831
REMARK SMILES COC(CNS(=O)(=O)c1ccc(Cl)c(C(=O)OCCOC(=O)c2ccc(-c3c4nc(c(-c5c(F)cc(S(=O)(=O)[O-])cc5F)c5ccc([nH]5)c(-c5c(F)cc(S(=O)(=O)[O-])cc5F)c5nc(c(-c6c(F)cc(S(=O)(=O)[O-])cc6F)c6ccc3[nH]6)C=C5)C=C4)cc2)c1Cl)OC
REMARK SMILES IDX 18 1 17 2 15 3 16 4 14 5 9 6 10 7 89 8 11 9 90 10 12 11
REMARK SMILES IDX 13 12 6 13 7 14 8 15 5 16 4 18 3 19 2 20 1 21 91 22 92 23
REMARK SMILES IDX 19 24 20 25 21 26 22 27 23 28 24 29 88 30 25 31 87 32 26 33
REMARK SMILES IDX 27 34 28 35 81 36 29 37 86 38 80 39 82 40 30 41 85 42 79 43
REMARK SMILES IDX 78 44 31 46 65 47 44 48 64 49 45 50 48 51 63 52 83 53 46 54
REMARK SMILES IDX 47 55 62 57 84 58 49 59 32 60 33 61 42 62 34 63 35 64 41 65
REMARK SMILES IDX 43 66 36 67 37 68 38 69 39 70 40 71 66 72 67 73 76 74 68 75
REMARK SMILES IDX 69 76 75 77 77 78 70 79 71 80 72 81 73 82 74 83 50 84 51 85
REMARK SMILES IDX 60 86 52 87 53 88 59 89 61 90 54 91 55 92 56 93 57 94 58 95
REMARK H PARENT 5 17 82 45 48 56
REMARK Flexibility Score: inf
ROOT
ATOM      1  C   UNL A   1      42.813  18.949  26.644  1.00  0.00     0.275 C 
ENDROOT
BRANCH   1   2
ATOM      2  O   UNL A   1      41.940  20.070  26.415  1.00  0.00    -0.458 OA
BRANCH   2   3
ATOM      3  C   UNL A   1      41.018  20.321  27.378  1.00  0.00     0.341 C 
ATOM      4  O   UNL A   1      40.767  19.656  28.363  1.00  0.00    -0.246 OA
BRANCH   3   5
ATOM      5  C   UNL A   1      40.344  21.572  26.986  1.00  0.00     0.098 A 
ATOM      6  C   UNL A   1      38.413  22.682  26.038  1.00  0.00     0.102 A 
ATOM      7  C   UNL A   1      38.803  23.862  26.697  1.00  0.00     0.025 A 
ATOM      8  C   UNL A   1      39.232  21.543  26.118  1.00  0.00     0.077 A 
ATOM      9  C   UNL A   1      39.979  23.912  27.445  1.00  0.00     0.023 A 
ATOM     10  Cl  UNL A   1      38.968  20.114  25.176  1.00  0.00    -0.082 Cl
ATOM     11  C   UNL A   1      40.736  22.758  27.618  1.00  0.00     0.057 A 
ATOM     12  Cl  UNL A   1      42.132  22.860  28.630  1.00  0.00    -0.083 Cl
BRANCH   6  13
ATOM     13  S   UNL A   1      36.732  22.651  25.431  1.00  0.00     0.242 S 
ATOM     14  O   UNL A   1      36.815  22.578  23.991  1.00  0.00    -0.207 OA
ATOM     15  O   UNL A   1      35.940  23.655  26.095  1.00  0.00    -0.207 OA
BRANCH  13  16
ATOM     16  N   UNL A   1      36.087  21.206  25.998  1.00  0.00    -0.206 NA
ATOM     17  H   UNL A   1      36.864  20.639  26.339  1.00  0.00     0.141 HD
BRANCH  16  18
ATOM     18  C   UNL A   1      35.314  20.369  25.046  1.00  0.00     0.161 C 
BRANCH  18  19
ATOM     19  C   UNL A   1      33.786  20.655  25.072  1.00  0.00     0.263 C 
BRANCH  19  20
ATOM     20  O   UNL A   1      32.928  19.748  25.761  1.00  0.00    -0.355 OA
ATOM     21  C   UNL A   1      32.825  18.427  25.266  1.00  0.00     0.198 C 
ENDBRANCH  19  20
BRANCH  19  22
ATOM     22  O   UNL A   1      33.264  21.123  23.820  1.00  0.00    -0.355 OA
ATOM     23  C   UNL A   1      32.126  21.962  23.905  1.00  0.00     0.198 C 
ENDBRANCH  19  22
ENDBRANCH  18  19
ENDBRANCH  16  18
ENDBRANCH  13  16
ENDBRANCH   6  13
ENDBRANCH   3   5
ENDBRANCH   2   3
ENDBRANCH   1   2
BRANCH   1  24
ATOM     24  C   UNL A   1      43.335  18.423  25.301  1.00  0.00     0.275 C 
BRANCH  24  25
ATOM     25  O   UNL A   1      44.673  18.908  25.070  1.00  0.00    -0.458 OA
BRANCH  25  26
ATOM     26  C   UNL A   1      44.785  19.813  24.068  1.00  0.00     0.338 C 
ATOM     27  O   UNL A   1      44.621  19.622  22.875  1.00  0.00    -0.246 OA
BRANCH  26  28
ATOM     28  C   UNL A   1      44.913  21.154  24.658  1.00  0.00     0.060 A 
ATOM     29  C   UNL A   1      44.553  22.227  23.846  1.00  0.00     0.016 A 
ATOM     30  C   UNL A   1      45.411  21.377  25.941  1.00  0.00     0.016 A 
ATOM     31  C   UNL A   1      44.677  23.532  24.307  1.00  0.00     0.010 A 
ATOM     32  C   UNL A   1      45.549  22.696  26.401  1.00  0.00     0.010 A 
ATOM     33  C   UNL A   1      45.189  23.784  25.583  1.00  0.00    -0.014 A 
BRANCH  33  34
ATOM     34  C   UNL A   1      45.435  25.190  25.996  1.00  0.00     0.031 A 
ATOM     35  C   UNL A   1      46.806  25.782  25.824  1.00  0.00     0.074 A 
ATOM     36  C   UNL A   1      44.429  25.961  26.452  1.00  0.00     0.049 A 
ATOM     37  N   UNL A   1      47.261  26.946  26.208  1.00  0.00    -0.248 NA
ATOM     38  C   UNL A   1      47.797  24.949  25.123  1.00  0.00     0.031 C 
ATOM     39  C   UNL A   1      43.032  25.542  26.578  1.00  0.00     0.029 A 
ATOM     40  N   UNL A   1      44.426  27.265  26.883  1.00  0.00    -0.354 N 
ATOM     41  C   UNL A   1      48.598  26.974  25.831  1.00  0.00     0.074 A 
ATOM     42  C   UNL A   1      48.882  25.708  25.189  1.00  0.00     0.031 C 
ATOM     43  C   UNL A   1      42.307  26.572  27.047  1.00  0.00     0.029 A 
ATOM     44  C   UNL A   1      43.193  27.705  27.303  1.00  0.00     0.049 A 
ATOM     45  H   UNL A   1      45.230  27.832  26.889  1.00  0.00     0.167 HD
ATOM     46  C   UNL A   1      49.505  27.964  26.005  1.00  0.00     0.037 A 
ATOM     47  C   UNL A   1      42.824  28.876  27.859  1.00  0.00     0.037 A 
ATOM     48  C   UNL A   1      49.211  29.237  26.609  1.00  0.00     0.049 A 
ATOM     49  C   UNL A   1      43.861  29.943  28.094  1.00  0.00     0.074 A 
ATOM     50  C   UNL A   1      50.068  30.300  26.840  1.00  0.00     0.029 A 
ATOM     51  N   UNL A   1      47.962  29.626  27.068  1.00  0.00    -0.354 N 
ATOM     52  N   UNL A   1      45.137  29.932  27.790  1.00  0.00    -0.248 NA
ATOM     53  C   UNL A   1      43.411  31.174  28.760  1.00  0.00     0.031 C 
ATOM     54  C   UNL A   1      49.342  31.321  27.464  1.00  0.00     0.029 A 
ATOM     55  C   UNL A   1      48.026  30.908  27.590  1.00  0.00     0.049 A 
ATOM     56  H   UNL A   1      47.149  29.073  27.028  1.00  0.00     0.167 HD
ATOM     57  C   UNL A   1      45.639  31.156  28.216  1.00  0.00     0.074 A 
ATOM     58  C   UNL A   1      44.527  31.890  28.785  1.00  0.00     0.031 C 
ATOM     59  C   UNL A   1      46.909  31.628  28.148  1.00  0.00     0.037 A 
BRANCH  46  60
ATOM     60  C   UNL A   1      50.917  27.690  25.571  1.00  0.00     0.058 A 
ATOM     61  C   UNL A   1      51.885  27.197  26.458  1.00  0.00     0.135 A 
ATOM     62  C   UNL A   1      51.300  27.912  24.238  1.00  0.00     0.135 A 
ATOM     63  F   UNL A   1      51.576  26.985  27.747  1.00  0.00    -0.206 F 
ATOM     64  C   UNL A   1      53.193  26.959  26.046  1.00  0.00     0.059 A 
ATOM     65  C   UNL A   1      52.595  27.659  23.798  1.00  0.00     0.059 A 
ATOM     66  F   UNL A   1      50.411  28.384  23.349  1.00  0.00    -0.206 F 
ATOM     67  C   UNL A   1      53.539  27.198  24.714  1.00  0.00     0.060 A 
BRANCH  67  68
ATOM     68  S   UNL A   1      55.240  26.892  24.191  1.00  0.00     0.124 S 
ATOM     69  O   UNL A   1      55.921  28.073  24.715  1.00  0.00    -0.237 OA
ATOM     70  O   UNL A   1      55.554  25.633  24.857  1.00  0.00    -0.237 OA
ATOM     71  O   UNL A   1      55.140  26.820  22.736  1.00  0.00    -0.744 OA
ENDBRANCH  67  68
ENDBRANCH  46  60
BRANCH  47  72
ATOM     72  C   UNL A   1      41.411  29.091  28.270  1.00  0.00     0.058 A 
ATOM     73  C   UNL A   1      40.400  29.289  27.318  1.00  0.00     0.135 A 
ATOM     74  C   UNL A   1      41.043  29.098  29.624  1.00  0.00     0.135 A 
ATOM     75  F   UNL A   1      40.704  29.306  26.011  1.00  0.00    -0.206 F 
ATOM     76  C   UNL A   1      39.076  29.494  27.693  1.00  0.00     0.059 A 
ATOM     77  C   UNL A   1      39.723  29.278  30.024  1.00  0.00     0.059 A 
ATOM     78  F   UNL A   1      41.973  28.909  30.575  1.00  0.00    -0.206 F 
ATOM     79  C   UNL A   1      38.747  29.484  29.051  1.00  0.00     0.060 A 
BRANCH  79  80
ATOM     80  S   UNL A   1      37.018  29.696  29.531  1.00  0.00     0.124 S 
ATOM     81  O   UNL A   1      36.947  31.137  29.739  1.00  0.00    -0.237 OA
ATOM     82  O   UNL A   1      36.307  29.183  28.364  1.00  0.00    -0.237 OA
ATOM     83  O   UNL A   1      36.904  28.876  30.734  1.00  0.00    -0.744 OA
ENDBRANCH  79  80
ENDBRANCH  47  72
BRANCH  59  84
ATOM     84  C   UNL A   1      47.162  33.011  28.677  1.00  0.00     0.058 A 
ATOM     85  C   UNL A   1      47.021  34.145  27.864  1.00  0.00     0.135 A 
ATOM     86  C   UNL A   1      47.502  33.207  30.026  1.00  0.00     0.135 A 
ATOM     87  F   UNL A   1      46.702  34.010  26.566  1.00  0.00    -0.206 F 
ATOM     88  C   UNL A   1      47.224  35.427  28.364  1.00  0.00     0.059 A 
ATOM     89  C   UNL A   1      47.691  34.482  30.552  1.00  0.00     0.059 A 
ATOM     90  F   UNL A   1      47.642  32.155  30.848  1.00  0.00    -0.206 F 
ATOM     91  C   UNL A   1      47.560  35.586  29.709  1.00  0.00     0.060 A 
BRANCH  91  92
ATOM     92  S   UNL A   1      47.789  37.255  30.357  1.00  0.00     0.124 S 
ATOM     93  O   UNL A   1      46.688  37.354  31.309  1.00  0.00    -0.237 OA
ATOM     94  O   UNL A   1      49.126  37.188  30.939  1.00  0.00    -0.237 OA
ATOM     95  O   UNL A   1      47.672  38.098  29.171  1.00  0.00    -0.744 OA
ENDBRANCH  91  92
ENDBRANCH  59  84
ENDBRANCH  33  34
ENDBRANCH  26  28
ENDBRANCH  25  26
ENDBRANCH  24  25
ENDBRANCH   1  24
TORSDOF 20
ENDMDL
