MODEL 1
REMARK VINA RESULT:     -11.8      0.000      0.000
REMARK SMILES CCc1cc(N2CCC(O)(C(=O)OCCOC(=O)c3ccc(-c4c5nc(c(-c6c(F)cc(S(=O)(=O)[O-])cc6F)c6ccc([nH]6)c(-c6c(F)cc(S(=O)(=O)[O-])cc6F)c6nc(c(-c7c(F)cc(S(=O)(=O)[O-])cc7F)c7ccc4[nH]7)C=C6)C=C5)cc3)CC2)nc(N2CCOCC2)n1
REMARK SMILES IDX 15 1 14 2 13 3 11 4 12 5 9 6 6 7 7 8 86 9 8 10 85 11 5 12
REMARK SMILES IDX 3 13 4 14 95 15 88 16 87 17 2 18 1 19 89 20 90 21 94 22
REMARK SMILES IDX 91 23 93 24 92 25 10 26 16 28 17 29 18 30 19 31 20 32 84 33
REMARK SMILES IDX 21 34 83 35 22 36 23 37 24 38 77 39 25 40 82 41 76 42 78 43
REMARK SMILES IDX 26 44 81 45 75 46 74 47 27 49 61 50 40 51 60 52 41 53 44 54
REMARK SMILES IDX 59 55 79 56 42 57 43 58 58 60 80 61 45 62 28 63 29 64 38 65
REMARK SMILES IDX 30 66 31 67 37 68 39 69 32 70 33 71 34 72 35 73 36 74 62 75
REMARK SMILES IDX 63 76 72 77 64 78 65 79 71 80 73 81 66 82 67 83 68 84 69 85
REMARK SMILES IDX 70 86 46 87 47 88 56 89 48 90 49 91 55 92 57 93 50 94 51 95
REMARK SMILES IDX 52 96 53 97 54 98
REMARK H PARENT 10 27 78 48 44 59
REMARK Flexibility Score: inf
ROOT
ATOM      1  C   UNL A   1      32.890  29.720  25.785  1.00  0.00     0.275 C 
ENDROOT
BRANCH   1   2
ATOM      2  C   UNL A   1      31.474  29.150  25.710  1.00  0.00     0.274 C 
BRANCH   2   3
ATOM      3  O   UNL A   1      31.483  27.730  25.955  1.00  0.00    -0.460 OA
BRANCH   3   4
ATOM      4  C   UNL A   1      30.817  26.951  25.067  1.00  0.00     0.338 C 
ATOM      5  O   UNL A   1      30.228  27.375  24.074  1.00  0.00    -0.249 OA
BRANCH   4   6
ATOM      6  C   UNL A   1      30.815  25.448  25.417  1.00  0.00     0.165 C 
ATOM      7  N   UNL A   1      32.082  22.903  25.315  1.00  0.00    -0.356 N 
ATOM      8  C   UNL A   1      31.933  23.505  26.624  1.00  0.00     0.121 C 
ATOM      9  C   UNL A   1      31.067  23.175  24.319  1.00  0.00     0.121 C 
ATOM     10  C   UNL A   1      31.855  25.030  26.465  1.00  0.00     0.069 C 
ATOM     11  C   UNL A   1      31.027  24.676  24.109  1.00  0.00     0.069 C 
BRANCH   7  12
ATOM     12  C   UNL A   1      32.905  21.826  25.083  1.00  0.00     0.134 A 
ATOM     13  C   UNL A   1      35.012  20.800  24.998  1.00  0.00     0.048 A 
ATOM     14  C   UNL A   1      34.276  21.959  25.106  1.00  0.00     0.071 A 
ATOM     15  N   UNL A   1      34.425  19.600  24.885  1.00  0.00    -0.218 NA
ATOM     16  C   UNL A   1      33.092  19.551  24.797  1.00  0.00     0.227 A 
ATOM     17  N   UNL A   1      32.312  20.633  24.907  1.00  0.00    -0.196 NA
BRANCH  13  18
ATOM     18  C   UNL A   1      36.519  20.841  25.001  1.00  0.00     0.053 C 
ATOM     19  C   UNL A   1      37.099  22.248  25.113  1.00  0.00     0.011 C 
ENDBRANCH  13  18
BRANCH  16  20
ATOM     20  N   UNL A   1      32.545  18.323  24.521  1.00  0.00    -0.336 N 
ATOM     21  C   UNL A   1      32.527  17.307  25.566  1.00  0.00     0.148 C 
ATOM     22  C   UNL A   1      32.733  17.823  23.158  1.00  0.00     0.148 C 
ATOM     23  C   UNL A   1      33.727  16.370  25.430  1.00  0.00     0.181 C 
ATOM     24  C   UNL A   1      33.941  16.871  23.124  1.00  0.00     0.181 C 
ATOM     25  O   UNL A   1      33.800  15.831  24.106  1.00  0.00    -0.378 OA
ENDBRANCH  16  20
ENDBRANCH   7  12
BRANCH   6  26
ATOM     26  O   UNL A   1      29.498  25.146  25.922  1.00  0.00    -0.378 OA
ATOM     27  H   UNL A   1      28.831  25.459  25.290  1.00  0.00     0.212 HD
ENDBRANCH   6  26
ENDBRANCH   4   6
ENDBRANCH   3   4
ENDBRANCH   2   3
ENDBRANCH   1   2
BRANCH   1  28
ATOM     28  O   UNL A   1      33.493  29.473  27.069  1.00  0.00    -0.458 OA
BRANCH  28  29
ATOM     29  C   UNL A   1      34.250  30.490  27.542  1.00  0.00     0.338 C 
ATOM     30  O   UNL A   1      33.935  31.663  27.630  1.00  0.00    -0.246 OA
BRANCH  29  31
ATOM     31  C   UNL A   1      35.552  29.983  27.994  1.00  0.00     0.060 A 
ATOM     32  C   UNL A   1      35.682  29.555  29.312  1.00  0.00     0.016 A 
ATOM     33  C   UNL A   1      36.673  30.074  27.170  1.00  0.00     0.016 A 
ATOM     34  C   UNL A   1      36.947  29.338  29.852  1.00  0.00     0.010 A 
ATOM     35  C   UNL A   1      37.932  29.749  27.688  1.00  0.00     0.010 A 
ATOM     36  C   UNL A   1      38.092  29.427  29.047  1.00  0.00    -0.014 A 
BRANCH  36  37
ATOM     37  C   UNL A   1      39.432  29.165  29.641  1.00  0.00     0.031 A 
ATOM     38  C   UNL A   1      40.024  30.078  30.684  1.00  0.00     0.074 A 
ATOM     39  C   UNL A   1      40.113  28.060  29.282  1.00  0.00     0.049 A 
ATOM     40  N   UNL A   1      41.068  29.877  31.452  1.00  0.00    -0.248 NA
ATOM     41  C   UNL A   1      39.346  31.355  30.936  1.00  0.00     0.031 C 
ATOM     42  C   UNL A   1      39.676  27.067  28.297  1.00  0.00     0.029 A 
ATOM     43  N   UNL A   1      41.340  27.599  29.692  1.00  0.00    -0.354 N 
ATOM     44  C   UNL A   1      41.064  30.920  32.371  1.00  0.00     0.074 A 
ATOM     45  C   UNL A   1      40.003  31.817  31.991  1.00  0.00     0.031 C 
ATOM     46  C   UNL A   1      40.631  26.137  28.156  1.00  0.00     0.029 A 
ATOM     47  C   UNL A   1      41.768  26.493  29.001  1.00  0.00     0.049 A 
ATOM     48  H   UNL A   1      41.861  28.021  30.413  1.00  0.00     0.167 HD
ATOM     49  C   UNL A   1      41.840  31.082  33.468  1.00  0.00     0.037 A 
ATOM     50  C   UNL A   1      42.964  25.875  29.001  1.00  0.00     0.037 A 
ATOM     51  C   UNL A   1      43.022  30.313  33.728  1.00  0.00     0.049 A 
ATOM     52  C   UNL A   1      44.039  26.363  29.928  1.00  0.00     0.074 A 
ATOM     53  C   UNL A   1      43.926  30.426  34.767  1.00  0.00     0.029 A 
ATOM     54  N   UNL A   1      43.514  29.348  32.867  1.00  0.00    -0.354 N 
ATOM     55  N   UNL A   1      43.945  27.236  30.901  1.00  0.00    -0.248 NA
ATOM     56  C   UNL A   1      45.386  25.807  29.745  1.00  0.00     0.031 C 
ATOM     57  C   UNL A   1      45.019  29.595  34.477  1.00  0.00     0.029 A 
ATOM     58  C   UNL A   1      44.767  28.938  33.283  1.00  0.00     0.049 A 
ATOM     59  H   UNL A   1      43.042  29.003  32.074  1.00  0.00     0.167 HD
ATOM     60  C   UNL A   1      45.210  27.310  31.470  1.00  0.00     0.074 A 
ATOM     61  C   UNL A   1      46.059  26.408  30.719  1.00  0.00     0.031 C 
ATOM     62  C   UNL A   1      45.617  28.050  32.531  1.00  0.00     0.037 A 
BRANCH  49  63
ATOM     63  C   UNL A   1      41.426  32.138  34.449  1.00  0.00     0.058 A 
ATOM     64  C   UNL A   1      40.513  31.835  35.472  1.00  0.00     0.135 A 
ATOM     65  C   UNL A   1      41.926  33.444  34.379  1.00  0.00     0.135 A 
ATOM     66  F   UNL A   1      40.012  30.594  35.590  1.00  0.00    -0.206 F 
ATOM     67  C   UNL A   1      40.090  32.800  36.381  1.00  0.00     0.059 A 
ATOM     68  C   UNL A   1      41.522  34.425  35.283  1.00  0.00     0.059 A 
ATOM     69  F   UNL A   1      42.795  33.784  33.415  1.00  0.00    -0.206 F 
ATOM     70  C   UNL A   1      40.594  34.096  36.272  1.00  0.00     0.060 A 
BRANCH  70  71
ATOM     71  S   UNL A   1      40.024  35.344  37.447  1.00  0.00     0.124 S 
ATOM     72  O   UNL A   1      41.218  35.548  38.261  1.00  0.00    -0.237 OA
ATOM     73  O   UNL A   1      39.656  36.454  36.574  1.00  0.00    -0.237 OA
ATOM     74  O   UNL A   1      38.910  34.688  38.125  1.00  0.00    -0.744 OA
ENDBRANCH  70  71
ENDBRANCH  49  63
BRANCH  50  75
ATOM     75  C   UNL A   1      43.221  24.795  28.014  1.00  0.00     0.058 A 
ATOM     76  C   UNL A   1      43.701  25.072  26.728  1.00  0.00     0.135 A 
ATOM     77  C   UNL A   1      43.019  23.449  28.365  1.00  0.00     0.135 A 
ATOM     78  F   UNL A   1      43.897  26.343  26.344  1.00  0.00    -0.206 F 
ATOM     79  C   UNL A   1      43.984  24.051  25.826  1.00  0.00     0.059 A 
ATOM     80  C   UNL A   1      43.316  22.412  27.489  1.00  0.00     0.059 A 
ATOM     81  F   UNL A   1      42.562  23.133  29.587  1.00  0.00    -0.206 F 
ATOM     82  C   UNL A   1      43.794  22.724  26.219  1.00  0.00     0.060 A 
BRANCH  82  83
ATOM     83  S   UNL A   1      44.230  21.399  25.072  1.00  0.00     0.124 S 
ATOM     84  O   UNL A   1      44.153  22.087  23.788  1.00  0.00    -0.237 OA
ATOM     85  O   UNL A   1      45.568  21.029  25.520  1.00  0.00    -0.237 OA
ATOM     86  O   UNL A   1      43.198  20.395  25.314  1.00  0.00    -0.744 OA
ENDBRANCH  82  83
ENDBRANCH  50  75
BRANCH  62  87
ATOM     87  C   UNL A   1      47.046  27.927  32.965  1.00  0.00     0.058 A 
ATOM     88  C   UNL A   1      47.462  26.894  33.816  1.00  0.00     0.135 A 
ATOM     89  C   UNL A   1      48.024  28.792  32.448  1.00  0.00     0.135 A 
ATOM     90  F   UNL A   1      46.561  26.051  34.346  1.00  0.00    -0.206 F 
ATOM     91  C   UNL A   1      48.804  26.716  34.137  1.00  0.00     0.059 A 
ATOM     92  C   UNL A   1      49.372  28.620  32.739  1.00  0.00     0.059 A 
ATOM     93  F   UNL A   1      47.674  29.792  31.624  1.00  0.00    -0.206 F 
ATOM     94  C   UNL A   1      49.753  27.579  33.586  1.00  0.00     0.060 A 
BRANCH  94  95
ATOM     95  S   UNL A   1      51.501  27.293  33.934  1.00  0.00     0.124 S 
ATOM     96  O   UNL A   1      52.057  27.204  32.588  1.00  0.00    -0.237 OA
ATOM     97  O   UNL A   1      51.872  28.481  34.696  1.00  0.00    -0.237 OA
ATOM     98  O   UNL A   1      51.493  26.047  34.695  1.00  0.00    -0.744 OA
ENDBRANCH  94  95
ENDBRANCH  62  87
ENDBRANCH  36  37
ENDBRANCH  29  31
ENDBRANCH  28  29
ENDBRANCH   1  28
TORSDOF 18
ENDMDL
MODEL 2
REMARK VINA RESULT:     -11.5      3.617      9.866
REMARK SMILES CCc1cc(N2CCC(O)(C(=O)OCCOC(=O)c3ccc(-c4c5nc(c(-c6c(F)cc(S(=O)(=O)[O-])cc6F)c6ccc([nH]6)c(-c6c(F)cc(S(=O)(=O)[O-])cc6F)c6nc(c(-c7c(F)cc(S(=O)(=O)[O-])cc7F)c7ccc4[nH]7)C=C6)C=C5)cc3)CC2)nc(N2CCOCC2)n1
REMARK SMILES IDX 15 1 14 2 13 3 11 4 12 5 9 6 6 7 7 8 86 9 8 10 85 11 5 12
REMARK SMILES IDX 3 13 4 14 95 15 88 16 87 17 2 18 1 19 89 20 90 21 94 22
REMARK SMILES IDX 91 23 93 24 92 25 10 26 16 28 17 29 18 30 19 31 20 32 84 33
REMARK SMILES IDX 21 34 83 35 22 36 23 37 24 38 77 39 25 40 82 41 76 42 78 43
REMARK SMILES IDX 26 44 81 45 75 46 74 47 27 49 61 50 40 51 60 52 41 53 44 54
REMARK SMILES IDX 59 55 79 56 42 57 43 58 58 60 80 61 45 62 28 63 29 64 38 65
REMARK SMILES IDX 30 66 31 67 37 68 39 69 32 70 33 71 34 72 35 73 36 74 62 75
REMARK SMILES IDX 63 76 72 77 64 78 65 79 71 80 73 81 66 82 67 83 68 84 69 85
REMARK SMILES IDX 70 86 46 87 47 88 56 89 48 90 49 91 55 92 57 93 50 94 51 95
REMARK SMILES IDX 52 96 53 97 54 98
REMARK H PARENT 10 27 78 48 44 59
REMARK Flexibility Score: inf
ROOT
ATOM      1  C   UNL A   1      36.080  22.832  26.003  1.00  0.00     0.275 C 
ENDROOT
BRANCH   1   2
ATOM      2  C   UNL A   1      35.694  21.852  24.896  1.00  0.00     0.274 C 
BRANCH   2   3
ATOM      3  O   UNL A   1      35.126  22.553  23.772  1.00  0.00    -0.460 OA
BRANCH   3   4
ATOM      4  C   UNL A   1      33.783  22.468  23.612  1.00  0.00     0.338 C 
ATOM      5  O   UNL A   1      33.101  21.500  23.947  1.00  0.00    -0.249 OA
BRANCH   4   6
ATOM      6  C   UNL A   1      33.145  23.694  22.923  1.00  0.00     0.165 C 
ATOM      7  N   UNL A   1      31.942  26.265  23.114  1.00  0.00    -0.356 N 
ATOM      8  C   UNL A   1      33.226  26.193  22.446  1.00  0.00     0.121 C 
ATOM      9  C   UNL A   1      31.054  25.127  23.007  1.00  0.00     0.121 C 
ATOM     10  C   UNL A   1      33.993  24.972  22.972  1.00  0.00     0.069 C 
ATOM     11  C   UNL A   1      31.781  23.927  23.583  1.00  0.00     0.069 C 
BRANCH   7  12
ATOM     12  C   UNL A   1      31.382  27.454  23.517  1.00  0.00     0.134 A 
ATOM     13  C   UNL A   1      31.338  29.387  24.845  1.00  0.00     0.048 A 
ATOM     14  C   UNL A   1      31.878  28.143  24.602  1.00  0.00     0.071 A 
ATOM     15  N   UNL A   1      30.383  29.906  24.060  1.00  0.00    -0.218 NA
ATOM     16  C   UNL A   1      29.898  29.153  23.068  1.00  0.00     0.227 A 
ATOM     17  N   UNL A   1      30.381  27.942  22.765  1.00  0.00    -0.196 NA
BRANCH  13  18
ATOM     18  C   UNL A   1      31.807  30.215  26.014  1.00  0.00     0.053 C 
ATOM     19  C   UNL A   1      33.060  29.672  26.694  1.00  0.00     0.011 C 
ENDBRANCH  13  18
BRANCH  16  20
ATOM     20  N   UNL A   1      28.814  29.659  22.395  1.00  0.00    -0.336 N 
ATOM     21  C   UNL A   1      29.030  30.671  21.368  1.00  0.00     0.148 C 
ATOM     22  C   UNL A   1      27.579  29.799  23.169  1.00  0.00     0.148 C 
ATOM     23  C   UNL A   1      28.837  32.074  21.942  1.00  0.00     0.181 C 
ATOM     24  C   UNL A   1      27.457  31.244  23.681  1.00  0.00     0.181 C 
ATOM     25  O   UNL A   1      27.569  32.182  22.597  1.00  0.00    -0.378 OA
ENDBRANCH  16  20
ENDBRANCH   7  12
BRANCH   6  26
ATOM     26  O   UNL A   1      32.934  23.327  21.545  1.00  0.00    -0.378 OA
ATOM     27  H   UNL A   1      33.160  24.077  20.973  1.00  0.00     0.212 HD
ENDBRANCH   6  26
ENDBRANCH   4   6
ENDBRANCH   3   4
ENDBRANCH   2   3
ENDBRANCH   1   2
BRANCH   1  28
ATOM     28  O   UNL A   1      37.197  23.654  25.618  1.00  0.00    -0.458 OA
BRANCH  28  29
ATOM     29  C   UNL A   1      38.404  23.187  26.016  1.00  0.00     0.338 C 
ATOM     30  O   UNL A   1      38.873  22.084  25.804  1.00  0.00    -0.246 OA
BRANCH  29  31
ATOM     31  C   UNL A   1      39.135  24.235  26.743  1.00  0.00     0.060 A 
ATOM     32  C   UNL A   1      38.861  24.426  28.094  1.00  0.00     0.016 A 
ATOM     33  C   UNL A   1      39.968  25.120  26.061  1.00  0.00     0.016 A 
ATOM     34  C   UNL A   1      39.315  25.573  28.740  1.00  0.00     0.010 A 
ATOM     35  C   UNL A   1      40.511  26.215  26.744  1.00  0.00     0.010 A 
ATOM     36  C   UNL A   1      40.150  26.483  28.076  1.00  0.00    -0.014 A 
BRANCH  36  37
ATOM     37  C   UNL A   1      40.645  27.689  28.797  1.00  0.00     0.031 A 
ATOM     38  C   UNL A   1      42.014  27.725  29.428  1.00  0.00     0.074 A 
ATOM     39  C   UNL A   1      39.878  28.795  28.844  1.00  0.00     0.049 A 
ATOM     40  N   UNL A   1      42.673  28.756  29.896  1.00  0.00    -0.248 NA
ATOM     41  C   UNL A   1      42.759  26.463  29.509  1.00  0.00     0.031 C 
ATOM     42  C   UNL A   1      38.535  28.932  28.273  1.00  0.00     0.029 A 
ATOM     43  N   UNL A   1      40.114  30.017  29.426  1.00  0.00    -0.354 N 
ATOM     44  C   UNL A   1      43.954  28.289  30.170  1.00  0.00     0.074 A 
ATOM     45  C   UNL A   1      43.944  26.867  29.944  1.00  0.00     0.031 C 
ATOM     46  C   UNL A   1      38.057  30.151  28.561  1.00  0.00     0.029 A 
ATOM     47  C   UNL A   1      39.035  30.863  29.378  1.00  0.00     0.049 A 
ATOM     48  H   UNL A   1      40.975  30.261  29.837  1.00  0.00     0.167 HD
ATOM     49  C   UNL A   1      45.054  28.996  30.522  1.00  0.00     0.037 A 
ATOM     50  C   UNL A   1      38.832  32.051  29.979  1.00  0.00     0.037 A 
ATOM     51  C   UNL A   1      45.017  30.364  30.949  1.00  0.00     0.049 A 
ATOM     52  C   UNL A   1      39.938  32.656  30.795  1.00  0.00     0.074 A 
ATOM     53  C   UNL A   1      46.051  31.168  31.393  1.00  0.00     0.029 A 
ATOM     54  N   UNL A   1      43.851  31.097  31.081  1.00  0.00    -0.354 N 
ATOM     55  N   UNL A   1      41.188  32.273  30.889  1.00  0.00    -0.248 NA
ATOM     56  C   UNL A   1      39.607  33.836  31.603  1.00  0.00     0.031 C 
ATOM     57  C   UNL A   1      45.489  32.354  31.888  1.00  0.00     0.029 A 
ATOM     58  C   UNL A   1      44.116  32.299  31.709  1.00  0.00     0.049 A 
ATOM     59  H   UNL A   1      42.961  30.805  30.773  1.00  0.00     0.167 HD
ATOM     60  C   UNL A   1      41.802  33.182  31.741  1.00  0.00     0.074 A 
ATOM     61  C   UNL A   1      40.782  34.125  32.150  1.00  0.00     0.031 C 
ATOM     62  C   UNL A   1      43.100  33.232  32.128  1.00  0.00     0.037 A 
BRANCH  49  63
ATOM     63  C   UNL A   1      46.372  28.284  30.463  1.00  0.00     0.058 A 
ATOM     64  C   UNL A   1      47.136  28.305  29.284  1.00  0.00     0.135 A 
ATOM     65  C   UNL A   1      46.880  27.583  31.564  1.00  0.00     0.135 A 
ATOM     66  F   UNL A   1      46.699  28.972  28.204  1.00  0.00    -0.206 F 
ATOM     67  C   UNL A   1      48.350  27.633  29.191  1.00  0.00     0.059 A 
ATOM     68  C   UNL A   1      48.097  26.908  31.496  1.00  0.00     0.059 A 
ATOM     69  F   UNL A   1      46.183  27.528  32.709  1.00  0.00    -0.206 F 
ATOM     70  C   UNL A   1      48.819  26.928  30.301  1.00  0.00     0.060 A 
BRANCH  70  71
ATOM     71  S   UNL A   1      50.388  26.044  30.162  1.00  0.00     0.124 S 
ATOM     72  O   UNL A   1      51.281  27.104  29.704  1.00  0.00    -0.237 OA
ATOM     73  O   UNL A   1      50.607  25.576  31.526  1.00  0.00    -0.237 OA
ATOM     74  O   UNL A   1      50.103  25.000  29.182  1.00  0.00    -0.744 OA
ENDBRANCH  70  71
ENDBRANCH  49  63
BRANCH  50  75
ATOM     75  C   UNL A   1      37.489  32.680  29.904  1.00  0.00     0.058 A 
ATOM     76  C   UNL A   1      36.445  32.290  30.752  1.00  0.00     0.135 A 
ATOM     77  C   UNL A   1      37.242  33.721  28.992  1.00  0.00     0.135 A 
ATOM     78  F   UNL A   1      36.630  31.293  31.630  1.00  0.00    -0.206 F 
ATOM     79  C   UNL A   1      35.203  32.919  30.707  1.00  0.00     0.059 A 
ATOM     80  C   UNL A   1      36.019  34.378  28.945  1.00  0.00     0.059 A 
ATOM     81  F   UNL A   1      38.213  34.132  28.160  1.00  0.00    -0.206 F 
ATOM     82  C   UNL A   1      35.003  33.966  29.804  1.00  0.00     0.060 A 
BRANCH  82  83
ATOM     83  S   UNL A   1      33.415  34.825  29.799  1.00  0.00     0.124 S 
ATOM     84  O   UNL A   1      32.648  34.016  28.859  1.00  0.00    -0.237 OA
ATOM     85  O   UNL A   1      33.010  34.738  31.197  1.00  0.00    -0.237 OA
ATOM     86  O   UNL A   1      33.764  36.167  29.339  1.00  0.00    -0.744 OA
ENDBRANCH  82  83
ENDBRANCH  50  75
BRANCH  62  87
ATOM     87  C   UNL A   1      43.517  34.344  33.043  1.00  0.00     0.058 A 
ATOM     88  C   UNL A   1      43.910  35.592  32.541  1.00  0.00     0.135 A 
ATOM     89  C   UNL A   1      43.429  34.189  34.435  1.00  0.00     0.135 A 
ATOM     90  F   UNL A   1      44.022  35.783  31.216  1.00  0.00    -0.206 F 
ATOM     91  C   UNL A   1      44.197  36.656  33.389  1.00  0.00     0.059 A 
ATOM     92  C   UNL A   1      43.691  35.244  35.301  1.00  0.00     0.059 A 
ATOM     93  F   UNL A   1      43.051  33.014  34.963  1.00  0.00    -0.206 F 
ATOM     94  C   UNL A   1      44.076  36.475  34.768  1.00  0.00     0.060 A 
BRANCH  94  95
ATOM     95  S   UNL A   1      44.364  37.882  35.862  1.00  0.00     0.124 S 
ATOM     96  O   UNL A   1      45.808  37.815  36.054  1.00  0.00    -0.237 OA
ATOM     97  O   UNL A   1      43.882  39.007  35.067  1.00  0.00    -0.237 OA
ATOM     98  O   UNL A   1      43.557  37.565  37.037  1.00  0.00    -0.744 OA
ENDBRANCH  94  95
ENDBRANCH  62  87
ENDBRANCH  36  37
ENDBRANCH  29  31
ENDBRANCH  28  29
ENDBRANCH   1  28
TORSDOF 18
ENDMDL
MODEL 3
REMARK VINA RESULT:     -11.5      4.345     10.033
REMARK SMILES CCc1cc(N2CCC(O)(C(=O)OCCOC(=O)c3ccc(-c4c5nc(c(-c6c(F)cc(S(=O)(=O)[O-])cc6F)c6ccc([nH]6)c(-c6c(F)cc(S(=O)(=O)[O-])cc6F)c6nc(c(-c7c(F)cc(S(=O)(=O)[O-])cc7F)c7ccc4[nH]7)C=C6)C=C5)cc3)CC2)nc(N2CCOCC2)n1
REMARK SMILES IDX 15 1 14 2 13 3 11 4 12 5 9 6 6 7 7 8 86 9 8 10 85 11 5 12
REMARK SMILES IDX 3 13 4 14 95 15 88 16 87 17 2 18 1 19 89 20 90 21 94 22
REMARK SMILES IDX 91 23 93 24 92 25 10 26 16 28 17 29 18 30 19 31 20 32 84 33
REMARK SMILES IDX 21 34 83 35 22 36 23 37 24 38 77 39 25 40 82 41 76 42 78 43
REMARK SMILES IDX 26 44 81 45 75 46 74 47 27 49 61 50 40 51 60 52 41 53 44 54
REMARK SMILES IDX 59 55 79 56 42 57 43 58 58 60 80 61 45 62 28 63 29 64 38 65
REMARK SMILES IDX 30 66 31 67 37 68 39 69 32 70 33 71 34 72 35 73 36 74 62 75
REMARK SMILES IDX 63 76 72 77 64 78 65 79 71 80 73 81 66 82 67 83 68 84 69 85
REMARK SMILES IDX 70 86 46 87 47 88 56 89 48 90 49 91 55 92 57 93 50 94 51 95
REMARK SMILES IDX 52 96 53 97 54 98
REMARK H PARENT 10 27 78 48 44 59
REMARK Flexibility Score: inf
ROOT
ATOM      1  C   UNL A   1      35.931  22.844  25.272  1.00  0.00     0.275 C 
ENDROOT
BRANCH   1   2
ATOM      2  C   UNL A   1      35.814  22.356  23.829  1.00  0.00     0.274 C 
BRANCH   2   3
ATOM      3  O   UNL A   1      35.173  23.350  23.006  1.00  0.00    -0.460 OA
BRANCH   3   4
ATOM      4  C   UNL A   1      33.827  23.258  22.872  1.00  0.00     0.338 C 
ATOM      5  O   UNL A   1      33.175  22.236  23.074  1.00  0.00    -0.249 OA
BRANCH   4   6
ATOM      6  C   UNL A   1      33.146  24.558  22.392  1.00  0.00     0.165 C 
ATOM      7  N   UNL A   1      31.893  27.039  23.000  1.00  0.00    -0.356 N 
ATOM      8  C   UNL A   1      33.161  27.102  22.302  1.00  0.00     0.121 C 
ATOM      9  C   UNL A   1      31.027  25.908  22.739  1.00  0.00     0.121 C 
ATOM     10  C   UNL A   1      33.967  25.835  22.618  1.00  0.00     0.069 C 
ATOM     11  C   UNL A   1      31.794  24.654  23.109  1.00  0.00     0.069 C 
BRANCH   7  12
ATOM     12  C   UNL A   1      31.318  28.138  23.592  1.00  0.00     0.134 A 
ATOM     13  C   UNL A   1      31.333  29.931  25.105  1.00  0.00     0.048 A 
ATOM     14  C   UNL A   1      31.913  28.761  24.668  1.00  0.00     0.071 A 
ATOM     15  N   UNL A   1      30.246  30.444  24.509  1.00  0.00    -0.218 NA
ATOM     16  C   UNL A   1      29.678  29.750  23.518  1.00  0.00     0.227 A 
ATOM     17  N   UNL A   1      30.193  28.613  23.032  1.00  0.00    -0.196 NA
BRANCH  13  18
ATOM     18  C   UNL A   1      31.903  30.682  26.280  1.00  0.00     0.053 C 
ATOM     19  C   UNL A   1      31.316  32.079  26.465  1.00  0.00     0.011 C 
ENDBRANCH  13  18
BRANCH  16  20
ATOM     20  N   UNL A   1      28.481  30.229  23.048  1.00  0.00    -0.336 N 
ATOM     21  C   UNL A   1      28.145  30.035  21.643  1.00  0.00     0.148 C 
ATOM     22  C   UNL A   1      28.007  31.481  23.643  1.00  0.00     0.148 C 
ATOM     23  C   UNL A   1      28.518  31.269  20.822  1.00  0.00     0.181 C 
ATOM     24  C   UNL A   1      28.403  32.660  22.737  1.00  0.00     0.181 C 
ATOM     25  O   UNL A   1      27.941  32.449  21.392  1.00  0.00    -0.378 OA
ENDBRANCH  16  20
ENDBRANCH   7  12
BRANCH   6  26
ATOM     26  O   UNL A   1      32.908  24.400  20.978  1.00  0.00    -0.378 OA
ATOM     27  H   UNL A   1      32.175  23.780  20.842  1.00  0.00     0.212 HD
ENDBRANCH   6  26
ENDBRANCH   4   6
ENDBRANCH   3   4
ENDBRANCH   2   3
ENDBRANCH   1   2
BRANCH   1  28
ATOM     28  O   UNL A   1      37.074  23.701  25.451  1.00  0.00    -0.458 OA
BRANCH  28  29
ATOM     29  C   UNL A   1      38.146  23.101  26.018  1.00  0.00     0.338 C 
ATOM     30  O   UNL A   1      38.400  21.910  26.035  1.00  0.00    -0.246 OA
BRANCH  29  31
ATOM     31  C   UNL A   1      39.034  24.109  26.611  1.00  0.00     0.060 A 
ATOM     32  C   UNL A   1      38.923  24.381  27.972  1.00  0.00     0.016 A 
ATOM     33  C   UNL A   1      39.860  24.890  25.803  1.00  0.00     0.016 A 
ATOM     34  C   UNL A   1      39.536  25.509  28.508  1.00  0.00     0.010 A 
ATOM     35  C   UNL A   1      40.561  25.960  26.371  1.00  0.00     0.010 A 
ATOM     36  C   UNL A   1      40.368  26.314  27.717  1.00  0.00    -0.014 A 
BRANCH  36  37
ATOM     37  C   UNL A   1      41.034  27.502  28.321  1.00  0.00     0.031 A 
ATOM     38  C   UNL A   1      42.529  27.557  28.508  1.00  0.00     0.074 A 
ATOM     39  C   UNL A   1      40.296  28.576  28.662  1.00  0.00     0.049 A 
ATOM     40  N   UNL A   1      43.279  28.589  28.811  1.00  0.00    -0.248 NA
ATOM     41  C   UNL A   1      43.289  26.322  28.286  1.00  0.00     0.031 C 
ATOM     42  C   UNL A   1      38.841  28.690  28.535  1.00  0.00     0.029 A 
ATOM     43  N   UNL A   1      40.674  29.775  29.213  1.00  0.00    -0.354 N 
ATOM     44  C   UNL A   1      44.591  28.157  28.655  1.00  0.00     0.074 A 
ATOM     45  C   UNL A   1      44.542  26.747  28.362  1.00  0.00     0.031 C 
ATOM     46  C   UNL A   1      38.448  29.875  29.024  1.00  0.00     0.029 A 
ATOM     47  C   UNL A   1      39.614  30.583  29.544  1.00  0.00     0.049 A 
ATOM     48  H   UNL A   1      41.613  30.031  29.357  1.00  0.00     0.167 HD
ATOM     49  C   UNL A   1      45.731  28.885  28.696  1.00  0.00     0.037 A 
ATOM     50  C   UNL A   1      39.580  31.732  30.245  1.00  0.00     0.037 A 
ATOM     51  C   UNL A   1      45.799  30.229  29.191  1.00  0.00     0.049 A 
ATOM     52  C   UNL A   1      40.870  32.337  30.719  1.00  0.00     0.074 A 
ATOM     53  C   UNL A   1      46.902  31.048  29.345  1.00  0.00     0.029 A 
ATOM     54  N   UNL A   1      44.714  30.911  29.713  1.00  0.00    -0.354 N 
ATOM     55  N   UNL A   1      42.096  31.997  30.407  1.00  0.00    -0.248 NA
ATOM     56  C   UNL A   1      40.777  33.464  31.656  1.00  0.00     0.031 C 
ATOM     57  C   UNL A   1      46.495  32.188  30.055  1.00  0.00     0.029 A 
ATOM     58  C   UNL A   1      45.134  32.091  30.299  1.00  0.00     0.049 A 
ATOM     59  H   UNL A   1      43.779  30.602  29.674  1.00  0.00     0.167 HD
ATOM     60  C   UNL A   1      42.923  32.886  31.082  1.00  0.00     0.074 A 
ATOM     61  C   UNL A   1      42.057  33.770  31.836  1.00  0.00     0.031 C 
ATOM     62  C   UNL A   1      44.276  32.965  31.059  1.00  0.00     0.037 A 
BRANCH  49  63
ATOM     63  C   UNL A   1      46.983  28.226  28.199  1.00  0.00     0.058 A 
ATOM     64  C   UNL A   1      47.347  28.327  26.846  1.00  0.00     0.135 A 
ATOM     65  C   UNL A   1      47.820  27.497  29.053  1.00  0.00     0.135 A 
ATOM     66  F   UNL A   1      46.585  29.025  25.988  1.00  0.00    -0.206 F 
ATOM     67  C   UNL A   1      48.489  27.705  26.351  1.00  0.00     0.059 A 
ATOM     68  C   UNL A   1      48.972  26.871  28.580  1.00  0.00     0.059 A 
ATOM     69  F   UNL A   1      47.510  27.366  30.352  1.00  0.00    -0.206 F 
ATOM     70  C   UNL A   1      49.290  26.970  27.225  1.00  0.00     0.060 A 
BRANCH  70  71
ATOM     71  S   UNL A   1      50.760  26.152  26.565  1.00  0.00     0.124 S 
ATOM     72  O   UNL A   1      51.826  27.004  27.082  1.00  0.00    -0.237 OA
ATOM     73  O   UNL A   1      50.670  24.821  27.155  1.00  0.00    -0.237 OA
ATOM     74  O   UNL A   1      50.559  26.209  25.120  1.00  0.00    -0.744 OA
ENDBRANCH  70  71
ENDBRANCH  49  63
BRANCH  50  75
ATOM     75  C   UNL A   1      38.266  32.315  30.618  1.00  0.00     0.058 A 
ATOM     76  C   UNL A   1      37.623  31.974  31.814  1.00  0.00     0.135 A 
ATOM     77  C   UNL A   1      37.646  33.261  29.783  1.00  0.00     0.135 A 
ATOM     78  F   UNL A   1      38.170  31.066  32.636  1.00  0.00    -0.206 F 
ATOM     79  C   UNL A   1      36.414  32.561  32.178  1.00  0.00     0.059 A 
ATOM     80  C   UNL A   1      36.452  33.876  30.136  1.00  0.00     0.059 A 
ATOM     81  F   UNL A   1      38.225  33.621  28.627  1.00  0.00    -0.206 F 
ATOM     82  C   UNL A   1      35.840  33.516  31.334  1.00  0.00     0.060 A 
BRANCH  82  83
ATOM     83  S   UNL A   1      34.310  34.327  31.844  1.00  0.00     0.124 S 
ATOM     84  O   UNL A   1      33.649  34.537  30.561  1.00  0.00    -0.237 OA
ATOM     85  O   UNL A   1      33.705  33.328  32.719  1.00  0.00    -0.237 OA
ATOM     86  O   UNL A   1      34.780  35.534  32.517  1.00  0.00    -0.744 OA
ENDBRANCH  82  83
ENDBRANCH  50  75
BRANCH  62  87
ATOM     87  C   UNL A   1      44.929  34.046  31.865  1.00  0.00     0.058 A 
ATOM     88  C   UNL A   1      45.351  33.818  33.182  1.00  0.00     0.135 A 
ATOM     89  C   UNL A   1      45.222  35.289  31.283  1.00  0.00     0.135 A 
ATOM     90  F   UNL A   1      45.081  32.649  33.786  1.00  0.00    -0.206 F 
ATOM     91  C   UNL A   1      46.050  34.786  33.897  1.00  0.00     0.059 A 
ATOM     92  C   UNL A   1      45.937  36.263  31.971  1.00  0.00     0.059 A 
ATOM     93  F   UNL A   1      44.843  35.552  30.022  1.00  0.00    -0.206 F 
ATOM     94  C   UNL A   1      46.346  36.003  33.279  1.00  0.00     0.060 A 
BRANCH  94  95
ATOM     95  S   UNL A   1      47.329  37.222  34.177  1.00  0.00     0.124 S 
ATOM     96  O   UNL A   1      48.455  37.416  33.271  1.00  0.00    -0.237 OA
ATOM     97  O   UNL A   1      46.408  38.348  34.293  1.00  0.00    -0.237 OA
ATOM     98  O   UNL A   1      47.640  36.545  35.432  1.00  0.00    -0.744 OA
ENDBRANCH  94  95
ENDBRANCH  62  87
ENDBRANCH  36  37
ENDBRANCH  29  31
ENDBRANCH  28  29
ENDBRANCH   1  28
TORSDOF 18
ENDMDL
