MODEL 1
REMARK VINA RESULT:     -10.2      0.000      0.000
REMARK SMILES CC[NH2+][C@@]1(C(=O)OCCOC(=O)c2ccc(-c3c4nc(c(-c5c(F)cc(S(=O)(=O)[O-])cc5F)c5ccc([nH]5)c(-c5c(F)cc(S(=O)(=O)[O-])cc5F)c5nc(c(-c6c(F)cc(S(=O)(=O)[O-])cc6F)c6ccc3[nH]6)C=C5)C=C4)cc2)CCC[C@H]1CCSc1cnn(C)c1
REMARK SMILES IDX 8 1 7 2 5 3 6 4 4 5 79 6 82 7 80 8 81 9 3 10 2 13 1 14 83 15
REMARK SMILES IDX 84 16 85 17 86 18 87 19 91 20 88 21 89 22 90 23 9 24 10 25
REMARK SMILES IDX 11 26 12 27 13 28 14 29 78 30 15 31 77 32 16 33 17 34 18 35
REMARK SMILES IDX 71 36 19 37 76 38 70 39 72 40 20 41 75 42 69 43 68 44 21 46
REMARK SMILES IDX 55 47 34 48 54 49 35 50 38 51 53 52 73 53 36 54 37 55 52 57
REMARK SMILES IDX 74 58 39 59 22 60 23 61 32 62 24 63 25 64 31 65 33 66 26 67
REMARK SMILES IDX 27 68 28 69 29 70 30 71 56 72 57 73 66 74 58 75 59 76 65 77
REMARK SMILES IDX 67 78 60 79 61 80 62 81 63 82 64 83 40 84 41 85 50 86 42 87
REMARK SMILES IDX 43 88 49 89 51 90 44 91 45 92 46 93 47 94 48 95
REMARK H PARENT 3 11 3 12 72 45 38 56
REMARK Flexibility Score: inf
ROOT
ATOM      1  C   UNL A   1      37.165  22.620  25.593  1.00  0.00     0.274 C 
ENDROOT
BRANCH   1   2
ATOM      2  O   UNL A   1      36.055  23.114  26.372  1.00  0.00    -0.457 OA
BRANCH   2   3
ATOM      3  C   UNL A   1      34.879  22.437  26.263  1.00  0.00     0.368 C 
ATOM      4  O   UNL A   1      34.764  21.232  26.476  1.00  0.00    -0.245 OA
BRANCH   3   5
ATOM      5  C   UNL A   1      33.701  23.328  25.714  1.00  0.00     0.197 C 
ATOM      6  C   UNL A   1      33.285  22.633  24.392  1.00  0.00     0.081 C 
ATOM      7  C   UNL A   1      34.111  24.770  25.239  1.00  0.00     0.063 C 
ATOM      8  C   UNL A   1      34.292  23.145  23.383  1.00  0.00     0.008 C 
ATOM      9  C   UNL A   1      34.366  24.624  23.711  1.00  0.00     0.011 C 
BRANCH   5  10
ATOM     10  N   UNL A   1      32.516  23.291  26.610  1.00  0.00    -0.332 N 
ATOM     11  H   UNL A   1      32.723  22.661  27.384  1.00  0.00     0.347 HD
ATOM     12  H   UNL A   1      32.352  24.254  26.908  1.00  0.00     0.347 HD
BRANCH  10  13
ATOM     13  C   UNL A   1      31.282  22.841  25.976  1.00  0.00     0.257 C 
ATOM     14  C   UNL A   1      30.101  23.043  26.910  1.00  0.00     0.071 C 
ENDBRANCH  10  13
ENDBRANCH   5  10
BRANCH   7  15
ATOM     15  C   UNL A   1      33.086  25.916  25.446  1.00  0.00     0.022 C 
BRANCH  15  16
ATOM     16  C   UNL A   1      33.257  27.167  24.570  1.00  0.00     0.075 C 
BRANCH  16  17
ATOM     17  S   UNL A   1      31.817  28.283  24.609  1.00  0.00    -0.123 SA
BRANCH  17  18
ATOM     18  C   UNL A   1      32.331  29.608  25.610  1.00  0.00     0.045 A 
ATOM     19  C   UNL A   1      31.573  30.730  25.983  1.00  0.00     0.150 A 
ATOM     20  C   UNL A   1      33.487  29.704  26.348  1.00  0.00     0.123 A 
ATOM     21  N   UNL A   1      32.174  31.470  26.918  1.00  0.00    -0.181 NA
ATOM     22  N   UNL A   1      33.362  30.850  27.087  1.00  0.00    -0.275 N 
ATOM     23  C   UNL A   1      34.305  31.371  28.048  1.00  0.00     0.173 C 
ENDBRANCH  17  18
ENDBRANCH  16  17
ENDBRANCH  15  16
ENDBRANCH   7  15
ENDBRANCH   3   5
ENDBRANCH   2   3
ENDBRANCH   1   2
BRANCH   1  24
ATOM     24  C   UNL A   1      38.506  22.875  26.276  1.00  0.00     0.275 C 
BRANCH  24  25
ATOM     25  O   UNL A   1      38.643  24.278  26.563  1.00  0.00    -0.458 OA
BRANCH  25  26
ATOM     26  C   UNL A   1      39.909  24.737  26.598  1.00  0.00     0.338 C 
ATOM     27  O   UNL A   1      40.776  24.586  25.746  1.00  0.00    -0.246 OA
BRANCH  26  28
ATOM     28  C   UNL A   1      40.182  25.528  27.803  1.00  0.00     0.060 A 
ATOM     29  C   UNL A   1      39.265  25.553  28.844  1.00  0.00     0.016 A 
ATOM     30  C   UNL A   1      41.247  26.434  27.779  1.00  0.00     0.016 A 
ATOM     31  C   UNL A   1      39.304  26.612  29.747  1.00  0.00     0.010 A 
ATOM     32  C   UNL A   1      41.361  27.407  28.772  1.00  0.00     0.010 A 
ATOM     33  C   UNL A   1      40.354  27.550  29.735  1.00  0.00    -0.014 A 
BRANCH  33  34
ATOM     34  C   UNL A   1      40.384  28.667  30.724  1.00  0.00     0.031 A 
ATOM     35  C   UNL A   1      41.458  28.755  31.784  1.00  0.00     0.074 A 
ATOM     36  C   UNL A   1      39.448  29.634  30.654  1.00  0.00     0.049 A 
ATOM     37  N   UNL A   1      41.515  29.540  32.829  1.00  0.00    -0.248 NA
ATOM     38  C   UNL A   1      42.605  27.838  31.668  1.00  0.00     0.031 C 
ATOM     39  C   UNL A   1      38.363  29.691  29.671  1.00  0.00     0.029 A 
ATOM     40  N   UNL A   1      39.271  30.771  31.400  1.00  0.00    -0.354 N 
ATOM     41  C   UNL A   1      42.653  29.163  33.536  1.00  0.00     0.074 A 
ATOM     42  C   UNL A   1      43.277  28.096  32.785  1.00  0.00     0.031 C 
ATOM     43  C   UNL A   1      37.703  30.847  29.806  1.00  0.00     0.029 A 
ATOM     44  C   UNL A   1      38.223  31.549  30.971  1.00  0.00     0.049 A 
ATOM     45  H   UNL A   1      39.841  31.007  32.167  1.00  0.00     0.167 HD
ATOM     46  C   UNL A   1      43.117  29.655  34.711  1.00  0.00     0.037 A 
ATOM     47  C   UNL A   1      37.689  32.672  31.483  1.00  0.00     0.037 A 
ATOM     48  C   UNL A   1      42.526  30.770  35.411  1.00  0.00     0.049 A 
ATOM     49  C   UNL A   1      38.228  33.211  32.768  1.00  0.00     0.074 A 
ATOM     50  C   UNL A   1      42.920  31.344  36.610  1.00  0.00     0.029 A 
ATOM     51  N   UNL A   1      41.435  31.499  34.963  1.00  0.00    -0.354 N 
ATOM     52  N   UNL A   1      39.225  32.759  33.490  1.00  0.00    -0.248 NA
ATOM     53  C   UNL A   1      37.543  34.377  33.334  1.00  0.00     0.031 C 
ATOM     54  C   UNL A   1      42.054  32.407  36.893  1.00  0.00     0.029 A 
ATOM     55  C   UNL A   1      41.141  32.514  35.859  1.00  0.00     0.049 A 
ATOM     56  H   UNL A   1      40.943  31.323  34.129  1.00  0.00     0.167 HD
ATOM     57  C   UNL A   1      39.264  33.563  34.619  1.00  0.00     0.074 A 
ATOM     58  C   UNL A   1      38.219  34.558  34.462  1.00  0.00     0.031 C 
ATOM     59  C   UNL A   1      40.078  33.473  35.698  1.00  0.00     0.037 A 
BRANCH  46  60
ATOM     60  C   UNL A   1      44.298  28.977  35.351  1.00  0.00     0.058 A 
ATOM     61  C   UNL A   1      44.156  27.893  36.228  1.00  0.00     0.135 A 
ATOM     62  C   UNL A   1      45.603  29.375  35.008  1.00  0.00     0.135 A 
ATOM     63  F   UNL A   1      42.933  27.481  36.600  1.00  0.00    -0.206 F 
ATOM     64  C   UNL A   1      45.265  27.227  36.747  1.00  0.00     0.059 A 
ATOM     65  C   UNL A   1      46.724  28.714  35.500  1.00  0.00     0.059 A 
ATOM     66  F   UNL A   1      45.795  30.408  34.172  1.00  0.00    -0.206 F 
ATOM     67  C   UNL A   1      46.545  27.645  36.376  1.00  0.00     0.060 A 
BRANCH  67  68
ATOM     68  S   UNL A   1      47.979  26.756  37.025  1.00  0.00     0.124 S 
ATOM     69  O   UNL A   1      47.973  25.553  36.198  1.00  0.00    -0.237 OA
ATOM     70  O   UNL A   1      49.072  27.691  36.775  1.00  0.00    -0.237 OA
ATOM     71  O   UNL A   1      47.644  26.554  38.431  1.00  0.00    -0.744 OA
ENDBRANCH  67  68
ENDBRANCH  46  60
BRANCH  47  72
ATOM     72  C   UNL A   1      36.530  33.293  30.795  1.00  0.00     0.058 A 
ATOM     73  C   UNL A   1      35.250  33.246  31.361  1.00  0.00     0.135 A 
ATOM     74  C   UNL A   1      36.707  34.044  29.622  1.00  0.00     0.135 A 
ATOM     75  F   UNL A   1      35.034  32.532  32.476  1.00  0.00    -0.206 F 
ATOM     76  C   UNL A   1      34.187  33.951  30.804  1.00  0.00     0.059 A 
ATOM     77  C   UNL A   1      35.668  34.776  29.064  1.00  0.00     0.059 A 
ATOM     78  F   UNL A   1      37.922  34.131  29.057  1.00  0.00    -0.206 F 
ATOM     79  C   UNL A   1      34.411  34.726  29.664  1.00  0.00     0.060 A 
BRANCH  79  80
ATOM     80  S   UNL A   1      33.077  35.759  29.021  1.00  0.00     0.124 S 
ATOM     81  O   UNL A   1      32.360  34.815  28.171  1.00  0.00    -0.237 OA
ATOM     82  O   UNL A   1      32.384  36.177  30.237  1.00  0.00    -0.237 OA
ATOM     83  O   UNL A   1      33.794  36.823  28.326  1.00  0.00    -0.744 OA
ENDBRANCH  79  80
ENDBRANCH  47  72
BRANCH  59  84
ATOM     84  C   UNL A   1      39.843  34.466  36.794  1.00  0.00     0.058 A 
ATOM     85  C   UNL A   1      40.550  35.677  36.833  1.00  0.00     0.135 A 
ATOM     86  C   UNL A   1      38.920  34.203  37.816  1.00  0.00     0.135 A 
ATOM     87  F   UNL A   1      41.451  35.966  35.881  1.00  0.00    -0.206 F 
ATOM     88  C   UNL A   1      40.369  36.587  37.869  1.00  0.00     0.059 A 
ATOM     89  C   UNL A   1      38.713  35.104  38.854  1.00  0.00     0.059 A 
ATOM     90  F   UNL A   1      38.220  33.058  37.817  1.00  0.00    -0.206 F 
ATOM     91  C   UNL A   1      39.455  36.286  38.880  1.00  0.00     0.060 A 
BRANCH  91  92
ATOM     92  S   UNL A   1      39.233  37.465  40.229  1.00  0.00     0.124 S 
ATOM     93  O   UNL A   1      38.228  38.362  39.669  1.00  0.00    -0.237 OA
ATOM     94  O   UNL A   1      38.782  36.614  41.325  1.00  0.00    -0.237 OA
ATOM     95  O   UNL A   1      40.565  38.038  40.397  1.00  0.00    -0.744 OA
ENDBRANCH  91  92
ENDBRANCH  59  84
ENDBRANCH  33  34
ENDBRANCH  26  28
ENDBRANCH  25  26
ENDBRANCH  24  25
ENDBRANCH   1  24
TORSDOF 20
ENDMDL
MODEL 2
REMARK VINA RESULT:     -10.1      5.529     11.119
REMARK SMILES CC[NH2+][C@@]1(C(=O)OCCOC(=O)c2ccc(-c3c4nc(c(-c5c(F)cc(S(=O)(=O)[O-])cc5F)c5ccc([nH]5)c(-c5c(F)cc(S(=O)(=O)[O-])cc5F)c5nc(c(-c6c(F)cc(S(=O)(=O)[O-])cc6F)c6ccc3[nH]6)C=C5)C=C4)cc2)CCC[C@H]1CCSc1cnn(C)c1
REMARK SMILES IDX 8 1 7 2 5 3 6 4 4 5 79 6 82 7 80 8 81 9 3 10 2 13 1 14 83 15
REMARK SMILES IDX 84 16 85 17 86 18 87 19 91 20 88 21 89 22 90 23 9 24 10 25
REMARK SMILES IDX 11 26 12 27 13 28 14 29 78 30 15 31 77 32 16 33 17 34 18 35
REMARK SMILES IDX 71 36 19 37 76 38 70 39 72 40 20 41 75 42 69 43 68 44 21 46
REMARK SMILES IDX 55 47 34 48 54 49 35 50 38 51 53 52 73 53 36 54 37 55 52 57
REMARK SMILES IDX 74 58 39 59 22 60 23 61 32 62 24 63 25 64 31 65 33 66 26 67
REMARK SMILES IDX 27 68 28 69 29 70 30 71 56 72 57 73 66 74 58 75 59 76 65 77
REMARK SMILES IDX 67 78 60 79 61 80 62 81 63 82 64 83 40 84 41 85 50 86 42 87
REMARK SMILES IDX 43 88 49 89 51 90 44 91 45 92 46 93 47 94 48 95
REMARK H PARENT 3 11 3 12 72 45 38 56
REMARK Flexibility Score: inf
ROOT
ATOM      1  C   UNL A   1      32.042  29.344  26.162  1.00  0.00     0.274 C 
ENDROOT
BRANCH   1   2
ATOM      2  O   UNL A   1      32.795  28.653  25.143  1.00  0.00    -0.457 OA
BRANCH   2   3
ATOM      3  C   UNL A   1      33.407  27.494  25.512  1.00  0.00     0.368 C 
ATOM      4  O   UNL A   1      34.184  27.405  26.460  1.00  0.00    -0.245 OA
BRANCH   3   5
ATOM      5  C   UNL A   1      33.116  26.300  24.525  1.00  0.00     0.197 C 
ATOM      6  C   UNL A   1      31.571  26.272  24.410  1.00  0.00     0.081 C 
ATOM      7  C   UNL A   1      33.455  24.869  25.079  1.00  0.00     0.063 C 
ATOM      8  C   UNL A   1      31.132  25.507  25.642  1.00  0.00     0.008 C 
ATOM      9  C   UNL A   1      32.116  24.353  25.682  1.00  0.00     0.011 C 
BRANCH   5  10
ATOM     10  N   UNL A   1      33.644  26.570  23.161  1.00  0.00    -0.332 N 
ATOM     11  H   UNL A   1      34.227  27.405  23.207  1.00  0.00     0.347 HD
ATOM     12  H   UNL A   1      34.157  25.734  22.882  1.00  0.00     0.347 HD
BRANCH  10  13
ATOM     13  C   UNL A   1      32.623  26.784  22.141  1.00  0.00     0.257 C 
ATOM     14  C   UNL A   1      32.560  25.597  21.195  1.00  0.00     0.071 C 
ENDBRANCH  10  13
ENDBRANCH   5  10
BRANCH   7  15
ATOM     15  C   UNL A   1      33.965  23.806  24.071  1.00  0.00     0.022 C 
BRANCH  15  16
ATOM     16  C   UNL A   1      35.248  23.050  24.448  1.00  0.00     0.075 C 
BRANCH  16  17
ATOM     17  S   UNL A   1      35.066  22.001  25.927  1.00  0.00    -0.123 SA
BRANCH  17  18
ATOM     18  C   UNL A   1      34.052  20.691  25.399  1.00  0.00     0.045 A 
ATOM     19  C   UNL A   1      32.650  20.631  25.453  1.00  0.00     0.150 A 
ATOM     20  C   UNL A   1      34.424  19.577  24.684  1.00  0.00     0.123 A 
ATOM     21  N   UNL A   1      32.154  19.584  24.790  1.00  0.00    -0.181 NA
ATOM     22  N   UNL A   1      33.259  18.929  24.372  1.00  0.00    -0.275 N 
ATOM     23  C   UNL A   1      33.117  17.719  23.598  1.00  0.00     0.173 C 
ENDBRANCH  17  18
ENDBRANCH  16  17
ENDBRANCH  15  16
ENDBRANCH   7  15
ENDBRANCH   3   5
ENDBRANCH   2   3
ENDBRANCH   1   2
BRANCH   1  24
ATOM     24  C   UNL A   1      32.835  30.489  26.786  1.00  0.00     0.275 C 
BRANCH  24  25
ATOM     25  O   UNL A   1      33.482  30.030  27.985  1.00  0.00    -0.458 OA
BRANCH  25  26
ATOM     26  C   UNL A   1      34.502  30.797  28.419  1.00  0.00     0.338 C 
ATOM     27  O   UNL A   1      34.446  31.961  28.795  1.00  0.00    -0.246 OA
BRANCH  26  28
ATOM     28  C   UNL A   1      35.774  30.068  28.449  1.00  0.00     0.060 A 
ATOM     29  C   UNL A   1      36.287  29.608  29.653  1.00  0.00     0.016 A 
ATOM     30  C   UNL A   1      36.567  30.062  27.296  1.00  0.00     0.016 A 
ATOM     31  C   UNL A   1      37.649  29.335  29.742  1.00  0.00     0.010 A 
ATOM     32  C   UNL A   1      37.898  29.648  27.364  1.00  0.00     0.010 A 
ATOM     33  C   UNL A   1      38.476  29.339  28.601  1.00  0.00    -0.014 A 
BRANCH  33  34
ATOM     34  C   UNL A   1      39.929  29.025  28.718  1.00  0.00     0.031 A 
ATOM     35  C   UNL A   1      40.913  30.034  29.265  1.00  0.00     0.074 A 
ATOM     36  C   UNL A   1      40.373  27.805  28.354  1.00  0.00     0.049 A 
ATOM     37  N   UNL A   1      42.222  29.995  29.248  1.00  0.00    -0.248 NA
ATOM     38  C   UNL A   1      40.365  31.248  29.894  1.00  0.00     0.031 C 
ATOM     39  C   UNL A   1      39.535  26.724  27.829  1.00  0.00     0.029 A 
ATOM     40  N   UNL A   1      41.628  27.254  28.395  1.00  0.00    -0.354 N 
ATOM     41  C   UNL A   1      42.653  31.203  29.788  1.00  0.00     0.074 A 
ATOM     42  C   UNL A   1      41.466  31.946  30.152  1.00  0.00     0.031 C 
ATOM     43  C   UNL A   1      40.273  25.616  27.698  1.00  0.00     0.029 A 
ATOM     44  C   UNL A   1      41.661  25.942  27.991  1.00  0.00     0.049 A 
ATOM     45  H   UNL A   1      42.426  27.751  28.687  1.00  0.00     0.167 HD
ATOM     46  C   UNL A   1      43.923  31.650  29.946  1.00  0.00     0.037 A 
ATOM     47  C   UNL A   1      42.694  25.098  27.813  1.00  0.00     0.037 A 
ATOM     48  C   UNL A   1      45.099  30.869  29.648  1.00  0.00     0.049 A 
ATOM     49  C   UNL A   1      44.086  25.604  28.013  1.00  0.00     0.074 A 
ATOM     50  C   UNL A   1      46.431  31.231  29.772  1.00  0.00     0.029 A 
ATOM     51  N   UNL A   1      45.085  29.558  29.197  1.00  0.00    -0.354 N 
ATOM     52  N   UNL A   1      44.475  26.795  28.398  1.00  0.00    -0.248 NA
ATOM     53  C   UNL A   1      45.177  24.674  27.706  1.00  0.00     0.031 C 
ATOM     54  C   UNL A   1      47.221  30.145  29.376  1.00  0.00     0.029 A 
ATOM     55  C   UNL A   1      46.383  29.098  29.034  1.00  0.00     0.049 A 
ATOM     56  H   UNL A   1      44.274  29.031  29.018  1.00  0.00     0.167 HD
ATOM     57  C   UNL A   1      45.861  26.771  28.344  1.00  0.00     0.074 A 
ATOM     58  C   UNL A   1      46.241  25.433  27.932  1.00  0.00     0.031 C 
ATOM     59  C   UNL A   1      46.738  27.773  28.593  1.00  0.00     0.037 A 
BRANCH  46  60
ATOM     60  C   UNL A   1      44.127  33.062  30.424  1.00  0.00     0.058 A 
ATOM     61  C   UNL A   1      44.337  33.374  31.774  1.00  0.00     0.135 A 
ATOM     62  C   UNL A   1      44.196  34.113  29.492  1.00  0.00     0.135 A 
ATOM     63  F   UNL A   1      44.269  32.411  32.708  1.00  0.00    -0.206 F 
ATOM     64  C   UNL A   1      44.604  34.677  32.187  1.00  0.00     0.059 A 
ATOM     65  C   UNL A   1      44.478  35.419  29.879  1.00  0.00     0.059 A 
ATOM     66  F   UNL A   1      44.003  33.869  28.186  1.00  0.00    -0.206 F 
ATOM     67  C   UNL A   1      44.674  35.694  31.231  1.00  0.00     0.060 A 
BRANCH  67  68
ATOM     68  S   UNL A   1      45.055  37.377  31.768  1.00  0.00     0.124 S 
ATOM     69  O   UNL A   1      44.866  37.271  33.212  1.00  0.00    -0.237 OA
ATOM     70  O   UNL A   1      46.433  37.550  31.320  1.00  0.00    -0.237 OA
ATOM     71  O   UNL A   1      44.067  38.189  31.064  1.00  0.00    -0.744 OA
ENDBRANCH  67  68
ENDBRANCH  46  60
BRANCH  47  72
ATOM     72  C   UNL A   1      42.419  23.716  27.348  1.00  0.00     0.058 A 
ATOM     73  C   UNL A   1      42.481  23.392  25.987  1.00  0.00     0.135 A 
ATOM     74  C   UNL A   1      42.208  22.676  28.267  1.00  0.00     0.135 A 
ATOM     75  F   UNL A   1      42.671  24.356  25.074  1.00  0.00    -0.206 F 
ATOM     76  C   UNL A   1      42.375  22.074  25.553  1.00  0.00     0.059 A 
ATOM     77  C   UNL A   1      42.125  21.352  27.859  1.00  0.00     0.059 A 
ATOM     78  F   UNL A   1      42.160  22.941  29.582  1.00  0.00    -0.206 F 
ATOM     79  C   UNL A   1      42.213  21.059  26.498  1.00  0.00     0.060 A 
BRANCH  79  80
ATOM     80  S   UNL A   1      42.222  19.337  25.958  1.00  0.00     0.124 S 
ATOM     81  O   UNL A   1      40.807  19.107  25.689  1.00  0.00    -0.237 OA
ATOM     82  O   UNL A   1      43.097  19.374  24.789  1.00  0.00    -0.237 OA
ATOM     83  O   UNL A   1      42.771  18.635  27.114  1.00  0.00    -0.744 OA
ENDBRANCH  79  80
ENDBRANCH  47  72
BRANCH  59  84
ATOM     84  C   UNL A   1      48.188  27.453  28.400  1.00  0.00     0.058 A 
ATOM     85  C   UNL A   1      48.831  27.724  27.183  1.00  0.00     0.135 A 
ATOM     86  C   UNL A   1      48.936  26.861  29.427  1.00  0.00     0.135 A 
ATOM     87  F   UNL A   1      48.150  28.281  26.168  1.00  0.00    -0.206 F 
ATOM     88  C   UNL A   1      50.166  27.393  26.980  1.00  0.00     0.059 A 
ATOM     89  C   UNL A   1      50.275  26.533  29.252  1.00  0.00     0.059 A 
ATOM     90  F   UNL A   1      48.362  26.585  30.609  1.00  0.00    -0.206 F 
ATOM     91  C   UNL A   1      50.876  26.788  28.019  1.00  0.00     0.060 A 
BRANCH  91  92
ATOM     92  S   UNL A   1      52.606  26.348  27.746  1.00  0.00     0.124 S 
ATOM     93  O   UNL A   1      53.085  26.189  29.115  1.00  0.00    -0.237 OA
ATOM     94  O   UNL A   1      52.503  25.122  26.963  1.00  0.00    -0.237 OA
ATOM     95  O   UNL A   1      53.136  27.501  27.024  1.00  0.00    -0.744 OA
ENDBRANCH  91  92
ENDBRANCH  59  84
ENDBRANCH  33  34
ENDBRANCH  26  28
ENDBRANCH  25  26
ENDBRANCH  24  25
ENDBRANCH   1  24
TORSDOF 20
ENDMDL
MODEL 3
REMARK VINA RESULT:     -10.0      6.596     12.010
REMARK SMILES CC[NH2+][C@@]1(C(=O)OCCOC(=O)c2ccc(-c3c4nc(c(-c5c(F)cc(S(=O)(=O)[O-])cc5F)c5ccc([nH]5)c(-c5c(F)cc(S(=O)(=O)[O-])cc5F)c5nc(c(-c6c(F)cc(S(=O)(=O)[O-])cc6F)c6ccc3[nH]6)C=C5)C=C4)cc2)CCC[C@H]1CCSc1cnn(C)c1
REMARK SMILES IDX 8 1 7 2 5 3 6 4 4 5 79 6 82 7 80 8 81 9 3 10 2 13 1 14 83 15
REMARK SMILES IDX 84 16 85 17 86 18 87 19 91 20 88 21 89 22 90 23 9 24 10 25
REMARK SMILES IDX 11 26 12 27 13 28 14 29 78 30 15 31 77 32 16 33 17 34 18 35
REMARK SMILES IDX 71 36 19 37 76 38 70 39 72 40 20 41 75 42 69 43 68 44 21 46
REMARK SMILES IDX 55 47 34 48 54 49 35 50 38 51 53 52 73 53 36 54 37 55 52 57
REMARK SMILES IDX 74 58 39 59 22 60 23 61 32 62 24 63 25 64 31 65 33 66 26 67
REMARK SMILES IDX 27 68 28 69 29 70 30 71 56 72 57 73 66 74 58 75 59 76 65 77
REMARK SMILES IDX 67 78 60 79 61 80 62 81 63 82 64 83 40 84 41 85 50 86 42 87
REMARK SMILES IDX 43 88 49 89 51 90 44 91 45 92 46 93 47 94 48 95
REMARK H PARENT 3 11 3 12 72 45 38 56
REMARK Flexibility Score: inf
ROOT
ATOM      1  C   UNL A   1      34.341  28.770  26.238  1.00  0.00     0.274 C 
ENDROOT
BRANCH   1   2
ATOM      2  O   UNL A   1      33.163  28.031  25.851  1.00  0.00    -0.457 OA
BRANCH   2   3
ATOM      3  C   UNL A   1      33.318  26.694  25.642  1.00  0.00     0.368 C 
ATOM      4  O   UNL A   1      34.101  25.992  26.276  1.00  0.00    -0.245 OA
BRANCH   3   5
ATOM      5  C   UNL A   1      32.482  26.160  24.418  1.00  0.00     0.197 C 
ATOM      6  C   UNL A   1      31.215  27.054  24.405  1.00  0.00     0.081 C 
ATOM      7  C   UNL A   1      31.889  24.713  24.586  1.00  0.00     0.063 C 
ATOM      8  C   UNL A   1      30.314  26.416  25.443  1.00  0.00     0.008 C 
ATOM      9  C   UNL A   1      30.451  24.937  25.136  1.00  0.00     0.011 C 
BRANCH   5  10
ATOM     10  N   UNL A   1      33.182  26.390  23.127  1.00  0.00    -0.332 N 
ATOM     11  H   UNL A   1      34.184  26.419  23.311  1.00  0.00     0.347 HD
ATOM     12  H   UNL A   1      32.908  25.623  22.512  1.00  0.00     0.347 HD
BRANCH  10  13
ATOM     13  C   UNL A   1      32.811  27.621  22.439  1.00  0.00     0.257 C 
ATOM     14  C   UNL A   1      34.007  28.552  22.334  1.00  0.00     0.071 C 
ENDBRANCH  10  13
ENDBRANCH   5  10
BRANCH   7  15
ATOM     15  C   UNL A   1      31.783  23.825  23.318  1.00  0.00     0.022 C 
BRANCH  15  16
ATOM     16  C   UNL A   1      32.668  22.571  23.272  1.00  0.00     0.075 C 
BRANCH  16  17
ATOM     17  S   UNL A   1      32.794  21.711  24.873  1.00  0.00    -0.123 SA
BRANCH  17  18
ATOM     18  C   UNL A   1      34.495  21.723  25.231  1.00  0.00     0.045 A 
ATOM     19  C   UNL A   1      35.415  20.686  25.005  1.00  0.00     0.150 A 
ATOM     20  C   UNL A   1      35.263  22.793  25.627  1.00  0.00     0.123 A 
ATOM     21  N   UNL A   1      36.680  21.068  25.199  1.00  0.00    -0.181 NA
ATOM     22  N   UNL A   1      36.556  22.344  25.626  1.00  0.00    -0.275 N 
ATOM     23  C   UNL A   1      37.741  23.106  25.937  1.00  0.00     0.173 C 
ENDBRANCH  17  18
ENDBRANCH  16  17
ENDBRANCH  15  16
ENDBRANCH   7  15
ENDBRANCH   3   5
ENDBRANCH   2   3
ENDBRANCH   1   2
BRANCH   1  24
ATOM     24  C   UNL A   1      34.225  29.341  27.648  1.00  0.00     0.275 C 
BRANCH  24  25
ATOM     25  O   UNL A   1      35.030  30.528  27.756  1.00  0.00    -0.458 OA
BRANCH  25  26
ATOM     26  C   UNL A   1      35.853  30.571  28.821  1.00  0.00     0.338 C 
ATOM     27  O   UNL A   1      35.657  31.144  29.887  1.00  0.00    -0.246 OA
BRANCH  26  28
ATOM     28  C   UNL A   1      37.076  29.788  28.614  1.00  0.00     0.060 A 
ATOM     29  C   UNL A   1      37.739  29.228  29.696  1.00  0.00     0.016 A 
ATOM     30  C   UNL A   1      37.685  29.825  27.356  1.00  0.00     0.016 A 
ATOM     31  C   UNL A   1      39.082  28.892  29.559  1.00  0.00     0.010 A 
ATOM     32  C   UNL A   1      38.988  29.351  27.194  1.00  0.00     0.010 A 
ATOM     33  C   UNL A   1      39.728  28.936  28.308  1.00  0.00    -0.014 A 
BRANCH  33  34
ATOM     34  C   UNL A   1      41.164  28.554  28.183  1.00  0.00     0.031 A 
ATOM     35  C   UNL A   1      42.272  29.550  28.444  1.00  0.00     0.074 A 
ATOM     36  C   UNL A   1      41.483  27.286  27.856  1.00  0.00     0.049 A 
ATOM     37  N   UNL A   1      43.551  29.438  28.190  1.00  0.00    -0.248 NA
ATOM     38  C   UNL A   1      41.899  30.839  29.050  1.00  0.00     0.031 C 
ATOM     39  C   UNL A   1      40.520  26.213  27.595  1.00  0.00     0.029 A 
ATOM     40  N   UNL A   1      42.701  26.672  27.715  1.00  0.00    -0.354 N 
ATOM     41  C   UNL A   1      44.123  30.660  28.529  1.00  0.00     0.074 A 
ATOM     42  C   UNL A   1      43.055  31.494  29.036  1.00  0.00     0.031 C 
ATOM     43  C   UNL A   1      41.178  25.059  27.432  1.00  0.00     0.029 A 
ATOM     44  C   UNL A   1      42.608  25.331  27.433  1.00  0.00     0.049 A 
ATOM     45  H   UNL A   1      43.559  27.147  27.808  1.00  0.00     0.167 HD
ATOM     46  C   UNL A   1      45.416  31.048  28.408  1.00  0.00     0.037 A 
ATOM     47  C   UNL A   1      43.556  24.420  27.145  1.00  0.00     0.037 A 
ATOM     48  C   UNL A   1      46.483  30.182  27.971  1.00  0.00     0.049 A 
ATOM     49  C   UNL A   1      44.978  24.864  27.038  1.00  0.00     0.074 A 
ATOM     50  C   UNL A   1      47.828  30.479  27.813  1.00  0.00     0.029 A 
ATOM     51  N   UNL A   1      46.335  28.840  27.651  1.00  0.00    -0.354 N 
ATOM     52  N   UNL A   1      45.479  26.059  27.235  1.00  0.00    -0.248 NA
ATOM     53  C   UNL A   1      45.955  23.852  26.621  1.00  0.00     0.031 C 
ATOM     54  C   UNL A   1      48.486  29.322  27.379  1.00  0.00     0.029 A 
ATOM     55  C   UNL A   1      47.559  28.298  27.294  1.00  0.00     0.049 A 
ATOM     56  H   UNL A   1      45.484  28.346  27.674  1.00  0.00     0.167 HD
ATOM     57  C   UNL A   1      46.828  25.954  26.928  1.00  0.00     0.074 A 
ATOM     58  C   UNL A   1      47.071  24.568  26.577  1.00  0.00     0.031 C 
ATOM     59  C   UNL A   1      47.773  26.924  26.919  1.00  0.00     0.037 A 
BRANCH  46  60
ATOM     60  C   UNL A   1      45.761  32.481  28.709  1.00  0.00     0.058 A 
ATOM     61  C   UNL A   1      45.616  33.503  27.762  1.00  0.00     0.135 A 
ATOM     62  C   UNL A   1      46.166  32.845  30.006  1.00  0.00     0.135 A 
ATOM     63  F   UNL A   1      45.245  33.210  26.504  1.00  0.00    -0.206 F 
ATOM     64  C   UNL A   1      45.864  34.836  28.084  1.00  0.00     0.059 A 
ATOM     65  C   UNL A   1      46.403  34.171  30.356  1.00  0.00     0.059 A 
ATOM     66  F   UNL A   1      46.321  31.905  30.953  1.00  0.00    -0.206 F 
ATOM     67  C   UNL A   1      46.256  35.160  29.385  1.00  0.00     0.060 A 
BRANCH  67  68
ATOM     68  S   UNL A   1      46.543  36.893  29.808  1.00  0.00     0.124 S 
ATOM     69  O   UNL A   1      46.571  36.836  31.267  1.00  0.00    -0.237 OA
ATOM     70  O   UNL A   1      47.821  37.172  29.161  1.00  0.00    -0.237 OA
ATOM     71  O   UNL A   1      45.391  37.578  29.229  1.00  0.00    -0.744 OA
ENDBRANCH  67  68
ENDBRANCH  46  60
BRANCH  47  72
ATOM     72  C   UNL A   1      43.144  23.022  26.867  1.00  0.00     0.058 A 
ATOM     73  C   UNL A   1      43.232  22.492  25.574  1.00  0.00     0.135 A 
ATOM     74  C   UNL A   1      42.771  22.160  27.911  1.00  0.00     0.135 A 
ATOM     75  F   UNL A   1      43.576  23.282  24.546  1.00  0.00    -0.206 F 
ATOM     76  C   UNL A   1      42.995  21.143  25.328  1.00  0.00     0.059 A 
ATOM     77  C   UNL A   1      42.555  20.806  27.693  1.00  0.00     0.059 A 
ATOM     78  F   UNL A   1      42.692  22.623  29.168  1.00  0.00    -0.206 F 
ATOM     79  C   UNL A   1      42.672  20.305  26.397  1.00  0.00     0.060 A 
BRANCH  79  80
ATOM     80  S   UNL A   1      42.507  18.530  26.112  1.00  0.00     0.124 S 
ATOM     81  O   UNL A   1      42.888  17.988  27.411  1.00  0.00    -0.237 OA
ATOM     82  O   UNL A   1      41.099  18.395  25.751  1.00  0.00    -0.237 OA
ATOM     83  O   UNL A   1      43.447  18.286  25.021  1.00  0.00    -0.744 OA
ENDBRANCH  79  80
ENDBRANCH  47  72
BRANCH  59  84
ATOM     84  C   UNL A   1      49.148  26.510  26.490  1.00  0.00     0.058 A 
ATOM     85  C   UNL A   1      50.047  25.942  27.405  1.00  0.00     0.135 A 
ATOM     86  C   UNL A   1      49.573  26.692  25.167  1.00  0.00     0.135 A 
ATOM     87  F   UNL A   1      49.686  25.759  28.685  1.00  0.00    -0.206 F 
ATOM     88  C   UNL A   1      51.339  25.592  27.026  1.00  0.00     0.059 A 
ATOM     89  C   UNL A   1      50.854  26.336  24.763  1.00  0.00     0.059 A 
ATOM     90  F   UNL A   1      48.744  27.229  24.258  1.00  0.00    -0.206 F 
ATOM     91  C   UNL A   1      51.735  25.803  25.704  1.00  0.00     0.060 A 
BRANCH  91  92
ATOM     92  S   UNL A   1      53.417  25.359  25.221  1.00  0.00     0.124 S 
ATOM     93  O   UNL A   1      54.206  26.109  26.193  1.00  0.00    -0.237 OA
ATOM     94  O   UNL A   1      53.423  23.909  25.383  1.00  0.00    -0.237 OA
ATOM     95  O   UNL A   1      53.506  25.829  23.842  1.00  0.00    -0.744 OA
ENDBRANCH  91  92
ENDBRANCH  59  84
ENDBRANCH  33  34
ENDBRANCH  26  28
ENDBRANCH  25  26
ENDBRANCH  24  25
ENDBRANCH   1  24
TORSDOF 20
ENDMDL
