MODEL 1
REMARK VINA RESULT:     -10.9      0.000      0.000
REMARK SMILES O=C(OCCOC(=O)c1ccc(C[NH2+][C@@H]2CCCC[C@H]2O)nc1)c1ccc(-c2c3nc(c(-c4c(F)cc(S(=O)(=O)[O-])cc4F)c4ccc([nH]4)c(-c4c(F)cc(S(=O)(=O)[O-])cc4F)c4nc(c(-c5c(F)cc(S(=O)(=O)[O-])cc5F)c5ccc2[nH]5)C=C4)C=C3)cc1
REMARK SMILES IDX 5 1 4 2 3 3 2 4 1 5 24 6 25 7 89 8 26 9 88 10 27 11 28 12
REMARK SMILES IDX 29 13 82 14 30 15 87 16 81 17 83 18 31 19 86 20 80 21 79 22
REMARK SMILES IDX 32 24 66 25 45 26 65 27 46 28 49 29 64 30 84 31 47 32 48 33
REMARK SMILES IDX 63 35 85 36 50 37 33 38 34 39 43 40 35 41 36 42 42 43 44 44
REMARK SMILES IDX 37 45 38 46 39 47 40 48 41 49 67 50 68 51 77 52 69 53 70 54
REMARK SMILES IDX 76 55 78 56 71 57 72 58 73 59 74 60 75 61 51 62 52 63 61 64
REMARK SMILES IDX 53 65 54 66 60 67 62 68 55 69 56 70 57 71 58 72 59 73 6 74
REMARK SMILES IDX 7 75 8 76 9 77 10 78 23 79 11 80 22 81 12 82 13 83 14 84
REMARK SMILES IDX 15 87 16 88 20 89 17 90 19 91 18 92 21 93
REMARK H PARENT 83 23 49 34 14 85 14 86 21 94
REMARK Flexibility Score: inf
ROOT
ATOM      1  C   UNL A   1      40.274  22.247  26.784  1.00  0.00     0.275 C 
ENDROOT
BRANCH   1   2
ATOM      2  C   UNL A   1      41.638  22.558  26.168  1.00  0.00     0.275 C 
BRANCH   2   3
ATOM      3  O   UNL A   1      42.217  23.794  26.618  1.00  0.00    -0.458 OA
BRANCH   3   4
ATOM      4  C   UNL A   1      41.832  25.065  26.355  1.00  0.00     0.338 C 
ATOM      5  O   UNL A   1      41.772  25.433  25.183  1.00  0.00    -0.246 OA
BRANCH   4   6
ATOM      6  C   UNL A   1      41.641  26.099  27.419  1.00  0.00     0.060 A 
ATOM      7  C   UNL A   1      42.469  27.202  27.653  1.00  0.00     0.016 A 
ATOM      8  C   UNL A   1      40.559  25.892  28.293  1.00  0.00     0.016 A 
ATOM      9  C   UNL A   1      42.199  28.101  28.692  1.00  0.00     0.010 A 
ATOM     10  C   UNL A   1      40.283  26.786  29.331  1.00  0.00     0.010 A 
ATOM     11  C   UNL A   1      41.112  27.894  29.543  1.00  0.00    -0.014 A 
BRANCH  11  12
ATOM     12  C   UNL A   1      40.939  28.722  30.757  1.00  0.00     0.031 A 
ATOM     13  C   UNL A   1      39.935  29.835  30.722  1.00  0.00     0.074 A 
ATOM     14  C   UNL A   1      41.662  28.492  31.868  1.00  0.00     0.049 A 
ATOM     15  N   UNL A   1      39.629  30.699  31.651  1.00  0.00    -0.248 NA
ATOM     16  C   UNL A   1      39.152  29.972  29.482  1.00  0.00     0.031 C 
ATOM     17  C   UNL A   1      42.603  27.391  32.048  1.00  0.00     0.029 A 
ATOM     18  N   UNL A   1      41.747  29.194  33.043  1.00  0.00    -0.354 N 
ATOM     19  C   UNL A   1      38.593  31.457  31.124  1.00  0.00     0.074 A 
ATOM     20  C   UNL A   1      38.369  30.999  29.771  1.00  0.00     0.031 C 
ATOM     21  C   UNL A   1      43.249  27.547  33.216  1.00  0.00     0.029 A 
ATOM     22  C   UNL A   1      42.744  28.746  33.878  1.00  0.00     0.049 A 
ATOM     23  H   UNL A   1      41.153  29.946  33.267  1.00  0.00     0.167 HD
ATOM     24  C   UNL A   1      37.866  32.426  31.730  1.00  0.00     0.037 A 
ATOM     25  C   UNL A   1      43.202  29.254  35.038  1.00  0.00     0.037 A 
ATOM     26  C   UNL A   1      38.124  32.900  33.060  1.00  0.00     0.049 A 
ATOM     27  C   UNL A   1      42.482  30.428  35.643  1.00  0.00     0.074 A 
ATOM     28  C   UNL A   1      37.458  33.877  33.776  1.00  0.00     0.029 A 
ATOM     29  N   UNL A   1      39.155  32.440  33.869  1.00  0.00    -0.354 N 
ATOM     30  N   UNL A   1      41.460  31.096  35.162  1.00  0.00    -0.248 NA
ATOM     31  C   UNL A   1      42.939  30.890  36.959  1.00  0.00     0.031 C 
ATOM     32  C   UNL A   1      38.110  34.032  35.006  1.00  0.00     0.029 A 
ATOM     33  C   UNL A   1      39.156  33.124  35.071  1.00  0.00     0.049 A 
ATOM     34  H   UNL A   1      39.791  31.730  33.623  1.00  0.00     0.167 HD
ATOM     35  C   UNL A   1      41.111  32.016  36.143  1.00  0.00     0.074 A 
ATOM     36  C   UNL A   1      42.051  31.838  37.232  1.00  0.00     0.031 C 
ATOM     37  C   UNL A   1      40.089  32.909  36.150  1.00  0.00     0.037 A 
BRANCH  24  38
ATOM     38  C   UNL A   1      36.742  33.017  30.930  1.00  0.00     0.058 A 
ATOM     39  C   UNL A   1      36.986  34.000  29.953  1.00  0.00     0.135 A 
ATOM     40  C   UNL A   1      35.411  32.658  31.182  1.00  0.00     0.135 A 
ATOM     41  F   UNL A   1      38.242  34.394  29.689  1.00  0.00    -0.206 F 
ATOM     42  C   UNL A   1      35.944  34.643  29.296  1.00  0.00     0.059 A 
ATOM     43  C   UNL A   1      34.354  33.274  30.519  1.00  0.00     0.059 A 
ATOM     44  F   UNL A   1      35.126  31.728  32.106  1.00  0.00    -0.206 F 
ATOM     45  C   UNL A   1      34.630  34.285  29.598  1.00  0.00     0.060 A 
BRANCH  45  46
ATOM     46  S   UNL A   1      33.284  35.174  28.788  1.00  0.00     0.124 S 
ATOM     47  O   UNL A   1      32.690  34.118  27.973  1.00  0.00    -0.237 OA
ATOM     48  O   UNL A   1      32.480  35.628  29.918  1.00  0.00    -0.237 OA
ATOM     49  O   UNL A   1      33.971  36.228  28.048  1.00  0.00    -0.744 OA
ENDBRANCH  45  46
ENDBRANCH  24  38
BRANCH  25  50
ATOM     50  C   UNL A   1      44.385  28.641  35.697  1.00  0.00     0.058 A 
ATOM     51  C   UNL A   1      44.247  27.619  36.645  1.00  0.00     0.135 A 
ATOM     52  C   UNL A   1      45.686  29.048  35.357  1.00  0.00     0.135 A 
ATOM     53  F   UNL A   1      43.025  27.196  37.001  1.00  0.00    -0.206 F 
ATOM     54  C   UNL A   1      45.356  27.023  37.240  1.00  0.00     0.059 A 
ATOM     55  C   UNL A   1      46.810  28.458  35.929  1.00  0.00     0.059 A 
ATOM     56  F   UNL A   1      45.874  30.005  34.435  1.00  0.00    -0.206 F 
ATOM     57  C   UNL A   1      46.634  27.447  36.872  1.00  0.00     0.060 A 
BRANCH  57  58
ATOM     58  S   UNL A   1      48.066  26.620  37.600  1.00  0.00     0.124 S 
ATOM     59  O   UNL A   1      48.223  25.470  36.717  1.00  0.00    -0.237 OA
ATOM     60  O   UNL A   1      49.093  27.652  37.499  1.00  0.00    -0.237 OA
ATOM     61  O   UNL A   1      47.622  26.319  38.958  1.00  0.00    -0.744 OA
ENDBRANCH  57  58
ENDBRANCH  25  50
BRANCH  37  62
ATOM     62  C   UNL A   1      39.884  33.714  37.399  1.00  0.00     0.058 A 
ATOM     63  C   UNL A   1      40.505  34.956  37.588  1.00  0.00     0.135 A 
ATOM     64  C   UNL A   1      38.976  33.272  38.375  1.00  0.00     0.135 A 
ATOM     65  F   UNL A   1      41.388  35.415  36.687  1.00  0.00    -0.206 F 
ATOM     66  C   UNL A   1      40.232  35.736  38.706  1.00  0.00     0.059 A 
ATOM     67  C   UNL A   1      38.673  34.045  39.489  1.00  0.00     0.059 A 
ATOM     68  F   UNL A   1      38.354  32.090  38.234  1.00  0.00    -0.206 F 
ATOM     69  C   UNL A   1      39.309  35.275  39.647  1.00  0.00     0.060 A 
BRANCH  69  70
ATOM     70  S   UNL A   1      38.905  36.328  41.058  1.00  0.00     0.124 S 
ATOM     71  O   UNL A   1      38.541  37.576  40.395  1.00  0.00    -0.237 OA
ATOM     72  O   UNL A   1      37.809  35.602  41.689  1.00  0.00    -0.237 OA
ATOM     73  O   UNL A   1      40.148  36.361  41.822  1.00  0.00    -0.744 OA
ENDBRANCH  69  70
ENDBRANCH  37  62
ENDBRANCH  11  12
ENDBRANCH   4   6
ENDBRANCH   3   4
ENDBRANCH   2   3
ENDBRANCH   1   2
BRANCH   1  74
ATOM     74  O   UNL A   1      39.242  22.076  25.802  1.00  0.00    -0.458 OA
BRANCH  74  75
ATOM     75  C   UNL A   1      38.191  22.931  25.917  1.00  0.00     0.339 C 
ATOM     76  O   UNL A   1      38.237  24.148  25.964  1.00  0.00    -0.246 OA
BRANCH  75  77
ATOM     77  C   UNL A   1      36.939  22.169  25.844  1.00  0.00     0.078 A 
ATOM     78  C   UNL A   1      36.830  20.953  25.178  1.00  0.00     0.019 A 
ATOM     79  C   UNL A   1      35.806  22.709  26.424  1.00  0.00     0.127 A 
ATOM     80  C   UNL A   1      35.574  20.354  25.072  1.00  0.00     0.031 A 
ATOM     81  N   UNL A   1      34.573  22.162  26.307  1.00  0.00    -0.254 NA
ATOM     82  C   UNL A   1      34.460  21.004  25.600  1.00  0.00     0.094 A 
BRANCH  82  83
ATOM     83  C   UNL A   1      33.064  20.451  25.321  1.00  0.00     0.318 C 
BRANCH  83  84
ATOM     84  N   UNL A   1      32.920  19.074  25.794  1.00  0.00    -0.337 N 
ATOM     85  H   UNL A   1      32.372  19.088  26.654  1.00  0.00     0.346 HD
ATOM     86  H   UNL A   1      33.864  18.712  25.928  1.00  0.00     0.346 HD
BRANCH  84  87
ATOM     87  C   UNL A   1      32.257  18.173  24.844  1.00  0.00     0.211 C 
ATOM     88  C   UNL A   1      32.252  16.765  25.473  1.00  0.00     0.068 C 
ATOM     89  C   UNL A   1      32.929  18.107  23.444  1.00  0.00     0.172 C 
ATOM     90  C   UNL A   1      33.651  16.149  25.551  1.00  0.00     0.006 C 
ATOM     91  C   UNL A   1      34.333  17.499  23.504  1.00  0.00     0.038 C 
ATOM     92  C   UNL A   1      34.343  16.131  24.189  1.00  0.00     0.003 C 
BRANCH  89  93
ATOM     93  O   UNL A   1      32.122  17.310  22.568  1.00  0.00    -0.387 OA
ATOM     94  H   UNL A   1      31.522  16.759  23.094  1.00  0.00     0.211 HD
ENDBRANCH  89  93
ENDBRANCH  84  87
ENDBRANCH  83  84
ENDBRANCH  82  83
ENDBRANCH  75  77
ENDBRANCH  74  75
ENDBRANCH   1  74
TORSDOF 18
ENDMDL
MODEL 2
REMARK VINA RESULT:     -10.7      2.251      9.004
REMARK SMILES O=C(OCCOC(=O)c1ccc(C[NH2+][C@@H]2CCCC[C@H]2O)nc1)c1ccc(-c2c3nc(c(-c4c(F)cc(S(=O)(=O)[O-])cc4F)c4ccc([nH]4)c(-c4c(F)cc(S(=O)(=O)[O-])cc4F)c4nc(c(-c5c(F)cc(S(=O)(=O)[O-])cc5F)c5ccc2[nH]5)C=C4)C=C3)cc1
REMARK SMILES IDX 5 1 4 2 3 3 2 4 1 5 24 6 25 7 89 8 26 9 88 10 27 11 28 12
REMARK SMILES IDX 29 13 82 14 30 15 87 16 81 17 83 18 31 19 86 20 80 21 79 22
REMARK SMILES IDX 32 24 66 25 45 26 65 27 46 28 49 29 64 30 84 31 47 32 48 33
REMARK SMILES IDX 63 35 85 36 50 37 33 38 34 39 43 40 35 41 36 42 42 43 44 44
REMARK SMILES IDX 37 45 38 46 39 47 40 48 41 49 67 50 68 51 77 52 69 53 70 54
REMARK SMILES IDX 76 55 78 56 71 57 72 58 73 59 74 60 75 61 51 62 52 63 61 64
REMARK SMILES IDX 53 65 54 66 60 67 62 68 55 69 56 70 57 71 58 72 59 73 6 74
REMARK SMILES IDX 7 75 8 76 9 77 10 78 23 79 11 80 22 81 12 82 13 83 14 84
REMARK SMILES IDX 15 87 16 88 20 89 17 90 19 91 18 92 21 93
REMARK H PARENT 83 23 49 34 14 85 14 86 21 94
REMARK Flexibility Score: inf
ROOT
ATOM      1  C   UNL A   1      39.968  21.630  26.791  1.00  0.00     0.275 C 
ENDROOT
BRANCH   1   2
ATOM      2  C   UNL A   1      41.320  21.947  26.151  1.00  0.00     0.275 C 
BRANCH   2   3
ATOM      3  O   UNL A   1      42.044  23.003  26.802  1.00  0.00    -0.458 OA
BRANCH   3   4
ATOM      4  C   UNL A   1      42.185  24.299  26.434  1.00  0.00     0.338 C 
ATOM      5  O   UNL A   1      42.631  24.549  25.315  1.00  0.00    -0.246 OA
BRANCH   4   6
ATOM      6  C   UNL A   1      41.990  25.443  27.377  1.00  0.00     0.060 A 
ATOM      7  C   UNL A   1      42.860  26.524  27.550  1.00  0.00     0.016 A 
ATOM      8  C   UNL A   1      40.852  25.376  28.200  1.00  0.00     0.016 A 
ATOM      9  C   UNL A   1      42.580  27.536  28.476  1.00  0.00     0.010 A 
ATOM     10  C   UNL A   1      40.567  26.383  29.126  1.00  0.00     0.010 A 
ATOM     11  C   UNL A   1      41.439  27.467  29.277  1.00  0.00    -0.014 A 
BRANCH  11  12
ATOM     12  C   UNL A   1      41.243  28.422  30.391  1.00  0.00     0.031 A 
ATOM     13  C   UNL A   1      42.031  28.218  31.650  1.00  0.00     0.074 A 
ATOM     14  C   UNL A   1      40.377  29.446  30.288  1.00  0.00     0.049 A 
ATOM     15  N   UNL A   1      42.009  28.909  32.757  1.00  0.00    -0.248 NA
ATOM     16  C   UNL A   1      42.993  27.103  31.647  1.00  0.00     0.031 C 
ATOM     17  C   UNL A   1      39.622  29.793  29.088  1.00  0.00     0.029 A 
ATOM     18  N   UNL A   1      39.960  30.364  31.217  1.00  0.00    -0.354 N 
ATOM     19  C   UNL A   1      42.980  28.338  33.569  1.00  0.00     0.074 A 
ATOM     20  C   UNL A   1      43.523  27.203  32.856  1.00  0.00     0.031 C 
ATOM     21  C   UNL A   1      38.756  30.778  29.379  1.00  0.00     0.029 A 
ATOM     22  C   UNL A   1      38.918  31.149  30.782  1.00  0.00     0.049 A 
ATOM     23  H   UNL A   1      40.366  30.452  32.109  1.00  0.00     0.167 HD
ATOM     24  C   UNL A   1      43.407  28.748  34.786  1.00  0.00     0.037 A 
ATOM     25  C   UNL A   1      38.174  32.056  31.445  1.00  0.00     0.037 A 
ATOM     26  C   UNL A   1      42.831  29.853  35.501  1.00  0.00     0.049 A 
ATOM     27  C   UNL A   1      38.560  32.408  32.856  1.00  0.00     0.074 A 
ATOM     28  C   UNL A   1      43.179  30.357  36.740  1.00  0.00     0.029 A 
ATOM     29  N   UNL A   1      41.764  30.612  35.041  1.00  0.00    -0.354 N 
ATOM     30  N   UNL A   1      39.524  31.904  33.590  1.00  0.00    -0.248 NA
ATOM     31  C   UNL A   1      37.797  33.476  33.513  1.00  0.00     0.031 C 
ATOM     32  C   UNL A   1      42.295  31.401  37.044  1.00  0.00     0.029 A 
ATOM     33  C   UNL A   1      41.425  31.571  35.978  1.00  0.00     0.049 A 
ATOM     34  H   UNL A   1      41.314  30.486  34.174  1.00  0.00     0.167 HD
ATOM     35  C   UNL A   1      39.525  32.634  34.771  1.00  0.00     0.074 A 
ATOM     36  C   UNL A   1      38.446  33.596  34.665  1.00  0.00     0.031 C 
ATOM     37  C   UNL A   1      40.361  32.534  35.835  1.00  0.00     0.037 A 
BRANCH  24  38
ATOM     38  C   UNL A   1      44.541  27.974  35.392  1.00  0.00     0.058 A 
ATOM     39  C   UNL A   1      45.878  28.331  35.146  1.00  0.00     0.135 A 
ATOM     40  C   UNL A   1      44.299  26.829  36.165  1.00  0.00     0.135 A 
ATOM     41  F   UNL A   1      46.163  29.407  34.394  1.00  0.00    -0.206 F 
ATOM     42  C   UNL A   1      46.934  27.549  35.598  1.00  0.00     0.059 A 
ATOM     43  C   UNL A   1      45.342  26.044  36.647  1.00  0.00     0.059 A 
ATOM     44  F   UNL A   1      43.040  26.443  36.425  1.00  0.00    -0.206 F 
ATOM     45  C   UNL A   1      46.655  26.397  36.334  1.00  0.00     0.060 A 
BRANCH  45  46
ATOM     46  S   UNL A   1      48.030  25.353  36.859  1.00  0.00     0.124 S 
ATOM     47  O   UNL A   1      47.455  24.680  38.020  1.00  0.00    -0.237 OA
ATOM     48  O   UNL A   1      48.254  24.513  35.688  1.00  0.00    -0.237 OA
ATOM     49  O   UNL A   1      49.092  26.312  37.150  1.00  0.00    -0.744 OA
ENDBRANCH  45  46
ENDBRANCH  24  38
BRANCH  25  50
ATOM     50  C   UNL A   1      37.014  32.694  30.772  1.00  0.00     0.058 A 
ATOM     51  C   UNL A   1      37.184  33.718  29.832  1.00  0.00     0.135 A 
ATOM     52  C   UNL A   1      35.704  32.258  31.035  1.00  0.00     0.135 A 
ATOM     53  F   UNL A   1      38.415  34.167  29.546  1.00  0.00    -0.206 F 
ATOM     54  C   UNL A   1      36.099  34.295  29.178  1.00  0.00     0.059 A 
ATOM     55  C   UNL A   1      34.604  32.810  30.385  1.00  0.00     0.059 A 
ATOM     56  F   UNL A   1      35.488  31.261  31.908  1.00  0.00    -0.206 F 
ATOM     57  C   UNL A   1      34.812  33.831  29.459  1.00  0.00     0.060 A 
BRANCH  57  58
ATOM     58  S   UNL A   1      33.417  34.540  28.555  1.00  0.00     0.124 S 
ATOM     59  O   UNL A   1      32.989  33.410  27.738  1.00  0.00    -0.237 OA
ATOM     60  O   UNL A   1      32.519  34.924  29.639  1.00  0.00    -0.237 OA
ATOM     61  O   UNL A   1      34.022  35.653  27.828  1.00  0.00    -0.744 OA
ENDBRANCH  57  58
ENDBRANCH  25  50
BRANCH  37  62
ATOM     62  C   UNL A   1      40.193  33.532  36.943  1.00  0.00     0.058 A 
ATOM     63  C   UNL A   1      40.918  34.731  36.973  1.00  0.00     0.135 A 
ATOM     64  C   UNL A   1      39.221  33.320  37.934  1.00  0.00     0.135 A 
ATOM     65  F   UNL A   1      41.864  34.973  36.052  1.00  0.00    -0.206 F 
ATOM     66  C   UNL A   1      40.684  35.690  37.952  1.00  0.00     0.059 A 
ATOM     67  C   UNL A   1      38.957  34.274  38.909  1.00  0.00     0.059 A 
ATOM     68  F   UNL A   1      38.499  32.188  37.942  1.00  0.00    -0.206 F 
ATOM     69  C   UNL A   1      39.697  35.456  38.912  1.00  0.00     0.060 A 
BRANCH  69  70
ATOM     70  S   UNL A   1      39.349  36.739  40.134  1.00  0.00     0.124 S 
ATOM     71  O   UNL A   1      38.919  37.844  39.283  1.00  0.00    -0.237 OA
ATOM     72  O   UNL A   1      38.307  36.123  40.948  1.00  0.00    -0.237 OA
ATOM     73  O   UNL A   1      40.632  36.923  40.805  1.00  0.00    -0.744 OA
ENDBRANCH  69  70
ENDBRANCH  37  62
ENDBRANCH  11  12
ENDBRANCH   4   6
ENDBRANCH   3   4
ENDBRANCH   2   3
ENDBRANCH   1   2
BRANCH   1  74
ATOM     74  O   UNL A   1      38.897  22.422  26.260  1.00  0.00    -0.458 OA
BRANCH  74  75
ATOM     75  C   UNL A   1      38.093  21.782  25.371  1.00  0.00     0.339 C 
ATOM     76  O   UNL A   1      38.142  20.606  25.052  1.00  0.00    -0.246 OA
BRANCH  75  77
ATOM     77  C   UNL A   1      37.036  22.698  24.929  1.00  0.00     0.078 A 
ATOM     78  C   UNL A   1      36.414  23.605  25.780  1.00  0.00     0.019 A 
ATOM     79  C   UNL A   1      36.606  22.622  23.616  1.00  0.00     0.127 A 
ATOM     80  C   UNL A   1      35.347  24.361  25.294  1.00  0.00     0.031 A 
ATOM     81  N   UNL A   1      35.554  23.322  23.132  1.00  0.00    -0.254 NA
ATOM     82  C   UNL A   1      34.908  24.163  23.986  1.00  0.00     0.094 A 
BRANCH  82  83
ATOM     83  C   UNL A   1      33.626  24.845  23.511  1.00  0.00     0.318 C 
BRANCH  83  84
ATOM     84  N   UNL A   1      32.926  25.511  24.608  1.00  0.00    -0.337 N 
ATOM     85  H   UNL A   1      33.532  25.495  25.429  1.00  0.00     0.346 HD
ATOM     86  H   UNL A   1      32.053  25.003  24.747  1.00  0.00     0.346 HD
BRANCH  84  87
ATOM     87  C   UNL A   1      32.559  26.906  24.336  1.00  0.00     0.211 C 
ATOM     88  C   UNL A   1      33.731  27.790  24.810  1.00  0.00     0.068 C 
ATOM     89  C   UNL A   1      31.250  27.374  25.030  1.00  0.00     0.172 C 
ATOM     90  C   UNL A   1      33.878  27.806  26.333  1.00  0.00     0.006 C 
ATOM     91  C   UNL A   1      31.377  27.389  26.556  1.00  0.00     0.038 C 
ATOM     92  C   UNL A   1      32.579  28.209  27.028  1.00  0.00     0.003 C 
BRANCH  89  93
ATOM     93  O   UNL A   1      30.924  28.695  24.585  1.00  0.00    -0.387 OA
ATOM     94  H   UNL A   1      31.108  29.330  25.295  1.00  0.00     0.211 HD
ENDBRANCH  89  93
ENDBRANCH  84  87
ENDBRANCH  83  84
ENDBRANCH  82  83
ENDBRANCH  75  77
ENDBRANCH  74  75
ENDBRANCH   1  74
TORSDOF 18
ENDMDL
MODEL 3
REMARK VINA RESULT:     -10.7      1.317      8.560
REMARK SMILES O=C(OCCOC(=O)c1ccc(C[NH2+][C@@H]2CCCC[C@H]2O)nc1)c1ccc(-c2c3nc(c(-c4c(F)cc(S(=O)(=O)[O-])cc4F)c4ccc([nH]4)c(-c4c(F)cc(S(=O)(=O)[O-])cc4F)c4nc(c(-c5c(F)cc(S(=O)(=O)[O-])cc5F)c5ccc2[nH]5)C=C4)C=C3)cc1
REMARK SMILES IDX 5 1 4 2 3 3 2 4 1 5 24 6 25 7 89 8 26 9 88 10 27 11 28 12
REMARK SMILES IDX 29 13 82 14 30 15 87 16 81 17 83 18 31 19 86 20 80 21 79 22
REMARK SMILES IDX 32 24 66 25 45 26 65 27 46 28 49 29 64 30 84 31 47 32 48 33
REMARK SMILES IDX 63 35 85 36 50 37 33 38 34 39 43 40 35 41 36 42 42 43 44 44
REMARK SMILES IDX 37 45 38 46 39 47 40 48 41 49 67 50 68 51 77 52 69 53 70 54
REMARK SMILES IDX 76 55 78 56 71 57 72 58 73 59 74 60 75 61 51 62 52 63 61 64
REMARK SMILES IDX 53 65 54 66 60 67 62 68 55 69 56 70 57 71 58 72 59 73 6 74
REMARK SMILES IDX 7 75 8 76 9 77 10 78 23 79 11 80 22 81 12 82 13 83 14 84
REMARK SMILES IDX 15 87 16 88 20 89 17 90 19 91 18 92 21 93
REMARK H PARENT 83 23 49 34 14 85 14 86 21 94
REMARK Flexibility Score: inf
ROOT
ATOM      1  C   UNL A   1      42.471  21.939  26.902  1.00  0.00     0.275 C 
ENDROOT
BRANCH   1   2
ATOM      2  C   UNL A   1      42.661  22.845  25.686  1.00  0.00     0.275 C 
BRANCH   2   3
ATOM      3  O   UNL A   1      42.917  24.220  26.012  1.00  0.00    -0.458 OA
BRANCH   3   4
ATOM      4  C   UNL A   1      42.050  25.259  26.078  1.00  0.00     0.338 C 
ATOM      5  O   UNL A   1      41.542  25.671  25.036  1.00  0.00    -0.246 OA
BRANCH   4   6
ATOM      6  C   UNL A   1      41.810  26.046  27.328  1.00  0.00     0.060 A 
ATOM      7  C   UNL A   1      40.705  25.926  28.176  1.00  0.00     0.016 A 
ATOM      8  C   UNL A   1      42.765  27.035  27.626  1.00  0.00     0.016 A 
ATOM      9  C   UNL A   1      40.580  26.730  29.317  1.00  0.00     0.010 A 
ATOM     10  C   UNL A   1      42.646  27.839  28.763  1.00  0.00     0.010 A 
ATOM     11  C   UNL A   1      41.542  27.697  29.611  1.00  0.00    -0.014 A 
BRANCH  11  12
ATOM     12  C   UNL A   1      41.315  28.678  30.696  1.00  0.00     0.031 A 
ATOM     13  C   UNL A   1      42.082  28.516  31.974  1.00  0.00     0.074 A 
ATOM     14  C   UNL A   1      40.442  29.691  30.549  1.00  0.00     0.049 A 
ATOM     15  N   UNL A   1      42.032  29.235  33.062  1.00  0.00    -0.248 NA
ATOM     16  C   UNL A   1      43.054  27.411  32.019  1.00  0.00     0.031 C 
ATOM     17  C   UNL A   1      39.706  29.998  29.327  1.00  0.00     0.029 A 
ATOM     18  N   UNL A   1      39.997  30.628  31.446  1.00  0.00    -0.354 N 
ATOM     19  C   UNL A   1      42.992  28.696  33.907  1.00  0.00     0.074 A 
ATOM     20  C   UNL A   1      43.560  27.547  33.234  1.00  0.00     0.031 C 
ATOM     21  C   UNL A   1      38.825  30.981  29.576  1.00  0.00     0.029 A 
ATOM     22  C   UNL A   1      38.956  31.391  30.971  1.00  0.00     0.049 A 
ATOM     23  H   UNL A   1      40.386  30.743  32.343  1.00  0.00     0.167 HD
ATOM     24  C   UNL A   1      43.393  29.141  35.120  1.00  0.00     0.037 A 
ATOM     25  C   UNL A   1      38.192  32.306  31.597  1.00  0.00     0.037 A 
ATOM     26  C   UNL A   1      42.792  30.258  35.795  1.00  0.00     0.049 A 
ATOM     27  C   UNL A   1      38.547  32.700  33.004  1.00  0.00     0.074 A 
ATOM     28  C   UNL A   1      43.111  30.798  37.027  1.00  0.00     0.029 A 
ATOM     29  N   UNL A   1      41.726  30.994  35.296  1.00  0.00    -0.354 N 
ATOM     30  N   UNL A   1      39.502  32.225  33.769  1.00  0.00    -0.248 NA
ATOM     31  C   UNL A   1      37.761  33.776  33.619  1.00  0.00     0.031 C 
ATOM     32  C   UNL A   1      42.212  31.840  37.287  1.00  0.00     0.029 A 
ATOM     33  C   UNL A   1      41.361  31.974  36.200  1.00  0.00     0.049 A 
ATOM     34  H   UNL A   1      41.294  30.841  34.424  1.00  0.00     0.167 HD
ATOM     35  C   UNL A   1      39.473  32.985  34.931  1.00  0.00     0.074 A 
ATOM     36  C   UNL A   1      38.386  33.933  34.780  1.00  0.00     0.031 C 
ATOM     37  C   UNL A   1      40.289  32.922  36.013  1.00  0.00     0.037 A 
BRANCH  24  38
ATOM     38  C   UNL A   1      44.522  28.395  35.768  1.00  0.00     0.058 A 
ATOM     39  C   UNL A   1      45.861  28.700  35.467  1.00  0.00     0.135 A 
ATOM     40  C   UNL A   1      44.272  27.324  36.638  1.00  0.00     0.135 A 
ATOM     41  F   UNL A   1      46.152  29.703  34.622  1.00  0.00    -0.206 F 
ATOM     42  C   UNL A   1      46.909  27.935  35.963  1.00  0.00     0.059 A 
ATOM     43  C   UNL A   1      45.308  26.559  37.164  1.00  0.00     0.059 A 
ATOM     44  F   UNL A   1      43.012  26.990  36.954  1.00  0.00    -0.206 F 
ATOM     45  C   UNL A   1      46.622  26.855  36.799  1.00  0.00     0.060 A 
BRANCH  45  46
ATOM     46  S   UNL A   1      47.986  25.828  37.383  1.00  0.00     0.124 S 
ATOM     47  O   UNL A   1      49.129  26.476  36.746  1.00  0.00    -0.237 OA
ATOM     48  O   UNL A   1      47.899  25.982  38.832  1.00  0.00    -0.237 OA
ATOM     49  O   UNL A   1      47.652  24.500  36.877  1.00  0.00    -0.744 OA
ENDBRANCH  45  46
ENDBRANCH  24  38
BRANCH  25  50
ATOM     50  C   UNL A   1      37.038  32.915  30.885  1.00  0.00     0.058 A 
ATOM     51  C   UNL A   1      37.212  33.945  29.953  1.00  0.00     0.135 A 
ATOM     52  C   UNL A   1      35.732  32.443  31.103  1.00  0.00     0.135 A 
ATOM     53  F   UNL A   1      38.440  34.427  29.709  1.00  0.00    -0.206 F 
ATOM     54  C   UNL A   1      36.134  34.495  29.263  1.00  0.00     0.059 A 
ATOM     55  C   UNL A   1      34.641  32.967  30.417  1.00  0.00     0.059 A 
ATOM     56  F   UNL A   1      35.513  31.439  31.967  1.00  0.00    -0.206 F 
ATOM     57  C   UNL A   1      34.852  33.995  29.500  1.00  0.00     0.060 A 
BRANCH  57  58
ATOM     58  S   UNL A   1      33.470  34.669  28.550  1.00  0.00     0.124 S 
ATOM     59  O   UNL A   1      32.504  34.963  29.602  1.00  0.00    -0.237 OA
ATOM     60  O   UNL A   1      34.085  35.824  27.903  1.00  0.00    -0.237 OA
ATOM     61  O   UNL A   1      33.116  33.573  27.653  1.00  0.00    -0.744 OA
ENDBRANCH  57  58
ENDBRANCH  25  50
BRANCH  37  62
ATOM     62  C   UNL A   1      40.091  33.947  37.090  1.00  0.00     0.058 A 
ATOM     63  C   UNL A   1      40.594  35.249  36.973  1.00  0.00     0.135 A 
ATOM     64  C   UNL A   1      39.303  33.639  38.212  1.00  0.00     0.135 A 
ATOM     65  F   UNL A   1      41.361  35.586  35.924  1.00  0.00    -0.206 F 
ATOM     66  C   UNL A   1      40.322  36.216  37.934  1.00  0.00     0.059 A 
ATOM     67  C   UNL A   1      39.001  34.596  39.173  1.00  0.00     0.059 A 
ATOM     68  F   UNL A   1      38.795  32.405  38.363  1.00  0.00    -0.206 F 
ATOM     69  C   UNL A   1      39.518  35.882  39.027  1.00  0.00     0.060 A 
BRANCH  69  70
ATOM     70  S   UNL A   1      39.109  37.164  40.230  1.00  0.00     0.124 S 
ATOM     71  O   UNL A   1      40.413  37.431  40.828  1.00  0.00    -0.237 OA
ATOM     72  O   UNL A   1      38.569  38.225  39.387  1.00  0.00    -0.237 OA
ATOM     73  O   UNL A   1      38.138  36.511  41.103  1.00  0.00    -0.744 OA
ENDBRANCH  69  70
ENDBRANCH  37  62
ENDBRANCH  11  12
ENDBRANCH   4   6
ENDBRANCH   3   4
ENDBRANCH   2   3
ENDBRANCH   1   2
BRANCH   1  74
ATOM     74  O   UNL A   1      41.099  21.826  27.307  1.00  0.00    -0.458 OA
BRANCH  74  75
ATOM     75  C   UNL A   1      40.321  21.059  26.499  1.00  0.00     0.339 C 
ATOM     76  O   UNL A   1      40.477  19.879  26.234  1.00  0.00    -0.246 OA
BRANCH  75  77
ATOM     77  C   UNL A   1      39.151  21.836  26.075  1.00  0.00     0.078 A 
ATOM     78  C   UNL A   1      38.924  23.147  26.484  1.00  0.00     0.019 A 
ATOM     79  C   UNL A   1      38.208  21.221  25.271  1.00  0.00     0.127 A 
ATOM     80  C   UNL A   1      37.731  23.769  26.114  1.00  0.00     0.031 A 
ATOM     81  N   UNL A   1      37.031  21.794  24.928  1.00  0.00    -0.254 NA
ATOM     82  C   UNL A   1      36.785  23.054  25.382  1.00  0.00     0.094 A 
BRANCH  82  83
ATOM     83  C   UNL A   1      35.405  23.662  25.140  1.00  0.00     0.318 C 
BRANCH  83  84
ATOM     84  N   UNL A   1      34.493  22.707  24.510  1.00  0.00    -0.337 N 
ATOM     85  H   UNL A   1      35.048  21.942  24.126  1.00  0.00     0.346 HD
ATOM     86  H   UNL A   1      33.979  23.223  23.797  1.00  0.00     0.346 HD
BRANCH  84  87
ATOM     87  C   UNL A   1      33.491  22.135  25.417  1.00  0.00     0.211 C 
ATOM     88  C   UNL A   1      34.059  20.805  25.950  1.00  0.00     0.068 C 
ATOM     89  C   UNL A   1      32.105  21.877  24.763  1.00  0.00     0.172 C 
ATOM     90  C   UNL A   1      34.141  19.725  24.869  1.00  0.00     0.006 C 
ATOM     91  C   UNL A   1      32.170  20.803  23.674  1.00  0.00     0.038 C 
ATOM     92  C   UNL A   1      32.797  19.502  24.180  1.00  0.00     0.003 C 
BRANCH  89  93
ATOM     93  O   UNL A   1      31.178  21.452  25.769  1.00  0.00    -0.387 OA
ATOM     94  H   UNL A   1      31.189  22.084  26.506  1.00  0.00     0.211 HD
ENDBRANCH  89  93
ENDBRANCH  84  87
ENDBRANCH  83  84
ENDBRANCH  82  83
ENDBRANCH  75  77
ENDBRANCH  74  75
ENDBRANCH   1  74
TORSDOF 18
ENDMDL
