MODEL 1
REMARK VINA RESULT:     -10.5      0.000      0.000
REMARK SMILES COc1cc2nc(SCC(=O)OCCOC(=O)c3ccc(-c4c5nc(c(-c6c(F)cc(S(=O)(=O)[O-])cc6F)c6ccc([nH]6)c(-c6c(F)cc(S(=O)(=O)[O-])cc6F)c6nc(c(-c7c(F)cc(S(=O)(=O)[O-])cc7F)c7ccc4[nH]7)C=C6)C=C5)cc3)nc(O)c2cc1OC
REMARK SMILES IDX 13 1 12 2 10 3 11 4 9 5 8 6 7 7 3 8 4 9 89 10 5 11 88 12
REMARK SMILES IDX 6 13 87 14 85 15 84 16 2 17 1 18 90 19 91 20 86 21 14 23
REMARK SMILES IDX 15 24 16 25 17 26 18 27 19 28 83 29 20 30 82 31 21 32 22 33
REMARK SMILES IDX 23 34 76 35 24 36 81 37 75 38 77 39 25 40 80 41 74 42 73 43
REMARK SMILES IDX 26 45 60 46 39 47 59 48 40 49 43 50 58 51 78 52 41 53 42 54
REMARK SMILES IDX 57 56 79 57 44 58 27 59 28 60 37 61 29 62 30 63 36 64 38 65
REMARK SMILES IDX 31 66 32 67 33 68 34 69 35 70 61 71 62 72 71 73 63 74 64 75
REMARK SMILES IDX 70 76 72 77 65 78 66 79 67 80 68 81 69 82 45 83 46 84 55 85
REMARK SMILES IDX 47 86 48 87 54 88 56 89 49 90 50 91 51 92 52 93 53 94
REMARK H PARENT 86 22 77 44 43 55
REMARK Flexibility Score: inf
ROOT
ATOM      1  C   UNL A   1      42.866  21.971  26.373  1.00  0.00     0.274 C 
ENDROOT
BRANCH   1   2
ATOM      2  O   UNL A   1      41.748  21.316  25.735  1.00  0.00    -0.461 OA
BRANCH   2   3
ATOM      3  C   UNL A   1      40.685  21.049  26.535  1.00  0.00     0.316 C 
ATOM      4  O   UNL A   1      40.784  20.613  27.680  1.00  0.00    -0.251 OA
BRANCH   3   5
ATOM      5  C   UNL A   1      39.324  21.283  25.919  1.00  0.00     0.200 C 
BRANCH   5   6
ATOM      6  S   UNL A   1      38.617  22.933  26.115  1.00  0.00    -0.074 SA
BRANCH   6   7
ATOM      7  C   UNL A   1      36.879  22.631  25.892  1.00  0.00     0.192 A 
ATOM      8  C   UNL A   1      32.605  24.643  25.681  1.00  0.00     0.162 A 
ATOM      9  C   UNL A   1      34.000  24.739  25.718  1.00  0.00     0.079 A 
ATOM     10  C   UNL A   1      31.972  23.396  25.682  1.00  0.00     0.161 A 
ATOM     11  C   UNL A   1      34.801  23.610  25.763  1.00  0.00     0.083 A 
ATOM     12  C   UNL A   1      32.771  22.255  25.641  1.00  0.00     0.066 A 
ATOM     13  N   UNL A   1      36.128  23.746  25.875  1.00  0.00    -0.222 NA
ATOM     14  C   UNL A   1      34.184  22.367  25.673  1.00  0.00     0.066 A 
ATOM     15  C   UNL A   1      35.078  21.308  25.602  1.00  0.00     0.223 A 
ATOM     16  N   UNL A   1      36.416  21.387  25.706  1.00  0.00    -0.187 NA
BRANCH   8  17
ATOM     17  O   UNL A   1      31.922  25.828  25.574  1.00  0.00    -0.493 OA
ATOM     18  C   UNL A   1      32.240  26.506  24.361  1.00  0.00     0.278 C 
ENDBRANCH   8  17
BRANCH  10  19
ATOM     19  O   UNL A   1      30.605  23.376  25.678  1.00  0.00    -0.493 OA
ATOM     20  C   UNL A   1      29.985  22.966  26.895  1.00  0.00     0.278 C 
ENDBRANCH  10  19
BRANCH  15  21
ATOM     21  O   UNL A   1      34.607  20.053  25.349  1.00  0.00    -0.493 OA
ATOM     22  H   UNL A   1      34.293  19.833  24.495  1.00  0.00     0.295 HD
ENDBRANCH  15  21
ENDBRANCH   6   7
ENDBRANCH   5   6
ENDBRANCH   3   5
ENDBRANCH   2   3
ENDBRANCH   1   2
BRANCH   1  23
ATOM     23  C   UNL A   1      42.976  23.431  25.944  1.00  0.00     0.275 C 
BRANCH  23  24
ATOM     24  O   UNL A   1      41.966  24.216  26.598  1.00  0.00    -0.458 OA
BRANCH  24  25
ATOM     25  C   UNL A   1      41.825  25.475  26.137  1.00  0.00     0.338 C 
ATOM     26  O   UNL A   1      41.985  25.869  24.988  1.00  0.00    -0.246 OA
BRANCH  25  27
ATOM     27  C   UNL A   1      41.464  26.365  27.246  1.00  0.00     0.060 A 
ATOM     28  C   UNL A   1      40.463  25.964  28.131  1.00  0.00     0.016 A 
ATOM     29  C   UNL A   1      42.196  27.533  27.484  1.00  0.00     0.016 A 
ATOM     30  C   UNL A   1      40.186  26.748  29.251  1.00  0.00     0.010 A 
ATOM     31  C   UNL A   1      41.958  28.281  28.637  1.00  0.00     0.010 A 
ATOM     32  C   UNL A   1      40.941  27.903  29.522  1.00  0.00    -0.014 A 
BRANCH  32  33
ATOM     33  C   UNL A   1      40.637  28.719  30.723  1.00  0.00     0.031 A 
ATOM     34  C   UNL A   1      41.469  28.562  31.964  1.00  0.00     0.074 A 
ATOM     35  C   UNL A   1      39.641  29.624  30.683  1.00  0.00     0.049 A 
ATOM     36  N   UNL A   1      41.464  29.286  33.054  1.00  0.00    -0.248 NA
ATOM     37  C   UNL A   1      42.428  27.445  31.989  1.00  0.00     0.031 C 
ATOM     38  C   UNL A   1      38.733  29.836  29.553  1.00  0.00     0.029 A 
ATOM     39  N   UNL A   1      39.236  30.549  31.613  1.00  0.00    -0.354 N 
ATOM     40  C   UNL A   1      42.444  28.741  33.873  1.00  0.00     0.074 A 
ATOM     41  C   UNL A   1      42.967  27.576  33.193  1.00  0.00     0.031 C 
ATOM     42  C   UNL A   1      37.906  30.856  29.840  1.00  0.00     0.029 A 
ATOM     43  C   UNL A   1      38.222  31.367  31.173  1.00  0.00     0.049 A 
ATOM     44  H   UNL A   1      39.636  30.622  32.510  1.00  0.00     0.167 HD
ATOM     45  C   UNL A   1      42.901  29.194  35.063  1.00  0.00     0.037 A 
ATOM     46  C   UNL A   1      37.637  32.426  31.765  1.00  0.00     0.037 A 
ATOM     47  C   UNL A   1      42.374  30.345  35.745  1.00  0.00     0.049 A 
ATOM     48  C   UNL A   1      38.126  32.881  33.114  1.00  0.00     0.074 A 
ATOM     49  C   UNL A   1      42.779  30.895  36.947  1.00  0.00     0.029 A 
ATOM     50  N   UNL A   1      41.320  31.120  35.285  1.00  0.00    -0.354 N 
ATOM     51  N   UNL A   1      39.108  32.401  33.839  1.00  0.00    -0.248 NA
ATOM     52  C   UNL A   1      37.436  34.029  33.719  1.00  0.00     0.031 C 
ATOM     53  C   UNL A   1      41.951  31.988  37.228  1.00  0.00     0.029 A 
ATOM     54  C   UNL A   1      41.052  32.136  36.185  1.00  0.00     0.049 A 
ATOM     55  H   UNL A   1      40.835  30.970  34.441  1.00  0.00     0.167 HD
ATOM     56  C   UNL A   1      39.173  33.206  34.971  1.00  0.00     0.074 A 
ATOM     57  C   UNL A   1      38.134  34.207  34.833  1.00  0.00     0.031 C 
ATOM     58  C   UNL A   1      40.019  33.128  36.027  1.00  0.00     0.037 A 
BRANCH  45  59
ATOM     59  C   UNL A   1      44.058  28.464  35.679  1.00  0.00     0.058 A 
ATOM     60  C   UNL A   1      43.843  27.406  36.577  1.00  0.00     0.135 A 
ATOM     61  C   UNL A   1      45.382  28.790  35.352  1.00  0.00     0.135 A 
ATOM     62  F   UNL A   1      42.594  27.067  36.936  1.00  0.00    -0.206 F 
ATOM     63  C   UNL A   1      44.902  26.709  37.146  1.00  0.00     0.059 A 
ATOM     64  C   UNL A   1      46.458  28.092  35.894  1.00  0.00     0.059 A 
ATOM     65  F   UNL A   1      45.640  29.796  34.502  1.00  0.00    -0.206 F 
ATOM     66  C   UNL A   1      46.207  27.061  36.799  1.00  0.00     0.060 A 
BRANCH  66  67
ATOM     67  S   UNL A   1      47.569  26.139  37.542  1.00  0.00     0.124 S 
ATOM     68  O   UNL A   1      48.717  26.954  37.156  1.00  0.00    -0.237 OA
ATOM     69  O   UNL A   1      47.225  26.162  38.960  1.00  0.00    -0.237 OA
ATOM     70  O   UNL A   1      47.484  24.831  36.900  1.00  0.00    -0.744 OA
ENDBRANCH  66  67
ENDBRANCH  45  59
BRANCH  46  71
ATOM     71  C   UNL A   1      36.564  33.177  31.061  1.00  0.00     0.058 A 
ATOM     72  C   UNL A   1      36.883  34.142  30.095  1.00  0.00     0.135 A 
ATOM     73  C   UNL A   1      35.210  32.952  31.344  1.00  0.00     0.135 A 
ATOM     74  F   UNL A   1      38.167  34.394  29.796  1.00  0.00    -0.206 F 
ATOM     75  C   UNL A   1      35.897  34.874  29.444  1.00  0.00     0.059 A 
ATOM     76  C   UNL A   1      34.202  33.659  30.693  1.00  0.00     0.059 A 
ATOM     77  F   UNL A   1      34.855  32.031  32.251  1.00  0.00    -0.206 F 
ATOM     78  C   UNL A   1      34.557  34.627  29.752  1.00  0.00     0.060 A 
BRANCH  78  79
ATOM     79  S   UNL A   1      33.284  35.563  28.878  1.00  0.00     0.124 S 
ATOM     80  O   UNL A   1      32.610  36.240  29.980  1.00  0.00    -0.237 OA
ATOM     81  O   UNL A   1      34.079  36.413  27.997  1.00  0.00    -0.237 OA
ATOM     82  O   UNL A   1      32.509  34.526  28.204  1.00  0.00    -0.744 OA
ENDBRANCH  78  79
ENDBRANCH  46  71
BRANCH  58  83
ATOM     83  C   UNL A   1      39.877  34.157  37.110  1.00  0.00     0.058 A 
ATOM     84  C   UNL A   1      40.450  35.431  36.988  1.00  0.00     0.135 A 
ATOM     85  C   UNL A   1      39.090  33.894  38.244  1.00  0.00     0.135 A 
ATOM     86  F   UNL A   1      41.215  35.728  35.925  1.00  0.00    -0.206 F 
ATOM     87  C   UNL A   1      40.255  36.410  37.957  1.00  0.00     0.059 A 
ATOM     88  C   UNL A   1      38.866  34.863  39.215  1.00  0.00     0.059 A 
ATOM     89  F   UNL A   1      38.513  32.691  38.402  1.00  0.00    -0.206 F 
ATOM     90  C   UNL A   1      39.457  36.117  39.066  1.00  0.00     0.060 A 
BRANCH  90  91
ATOM     91  S   UNL A   1      39.164  37.415  40.285  1.00  0.00     0.124 S 
ATOM     92  O   UNL A   1      38.302  38.328  39.541  1.00  0.00    -0.237 OA
ATOM     93  O   UNL A   1      38.522  36.684  41.374  1.00  0.00    -0.237 OA
ATOM     94  O   UNL A   1      40.504  37.914  40.579  1.00  0.00    -0.744 OA
ENDBRANCH  90  91
ENDBRANCH  58  83
ENDBRANCH  32  33
ENDBRANCH  25  27
ENDBRANCH  24  25
ENDBRANCH  23  24
ENDBRANCH   1  23
TORSDOF 19
ENDMDL
MODEL 2
REMARK VINA RESULT:     -10.4      5.273     10.318
REMARK SMILES COc1cc2nc(SCC(=O)OCCOC(=O)c3ccc(-c4c5nc(c(-c6c(F)cc(S(=O)(=O)[O-])cc6F)c6ccc([nH]6)c(-c6c(F)cc(S(=O)(=O)[O-])cc6F)c6nc(c(-c7c(F)cc(S(=O)(=O)[O-])cc7F)c7ccc4[nH]7)C=C6)C=C5)cc3)nc(O)c2cc1OC
REMARK SMILES IDX 13 1 12 2 10 3 11 4 9 5 8 6 7 7 3 8 4 9 89 10 5 11 88 12
REMARK SMILES IDX 6 13 87 14 85 15 84 16 2 17 1 18 90 19 91 20 86 21 14 23
REMARK SMILES IDX 15 24 16 25 17 26 18 27 19 28 83 29 20 30 82 31 21 32 22 33
REMARK SMILES IDX 23 34 76 35 24 36 81 37 75 38 77 39 25 40 80 41 74 42 73 43
REMARK SMILES IDX 26 45 60 46 39 47 59 48 40 49 43 50 58 51 78 52 41 53 42 54
REMARK SMILES IDX 57 56 79 57 44 58 27 59 28 60 37 61 29 62 30 63 36 64 38 65
REMARK SMILES IDX 31 66 32 67 33 68 34 69 35 70 61 71 62 72 71 73 63 74 64 75
REMARK SMILES IDX 70 76 72 77 65 78 66 79 67 80 68 81 69 82 45 83 46 84 55 85
REMARK SMILES IDX 47 86 48 87 54 88 56 89 49 90 50 91 51 92 52 93 53 94
REMARK H PARENT 86 22 77 44 43 55
REMARK Flexibility Score: inf
ROOT
ATOM      1  C   UNL A   1      31.860  28.994  26.175  1.00  0.00     0.274 C 
ENDROOT
BRANCH   1   2
ATOM      2  O   UNL A   1      31.346  28.310  25.012  1.00  0.00    -0.461 OA
BRANCH   2   3
ATOM      3  C   UNL A   1      30.969  29.105  23.978  1.00  0.00     0.316 C 
ATOM      4  O   UNL A   1      30.103  29.974  24.066  1.00  0.00    -0.251 OA
BRANCH   3   5
ATOM      5  C   UNL A   1      31.657  28.839  22.658  1.00  0.00     0.200 C 
BRANCH   5   6
ATOM      6  S   UNL A   1      33.409  28.408  22.729  1.00  0.00    -0.074 SA
BRANCH   6   7
ATOM      7  C   UNL A   1      33.366  26.631  22.703  1.00  0.00     0.192 A 
ATOM      8  C   UNL A   1      33.369  22.727  25.370  1.00  0.00     0.162 A 
ATOM      9  C   UNL A   1      33.275  24.116  25.238  1.00  0.00     0.079 A 
ATOM     10  C   UNL A   1      33.528  21.909  24.246  1.00  0.00     0.161 A 
ATOM     11  C   UNL A   1      33.341  24.730  23.998  1.00  0.00     0.083 A 
ATOM     12  C   UNL A   1      33.509  22.510  22.989  1.00  0.00     0.066 A 
ATOM     13  N   UNL A   1      33.325  26.066  23.922  1.00  0.00    -0.222 NA
ATOM     14  C   UNL A   1      33.407  23.920  22.870  1.00  0.00     0.066 A 
ATOM     15  C   UNL A   1      33.344  24.625  21.677  1.00  0.00     0.223 A 
ATOM     16  N   UNL A   1      33.323  25.963  21.542  1.00  0.00    -0.187 NA
BRANCH   8  17
ATOM     17  O   UNL A   1      33.226  22.230  26.641  1.00  0.00    -0.493 OA
ATOM     18  C   UNL A   1      34.401  22.443  27.419  1.00  0.00     0.278 C 
ENDBRANCH   8  17
BRANCH  10  19
ATOM     19  O   UNL A   1      33.645  20.562  24.451  1.00  0.00    -0.493 OA
ATOM     20  C   UNL A   1      32.492  19.783  24.142  1.00  0.00     0.278 C 
ENDBRANCH  10  19
BRANCH  15  21
ATOM     21  O   UNL A   1      33.237  23.940  20.502  1.00  0.00    -0.493 OA
ATOM     22  H   UNL A   1      32.646  24.236  19.838  1.00  0.00     0.295 HD
ENDBRANCH  15  21
ENDBRANCH   6   7
ENDBRANCH   5   6
ENDBRANCH   3   5
ENDBRANCH   2   3
ENDBRANCH   1   2
BRANCH   1  23
ATOM     23  C   UNL A   1      33.363  28.780  26.329  1.00  0.00     0.275 C 
BRANCH  23  24
ATOM     24  O   UNL A   1      33.747  28.943  27.704  1.00  0.00    -0.458 OA
BRANCH  24  25
ATOM     25  C   UNL A   1      34.450  30.060  27.979  1.00  0.00     0.338 C 
ATOM     26  O   UNL A   1      34.038  31.214  27.997  1.00  0.00    -0.246 OA
BRANCH  25  27
ATOM     27  C   UNL A   1      35.850  29.704  28.239  1.00  0.00     0.060 A 
ATOM     28  C   UNL A   1      36.786  29.868  27.219  1.00  0.00     0.016 A 
ATOM     29  C   UNL A   1      36.258  29.329  29.524  1.00  0.00     0.016 A 
ATOM     30  C   UNL A   1      38.136  29.639  27.485  1.00  0.00     0.010 A 
ATOM     31  C   UNL A   1      37.614  29.161  29.803  1.00  0.00     0.010 A 
ATOM     32  C   UNL A   1      38.563  29.299  28.781  1.00  0.00    -0.014 A 
BRANCH  32  33
ATOM     33  C   UNL A   1      40.003  29.069  29.048  1.00  0.00     0.031 A 
ATOM     34  C   UNL A   1      40.613  27.726  28.758  1.00  0.00     0.074 A 
ATOM     35  C   UNL A   1      40.768  30.075  29.513  1.00  0.00     0.049 A 
ATOM     36  N   UNL A   1      41.873  27.375  28.774  1.00  0.00    -0.248 NA
ATOM     37  C   UNL A   1      39.688  26.634  28.410  1.00  0.00     0.031 C 
ATOM     38  C   UNL A   1      40.283  31.409  29.877  1.00  0.00     0.029 A 
ATOM     39  N   UNL A   1      42.120  30.139  29.741  1.00  0.00    -0.354 N 
ATOM     40  C   UNL A   1      41.896  26.038  28.397  1.00  0.00     0.074 A 
ATOM     41  C   UNL A   1      40.521  25.617  28.241  1.00  0.00     0.031 C 
ATOM     42  C   UNL A   1      41.329  32.170  30.243  1.00  0.00     0.029 A 
ATOM     43  C   UNL A   1      42.554  31.380  30.143  1.00  0.00     0.049 A 
ATOM     44  H   UNL A   1      42.723  29.368  29.627  1.00  0.00     0.167 HD
ATOM     45  C   UNL A   1      42.965  25.245  28.159  1.00  0.00     0.037 A 
ATOM     46  C   UNL A   1      43.801  31.835  30.372  1.00  0.00     0.037 A 
ATOM     47  C   UNL A   1      44.332  25.659  28.327  1.00  0.00     0.049 A 
ATOM     48  C   UNL A   1      44.975  30.918  30.151  1.00  0.00     0.074 A 
ATOM     49  C   UNL A   1      45.487  24.934  28.095  1.00  0.00     0.029 A 
ATOM     50  N   UNL A   1      44.727  26.911  28.774  1.00  0.00    -0.354 N 
ATOM     51  N   UNL A   1      44.982  29.679  29.719  1.00  0.00    -0.248 NA
ATOM     52  C   UNL A   1      46.309  31.464  30.438  1.00  0.00     0.031 C 
ATOM     53  C   UNL A   1      46.582  25.740  28.429  1.00  0.00     0.029 A 
ATOM     54  C   UNL A   1      46.108  26.975  28.839  1.00  0.00     0.049 A 
ATOM     55  H   UNL A   1      44.115  27.645  29.009  1.00  0.00     0.167 HD
ATOM     56  C   UNL A   1      46.320  29.309  29.653  1.00  0.00     0.074 A 
ATOM     57  C   UNL A   1      47.095  30.454  30.086  1.00  0.00     0.031 C 
ATOM     58  C   UNL A   1      46.861  28.128  29.264  1.00  0.00     0.037 A 
BRANCH  45  59
ATOM     59  C   UNL A   1      42.694  23.860  27.650  1.00  0.00     0.058 A 
ATOM     60  C   UNL A   1      42.553  22.782  28.539  1.00  0.00     0.135 A 
ATOM     61  C   UNL A   1      42.539  23.606  26.279  1.00  0.00     0.135 A 
ATOM     62  F   UNL A   1      42.709  22.971  29.860  1.00  0.00    -0.206 F 
ATOM     63  C   UNL A   1      42.287  21.496  28.086  1.00  0.00     0.059 A 
ATOM     64  C   UNL A   1      42.253  22.328  25.804  1.00  0.00     0.059 A 
ATOM     65  F   UNL A   1      42.670  24.601  25.388  1.00  0.00    -0.206 F 
ATOM     66  C   UNL A   1      42.140  21.279  26.715  1.00  0.00     0.060 A 
BRANCH  66  67
ATOM     67  S   UNL A   1      41.786  19.602  26.147  1.00  0.00     0.124 S 
ATOM     68  O   UNL A   1      40.364  19.696  25.832  1.00  0.00    -0.237 OA
ATOM     69  O   UNL A   1      42.680  19.466  25.000  1.00  0.00    -0.237 OA
ATOM     70  O   UNL A   1      42.121  18.774  27.301  1.00  0.00    -0.744 OA
ENDBRANCH  66  67
ENDBRANCH  45  59
BRANCH  46  71
ATOM     71  C   UNL A   1      44.018  33.249  30.775  1.00  0.00     0.058 A 
ATOM     72  C   UNL A   1      44.054  33.610  32.129  1.00  0.00     0.135 A 
ATOM     73  C   UNL A   1      44.185  34.263  29.821  1.00  0.00     0.135 A 
ATOM     74  F   UNL A   1      43.894  32.674  33.078  1.00  0.00    -0.206 F 
ATOM     75  C   UNL A   1      44.230  34.930  32.527  1.00  0.00     0.059 A 
ATOM     76  C   UNL A   1      44.380  35.590  30.193  1.00  0.00     0.059 A 
ATOM     77  F   UNL A   1      44.170  33.965  28.513  1.00  0.00    -0.206 F 
ATOM     78  C   UNL A   1      44.390  35.915  31.550  1.00  0.00     0.060 A 
BRANCH  78  79
ATOM     79  S   UNL A   1      44.647  37.622  32.080  1.00  0.00     0.124 S 
ATOM     80  O   UNL A   1      44.152  38.365  30.926  1.00  0.00    -0.237 OA
ATOM     81  O   UNL A   1      43.829  37.696  33.286  1.00  0.00    -0.237 OA
ATOM     82  O   UNL A   1      46.088  37.690  32.303  1.00  0.00    -0.744 OA
ENDBRANCH  78  79
ENDBRANCH  46  71
BRANCH  58  83
ATOM     83  C   UNL A   1      48.357  28.013  29.268  1.00  0.00     0.058 A 
ATOM     84  C   UNL A   1      49.050  27.529  30.387  1.00  0.00     0.135 A 
ATOM     85  C   UNL A   1      49.098  28.312  28.113  1.00  0.00     0.135 A 
ATOM     86  F   UNL A   1      48.387  27.234  31.517  1.00  0.00    -0.206 F 
ATOM     87  C   UNL A   1      50.429  27.351  30.366  1.00  0.00     0.059 A 
ATOM     88  C   UNL A   1      50.475  28.125  28.062  1.00  0.00     0.059 A 
ATOM     89  F   UNL A   1      48.479  28.771  27.013  1.00  0.00    -0.206 F 
ATOM     90  C   UNL A   1      51.133  27.648  29.195  1.00  0.00     0.060 A 
BRANCH  90  91
ATOM     91  S   UNL A   1      52.914  27.357  29.161  1.00  0.00     0.124 S 
ATOM     92  O   UNL A   1      53.074  26.667  27.885  1.00  0.00    -0.237 OA
ATOM     93  O   UNL A   1      53.455  28.711  29.222  1.00  0.00    -0.237 OA
ATOM     94  O   UNL A   1      53.148  26.542  30.351  1.00  0.00    -0.744 OA
ENDBRANCH  90  91
ENDBRANCH  58  83
ENDBRANCH  32  33
ENDBRANCH  25  27
ENDBRANCH  24  25
ENDBRANCH  23  24
ENDBRANCH   1  23
TORSDOF 19
ENDMDL
MODEL 3
REMARK VINA RESULT:     -10.3      6.495     12.000
REMARK SMILES COc1cc2nc(SCC(=O)OCCOC(=O)c3ccc(-c4c5nc(c(-c6c(F)cc(S(=O)(=O)[O-])cc6F)c6ccc([nH]6)c(-c6c(F)cc(S(=O)(=O)[O-])cc6F)c6nc(c(-c7c(F)cc(S(=O)(=O)[O-])cc7F)c7ccc4[nH]7)C=C6)C=C5)cc3)nc(O)c2cc1OC
REMARK SMILES IDX 13 1 12 2 10 3 11 4 9 5 8 6 7 7 3 8 4 9 89 10 5 11 88 12
REMARK SMILES IDX 6 13 87 14 85 15 84 16 2 17 1 18 90 19 91 20 86 21 14 23
REMARK SMILES IDX 15 24 16 25 17 26 18 27 19 28 83 29 20 30 82 31 21 32 22 33
REMARK SMILES IDX 23 34 76 35 24 36 81 37 75 38 77 39 25 40 80 41 74 42 73 43
REMARK SMILES IDX 26 45 60 46 39 47 59 48 40 49 43 50 58 51 78 52 41 53 42 54
REMARK SMILES IDX 57 56 79 57 44 58 27 59 28 60 37 61 29 62 30 63 36 64 38 65
REMARK SMILES IDX 31 66 32 67 33 68 34 69 35 70 61 71 62 72 71 73 63 74 64 75
REMARK SMILES IDX 70 76 72 77 65 78 66 79 67 80 68 81 69 82 45 83 46 84 55 85
REMARK SMILES IDX 47 86 48 87 54 88 56 89 49 90 50 91 51 92 52 93 53 94
REMARK H PARENT 86 22 77 44 43 55
REMARK Flexibility Score: inf
ROOT
ATOM      1  C   UNL A   1      33.909  30.890  27.702  1.00  0.00     0.274 C 
ENDROOT
BRANCH   1   2
ATOM      2  O   UNL A   1      32.771  31.582  27.145  1.00  0.00    -0.461 OA
BRANCH   2   3
ATOM      3  C   UNL A   1      31.906  30.818  26.431  1.00  0.00     0.316 C 
ATOM      4  O   UNL A   1      30.966  31.275  25.784  1.00  0.00    -0.251 OA
BRANCH   3   5
ATOM      5  C   UNL A   1      32.134  29.325  26.501  1.00  0.00     0.200 C 
BRANCH   5   6
ATOM      6  S   UNL A   1      31.336  28.322  25.230  1.00  0.00    -0.074 SA
BRANCH   6   7
ATOM      7  C   UNL A   1      31.883  26.681  25.640  1.00  0.00     0.192 A 
ATOM      8  C   UNL A   1      35.359  23.521  25.102  1.00  0.00     0.162 A 
ATOM      9  C   UNL A   1      34.856  24.818  24.965  1.00  0.00     0.079 A 
ATOM     10  C   UNL A   1      34.591  22.513  25.694  1.00  0.00     0.161 A 
ATOM     11  C   UNL A   1      33.584  25.151  25.402  1.00  0.00     0.083 A 
ATOM     12  C   UNL A   1      33.345  22.858  26.214  1.00  0.00     0.066 A 
ATOM     13  N   UNL A   1      33.112  26.384  25.182  1.00  0.00    -0.222 NA
ATOM     14  C   UNL A   1      32.850  24.179  26.073  1.00  0.00     0.066 A 
ATOM     15  C   UNL A   1      31.645  24.646  26.578  1.00  0.00     0.223 A 
ATOM     16  N   UNL A   1      31.124  25.871  26.391  1.00  0.00    -0.187 NA
BRANCH   8  17
ATOM     17  O   UNL A   1      36.654  23.329  24.690  1.00  0.00    -0.493 OA
ATOM     18  C   UNL A   1      36.716  22.987  23.308  1.00  0.00     0.278 C 
ENDBRANCH   8  17
BRANCH  10  19
ATOM     19  O   UNL A   1      35.133  21.260  25.767  1.00  0.00    -0.493 OA
ATOM     20  C   UNL A   1      34.496  20.260  24.973  1.00  0.00     0.278 C 
ENDBRANCH  10  19
BRANCH  15  21
ATOM     21  O   UNL A   1      30.905  23.839  27.392  1.00  0.00    -0.493 OA
ATOM     22  H   UNL A   1      31.332  23.237  27.969  1.00  0.00     0.295 HD
ENDBRANCH  15  21
ENDBRANCH   6   7
ENDBRANCH   5   6
ENDBRANCH   3   5
ENDBRANCH   2   3
ENDBRANCH   1   2
BRANCH   1  23
ATOM     23  C   UNL A   1      34.737  31.807  28.597  1.00  0.00     0.275 C 
BRANCH  23  24
ATOM     24  O   UNL A   1      36.117  31.406  28.576  1.00  0.00    -0.458 OA
BRANCH  24  25
ATOM     25  C   UNL A   1      36.581  30.877  29.725  1.00  0.00     0.338 C 
ATOM     26  O   UNL A   1      36.007  30.824  30.806  1.00  0.00    -0.246 OA
BRANCH  25  27
ATOM     27  C   UNL A   1      37.942  30.370  29.514  1.00  0.00     0.060 A 
ATOM     28  C   UNL A   1      38.341  30.033  28.221  1.00  0.00     0.016 A 
ATOM     29  C   UNL A   1      38.860  30.344  30.570  1.00  0.00     0.016 A 
ATOM     30  C   UNL A   1      39.664  29.655  27.990  1.00  0.00     0.010 A 
ATOM     31  C   UNL A   1      40.195  30.025  30.325  1.00  0.00     0.010 A 
ATOM     32  C   UNL A   1      40.605  29.662  29.035  1.00  0.00    -0.014 A 
BRANCH  32  33
ATOM     33  C   UNL A   1      42.008  29.266  28.768  1.00  0.00     0.031 A 
ATOM     34  C   UNL A   1      42.331  27.839  28.425  1.00  0.00     0.074 A 
ATOM     35  C   UNL A   1      42.983  30.194  28.798  1.00  0.00     0.049 A 
ATOM     36  N   UNL A   1      43.461  27.329  28.009  1.00  0.00    -0.248 NA
ATOM     37  C   UNL A   1      41.246  26.855  28.573  1.00  0.00     0.031 C 
ATOM     38  C   UNL A   1      42.804  31.601  29.164  1.00  0.00     0.029 A 
ATOM     39  N   UNL A   1      44.320  30.097  28.496  1.00  0.00    -0.354 N 
ATOM     40  C   UNL A   1      43.212  25.978  27.804  1.00  0.00     0.074 A 
ATOM     41  C   UNL A   1      41.850  25.729  28.221  1.00  0.00     0.031 C 
ATOM     42  C   UNL A   1      43.976  32.244  29.024  1.00  0.00     0.029 A 
ATOM     43  C   UNL A   1      44.989  31.296  28.564  1.00  0.00     0.049 A 
ATOM     44  H   UNL A   1      44.757  29.249  28.252  1.00  0.00     0.167 HD
ATOM     45  C   UNL A   1      44.029  25.038  27.274  1.00  0.00     0.037 A 
ATOM     46  C   UNL A   1      46.265  31.600  28.258  1.00  0.00     0.037 A 
ATOM     47  C   UNL A   1      45.387  25.282  26.872  1.00  0.00     0.049 A 
ATOM     48  C   UNL A   1      47.172  30.526  27.720  1.00  0.00     0.074 A 
ATOM     49  C   UNL A   1      46.291  24.400  26.309  1.00  0.00     0.029 A 
ATOM     50  N   UNL A   1      46.040  26.500  26.995  1.00  0.00    -0.354 N 
ATOM     51  N   UNL A   1      46.896  29.270  27.458  1.00  0.00    -0.248 NA
ATOM     52  C   UNL A   1      48.559  30.912  27.423  1.00  0.00     0.031 C 
ATOM     53  C   UNL A   1      47.501  25.078  26.116  1.00  0.00     0.029 A 
ATOM     54  C   UNL A   1      47.339  26.389  26.532  1.00  0.00     0.049 A 
ATOM     55  H   UNL A   1      45.637  27.322  27.357  1.00  0.00     0.167 HD
ATOM     56  C   UNL A   1      48.066  28.725  26.939  1.00  0.00     0.074 A 
ATOM     57  C   UNL A   1      49.051  29.788  26.919  1.00  0.00     0.031 C 
ATOM     58  C   UNL A   1      48.302  27.461  26.512  1.00  0.00     0.037 A 
BRANCH  45  59
ATOM     59  C   UNL A   1      43.454  23.669  27.063  1.00  0.00     0.058 A 
ATOM     60  C   UNL A   1      43.064  23.243  25.782  1.00  0.00     0.135 A 
ATOM     61  C   UNL A   1      43.320  22.763  28.126  1.00  0.00     0.135 A 
ATOM     62  F   UNL A   1      43.156  24.079  24.736  1.00  0.00    -0.206 F 
ATOM     63  C   UNL A   1      42.543  21.974  25.566  1.00  0.00     0.059 A 
ATOM     64  C   UNL A   1      42.820  21.479  27.928  1.00  0.00     0.059 A 
ATOM     65  F   UNL A   1      43.674  23.123  29.369  1.00  0.00    -0.206 F 
ATOM     66  C   UNL A   1      42.423  21.098  26.646  1.00  0.00     0.060 A 
BRANCH  66  67
ATOM     67  S   UNL A   1      41.752  19.450  26.343  1.00  0.00     0.124 S 
ATOM     68  O   UNL A   1      42.433  19.082  25.105  1.00  0.00    -0.237 OA
ATOM     69  O   UNL A   1      42.169  18.719  27.536  1.00  0.00    -0.237 OA
ATOM     70  O   UNL A   1      40.316  19.685  26.225  1.00  0.00    -0.744 OA
ENDBRANCH  66  67
ENDBRANCH  45  59
BRANCH  46  71
ATOM     71  C   UNL A   1      46.752  32.999  28.388  1.00  0.00     0.058 A 
ATOM     72  C   UNL A   1      46.649  33.894  27.315  1.00  0.00     0.135 A 
ATOM     73  C   UNL A   1      47.332  33.462  29.578  1.00  0.00     0.135 A 
ATOM     74  F   UNL A   1      46.106  33.493  26.155  1.00  0.00    -0.206 F 
ATOM     75  C   UNL A   1      47.122  35.199  27.407  1.00  0.00     0.059 A 
ATOM     76  C   UNL A   1      47.796  34.769  29.702  1.00  0.00     0.059 A 
ATOM     77  F   UNL A   1      47.441  32.646  30.637  1.00  0.00    -0.206 F 
ATOM     78  C   UNL A   1      47.696  35.627  28.606  1.00  0.00     0.060 A 
BRANCH  78  79
ATOM     79  S   UNL A   1      48.279  37.332  28.723  1.00  0.00     0.124 S 
ATOM     80  O   UNL A   1      49.726  37.150  28.702  1.00  0.00    -0.237 OA
ATOM     81  O   UNL A   1      47.694  37.939  27.532  1.00  0.00    -0.237 OA
ATOM     82  O   UNL A   1      47.719  37.791  29.991  1.00  0.00    -0.744 OA
ENDBRANCH  78  79
ENDBRANCH  46  71
BRANCH  58  83
ATOM     83  C   UNL A   1      49.667  27.153  25.970  1.00  0.00     0.058 A 
ATOM     84  C   UNL A   1      50.684  26.650  26.794  1.00  0.00     0.135 A 
ATOM     85  C   UNL A   1      49.936  27.287  24.597  1.00  0.00     0.135 A 
ATOM     86  F   UNL A   1      50.478  26.510  28.113  1.00  0.00    -0.206 F 
ATOM     87  C   UNL A   1      51.926  26.294  26.278  1.00  0.00     0.059 A 
ATOM     88  C   UNL A   1      51.163  26.920  24.057  1.00  0.00     0.059 A 
ATOM     89  F   UNL A   1      48.991  27.757  23.767  1.00  0.00    -0.206 F 
ATOM     90  C   UNL A   1      52.154  26.429  24.906  1.00  0.00     0.060 A 
BRANCH  90  91
ATOM     91  S   UNL A   1      53.749  25.907  24.240  1.00  0.00     0.124 S 
ATOM     92  O   UNL A   1      53.864  24.556  24.777  1.00  0.00    -0.237 OA
ATOM     93  O   UNL A   1      53.533  26.000  22.799  1.00  0.00    -0.237 OA
ATOM     94  O   UNL A   1      54.683  26.886  24.791  1.00  0.00    -0.744 OA
ENDBRANCH  90  91
ENDBRANCH  58  83
ENDBRANCH  32  33
ENDBRANCH  25  27
ENDBRANCH  24  25
ENDBRANCH  23  24
ENDBRANCH   1  23
TORSDOF 19
ENDMDL
