MODEL 1
REMARK VINA RESULT:     -10.2      0.000      0.000
REMARK SMILES CCCCCCNC(=O)Oc1cccc(-c2ccc([C@@H](C)C(=O)OCCOC(=O)c3ccc(-c4c5nc(c(-c6c(F)cc(S(=O)(=O)[O-])cc6F)c6ccc([nH]6)c(-c6c(F)cc(S(=O)(=O)[O-])cc6F)c6nc(c(-c7c(F)cc(S(=O)(=O)[O-])cc7F)c7ccc4[nH]7)C=C6)C=C5)cc3)cc2[N+](=O)[O-])c1
REMARK SMILES IDX 20 1 21 2 19 3 16 4 17 5 97 6 18 7 96 8 15 9 11 10 12 11
REMARK SMILES IDX 101 12 13 13 14 14 10 15 8 16 7 17 9 19 6 20 5 21 4 22 3 23
REMARK SMILES IDX 2 24 1 25 98 26 99 27 100 28 22 29 23 30 24 31 25 32 26 33
REMARK SMILES IDX 27 34 28 35 29 36 30 37 31 38 95 39 32 40 94 41 33 42 34 43
REMARK SMILES IDX 35 44 88 45 36 46 93 47 87 48 89 49 37 50 92 51 86 52 85 53
REMARK SMILES IDX 38 55 72 56 51 57 71 58 52 59 55 60 70 61 90 62 53 63 54 64
REMARK SMILES IDX 69 66 91 67 56 68 39 69 40 70 49 71 41 72 42 73 48 74 50 75
REMARK SMILES IDX 43 76 44 77 45 78 46 79 47 80 73 81 74 82 83 83 75 84 76 85
REMARK SMILES IDX 82 86 84 87 77 88 78 89 79 90 80 91 81 92 57 93 58 94 67 95
REMARK SMILES IDX 59 96 60 97 66 98 68 99 61 100 62 101 63 102 64 103 65 104
REMARK H PARENT 7 18 89 54 55 65
REMARK Flexibility Score: inf
ROOT
ATOM      1  C   UNL A   1      33.139  31.426  26.768  1.00  0.00     0.126 C 
ATOM      2  C   UNL A   1      31.939  32.243  27.240  1.00  0.00     0.025 C 
ENDROOT
BRANCH   1   3
ATOM      3  C   UNL A   1      32.804  29.950  26.597  1.00  0.00    -0.027 A 
ATOM      4  C   UNL A   1      32.142  27.183  26.226  1.00  0.00     0.060 A 
ATOM      5  C   UNL A   1      31.992  27.821  27.471  1.00  0.00     0.016 A 
ATOM      6  C   UNL A   1      32.645  27.974  25.176  1.00  0.00     0.277 A 
ATOM      7  C   UNL A   1      32.303  29.175  27.652  1.00  0.00     0.006 A 
ATOM      8  C   UNL A   1      32.977  29.330  25.351  1.00  0.00     0.091 A 
BRANCH   4   9
ATOM      9  C   UNL A   1      31.734  25.771  26.093  1.00  0.00    -0.008 A 
ATOM     10  C   UNL A   1      32.233  23.411  25.860  1.00  0.00     0.133 A 
ATOM     11  C   UNL A   1      30.878  23.105  25.754  1.00  0.00     0.047 A 
ATOM     12  C   UNL A   1      32.670  24.727  26.033  1.00  0.00     0.056 A 
ATOM     13  C   UNL A   1      29.939  24.128  25.834  1.00  0.00     0.004 A 
ATOM     14  C   UNL A   1      30.367  25.447  25.997  1.00  0.00     0.009 A 
BRANCH  10  15
ATOM     15  O   UNL A   1      33.127  22.350  25.627  1.00  0.00    -0.410 OA
BRANCH  15  16
ATOM     16  C   UNL A   1      33.601  21.595  26.689  1.00  0.00     0.412 C 
ATOM     17  N   UNL A   1      34.293  20.486  26.285  1.00  0.00    -0.321 N 
ATOM     18  H   UNL A   1      34.655  19.908  26.995  1.00  0.00     0.167 HD
ATOM     19  O   UNL A   1      33.422  21.838  27.876  1.00  0.00    -0.224 OA
BRANCH  17  20
ATOM     20  C   UNL A   1      34.548  20.073  24.918  1.00  0.00     0.119 C 
BRANCH  20  21
ATOM     21  C   UNL A   1      33.839  18.768  24.559  1.00  0.00     0.021 C 
BRANCH  21  22
ATOM     22  C   UNL A   1      34.761  17.641  24.078  1.00  0.00     0.002 C 
BRANCH  22  23
ATOM     23  C   UNL A   1      34.108  16.260  23.947  1.00  0.00    -0.000 C 
BRANCH  23  24
ATOM     24  C   UNL A   1      33.840  15.529  25.266  1.00  0.00    -0.003 C 
ATOM     25  C   UNL A   1      32.385  15.591  25.705  1.00  0.00     0.004 C 
ENDBRANCH  23  24
ENDBRANCH  22  23
ENDBRANCH  21  22
ENDBRANCH  20  21
ENDBRANCH  17  20
ENDBRANCH  15  16
ENDBRANCH  10  15
ENDBRANCH   4   9
BRANCH   6  26
ATOM     26  N   UNL A   1      32.774  27.440  23.828  1.00  0.00     0.063 N 
ATOM     27  O   UNL A   1      33.860  26.925  23.529  1.00  0.00    -0.258 OA
ATOM     28  O   UNL A   1      31.815  27.591  23.059  1.00  0.00    -0.258 OA
ENDBRANCH   6  26
ENDBRANCH   1   3
BRANCH   1  29
ATOM     29  C   UNL A   1      34.357  31.746  27.628  1.00  0.00     0.313 C 
ATOM     30  O   UNL A   1      35.351  31.027  27.641  1.00  0.00    -0.252 OA
BRANCH  29  31
ATOM     31  O   UNL A   1      34.246  32.907  28.324  1.00  0.00    -0.462 OA
BRANCH  31  32
ATOM     32  C   UNL A   1      34.342  32.817  29.758  1.00  0.00     0.274 C 
BRANCH  32  33
ATOM     33  C   UNL A   1      35.798  32.666  30.207  1.00  0.00     0.275 C 
BRANCH  33  34
ATOM     34  O   UNL A   1      36.099  31.307  30.571  1.00  0.00    -0.458 OA
BRANCH  34  35
ATOM     35  C   UNL A   1      37.064  31.166  31.510  1.00  0.00     0.338 C 
ATOM     36  O   UNL A   1      36.955  31.330  32.712  1.00  0.00    -0.246 OA
BRANCH  35  37
ATOM     37  C   UNL A   1      38.282  30.637  30.880  1.00  0.00     0.060 A 
ATOM     38  C   UNL A   1      39.364  30.318  31.703  1.00  0.00     0.016 A 
ATOM     39  C   UNL A   1      38.386  30.530  29.494  1.00  0.00     0.016 A 
ATOM     40  C   UNL A   1      40.569  29.903  31.144  1.00  0.00     0.010 A 
ATOM     41  C   UNL A   1      39.594  30.102  28.933  1.00  0.00     0.010 A 
ATOM     42  C   UNL A   1      40.694  29.797  29.754  1.00  0.00    -0.014 A 
BRANCH  42  43
ATOM     43  C   UNL A   1      41.993  29.407  29.156  1.00  0.00     0.031 A 
ATOM     44  C   UNL A   1      42.188  28.009  28.644  1.00  0.00     0.074 A 
ATOM     45  C   UNL A   1      42.987  30.310  29.069  1.00  0.00     0.049 A 
ATOM     46  N   UNL A   1      43.275  27.437  28.198  1.00  0.00    -0.248 NA
ATOM     47  C   UNL A   1      41.000  27.139  28.637  1.00  0.00     0.031 C 
ATOM     48  C   UNL A   1      42.896  31.709  29.492  1.00  0.00     0.029 A 
ATOM     49  N   UNL A   1      44.272  30.184  28.606  1.00  0.00    -0.354 N 
ATOM     50  C   UNL A   1      42.913  26.133  27.880  1.00  0.00     0.074 A 
ATOM     51  C   UNL A   1      41.507  25.995  28.196  1.00  0.00     0.031 C 
ATOM     52  C   UNL A   1      44.076  32.311  29.270  1.00  0.00     0.029 A 
ATOM     53  C   UNL A   1      45.018  31.330  28.740  1.00  0.00     0.049 A 
ATOM     54  H   UNL A   1      44.624  29.352  28.214  1.00  0.00     0.167 HD
ATOM     55  C   UNL A   1      43.687  25.145  27.371  1.00  0.00     0.037 A 
ATOM     56  C   UNL A   1      46.325  31.553  28.494  1.00  0.00     0.037 A 
ATOM     57  C   UNL A   1      45.080  25.301  27.040  1.00  0.00     0.049 A 
ATOM     58  C   UNL A   1      47.175  30.427  27.974  1.00  0.00     0.074 A 
ATOM     59  C   UNL A   1      45.950  24.364  26.510  1.00  0.00     0.029 A 
ATOM     60  N   UNL A   1      45.806  26.472  27.206  1.00  0.00    -0.354 N 
ATOM     61  N   UNL A   1      46.826  29.193  27.696  1.00  0.00    -0.248 NA
ATOM     62  C   UNL A   1      48.596  30.718  27.743  1.00  0.00     0.031 C 
ATOM     63  C   UNL A   1      47.210  24.960  26.386  1.00  0.00     0.029 A 
ATOM     64  C   UNL A   1      47.117  26.278  26.803  1.00  0.00     0.049 A 
ATOM     65  H   UNL A   1      45.443  27.317  27.558  1.00  0.00     0.167 HD
ATOM     66  C   UNL A   1      47.980  28.566  27.240  1.00  0.00     0.074 A 
ATOM     67  C   UNL A   1      49.035  29.558  27.270  1.00  0.00     0.031 C 
ATOM     68  C   UNL A   1      48.150  27.284  26.834  1.00  0.00     0.037 A 
BRANCH  55  69
ATOM     69  C   UNL A   1      43.050  23.799  27.169  1.00  0.00     0.058 A 
ATOM     70  C   UNL A   1      42.628  23.360  25.905  1.00  0.00     0.135 A 
ATOM     71  C   UNL A   1      42.882  22.924  28.256  1.00  0.00     0.135 A 
ATOM     72  F   UNL A   1      42.751  24.162  24.836  1.00  0.00    -0.206 F 
ATOM     73  C   UNL A   1      42.036  22.112  25.728  1.00  0.00     0.059 A 
ATOM     74  C   UNL A   1      42.315  21.663  28.099  1.00  0.00     0.059 A 
ATOM     75  F   UNL A   1      43.269  23.294  29.487  1.00  0.00    -0.206 F 
ATOM     76  C   UNL A   1      41.880  21.272  26.833  1.00  0.00     0.060 A 
BRANCH  76  77
ATOM     77  S   UNL A   1      41.110  19.656  26.592  1.00  0.00     0.124 S 
ATOM     78  O   UNL A   1      39.863  20.023  25.929  1.00  0.00    -0.237 OA
ATOM     79  O   UNL A   1      42.087  18.961  25.761  1.00  0.00    -0.237 OA
ATOM     80  O   UNL A   1      40.969  19.142  27.951  1.00  0.00    -0.744 OA
ENDBRANCH  76  77
ENDBRANCH  55  69
BRANCH  56  81
ATOM     81  C   UNL A   1      46.908  32.893  28.764  1.00  0.00     0.058 A 
ATOM     82  C   UNL A   1      47.534  33.178  29.985  1.00  0.00     0.135 A 
ATOM     83  C   UNL A   1      46.867  33.910  27.796  1.00  0.00     0.135 A 
ATOM     84  F   UNL A   1      47.588  32.242  30.945  1.00  0.00    -0.206 F 
ATOM     85  C   UNL A   1      48.092  34.427  30.244  1.00  0.00     0.059 A 
ATOM     86  C   UNL A   1      47.439  35.158  28.022  1.00  0.00     0.059 A 
ATOM     87  F   UNL A   1      46.289  33.684  26.606  1.00  0.00    -0.206 F 
ATOM     88  C   UNL A   1      48.042  35.409  29.253  1.00  0.00     0.060 A 
BRANCH  88  89
ATOM     89  S   UNL A   1      48.819  37.009  29.574  1.00  0.00     0.124 S 
ATOM     90  O   UNL A   1      49.990  36.945  28.706  1.00  0.00    -0.237 OA
ATOM     91  O   UNL A   1      47.775  37.946  29.169  1.00  0.00    -0.237 OA
ATOM     92  O   UNL A   1      49.090  36.967  31.007  1.00  0.00    -0.744 OA
ENDBRANCH  88  89
ENDBRANCH  56  81
BRANCH  68  93
ATOM     93  C   UNL A   1      49.520  26.886  26.362  1.00  0.00     0.058 A 
ATOM     94  C   UNL A   1      50.479  26.364  27.243  1.00  0.00     0.135 A 
ATOM     95  C   UNL A   1      49.855  26.976  25.001  1.00  0.00     0.135 A 
ATOM     96  F   UNL A   1      50.208  26.266  28.554  1.00  0.00    -0.206 F 
ATOM     97  C   UNL A   1      51.730  25.955  26.794  1.00  0.00     0.059 A 
ATOM     98  C   UNL A   1      51.093  26.553  24.526  1.00  0.00     0.059 A 
ATOM     99  F   UNL A   1      48.970  27.461  24.117  1.00  0.00    -0.206 F 
ATOM    100  C   UNL A   1      52.027  26.052  25.433  1.00  0.00     0.060 A 
BRANCH 100 101
ATOM    101  S   UNL A   1      53.638  25.477  24.853  1.00  0.00     0.124 S 
ATOM    102  O   UNL A   1      53.554  24.046  25.122  1.00  0.00    -0.237 OA
ATOM    103  O   UNL A   1      53.620  25.860  23.444  1.00  0.00    -0.237 OA
ATOM    104  O   UNL A   1      54.582  26.220  25.685  1.00  0.00    -0.744 OA
ENDBRANCH 100 101
ENDBRANCH  68  93
ENDBRANCH  42  43
ENDBRANCH  35  37
ENDBRANCH  34  35
ENDBRANCH  33  34
ENDBRANCH  32  33
ENDBRANCH  31  32
ENDBRANCH  29  31
ENDBRANCH   1  29
TORSDOF 24
ENDMDL
MODEL 2
REMARK VINA RESULT:      -9.9      2.009      3.031
REMARK SMILES CCCCCCNC(=O)Oc1cccc(-c2ccc([C@@H](C)C(=O)OCCOC(=O)c3ccc(-c4c5nc(c(-c6c(F)cc(S(=O)(=O)[O-])cc6F)c6ccc([nH]6)c(-c6c(F)cc(S(=O)(=O)[O-])cc6F)c6nc(c(-c7c(F)cc(S(=O)(=O)[O-])cc7F)c7ccc4[nH]7)C=C6)C=C5)cc3)cc2[N+](=O)[O-])c1
REMARK SMILES IDX 20 1 21 2 19 3 16 4 17 5 97 6 18 7 96 8 15 9 11 10 12 11
REMARK SMILES IDX 101 12 13 13 14 14 10 15 8 16 7 17 9 19 6 20 5 21 4 22 3 23
REMARK SMILES IDX 2 24 1 25 98 26 99 27 100 28 22 29 23 30 24 31 25 32 26 33
REMARK SMILES IDX 27 34 28 35 29 36 30 37 31 38 95 39 32 40 94 41 33 42 34 43
REMARK SMILES IDX 35 44 88 45 36 46 93 47 87 48 89 49 37 50 92 51 86 52 85 53
REMARK SMILES IDX 38 55 72 56 51 57 71 58 52 59 55 60 70 61 90 62 53 63 54 64
REMARK SMILES IDX 69 66 91 67 56 68 39 69 40 70 49 71 41 72 42 73 48 74 50 75
REMARK SMILES IDX 43 76 44 77 45 78 46 79 47 80 73 81 74 82 83 83 75 84 76 85
REMARK SMILES IDX 82 86 84 87 77 88 78 89 79 90 80 91 81 92 57 93 58 94 67 95
REMARK SMILES IDX 59 96 60 97 66 98 68 99 61 100 62 101 63 102 64 103 65 104
REMARK H PARENT 7 18 89 54 55 65
REMARK Flexibility Score: inf
ROOT
ATOM      1  C   UNL A   1      35.205  33.411  28.918  1.00  0.00     0.126 C 
ATOM      2  C   UNL A   1      34.573  34.664  28.316  1.00  0.00     0.025 C 
ENDROOT
BRANCH   1   3
ATOM      3  C   UNL A   1      34.879  32.157  28.117  1.00  0.00    -0.027 A 
ATOM      4  C   UNL A   1      34.218  29.785  26.645  1.00  0.00     0.060 A 
ATOM      5  C   UNL A   1      35.532  30.050  27.072  1.00  0.00     0.016 A 
ATOM      6  C   UNL A   1      33.249  30.751  26.970  1.00  0.00     0.277 A 
ATOM      7  C   UNL A   1      35.855  31.203  27.802  1.00  0.00     0.006 A 
ATOM      8  C   UNL A   1      33.565  31.920  27.687  1.00  0.00     0.091 A 
BRANCH   4   9
ATOM      9  C   UNL A   1      33.939  28.521  25.936  1.00  0.00    -0.008 A 
ATOM     10  C   UNL A   1      33.428  26.152  25.903  1.00  0.00     0.133 A 
ATOM     11  C   UNL A   1      33.501  26.126  24.512  1.00  0.00     0.047 A 
ATOM     12  C   UNL A   1      33.639  27.332  26.620  1.00  0.00     0.056 A 
ATOM     13  C   UNL A   1      33.776  27.300  23.821  1.00  0.00     0.004 A 
ATOM     14  C   UNL A   1      33.997  28.484  24.529  1.00  0.00     0.009 A 
BRANCH  10  15
ATOM     15  O   UNL A   1      33.290  24.904  26.538  1.00  0.00    -0.410 OA
BRANCH  15  16
ATOM     16  C   UNL A   1      32.062  24.261  26.544  1.00  0.00     0.412 C 
ATOM     17  N   UNL A   1      32.118  23.007  25.997  1.00  0.00    -0.321 N 
ATOM     18  H   UNL A   1      31.275  22.499  25.972  1.00  0.00     0.167 HD
ATOM     19  O   UNL A   1      31.008  24.730  26.955  1.00  0.00    -0.224 OA
BRANCH  17  20
ATOM     20  C   UNL A   1      33.290  22.350  25.451  1.00  0.00     0.119 C 
BRANCH  20  21
ATOM     21  C   UNL A   1      33.427  22.555  23.943  1.00  0.00     0.021 C 
BRANCH  21  22
ATOM     22  C   UNL A   1      34.863  22.763  23.445  1.00  0.00     0.002 C 
BRANCH  22  23
ATOM     23  C   UNL A   1      35.821  23.422  24.444  1.00  0.00    -0.000 C 
BRANCH  23  24
ATOM     24  C   UNL A   1      37.187  22.747  24.592  1.00  0.00    -0.003 C 
ATOM     25  C   UNL A   1      37.101  21.235  24.734  1.00  0.00     0.004 C 
ENDBRANCH  23  24
ENDBRANCH  22  23
ENDBRANCH  21  22
ENDBRANCH  20  21
ENDBRANCH  17  20
ENDBRANCH  15  16
ENDBRANCH  10  15
ENDBRANCH   4   9
BRANCH   6  26
ATOM     26  N   UNL A   1      31.845  30.548  26.642  1.00  0.00     0.063 N 
ATOM     27  O   UNL A   1      31.345  31.317  25.810  1.00  0.00    -0.258 OA
ATOM     28  O   UNL A   1      31.236  29.663  27.259  1.00  0.00    -0.258 OA
ENDBRANCH   6  26
ENDBRANCH   1   3
BRANCH   1  29
ATOM     29  C   UNL A   1      34.915  33.350  30.414  1.00  0.00     0.313 C 
ATOM     30  O   UNL A   1      33.780  33.475  30.862  1.00  0.00    -0.252 OA
BRANCH  29  31
ATOM     31  O   UNL A   1      36.013  33.102  31.175  1.00  0.00    -0.462 OA
BRANCH  31  32
ATOM     32  C   UNL A   1      35.829  32.255  32.325  1.00  0.00     0.274 C 
BRANCH  32  33
ATOM     33  C   UNL A   1      37.166  31.936  32.997  1.00  0.00     0.275 C 
BRANCH  33  34
ATOM     34  O   UNL A   1      37.548  30.565  32.786  1.00  0.00    -0.458 OA
BRANCH  34  35
ATOM     35  C   UNL A   1      38.565  30.127  33.564  1.00  0.00     0.338 C 
ATOM     36  O   UNL A   1      38.509  29.789  34.733  1.00  0.00    -0.246 OA
BRANCH  35  37
ATOM     37  C   UNL A   1      39.778  29.981  32.745  1.00  0.00     0.060 A 
ATOM     38  C   UNL A   1      39.688  30.256  31.380  1.00  0.00     0.016 A 
ATOM     39  C   UNL A   1      40.965  29.504  33.299  1.00  0.00     0.016 A 
ATOM     40  C   UNL A   1      40.785  30.042  30.550  1.00  0.00     0.010 A 
ATOM     41  C   UNL A   1      42.070  29.299  32.468  1.00  0.00     0.010 A 
ATOM     42  C   UNL A   1      41.982  29.556  31.088  1.00  0.00    -0.014 A 
BRANCH  42  43
ATOM     43  C   UNL A   1      43.133  29.277  30.196  1.00  0.00     0.031 A 
ATOM     44  C   UNL A   1      43.206  27.969  29.461  1.00  0.00     0.074 A 
ATOM     45  C   UNL A   1      44.101  30.200  30.044  1.00  0.00     0.049 A 
ATOM     46  N   UNL A   1      44.178  27.485  28.733  1.00  0.00    -0.248 NA
ATOM     47  C   UNL A   1      42.031  27.089  29.565  1.00  0.00     0.031 C 
ATOM     48  C   UNL A   1      44.111  31.523  30.672  1.00  0.00     0.029 A 
ATOM     49  N   UNL A   1      45.267  30.162  29.323  1.00  0.00    -0.354 N 
ATOM     50  C   UNL A   1      43.745  26.233  28.310  1.00  0.00     0.074 A 
ATOM     51  C   UNL A   1      42.428  26.028  28.875  1.00  0.00     0.031 C 
ATOM     52  C   UNL A   1      45.231  32.170  30.309  1.00  0.00     0.029 A 
ATOM     53  C   UNL A   1      46.039  31.291  29.469  1.00  0.00     0.049 A 
ATOM     54  H   UNL A   1      45.525  29.401  28.756  1.00  0.00     0.167 HD
ATOM     55  C   UNL A   1      44.392  25.341  27.523  1.00  0.00     0.037 A 
ATOM     56  C   UNL A   1      47.273  31.569  29.005  1.00  0.00     0.037 A 
ATOM     57  C   UNL A   1      45.693  25.566  26.950  1.00  0.00     0.049 A 
ATOM     58  C   UNL A   1      47.991  30.542  28.173  1.00  0.00     0.074 A 
ATOM     59  C   UNL A   1      46.431  24.729  26.130  1.00  0.00     0.029 A 
ATOM     60  N   UNL A   1      46.452  26.714  27.135  1.00  0.00    -0.354 N 
ATOM     61  N   UNL A   1      47.580  29.354  27.796  1.00  0.00    -0.248 NA
ATOM     62  C   UNL A   1      49.342  30.887  27.710  1.00  0.00     0.031 C 
ATOM     63  C   UNL A   1      47.648  25.357  25.847  1.00  0.00     0.029 A 
ATOM     64  C   UNL A   1      47.655  26.601  26.457  1.00  0.00     0.049 A 
ATOM     65  H   UNL A   1      46.175  27.494  27.668  1.00  0.00     0.167 HD
ATOM     66  C   UNL A   1      48.613  28.818  27.037  1.00  0.00     0.074 A 
ATOM     67  C   UNL A   1      49.665  29.814  27.000  1.00  0.00     0.031 C 
ATOM     68  C   UNL A   1      48.685  27.609  26.427  1.00  0.00     0.037 A 
BRANCH  55  69
ATOM     69  C   UNL A   1      43.712  24.026  27.262  1.00  0.00     0.058 A 
ATOM     70  C   UNL A   1      43.737  22.980  28.196  1.00  0.00     0.135 A 
ATOM     71  C   UNL A   1      43.001  23.821  26.067  1.00  0.00     0.135 A 
ATOM     72  F   UNL A   1      44.413  23.118  29.347  1.00  0.00    -0.206 F 
ATOM     73  C   UNL A   1      43.106  21.764  27.944  1.00  0.00     0.059 A 
ATOM     74  C   UNL A   1      42.344  22.623  25.804  1.00  0.00     0.059 A 
ATOM     75  F   UNL A   1      42.944  24.789  25.139  1.00  0.00    -0.206 F 
ATOM     76  C   UNL A   1      42.415  21.594  26.743  1.00  0.00     0.060 A 
BRANCH  76  77
ATOM     77  S   UNL A   1      41.602  20.013  26.426  1.00  0.00     0.124 S 
ATOM     78  O   UNL A   1      40.223  20.436  26.197  1.00  0.00    -0.237 OA
ATOM     79  O   UNL A   1      42.315  19.519  25.253  1.00  0.00    -0.237 OA
ATOM     80  O   UNL A   1      41.830  19.261  27.656  1.00  0.00    -0.744 OA
ENDBRANCH  76  77
ENDBRANCH  55  69
BRANCH  56  81
ATOM     81  C   UNL A   1      47.914  32.866  29.343  1.00  0.00     0.058 A 
ATOM     82  C   UNL A   1      48.689  33.012  30.502  1.00  0.00     0.135 A 
ATOM     83  C   UNL A   1      47.778  33.983  28.502  1.00  0.00     0.135 A 
ATOM     84  F   UNL A   1      48.839  31.977  31.342  1.00  0.00    -0.206 F 
ATOM     85  C   UNL A   1      49.301  34.220  30.821  1.00  0.00     0.059 A 
ATOM     86  C   UNL A   1      48.400  35.194  28.787  1.00  0.00     0.059 A 
ATOM     87  F   UNL A   1      47.055  33.892  27.374  1.00  0.00    -0.206 F 
ATOM     88  C   UNL A   1      49.153  35.305  29.954  1.00  0.00     0.060 A 
BRANCH  88  89
ATOM     89  S   UNL A   1      49.997  36.853  30.346  1.00  0.00     0.124 S 
ATOM     90  O   UNL A   1      49.816  36.928  31.791  1.00  0.00    -0.237 OA
ATOM     91  O   UNL A   1      51.358  36.588  29.886  1.00  0.00    -0.237 OA
ATOM     92  O   UNL A   1      49.263  37.842  29.564  1.00  0.00    -0.744 OA
ENDBRANCH  88  89
ENDBRANCH  56  81
BRANCH  68  93
ATOM     93  C   UNL A   1      49.930  27.306  25.642  1.00  0.00     0.058 A 
ATOM     94  C   UNL A   1      49.967  27.432  24.246  1.00  0.00     0.135 A 
ATOM     95  C   UNL A   1      51.114  26.941  26.303  1.00  0.00     0.135 A 
ATOM     96  F   UNL A   1      48.859  27.771  23.568  1.00  0.00    -0.206 F 
ATOM     97  C   UNL A   1      51.135  27.195  23.527  1.00  0.00     0.059 A 
ATOM     98  C   UNL A   1      52.299  26.719  25.607  1.00  0.00     0.059 A 
ATOM     99  F   UNL A   1      51.132  26.814  27.639  1.00  0.00    -0.206 F 
ATOM    100  C   UNL A   1      52.296  26.840  24.218  1.00  0.00     0.060 A 
BRANCH 100 101
ATOM    101  S   UNL A   1      53.816  26.576  23.279  1.00  0.00     0.124 S 
ATOM    102  O   UNL A   1      53.294  26.132  21.992  1.00  0.00    -0.237 OA
ATOM    103  O   UNL A   1      54.428  27.903  23.292  1.00  0.00    -0.237 OA
ATOM    104  O   UNL A   1      54.523  25.562  24.057  1.00  0.00    -0.744 OA
ENDBRANCH 100 101
ENDBRANCH  68  93
ENDBRANCH  42  43
ENDBRANCH  35  37
ENDBRANCH  34  35
ENDBRANCH  33  34
ENDBRANCH  32  33
ENDBRANCH  31  32
ENDBRANCH  29  31
ENDBRANCH   1  29
TORSDOF 24
ENDMDL
MODEL 3
REMARK VINA RESULT:      -9.7      4.696      9.183
REMARK SMILES CCCCCCNC(=O)Oc1cccc(-c2ccc([C@@H](C)C(=O)OCCOC(=O)c3ccc(-c4c5nc(c(-c6c(F)cc(S(=O)(=O)[O-])cc6F)c6ccc([nH]6)c(-c6c(F)cc(S(=O)(=O)[O-])cc6F)c6nc(c(-c7c(F)cc(S(=O)(=O)[O-])cc7F)c7ccc4[nH]7)C=C6)C=C5)cc3)cc2[N+](=O)[O-])c1
REMARK SMILES IDX 20 1 21 2 19 3 16 4 17 5 97 6 18 7 96 8 15 9 11 10 12 11
REMARK SMILES IDX 101 12 13 13 14 14 10 15 8 16 7 17 9 19 6 20 5 21 4 22 3 23
REMARK SMILES IDX 2 24 1 25 98 26 99 27 100 28 22 29 23 30 24 31 25 32 26 33
REMARK SMILES IDX 27 34 28 35 29 36 30 37 31 38 95 39 32 40 94 41 33 42 34 43
REMARK SMILES IDX 35 44 88 45 36 46 93 47 87 48 89 49 37 50 92 51 86 52 85 53
REMARK SMILES IDX 38 55 72 56 51 57 71 58 52 59 55 60 70 61 90 62 53 63 54 64
REMARK SMILES IDX 69 66 91 67 56 68 39 69 40 70 49 71 41 72 42 73 48 74 50 75
REMARK SMILES IDX 43 76 44 77 45 78 46 79 47 80 73 81 74 82 83 83 75 84 76 85
REMARK SMILES IDX 82 86 84 87 77 88 78 89 79 90 80 91 81 92 57 93 58 94 67 95
REMARK SMILES IDX 59 96 60 97 66 98 68 99 61 100 62 101 63 102 64 103 65 104
REMARK H PARENT 7 18 89 54 55 65
REMARK Flexibility Score: inf
ROOT
ATOM      1  C   UNL A   1      32.672  26.981  24.165  1.00  0.00     0.126 C 
ATOM      2  C   UNL A   1      31.422  27.126  25.031  1.00  0.00     0.025 C 
ENDROOT
BRANCH   1   3
ATOM      3  C   UNL A   1      33.297  25.597  24.278  1.00  0.00    -0.027 A 
ATOM      4  C   UNL A   1      34.496  23.005  24.546  1.00  0.00     0.060 A 
ATOM      5  C   UNL A   1      34.623  23.762  23.367  1.00  0.00     0.016 A 
ATOM      6  C   UNL A   1      33.741  23.584  25.582  1.00  0.00     0.277 A 
ATOM      7  C   UNL A   1      34.048  25.034  23.238  1.00  0.00     0.006 A 
ATOM      8  C   UNL A   1      33.144  24.853  25.457  1.00  0.00     0.091 A 
BRANCH   4   9
ATOM      9  C   UNL A   1      35.182  21.701  24.634  1.00  0.00    -0.008 A 
ATOM     10  C   UNL A   1      35.178  19.278  24.683  1.00  0.00     0.133 A 
ATOM     11  C   UNL A   1      36.554  19.250  24.896  1.00  0.00     0.047 A 
ATOM     12  C   UNL A   1      34.487  20.485  24.547  1.00  0.00     0.056 A 
ATOM     13  C   UNL A   1      37.258  20.447  24.963  1.00  0.00     0.004 A 
ATOM     14  C   UNL A   1      36.575  21.659  24.838  1.00  0.00     0.009 A 
BRANCH  10  15
ATOM     15  O   UNL A   1      34.513  18.041  24.771  1.00  0.00    -0.410 OA
BRANCH  15  16
ATOM     16  C   UNL A   1      33.178  17.996  25.141  1.00  0.00     0.412 C 
ATOM     17  N   UNL A   1      32.348  17.687  24.097  1.00  0.00    -0.321 N 
ATOM     18  H   UNL A   1      31.386  17.641  24.297  1.00  0.00     0.167 HD
ATOM     19  O   UNL A   1      32.736  18.226  26.259  1.00  0.00    -0.224 OA
BRANCH  17  20
ATOM     20  C   UNL A   1      32.741  17.422  22.725  1.00  0.00     0.119 C 
BRANCH  20  21
ATOM     21  C   UNL A   1      32.802  18.693  21.878  1.00  0.00     0.021 C 
BRANCH  21  22
ATOM     22  C   UNL A   1      31.661  19.688  22.120  1.00  0.00     0.002 C 
BRANCH  22  23
ATOM     23  C   UNL A   1      32.082  21.155  22.270  1.00  0.00    -0.000 C 
BRANCH  23  24
ATOM     24  C   UNL A   1      31.473  21.897  23.463  1.00  0.00    -0.003 C 
ATOM     25  C   UNL A   1      30.851  23.234  23.089  1.00  0.00     0.004 C 
ENDBRANCH  23  24
ENDBRANCH  22  23
ENDBRANCH  21  22
ENDBRANCH  20  21
ENDBRANCH  17  20
ENDBRANCH  15  16
ENDBRANCH  10  15
ENDBRANCH   4   9
BRANCH   6  26
ATOM     26  N   UNL A   1      33.603  22.923  26.872  1.00  0.00     0.063 N 
ATOM     27  O   UNL A   1      32.491  22.452  27.146  1.00  0.00    -0.258 OA
ATOM     28  O   UNL A   1      34.586  22.932  27.627  1.00  0.00    -0.258 OA
ENDBRANCH   6  26
ENDBRANCH   1   3
BRANCH   1  29
ATOM     29  C   UNL A   1      33.606  28.164  24.397  1.00  0.00     0.313 C 
ATOM     30  O   UNL A   1      34.380  28.560  23.531  1.00  0.00    -0.252 OA
BRANCH  29  31
ATOM     31  O   UNL A   1      33.460  28.747  25.614  1.00  0.00    -0.462 OA
BRANCH  31  32
ATOM     32  C   UNL A   1      32.714  29.978  25.660  1.00  0.00     0.274 C 
BRANCH  32  33
ATOM     33  C   UNL A   1      32.742  30.590  27.063  1.00  0.00     0.275 C 
BRANCH  33  34
ATOM     34  O   UNL A   1      33.957  30.259  27.758  1.00  0.00    -0.458 OA
BRANCH  34  35
ATOM     35  C   UNL A   1      34.812  31.292  27.942  1.00  0.00     0.338 C 
ATOM     36  O   UNL A   1      34.569  32.481  27.834  1.00  0.00    -0.246 OA
BRANCH  35  37
ATOM     37  C   UNL A   1      36.096  30.779  28.440  1.00  0.00     0.060 A 
ATOM     38  C   UNL A   1      36.082  29.647  29.258  1.00  0.00     0.016 A 
ATOM     39  C   UNL A   1      37.290  31.446  28.169  1.00  0.00     0.016 A 
ATOM     40  C   UNL A   1      37.263  29.181  29.827  1.00  0.00     0.010 A 
ATOM     41  C   UNL A   1      38.478  30.971  28.732  1.00  0.00     0.010 A 
ATOM     42  C   UNL A   1      38.469  29.844  29.573  1.00  0.00    -0.014 A 
BRANCH  42  43
ATOM     43  C   UNL A   1      39.718  29.380  30.222  1.00  0.00     0.031 A 
ATOM     44  C   UNL A   1      40.214  30.068  31.461  1.00  0.00     0.074 A 
ATOM     45  C   UNL A   1      40.396  28.340  29.701  1.00  0.00     0.049 A 
ATOM     46  N   UNL A   1      41.336  29.895  32.109  1.00  0.00    -0.248 NA
ATOM     47  C   UNL A   1      39.330  31.089  32.046  1.00  0.00     0.031 C 
ATOM     48  C   UNL A   1      39.985  27.567  28.528  1.00  0.00     0.029 A 
ATOM     49  N   UNL A   1      41.579  27.761  30.086  1.00  0.00    -0.354 N 
ATOM     50  C   UNL A   1      41.309  30.801  33.163  1.00  0.00     0.074 A 
ATOM     51  C   UNL A   1      40.062  31.530  33.061  1.00  0.00     0.031 C 
ATOM     52  C   UNL A   1      40.902  26.616  28.287  1.00  0.00     0.029 A 
ATOM     53  C   UNL A   1      41.988  26.746  29.254  1.00  0.00     0.049 A 
ATOM     54  H   UNL A   1      42.085  28.046  30.881  1.00  0.00     0.167 HD
ATOM     55  C   UNL A   1      42.239  31.001  34.125  1.00  0.00     0.037 A 
ATOM     56  C   UNL A   1      43.127  26.025  29.254  1.00  0.00     0.037 A 
ATOM     57  C   UNL A   1      43.466  30.255  34.229  1.00  0.00     0.049 A 
ATOM     58  C   UNL A   1      44.168  26.300  30.305  1.00  0.00     0.074 A 
ATOM     59  C   UNL A   1      44.471  30.374  35.173  1.00  0.00     0.029 A 
ATOM     60  N   UNL A   1      43.854  29.246  33.358  1.00  0.00    -0.354 N 
ATOM     61  N   UNL A   1      44.138  27.172  31.284  1.00  0.00    -0.248 NA
ATOM     62  C   UNL A   1      45.399  25.500  30.246  1.00  0.00     0.031 C 
ATOM     63  C   UNL A   1      45.482  29.460  34.854  1.00  0.00     0.029 A 
ATOM     64  C   UNL A   1      45.090  28.744  33.734  1.00  0.00     0.049 A 
ATOM     65  H   UNL A   1      43.328  28.932  32.587  1.00  0.00     0.167 HD
ATOM     66  C   UNL A   1      45.337  27.013  31.970  1.00  0.00     0.074 A 
ATOM     67  C   UNL A   1      46.066  25.956  31.299  1.00  0.00     0.031 C 
ATOM     68  C   UNL A   1      45.794  27.685  33.055  1.00  0.00     0.037 A 
BRANCH  55  69
ATOM     69  C   UNL A   1      41.979  32.093  35.125  1.00  0.00     0.058 A 
ATOM     70  C   UNL A   1      41.283  31.854  36.320  1.00  0.00     0.135 A 
ATOM     71  C   UNL A   1      42.457  33.394  34.895  1.00  0.00     0.135 A 
ATOM     72  F   UNL A   1      40.792  30.633  36.583  1.00  0.00    -0.206 F 
ATOM     73  C   UNL A   1      41.045  32.872  37.239  1.00  0.00     0.059 A 
ATOM     74  C   UNL A   1      42.251  34.421  35.810  1.00  0.00     0.059 A 
ATOM     75  F   UNL A   1      43.130  33.677  33.769  1.00  0.00    -0.206 F 
ATOM     76  C   UNL A   1      41.529  34.154  36.973  1.00  0.00     0.060 A 
BRANCH  76  77
ATOM     77  S   UNL A   1      41.213  35.468  38.172  1.00  0.00     0.124 S 
ATOM     78  O   UNL A   1      40.455  36.420  37.367  1.00  0.00    -0.237 OA
ATOM     79  O   UNL A   1      40.457  34.774  39.209  1.00  0.00    -0.237 OA
ATOM     80  O   UNL A   1      42.551  35.902  38.561  1.00  0.00    -0.744 OA
ENDBRANCH  76  77
ENDBRANCH  55  69
BRANCH  56  81
ATOM     81  C   UNL A   1      43.348  24.995  28.206  1.00  0.00     0.058 A 
ATOM     82  C   UNL A   1      44.008  25.309  27.009  1.00  0.00     0.135 A 
ATOM     83  C   UNL A   1      42.920  23.670  28.389  1.00  0.00     0.135 A 
ATOM     84  F   UNL A   1      44.426  26.564  26.783  1.00  0.00    -0.206 F 
ATOM     85  C   UNL A   1      44.228  24.349  26.026  1.00  0.00     0.059 A 
ATOM     86  C   UNL A   1      43.151  22.687  27.432  1.00  0.00     0.059 A 
ATOM     87  F   UNL A   1      42.294  23.316  29.523  1.00  0.00    -0.206 F 
ATOM     88  C   UNL A   1      43.798  23.039  26.249  1.00  0.00     0.060 A 
BRANCH  88  89
ATOM     89  S   UNL A   1      44.139  21.786  24.994  1.00  0.00     0.124 S 
ATOM     90  O   UNL A   1      45.561  21.539  25.204  1.00  0.00    -0.237 OA
ATOM     91  O   UNL A   1      43.239  20.704  25.385  1.00  0.00    -0.237 OA
ATOM     92  O   UNL A   1      43.791  22.458  23.746  1.00  0.00    -0.744 OA
ENDBRANCH  88  89
ENDBRANCH  56  81
BRANCH  68  93
ATOM     93  C   UNL A   1      47.132  27.277  33.606  1.00  0.00     0.058 A 
ATOM     94  C   UNL A   1      48.305  27.972  33.275  1.00  0.00     0.135 A 
ATOM     95  C   UNL A   1      47.230  26.214  34.518  1.00  0.00     0.135 A 
ATOM     96  F   UNL A   1      48.264  28.990  32.401  1.00  0.00    -0.206 F 
ATOM     97  C   UNL A   1      49.534  27.620  33.822  1.00  0.00     0.059 A 
ATOM     98  C   UNL A   1      48.445  25.858  35.094  1.00  0.00     0.059 A 
ATOM     99  F   UNL A   1      46.135  25.524  34.872  1.00  0.00    -0.206 F 
ATOM    100  C   UNL A   1      49.594  26.562  34.732  1.00  0.00     0.060 A 
BRANCH 100 101
ATOM    101  S   UNL A   1      51.188  26.141  35.470  1.00  0.00     0.124 S 
ATOM    102  O   UNL A   1      51.463  24.848  34.855  1.00  0.00    -0.237 OA
ATOM    103  O   UNL A   1      52.038  27.245  35.032  1.00  0.00    -0.237 OA
ATOM    104  O   UNL A   1      50.901  26.110  36.901  1.00  0.00    -0.744 OA
ENDBRANCH 100 101
ENDBRANCH  68  93
ENDBRANCH  42  43
ENDBRANCH  35  37
ENDBRANCH  34  35
ENDBRANCH  33  34
ENDBRANCH  32  33
ENDBRANCH  31  32
ENDBRANCH  29  31
ENDBRANCH   1  29
TORSDOF 24
ENDMDL
