MODEL 1
REMARK VINA RESULT:     -10.8      0.000      0.000
REMARK SMILES O=C(NC[C@@H]1CC[C@H](C(=O)OCCOC(=O)c2ccc(-c3c4nc(c(-c5c(F)cc(S(=O)(=O)[O-])cc5F)c5ccc([nH]5)c(-c5c(F)cc(S(=O)(=O)[O-])cc5F)c5nc(c(-c6c(F)cc(S(=O)(=O)[O-])cc6F)c6ccc3[nH]6)C=C5)C=C4)cc2)O1)Nc1ncccn1
REMARK SMILES IDX 12 1 11 2 9 3 10 4 8 5 5 6 6 7 83 8 7 9 4 10 3 11 1 12 2 13
REMARK SMILES IDX 84 14 85 17 86 18 90 19 87 20 89 21 88 22 13 23 14 24 15 25
REMARK SMILES IDX 16 26 17 27 18 28 82 29 19 30 81 31 20 32 21 33 22 34 75 35
REMARK SMILES IDX 23 36 80 37 74 38 76 39 24 40 79 41 73 42 72 43 25 45 59 46
REMARK SMILES IDX 38 47 58 48 39 49 42 50 57 51 77 52 40 53 41 54 56 56 78 57
REMARK SMILES IDX 43 58 26 59 27 60 36 61 28 62 29 63 35 64 37 65 30 66 31 67
REMARK SMILES IDX 32 68 33 69 34 70 60 71 61 72 70 73 62 74 63 75 69 76 71 77
REMARK SMILES IDX 64 78 65 79 66 80 67 81 68 82 44 83 45 84 54 85 46 86 47 87
REMARK SMILES IDX 53 88 55 89 48 90 49 91 50 92 51 93 52 94
REMARK H PARENT 3 15 84 16 76 44 42 55
REMARK Flexibility Score: inf
ROOT
ATOM      1  C   UNL A   1      38.744  21.198  25.669  1.00  0.00     0.274 C 
ENDROOT
BRANCH   1   2
ATOM      2  O   UNL A   1      37.685  21.250  24.690  1.00  0.00    -0.460 OA
BRANCH   2   3
ATOM      3  C   UNL A   1      36.446  21.557  25.169  1.00  0.00     0.335 C 
ATOM      4  O   UNL A   1      35.692  20.757  25.709  1.00  0.00    -0.249 OA
BRANCH   3   5
ATOM      5  C   UNL A   1      36.088  23.043  24.975  1.00  0.00     0.228 C 
ATOM      6  C   UNL A   1      33.849  23.618  24.676  1.00  0.00     0.138 C 
ATOM      7  C   UNL A   1      34.438  23.327  23.303  1.00  0.00     0.037 C 
ATOM      8  O   UNL A   1      34.882  23.411  25.650  1.00  0.00    -0.361 OA
ATOM      9  C   UNL A   1      35.920  23.492  23.534  1.00  0.00     0.047 C 
BRANCH   6  10
ATOM     10  C   UNL A   1      32.626  22.764  25.036  1.00  0.00     0.149 C 
BRANCH  10  11
ATOM     11  N   UNL A   1      32.198  21.909  23.931  1.00  0.00    -0.335 N 
ATOM     12  O   UNL A   1      32.134  20.114  22.633  1.00  0.00    -0.248 OA
ATOM     13  C   UNL A   1      32.369  20.565  23.750  1.00  0.00     0.321 C 
ATOM     14  N   UNL A   1      32.721  19.863  24.854  1.00  0.00    -0.276 N 
ATOM     15  H   UNL A   1      31.715  22.371  23.208  1.00  0.00     0.165 HD
ATOM     16  H   UNL A   1      32.687  20.345  25.712  1.00  0.00     0.175 HD
BRANCH  14  17
ATOM     17  C   UNL A   1      33.121  18.539  24.902  1.00  0.00     0.230 A 
ATOM     18  N   UNL A   1      32.228  17.727  25.498  1.00  0.00    -0.221 NA
ATOM     19  N   UNL A   1      34.306  18.138  24.432  1.00  0.00    -0.221 NA
ATOM     20  C   UNL A   1      32.570  16.428  25.599  1.00  0.00     0.117 A 
ATOM     21  C   UNL A   1      34.613  16.837  24.582  1.00  0.00     0.117 A 
ATOM     22  C   UNL A   1      33.767  15.921  25.157  1.00  0.00     0.040 A 
ENDBRANCH  14  17
ENDBRANCH  10  11
ENDBRANCH   6  10
ENDBRANCH   3   5
ENDBRANCH   2   3
ENDBRANCH   1   2
BRANCH   1  23
ATOM     23  C   UNL A   1      39.431  19.827  25.686  1.00  0.00     0.275 C 
BRANCH  23  24
ATOM     24  O   UNL A   1      40.489  19.765  26.661  1.00  0.00    -0.458 OA
BRANCH  24  25
ATOM     25  C   UNL A   1      41.742  19.709  26.153  1.00  0.00     0.338 C 
ATOM     26  O   UNL A   1      42.234  18.807  25.497  1.00  0.00    -0.246 OA
BRANCH  25  27
ATOM     27  C   UNL A   1      42.423  20.993  26.378  1.00  0.00     0.060 A 
ATOM     28  C   UNL A   1      42.678  21.375  27.696  1.00  0.00     0.016 A 
ATOM     29  C   UNL A   1      42.732  21.847  25.320  1.00  0.00     0.016 A 
ATOM     30  C   UNL A   1      43.243  22.613  27.972  1.00  0.00     0.010 A 
ATOM     31  C   UNL A   1      43.306  23.093  25.597  1.00  0.00     0.010 A 
ATOM     32  C   UNL A   1      43.557  23.484  26.924  1.00  0.00    -0.014 A 
BRANCH  32  33
ATOM     33  C   UNL A   1      44.115  24.821  27.231  1.00  0.00     0.031 A 
ATOM     34  C   UNL A   1      43.211  25.905  27.742  1.00  0.00     0.074 A 
ATOM     35  C   UNL A   1      45.434  25.046  27.078  1.00  0.00     0.049 A 
ATOM     36  N   UNL A   1      43.479  27.164  27.971  1.00  0.00    -0.248 NA
ATOM     37  C   UNL A   1      41.822  25.521  28.033  1.00  0.00     0.031 C 
ATOM     38  C   UNL A   1      46.414  24.048  26.646  1.00  0.00     0.029 A 
ATOM     39  N   UNL A   1      46.174  26.184  27.266  1.00  0.00    -0.354 N 
ATOM     40  C   UNL A   1      42.288  27.730  28.407  1.00  0.00     0.074 A 
ATOM     41  C   UNL A   1      41.293  26.679  28.406  1.00  0.00     0.031 C 
ATOM     42  C   UNL A   1      47.628  24.620  26.598  1.00  0.00     0.029 A 
ATOM     43  C   UNL A   1      47.503  26.033  26.946  1.00  0.00     0.049 A 
ATOM     44  H   UNL A   1      45.792  27.028  27.597  1.00  0.00     0.167 HD
ATOM     45  C   UNL A   1      42.051  29.012  28.772  1.00  0.00     0.037 A 
ATOM     46  C   UNL A   1      48.498  26.939  26.906  1.00  0.00     0.037 A 
ATOM     47  C   UNL A   1      43.055  30.045  28.786  1.00  0.00     0.049 A 
ATOM     48  C   UNL A   1      48.198  28.368  27.266  1.00  0.00     0.074 A 
ATOM     49  C   UNL A   1      42.918  31.375  29.141  1.00  0.00     0.029 A 
ATOM     50  N   UNL A   1      44.384  29.859  28.431  1.00  0.00    -0.354 N 
ATOM     51  N   UNL A   1      47.061  28.898  27.650  1.00  0.00    -0.248 NA
ATOM     52  C   UNL A   1      49.310  29.324  27.177  1.00  0.00     0.031 C 
ATOM     53  C   UNL A   1      44.158  32.001  28.970  1.00  0.00     0.029 A 
ATOM     54  C   UNL A   1      45.075  31.054  28.544  1.00  0.00     0.049 A 
ATOM     55  H   UNL A   1      44.777  29.004  28.142  1.00  0.00     0.167 HD
ATOM     56  C   UNL A   1      47.323  30.246  27.862  1.00  0.00     0.074 A 
ATOM     57  C   UNL A   1      48.729  30.448  27.575  1.00  0.00     0.031 C 
ATOM     58  C   UNL A   1      46.477  31.229  28.257  1.00  0.00     0.037 A 
BRANCH  45  59
ATOM     59  C   UNL A   1      40.643  29.376  29.150  1.00  0.00     0.058 A 
ATOM     60  C   UNL A   1      39.637  29.541  28.187  1.00  0.00     0.135 A 
ATOM     61  C   UNL A   1      40.294  29.544  30.500  1.00  0.00     0.135 A 
ATOM     62  F   UNL A   1      39.923  29.410  26.882  1.00  0.00    -0.206 F 
ATOM     63  C   UNL A   1      38.337  29.882  28.546  1.00  0.00     0.059 A 
ATOM     64  C   UNL A   1      38.995  29.866  30.883  1.00  0.00     0.059 A 
ATOM     65  F   UNL A   1      41.221  29.401  31.461  1.00  0.00    -0.206 F 
ATOM     66  C   UNL A   1      38.027  30.047  29.898  1.00  0.00     0.060 A 
BRANCH  66  67
ATOM     67  S   UNL A   1      36.339  30.497  30.353  1.00  0.00     0.124 S 
ATOM     68  O   UNL A   1      36.470  31.935  30.571  1.00  0.00    -0.237 OA
ATOM     69  O   UNL A   1      35.578  30.104  29.170  1.00  0.00    -0.237 OA
ATOM     70  O   UNL A   1      36.085  29.700  31.549  1.00  0.00    -0.744 OA
ENDBRANCH  66  67
ENDBRANCH  45  59
BRANCH  46  71
ATOM     71  C   UNL A   1      49.858  26.523  26.476  1.00  0.00     0.058 A 
ATOM     72  C   UNL A   1      50.759  25.945  27.381  1.00  0.00     0.135 A 
ATOM     73  C   UNL A   1      50.275  26.678  25.144  1.00  0.00     0.135 A 
ATOM     74  F   UNL A   1      50.408  25.787  28.666  1.00  0.00    -0.206 F 
ATOM     75  C   UNL A   1      52.028  25.537  26.984  1.00  0.00     0.059 A 
ATOM     76  C   UNL A   1      51.531  26.258  24.718  1.00  0.00     0.059 A 
ATOM     77  F   UNL A   1      49.446  27.219  24.238  1.00  0.00    -0.206 F 
ATOM     78  C   UNL A   1      52.405  25.696  25.648  1.00  0.00     0.060 A 
BRANCH  78  79
ATOM     79  S   UNL A   1      54.034  25.115  25.127  1.00  0.00     0.124 S 
ATOM     80  O   UNL A   1      53.786  23.693  24.925  1.00  0.00    -0.237 OA
ATOM     81  O   UNL A   1      54.271  25.899  23.918  1.00  0.00    -0.237 OA
ATOM     82  O   UNL A   1      54.889  25.454  26.261  1.00  0.00    -0.744 OA
ENDBRANCH  78  79
ENDBRANCH  46  71
BRANCH  58  83
ATOM     83  C   UNL A   1      47.053  32.605  28.427  1.00  0.00     0.058 A 
ATOM     84  C   UNL A   1      47.083  33.523  27.366  1.00  0.00     0.135 A 
ATOM     85  C   UNL A   1      47.524  33.029  29.680  1.00  0.00     0.135 A 
ATOM     86  F   UNL A   1      46.650  33.161  26.148  1.00  0.00    -0.206 F 
ATOM     87  C   UNL A   1      47.573  34.812  27.537  1.00  0.00     0.059 A 
ATOM     88  C   UNL A   1      48.000  34.320  29.879  1.00  0.00     0.059 A 
ATOM     89  F   UNL A   1      47.508  32.189  30.728  1.00  0.00    -0.206 F 
ATOM     90  C   UNL A   1      48.028  35.202  28.799  1.00  0.00     0.060 A 
BRANCH  90  91
ATOM     91  S   UNL A   1      48.621  36.893  29.024  1.00  0.00     0.124 S 
ATOM     92  O   UNL A   1      48.353  37.113  30.441  1.00  0.00    -0.237 OA
ATOM     93  O   UNL A   1      50.029  36.786  28.654  1.00  0.00    -0.237 OA
ATOM     94  O   UNL A   1      47.795  37.666  28.101  1.00  0.00    -0.744 OA
ENDBRANCH  90  91
ENDBRANCH  58  83
ENDBRANCH  32  33
ENDBRANCH  25  27
ENDBRANCH  24  25
ENDBRANCH  23  24
ENDBRANCH   1  23
TORSDOF 17
ENDMDL
MODEL 2
REMARK VINA RESULT:     -10.8      3.555      8.044
REMARK SMILES O=C(NC[C@@H]1CC[C@H](C(=O)OCCOC(=O)c2ccc(-c3c4nc(c(-c5c(F)cc(S(=O)(=O)[O-])cc5F)c5ccc([nH]5)c(-c5c(F)cc(S(=O)(=O)[O-])cc5F)c5nc(c(-c6c(F)cc(S(=O)(=O)[O-])cc6F)c6ccc3[nH]6)C=C5)C=C4)cc2)O1)Nc1ncccn1
REMARK SMILES IDX 12 1 11 2 9 3 10 4 8 5 5 6 6 7 83 8 7 9 4 10 3 11 1 12 2 13
REMARK SMILES IDX 84 14 85 17 86 18 90 19 87 20 89 21 88 22 13 23 14 24 15 25
REMARK SMILES IDX 16 26 17 27 18 28 82 29 19 30 81 31 20 32 21 33 22 34 75 35
REMARK SMILES IDX 23 36 80 37 74 38 76 39 24 40 79 41 73 42 72 43 25 45 59 46
REMARK SMILES IDX 38 47 58 48 39 49 42 50 57 51 77 52 40 53 41 54 56 56 78 57
REMARK SMILES IDX 43 58 26 59 27 60 36 61 28 62 29 63 35 64 37 65 30 66 31 67
REMARK SMILES IDX 32 68 33 69 34 70 60 71 61 72 70 73 62 74 63 75 69 76 71 77
REMARK SMILES IDX 64 78 65 79 66 80 67 81 68 82 44 83 45 84 54 85 46 86 47 87
REMARK SMILES IDX 53 88 55 89 48 90 49 91 50 92 51 93 52 94
REMARK H PARENT 3 15 84 16 76 44 42 55
REMARK Flexibility Score: inf
ROOT
ATOM      1  C   UNL A   1      33.629  28.208  25.393  1.00  0.00     0.274 C 
ENDROOT
BRANCH   1   2
ATOM      2  O   UNL A   1      32.428  27.447  25.149  1.00  0.00    -0.460 OA
BRANCH   2   3
ATOM      3  C   UNL A   1      32.404  26.188  25.674  1.00  0.00     0.335 C 
ATOM      4  O   UNL A   1      33.389  25.593  26.097  1.00  0.00    -0.249 OA
BRANCH   3   5
ATOM      5  C   UNL A   1      30.987  25.584  25.699  1.00  0.00     0.228 C 
ATOM      6  C   UNL A   1      30.723  23.345  25.107  1.00  0.00     0.138 C 
ATOM      7  C   UNL A   1      30.613  24.174  23.836  1.00  0.00     0.037 C 
ATOM      8  O   UNL A   1      30.970  24.244  26.198  1.00  0.00    -0.361 OA
ATOM      9  C   UNL A   1      30.270  25.546  24.361  1.00  0.00     0.047 C 
BRANCH   6  10
ATOM     10  C   UNL A   1      31.817  22.269  25.071  1.00  0.00     0.149 C 
BRANCH  10  11
ATOM     11  N   UNL A   1      32.460  22.085  26.371  1.00  0.00    -0.335 N 
ATOM     12  O   UNL A   1      34.099  21.697  27.811  1.00  0.00    -0.248 OA
ATOM     13  C   UNL A   1      33.786  22.116  26.700  1.00  0.00     0.321 C 
ATOM     14  N   UNL A   1      34.609  22.673  25.779  1.00  0.00    -0.276 N 
ATOM     15  H   UNL A   1      31.846  21.913  27.120  1.00  0.00     0.165 HD
ATOM     16  H   UNL A   1      34.177  23.130  25.022  1.00  0.00     0.175 HD
BRANCH  14  17
ATOM     17  C   UNL A   1      35.993  22.667  25.792  1.00  0.00     0.230 A 
ATOM     18  N   UNL A   1      36.532  21.478  25.466  1.00  0.00    -0.221 NA
ATOM     19  N   UNL A   1      36.704  23.744  26.141  1.00  0.00    -0.221 NA
ATOM     20  C   UNL A   1      37.876  21.401  25.486  1.00  0.00     0.117 A 
ATOM     21  C   UNL A   1      38.041  23.609  26.173  1.00  0.00     0.117 A 
ATOM     22  C   UNL A   1      38.692  22.447  25.839  1.00  0.00     0.040 A 
ENDBRANCH  14  17
ENDBRANCH  10  11
ENDBRANCH   6  10
ENDBRANCH   3   5
ENDBRANCH   2   3
ENDBRANCH   1   2
BRANCH   1  23
ATOM     23  C   UNL A   1      33.324  29.531  26.107  1.00  0.00     0.275 C 
BRANCH  23  24
ATOM     24  O   UNL A   1      33.663  29.479  27.506  1.00  0.00    -0.458 OA
BRANCH  24  25
ATOM     25  C   UNL A   1      34.419  30.507  27.957  1.00  0.00     0.338 C 
ATOM     26  O   UNL A   1      34.039  31.621  28.272  1.00  0.00    -0.246 OA
BRANCH  25  27
ATOM     27  C   UNL A   1      35.800  30.048  28.166  1.00  0.00     0.060 A 
ATOM     28  C   UNL A   1      36.171  29.655  29.453  1.00  0.00     0.016 A 
ATOM     29  C   UNL A   1      36.740  30.080  27.136  1.00  0.00     0.016 A 
ATOM     30  C   UNL A   1      37.483  29.292  29.726  1.00  0.00     0.010 A 
ATOM     31  C   UNL A   1      38.062  29.709  27.409  1.00  0.00     0.010 A 
ATOM     32  C   UNL A   1      38.441  29.321  28.706  1.00  0.00    -0.014 A 
BRANCH  32  33
ATOM     33  C   UNL A   1      39.847  28.978  29.019  1.00  0.00     0.031 A 
ATOM     34  C   UNL A   1      40.736  30.000  29.663  1.00  0.00     0.074 A 
ATOM     35  C   UNL A   1      40.308  27.742  28.749  1.00  0.00     0.049 A 
ATOM     36  N   UNL A   1      42.016  29.935  29.922  1.00  0.00    -0.248 NA
ATOM     37  C   UNL A   1      40.101  31.263  30.070  1.00  0.00     0.031 C 
ATOM     38  C   UNL A   1      39.515  26.652  28.178  1.00  0.00     0.029 A 
ATOM     39  N   UNL A   1      41.555  27.197  28.915  1.00  0.00    -0.354 N 
ATOM     40  C   UNL A   1      42.348  31.156  30.497  1.00  0.00     0.074 A 
ATOM     41  C   UNL A   1      41.135  31.945  30.544  1.00  0.00     0.031 C 
ATOM     42  C   UNL A   1      40.296  25.569  28.039  1.00  0.00     0.029 A 
ATOM     43  C   UNL A   1      41.653  25.903  28.461  1.00  0.00     0.049 A 
ATOM     44  H   UNL A   1      42.308  27.685  29.320  1.00  0.00     0.167 HD
ATOM     45  C   UNL A   1      43.556  31.574  30.941  1.00  0.00     0.037 A 
ATOM     46  C   UNL A   1      42.724  25.092  28.366  1.00  0.00     0.037 A 
ATOM     47  C   UNL A   1      44.751  30.772  30.904  1.00  0.00     0.049 A 
ATOM     48  C   UNL A   1      44.065  25.600  28.818  1.00  0.00     0.074 A 
ATOM     49  C   UNL A   1      46.024  31.103  31.331  1.00  0.00     0.029 A 
ATOM     50  N   UNL A   1      44.816  29.475  30.414  1.00  0.00    -0.354 N 
ATOM     51  N   UNL A   1      44.373  26.766  29.334  1.00  0.00    -0.248 NA
ATOM     52  C   UNL A   1      45.208  24.688  28.665  1.00  0.00     0.031 C 
ATOM     53  C   UNL A   1      46.868  30.016  31.070  1.00  0.00     0.029 A 
ATOM     54  C   UNL A   1      46.112  28.997  30.514  1.00  0.00     0.049 A 
ATOM     55  H   UNL A   1      44.054  28.970  30.050  1.00  0.00     0.167 HD
ATOM     56  C   UNL A   1      45.740  26.724  29.581  1.00  0.00     0.074 A 
ATOM     57  C   UNL A   1      46.198  25.413  29.168  1.00  0.00     0.031 C 
ATOM     58  C   UNL A   1      46.544  27.684  30.101  1.00  0.00     0.037 A 
BRANCH  45  59
ATOM     59  C   UNL A   1      43.651  32.977  31.471  1.00  0.00     0.058 A 
ATOM     60  C   UNL A   1      43.885  34.073  30.626  1.00  0.00     0.135 A 
ATOM     61  C   UNL A   1      43.487  33.229  32.843  1.00  0.00     0.135 A 
ATOM     62  F   UNL A   1      44.067  33.884  29.310  1.00  0.00    -0.206 F 
ATOM     63  C   UNL A   1      43.975  35.368  31.126  1.00  0.00     0.059 A 
ATOM     64  C   UNL A   1      43.554  34.519  33.361  1.00  0.00     0.059 A 
ATOM     65  F   UNL A   1      43.264  32.215  33.693  1.00  0.00    -0.206 F 
ATOM     66  C   UNL A   1      43.813  35.581  32.497  1.00  0.00     0.060 A 
BRANCH  66  67
ATOM     67  S   UNL A   1      43.940  37.264  33.135  1.00  0.00     0.124 S 
ATOM     68  O   UNL A   1      42.820  37.304  34.072  1.00  0.00    -0.237 OA
ATOM     69  O   UNL A   1      45.269  37.273  33.738  1.00  0.00    -0.237 OA
ATOM     70  O   UNL A   1      43.791  38.093  31.943  1.00  0.00    -0.744 OA
ENDBRANCH  66  67
ENDBRANCH  45  59
BRANCH  46  71
ATOM     71  C   UNL A   1      42.571  23.732  27.788  1.00  0.00     0.058 A 
ATOM     72  C   UNL A   1      42.579  23.529  26.402  1.00  0.00     0.135 A 
ATOM     73  C   UNL A   1      42.434  22.606  28.615  1.00  0.00     0.135 A 
ATOM     74  F   UNL A   1      42.696  24.577  25.572  1.00  0.00    -0.206 F 
ATOM     75  C   UNL A   1      42.453  22.257  25.852  1.00  0.00     0.059 A 
ATOM     76  C   UNL A   1      42.329  21.322  28.090  1.00  0.00     0.059 A 
ATOM     77  F   UNL A   1      42.428  22.748  29.950  1.00  0.00    -0.206 F 
ATOM     78  C   UNL A   1      42.330  21.158  26.705  1.00  0.00     0.060 A 
BRANCH  78  79
ATOM     79  S   UNL A   1      42.222  19.505  25.987  1.00  0.00     0.124 S 
ATOM     80  O   UNL A   1      43.133  19.617  24.855  1.00  0.00    -0.237 OA
ATOM     81  O   UNL A   1      42.673  18.657  27.088  1.00  0.00    -0.237 OA
ATOM     82  O   UNL A   1      40.807  19.378  25.651  1.00  0.00    -0.744 OA
ENDBRANCH  78  79
ENDBRANCH  46  71
BRANCH  58  83
ATOM     83  C   UNL A   1      47.996  27.345  30.276  1.00  0.00     0.058 A 
ATOM     84  C   UNL A   1      48.927  27.557  29.248  1.00  0.00     0.135 A 
ATOM     85  C   UNL A   1      48.468  26.859  31.505  1.00  0.00     0.135 A 
ATOM     86  F   UNL A   1      48.521  28.013  28.053  1.00  0.00    -0.206 F 
ATOM     87  C   UNL A   1      50.278  27.286  29.428  1.00  0.00     0.059 A 
ATOM     88  C   UNL A   1      49.818  26.600  31.714  1.00  0.00     0.059 A 
ATOM     89  F   UNL A   1      47.616  26.647  32.521  1.00  0.00    -0.206 F 
ATOM     90  C   UNL A   1      50.715  26.809  30.667  1.00  0.00     0.060 A 
BRANCH  90  91
ATOM     91  S   UNL A   1      52.478  26.503  30.907  1.00  0.00     0.124 S 
ATOM     92  O   UNL A   1      52.975  26.553  29.535  1.00  0.00    -0.237 OA
ATOM     93  O   UNL A   1      52.877  27.613  31.766  1.00  0.00    -0.237 OA
ATOM     94  O   UNL A   1      52.510  25.187  31.539  1.00  0.00    -0.744 OA
ENDBRANCH  90  91
ENDBRANCH  58  83
ENDBRANCH  32  33
ENDBRANCH  25  27
ENDBRANCH  24  25
ENDBRANCH  23  24
ENDBRANCH   1  23
TORSDOF 17
ENDMDL
MODEL 3
REMARK VINA RESULT:     -10.8      6.210     10.799
REMARK SMILES O=C(NC[C@@H]1CC[C@H](C(=O)OCCOC(=O)c2ccc(-c3c4nc(c(-c5c(F)cc(S(=O)(=O)[O-])cc5F)c5ccc([nH]5)c(-c5c(F)cc(S(=O)(=O)[O-])cc5F)c5nc(c(-c6c(F)cc(S(=O)(=O)[O-])cc6F)c6ccc3[nH]6)C=C5)C=C4)cc2)O1)Nc1ncccn1
REMARK SMILES IDX 12 1 11 2 9 3 10 4 8 5 5 6 6 7 83 8 7 9 4 10 3 11 1 12 2 13
REMARK SMILES IDX 84 14 85 17 86 18 90 19 87 20 89 21 88 22 13 23 14 24 15 25
REMARK SMILES IDX 16 26 17 27 18 28 82 29 19 30 81 31 20 32 21 33 22 34 75 35
REMARK SMILES IDX 23 36 80 37 74 38 76 39 24 40 79 41 73 42 72 43 25 45 59 46
REMARK SMILES IDX 38 47 58 48 39 49 42 50 57 51 77 52 40 53 41 54 56 56 78 57
REMARK SMILES IDX 43 58 26 59 27 60 36 61 28 62 29 63 35 64 37 65 30 66 31 67
REMARK SMILES IDX 32 68 33 69 34 70 60 71 61 72 70 73 62 74 63 75 69 76 71 77
REMARK SMILES IDX 64 78 65 79 66 80 67 81 68 82 44 83 45 84 54 85 46 86 47 87
REMARK SMILES IDX 53 88 55 89 48 90 49 91 50 92 51 93 52 94
REMARK H PARENT 3 15 84 16 76 44 42 55
REMARK Flexibility Score: inf
ROOT
ATOM      1  C   UNL A   1      38.881  22.497  26.119  1.00  0.00     0.274 C 
ENDROOT
BRANCH   1   2
ATOM      2  O   UNL A   1      38.188  21.345  25.596  1.00  0.00    -0.460 OA
BRANCH   2   3
ATOM      3  C   UNL A   1      36.877  21.534  25.273  1.00  0.00     0.335 C 
ATOM      4  O   UNL A   1      36.030  20.648  25.258  1.00  0.00    -0.249 OA
BRANCH   3   5
ATOM      5  C   UNL A   1      36.555  23.003  24.939  1.00  0.00     0.228 C 
ATOM      6  C   UNL A   1      34.330  23.600  24.583  1.00  0.00     0.138 C 
ATOM      7  C   UNL A   1      34.911  23.167  23.245  1.00  0.00     0.037 C 
ATOM      8  O   UNL A   1      35.359  23.461  25.574  1.00  0.00    -0.361 OA
ATOM      9  C   UNL A   1      36.397  23.318  23.462  1.00  0.00     0.047 C 
BRANCH   6  10
ATOM     10  C   UNL A   1      33.087  22.814  25.020  1.00  0.00     0.149 C 
BRANCH  10  11
ATOM     11  N   UNL A   1      32.452  22.112  23.906  1.00  0.00    -0.335 N 
ATOM     12  O   UNL A   1      32.012  20.439  22.521  1.00  0.00    -0.248 OA
ATOM     13  C   UNL A   1      32.393  20.772  23.640  1.00  0.00     0.321 C 
ATOM     14  N   UNL A   1      32.704  19.952  24.672  1.00  0.00    -0.276 N 
ATOM     15  H   UNL A   1      32.000  22.690  23.251  1.00  0.00     0.165 HD
ATOM     16  H   UNL A   1      32.808  20.374  25.554  1.00  0.00     0.175 HD
BRANCH  14  17
ATOM     17  C   UNL A   1      32.889  18.582  24.615  1.00  0.00     0.230 A 
ATOM     18  N   UNL A   1      32.452  17.932  25.709  1.00  0.00    -0.221 NA
ATOM     19  N   UNL A   1      33.488  17.988  23.578  1.00  0.00    -0.221 NA
ATOM     20  C   UNL A   1      32.627  16.596  25.727  1.00  0.00     0.117 A 
ATOM     21  C   UNL A   1      33.664  16.658  23.654  1.00  0.00     0.117 A 
ATOM     22  C   UNL A   1      33.239  15.897  24.716  1.00  0.00     0.040 A 
ENDBRANCH  14  17
ENDBRANCH  10  11
ENDBRANCH   6  10
ENDBRANCH   3   5
ENDBRANCH   2   3
ENDBRANCH   1   2
BRANCH   1  23
ATOM     23  C   UNL A   1      40.362  22.195  26.381  1.00  0.00     0.275 C 
BRANCH  23  24
ATOM     24  O   UNL A   1      40.941  23.116  27.325  1.00  0.00    -0.458 OA
BRANCH  24  25
ATOM     25  C   UNL A   1      41.414  24.268  26.795  1.00  0.00     0.338 C 
ATOM     26  O   UNL A   1      41.840  24.442  25.666  1.00  0.00    -0.246 OA
BRANCH  25  27
ATOM     27  C   UNL A   1      41.211  25.369  27.747  1.00  0.00     0.060 A 
ATOM     28  C   UNL A   1      42.278  26.240  27.977  1.00  0.00     0.016 A 
ATOM     29  C   UNL A   1      40.023  25.498  28.467  1.00  0.00     0.016 A 
ATOM     30  C   UNL A   1      42.171  27.247  28.927  1.00  0.00     0.010 A 
ATOM     31  C   UNL A   1      39.913  26.516  29.420  1.00  0.00     0.010 A 
ATOM     32  C   UNL A   1      40.988  27.390  29.660  1.00  0.00    -0.014 A 
BRANCH  32  33
ATOM     33  C   UNL A   1      40.901  28.437  30.704  1.00  0.00     0.031 A 
ATOM     34  C   UNL A   1      41.845  28.404  31.870  1.00  0.00     0.074 A 
ATOM     35  C   UNL A   1      39.995  29.426  30.584  1.00  0.00     0.049 A 
ATOM     36  N   UNL A   1      41.867  29.162  32.936  1.00  0.00    -0.248 NA
ATOM     37  C   UNL A   1      42.904  27.385  31.832  1.00  0.00     0.031 C 
ATOM     38  C   UNL A   1      39.069  29.589  29.462  1.00  0.00     0.029 A 
ATOM     39  N   UNL A   1      39.704  30.477  31.414  1.00  0.00    -0.354 N 
ATOM     40  C   UNL A   1      42.923  28.695  33.709  1.00  0.00     0.074 A 
ATOM     41  C   UNL A   1      43.514  27.585  32.993  1.00  0.00     0.031 C 
ATOM     42  C   UNL A   1      38.309  30.674  29.677  1.00  0.00     0.029 A 
ATOM     43  C   UNL A   1      38.659  31.253  30.971  1.00  0.00     0.049 A 
ATOM     44  H   UNL A   1      40.195  30.659  32.248  1.00  0.00     0.167 HD
ATOM     45  C   UNL A   1      43.353  29.154  34.907  1.00  0.00     0.037 A 
ATOM     46  C   UNL A   1      38.035  32.291  31.558  1.00  0.00     0.037 A 
ATOM     47  C   UNL A   1      42.766  30.271  35.601  1.00  0.00     0.049 A 
ATOM     48  C   UNL A   1      38.498  32.748  32.913  1.00  0.00     0.074 A 
ATOM     49  C   UNL A   1      43.129  30.816  36.819  1.00  0.00     0.029 A 
ATOM     50  N   UNL A   1      41.693  31.016  35.132  1.00  0.00    -0.354 N 
ATOM     51  N   UNL A   1      39.479  32.282  33.648  1.00  0.00    -0.248 NA
ATOM     52  C   UNL A   1      37.764  33.865  33.526  1.00  0.00     0.031 C 
ATOM     53  C   UNL A   1      42.255  31.872  37.102  1.00  0.00     0.029 A 
ATOM     54  C   UNL A   1      41.371  32.008  36.044  1.00  0.00     0.049 A 
ATOM     55  H   UNL A   1      41.230  30.863  34.277  1.00  0.00     0.167 HD
ATOM     56  C   UNL A   1      39.491  33.055  34.803  1.00  0.00     0.074 A 
ATOM     57  C   UNL A   1      38.426  34.028  34.664  1.00  0.00     0.031 C 
ATOM     58  C   UNL A   1      40.308  32.969  35.881  1.00  0.00     0.037 A 
BRANCH  45  59
ATOM     59  C   UNL A   1      44.491  28.423  35.561  1.00  0.00     0.058 A 
ATOM     60  C   UNL A   1      44.275  27.343  36.430  1.00  0.00     0.135 A 
ATOM     61  C   UNL A   1      45.819  28.799  35.297  1.00  0.00     0.135 A 
ATOM     62  F   UNL A   1      43.025  26.956  36.730  1.00  0.00    -0.206 F 
ATOM     63  C   UNL A   1      45.336  26.674  37.034  1.00  0.00     0.059 A 
ATOM     64  C   UNL A   1      46.895  28.131  35.875  1.00  0.00     0.059 A 
ATOM     65  F   UNL A   1      46.079  29.827  34.475  1.00  0.00    -0.206 F 
ATOM     66  C   UNL A   1      46.643  27.079  36.753  1.00  0.00     0.060 A 
BRANCH  66  67
ATOM     67  S   UNL A   1      48.010  26.209  37.548  1.00  0.00     0.124 S 
ATOM     68  O   UNL A   1      47.486  26.016  38.897  1.00  0.00    -0.237 OA
ATOM     69  O   UNL A   1      48.130  25.002  36.737  1.00  0.00    -0.237 OA
ATOM     70  O   UNL A   1      49.122  27.148  37.435  1.00  0.00    -0.744 OA
ENDBRANCH  66  67
ENDBRANCH  45  59
BRANCH  46  71
ATOM     71  C   UNL A   1      36.884  32.940  30.879  1.00  0.00     0.058 A 
ATOM     72  C   UNL A   1      37.080  33.869  29.849  1.00  0.00     0.135 A 
ATOM     73  C   UNL A   1      35.562  32.625  31.235  1.00  0.00     0.135 A 
ATOM     74  F   UNL A   1      38.325  34.209  29.482  1.00  0.00    -0.206 F 
ATOM     75  C   UNL A   1      36.008  34.470  29.196  1.00  0.00     0.059 A 
ATOM     76  C   UNL A   1      34.474  33.195  30.583  1.00  0.00     0.059 A 
ATOM     77  F   UNL A   1      35.322  31.735  32.210  1.00  0.00    -0.206 F 
ATOM     78  C   UNL A   1      34.707  34.124  29.569  1.00  0.00     0.060 A 
BRANCH  78  79
ATOM     79  S   UNL A   1      33.320  34.865  28.681  1.00  0.00     0.124 S 
ATOM     80  O   UNL A   1      32.892  33.760  27.833  1.00  0.00    -0.237 OA
ATOM     81  O   UNL A   1      32.412  35.225  29.767  1.00  0.00    -0.237 OA
ATOM     82  O   UNL A   1      33.931  35.995  27.988  1.00  0.00    -0.744 OA
ENDBRANCH  78  79
ENDBRANCH  46  71
BRANCH  58  83
ATOM     83  C   UNL A   1      40.099  33.965  36.985  1.00  0.00     0.058 A 
ATOM     84  C   UNL A   1      40.756  35.204  36.987  1.00  0.00     0.135 A 
ATOM     85  C   UNL A   1      39.186  33.699  38.017  1.00  0.00     0.135 A 
ATOM     86  F   UNL A   1      41.643  35.500  36.024  1.00  0.00    -0.206 F 
ATOM     87  C   UNL A   1      40.524  36.145  37.984  1.00  0.00     0.059 A 
ATOM     88  C   UNL A   1      38.924  34.633  39.014  1.00  0.00     0.059 A 
ATOM     89  F   UNL A   1      38.527  32.530  38.054  1.00  0.00    -0.206 F 
ATOM     90  C   UNL A   1      39.604  35.850  38.994  1.00  0.00     0.060 A 
BRANCH  90  91
ATOM     91  S   UNL A   1      39.276  37.095  40.260  1.00  0.00     0.124 S 
ATOM     92  O   UNL A   1      40.625  37.407  40.722  1.00  0.00    -0.237 OA
ATOM     93  O   UNL A   1      38.606  38.147  39.502  1.00  0.00    -0.237 OA
ATOM     94  O   UNL A   1      38.431  36.388  41.218  1.00  0.00    -0.744 OA
ENDBRANCH  90  91
ENDBRANCH  58  83
ENDBRANCH  32  33
ENDBRANCH  25  27
ENDBRANCH  24  25
ENDBRANCH  23  24
ENDBRANCH   1  23
TORSDOF 17
ENDMDL
