MODEL 1
REMARK VINA RESULT:     -10.0      0.000      0.000
REMARK SMILES N#CCC1(C[N@H+]2CCO[C@H](CC(=O)OCCOC(=O)c3ccc(-c4c5nc(c(-c6c(F)cc(S(=O)(=O)[O-])cc6F)c6ccc([nH]6)c(-c6c(F)cc(S(=O)(=O)[O-])cc6F)c6nc(c(-c7c(F)cc(S(=O)(=O)[O-])cc7F)c7ccc4[nH]7)C=C6)C=C5)cc3)C2)CC1
REMARK SMILES IDX 15 1 14 2 12 3 13 4 11 5 10 6 6 7 7 8 86 9 8 11 9 12 5 13
REMARK SMILES IDX 4 14 87 15 88 16 3 17 2 18 1 19 16 20 17 21 18 22 19 23
REMARK SMILES IDX 20 24 21 25 85 26 22 27 84 28 23 29 24 30 25 31 78 32 26 33
REMARK SMILES IDX 83 34 77 35 79 36 27 37 82 38 76 39 75 40 28 42 62 43 41 44
REMARK SMILES IDX 61 45 42 46 45 47 60 48 80 49 43 50 44 51 59 53 81 54 46 55
REMARK SMILES IDX 29 56 30 57 39 58 31 59 32 60 38 61 40 62 33 63 34 64 35 65
REMARK SMILES IDX 36 66 37 67 63 68 64 69 73 70 65 71 66 72 72 73 74 74 67 75
REMARK SMILES IDX 68 76 69 77 70 78 71 79 47 80 48 81 57 82 49 83 50 84 56 85
REMARK SMILES IDX 58 86 51 87 52 88 53 89 54 90 55 91
REMARK H PARENT 6 10 79 41 45 52
REMARK Flexibility Score: inf
ROOT
ATOM      1  C   UNL A   1      37.606  21.865  25.626  1.00  0.00     0.274 C 
ENDROOT
BRANCH   1   2
ATOM      2  O   UNL A   1      37.468  22.156  24.225  1.00  0.00    -0.462 OA
BRANCH   2   3
ATOM      3  C   UNL A   1      36.293  22.731  23.860  1.00  0.00     0.308 C 
ATOM      4  O   UNL A   1      36.042  23.155  22.740  1.00  0.00    -0.252 OA
BRANCH   3   5
ATOM      5  C   UNL A   1      35.348  22.826  25.023  1.00  0.00     0.160 C 
BRANCH   5   6
ATOM      6  C   UNL A   1      34.165  21.862  24.877  1.00  0.00     0.184 C 
ATOM      7  N   UNL A   1      32.462  23.566  24.563  1.00  0.00    -0.330 N 
ATOM      8  C   UNL A   1      31.793  23.198  25.808  1.00  0.00     0.291 C 
ATOM      9  C   UNL A   1      33.071  22.411  23.936  1.00  0.00     0.295 C 
ATOM     10  H   UNL A   1      33.147  24.257  24.870  1.00  0.00     0.348 HD
ATOM     11  C   UNL A   1      32.833  22.563  26.771  1.00  0.00     0.222 C 
ATOM     12  O   UNL A   1      33.602  21.511  26.165  1.00  0.00    -0.366 OA
BRANCH   7  13
ATOM     13  C   UNL A   1      32.221  24.795  23.818  1.00  0.00     0.270 C 
BRANCH  13  14
ATOM     14  C   UNL A   1      32.592  26.051  24.659  1.00  0.00     0.032 C 
ATOM     15  C   UNL A   1      33.802  26.872  24.270  1.00  0.00     0.015 C 
ATOM     16  C   UNL A   1      33.807  26.098  25.559  1.00  0.00     0.015 C 
BRANCH  14  17
ATOM     17  C   UNL A   1      31.350  26.689  25.071  1.00  0.00     0.133 C 
BRANCH  17  18
ATOM     18  C   UNL A   1      29.974  26.619  24.428  1.00  0.00     0.063 C 
ATOM     19  N   UNL A   1      28.833  26.561  23.895  1.00  0.00    -0.198 NA
ENDBRANCH  17  18
ENDBRANCH  14  17
ENDBRANCH  13  14
ENDBRANCH   7  13
ENDBRANCH   5   6
ENDBRANCH   3   5
ENDBRANCH   2   3
ENDBRANCH   1   2
BRANCH   1  20
ATOM     20  C   UNL A   1      39.001  22.217  26.137  1.00  0.00     0.275 C 
BRANCH  20  21
ATOM     21  O   UNL A   1      39.190  23.643  26.247  1.00  0.00    -0.458 OA
BRANCH  21  22
ATOM     22  C   UNL A   1      40.334  24.032  26.855  1.00  0.00     0.338 C 
ATOM     23  O   UNL A   1      41.420  23.478  26.796  1.00  0.00    -0.246 OA
BRANCH  22  24
ATOM     24  C   UNL A   1      40.132  25.275  27.623  1.00  0.00     0.060 A 
ATOM     25  C   UNL A   1      41.013  26.337  27.452  1.00  0.00     0.016 A 
ATOM     26  C   UNL A   1      39.201  25.313  28.661  1.00  0.00     0.016 A 
ATOM     27  C   UNL A   1      41.040  27.379  28.386  1.00  0.00     0.010 A 
ATOM     28  C   UNL A   1      39.168  26.412  29.535  1.00  0.00     0.010 A 
ATOM     29  C   UNL A   1      40.121  27.441  29.444  1.00  0.00    -0.014 A 
BRANCH  29  30
ATOM     30  C   UNL A   1      40.179  28.548  30.455  1.00  0.00     0.031 A 
ATOM     31  C   UNL A   1      41.190  28.523  31.583  1.00  0.00     0.074 A 
ATOM     32  C   UNL A   1      39.333  29.598  30.377  1.00  0.00     0.049 A 
ATOM     33  N   UNL A   1      41.258  29.277  32.655  1.00  0.00    -0.248 NA
ATOM     34  C   UNL A   1      42.260  27.517  31.499  1.00  0.00     0.031 C 
ATOM     35  C   UNL A   1      38.329  29.807  29.332  1.00  0.00     0.029 A 
ATOM     36  N   UNL A   1      39.180  30.693  31.197  1.00  0.00    -0.354 N 
ATOM     37  C   UNL A   1      42.332  28.797  33.401  1.00  0.00     0.074 A 
ATOM     38  C   UNL A   1      42.892  27.689  32.654  1.00  0.00     0.031 C 
ATOM     39  C   UNL A   1      37.695  30.968  29.550  1.00  0.00     0.029 A 
ATOM     40  C   UNL A   1      38.169  31.539  30.805  1.00  0.00     0.049 A 
ATOM     41  H   UNL A   1      39.741  30.854  31.990  1.00  0.00     0.167 HD
ATOM     42  C   UNL A   1      42.806  29.234  34.595  1.00  0.00     0.037 A 
ATOM     43  C   UNL A   1      37.634  32.622  31.401  1.00  0.00     0.037 A 
ATOM     44  C   UNL A   1      42.292  30.374  35.314  1.00  0.00     0.049 A 
ATOM     45  C   UNL A   1      38.152  33.069  32.738  1.00  0.00     0.074 A 
ATOM     46  C   UNL A   1      42.725  30.897  36.522  1.00  0.00     0.029 A 
ATOM     47  N   UNL A   1      41.246  31.178  34.889  1.00  0.00    -0.354 N 
ATOM     48  N   UNL A   1      39.119  32.558  33.460  1.00  0.00    -0.248 NA
ATOM     49  C   UNL A   1      37.489  34.229  33.350  1.00  0.00     0.031 C 
ATOM     50  C   UNL A   1      41.919  31.996  36.845  1.00  0.00     0.029 A 
ATOM     51  C   UNL A   1      41.010  32.182  35.816  1.00  0.00     0.049 A 
ATOM     52  H   UNL A   1      40.743  31.054  34.052  1.00  0.00     0.167 HD
ATOM     53  C   UNL A   1      39.183  33.336  34.610  1.00  0.00     0.074 A 
ATOM     54  C   UNL A   1      38.176  34.367  34.476  1.00  0.00     0.031 C 
ATOM     55  C   UNL A   1      39.999  33.200  35.685  1.00  0.00     0.037 A 
BRANCH  42  56
ATOM     56  C   UNL A   1      43.928  28.455  35.232  1.00  0.00     0.058 A 
ATOM     57  C   UNL A   1      45.278  28.754  34.992  1.00  0.00     0.135 A 
ATOM     58  C   UNL A   1      43.640  27.423  36.142  1.00  0.00     0.135 A 
ATOM     59  F   UNL A   1      45.610  29.723  34.125  1.00  0.00    -0.206 F 
ATOM     60  C   UNL A   1      46.302  28.040  35.611  1.00  0.00     0.059 A 
ATOM     61  C   UNL A   1      44.647  26.713  36.789  1.00  0.00     0.059 A 
ATOM     62  F   UNL A   1      42.366  27.098  36.414  1.00  0.00    -0.206 F 
ATOM     63  C   UNL A   1      45.976  27.018  36.505  1.00  0.00     0.060 A 
BRANCH  63  64
ATOM     64  S   UNL A   1      47.314  26.100  37.298  1.00  0.00     0.124 S 
ATOM     65  O   UNL A   1      48.270  25.978  36.202  1.00  0.00    -0.237 OA
ATOM     66  O   UNL A   1      47.707  26.991  38.384  1.00  0.00    -0.237 OA
ATOM     67  O   UNL A   1      46.673  24.856  37.713  1.00  0.00    -0.744 OA
ENDBRANCH  63  64
ENDBRANCH  42  56
BRANCH  43  68
ATOM     68  C   UNL A   1      36.497  33.331  30.755  1.00  0.00     0.058 A 
ATOM     69  C   UNL A   1      35.191  33.199  31.246  1.00  0.00     0.135 A 
ATOM     70  C   UNL A   1      36.700  34.170  29.648  1.00  0.00     0.135 A 
ATOM     71  F   UNL A   1      34.946  32.397  32.292  1.00  0.00    -0.206 F 
ATOM     72  C   UNL A   1      34.123  33.873  30.662  1.00  0.00     0.059 A 
ATOM     73  C   UNL A   1      35.654  34.877  29.065  1.00  0.00     0.059 A 
ATOM     74  F   UNL A   1      37.935  34.337  29.146  1.00  0.00    -0.206 F 
ATOM     75  C   UNL A   1      34.367  34.715  29.575  1.00  0.00     0.060 A 
BRANCH  75  76
ATOM     76  S   UNL A   1      32.991  35.644  28.866  1.00  0.00     0.124 S 
ATOM     77  O   UNL A   1      33.691  36.697  28.141  1.00  0.00    -0.237 OA
ATOM     78  O   UNL A   1      32.327  34.635  28.046  1.00  0.00    -0.237 OA
ATOM     79  O   UNL A   1      32.240  36.076  30.042  1.00  0.00    -0.744 OA
ENDBRANCH  75  76
ENDBRANCH  43  68
BRANCH  55  80
ATOM     80  C   UNL A   1      39.842  34.207  36.791  1.00  0.00     0.058 A 
ATOM     81  C   UNL A   1      40.419  35.485  36.708  1.00  0.00     0.135 A 
ATOM     82  C   UNL A   1      39.112  33.891  37.947  1.00  0.00     0.135 A 
ATOM     83  F   UNL A   1      41.134  35.833  35.627  1.00  0.00    -0.206 F 
ATOM     84  C   UNL A   1      40.310  36.402  37.749  1.00  0.00     0.059 A 
ATOM     85  C   UNL A   1      38.969  34.801  38.991  1.00  0.00     0.059 A 
ATOM     86  F   UNL A   1      38.532  32.687  38.073  1.00  0.00    -0.206 F 
ATOM     87  C   UNL A   1      39.589  36.047  38.891  1.00  0.00     0.060 A 
BRANCH  87  88
ATOM     88  S   UNL A   1      39.459  37.239  40.241  1.00  0.00     0.124 S 
ATOM     89  O   UNL A   1      40.863  37.478  40.557  1.00  0.00    -0.237 OA
ATOM     90  O   UNL A   1      38.752  38.351  39.613  1.00  0.00    -0.237 OA
ATOM     91  O   UNL A   1      38.699  36.516  41.258  1.00  0.00    -0.744 OA
ENDBRANCH  87  88
ENDBRANCH  55  80
ENDBRANCH  29  30
ENDBRANCH  22  24
ENDBRANCH  21  22
ENDBRANCH  20  21
ENDBRANCH   1  20
TORSDOF 19
ENDMDL
MODEL 2
REMARK VINA RESULT:      -9.8      6.854     12.157
REMARK SMILES N#CCC1(C[N@H+]2CCO[C@H](CC(=O)OCCOC(=O)c3ccc(-c4c5nc(c(-c6c(F)cc(S(=O)(=O)[O-])cc6F)c6ccc([nH]6)c(-c6c(F)cc(S(=O)(=O)[O-])cc6F)c6nc(c(-c7c(F)cc(S(=O)(=O)[O-])cc7F)c7ccc4[nH]7)C=C6)C=C5)cc3)C2)CC1
REMARK SMILES IDX 15 1 14 2 12 3 13 4 11 5 10 6 6 7 7 8 86 9 8 11 9 12 5 13
REMARK SMILES IDX 4 14 87 15 88 16 3 17 2 18 1 19 16 20 17 21 18 22 19 23
REMARK SMILES IDX 20 24 21 25 85 26 22 27 84 28 23 29 24 30 25 31 78 32 26 33
REMARK SMILES IDX 83 34 77 35 79 36 27 37 82 38 76 39 75 40 28 42 62 43 41 44
REMARK SMILES IDX 61 45 42 46 45 47 60 48 80 49 43 50 44 51 59 53 81 54 46 55
REMARK SMILES IDX 29 56 30 57 39 58 31 59 32 60 38 61 40 62 33 63 34 64 35 65
REMARK SMILES IDX 36 66 37 67 63 68 64 69 73 70 65 71 66 72 72 73 74 74 67 75
REMARK SMILES IDX 68 76 69 77 70 78 71 79 47 80 48 81 57 82 49 83 50 84 56 85
REMARK SMILES IDX 58 86 51 87 52 88 53 89 54 90 55 91
REMARK H PARENT 6 10 79 41 45 52
REMARK Flexibility Score: inf
ROOT
ATOM      1  C   UNL A   1      34.359  31.481  27.631  1.00  0.00     0.274 C 
ENDROOT
BRANCH   1   2
ATOM      2  O   UNL A   1      33.241  30.577  27.655  1.00  0.00    -0.462 OA
BRANCH   2   3
ATOM      3  C   UNL A   1      33.489  29.326  27.191  1.00  0.00     0.308 C 
ATOM      4  O   UNL A   1      34.534  28.712  27.363  1.00  0.00    -0.252 OA
BRANCH   3   5
ATOM      5  C   UNL A   1      32.330  28.801  26.393  1.00  0.00     0.160 C 
BRANCH   5   6
ATOM      6  C   UNL A   1      32.122  29.593  25.098  1.00  0.00     0.184 C 
ATOM      7  N   UNL A   1      31.270  27.741  23.777  1.00  0.00    -0.330 N 
ATOM      8  C   UNL A   1      32.419  27.788  22.878  1.00  0.00     0.291 C 
ATOM      9  C   UNL A   1      30.934  29.063  24.267  1.00  0.00     0.295 C 
ATOM     10  H   UNL A   1      31.587  27.114  24.517  1.00  0.00     0.348 HD
ATOM     11  C   UNL A   1      33.631  28.392  23.639  1.00  0.00     0.222 C 
ATOM     12  O   UNL A   1      33.329  29.632  24.298  1.00  0.00    -0.366 OA
BRANCH   7  13
ATOM     13  C   UNL A   1      30.323  26.637  23.864  1.00  0.00     0.270 C 
BRANCH  13  14
ATOM     14  C   UNL A   1      31.054  25.271  24.007  1.00  0.00     0.032 C 
ATOM     15  C   UNL A   1      31.682  24.635  22.787  1.00  0.00     0.015 C 
ATOM     16  C   UNL A   1      30.495  23.985  23.441  1.00  0.00     0.015 C 
BRANCH  14  17
ATOM     17  C   UNL A   1      31.739  25.269  25.293  1.00  0.00     0.133 C 
BRANCH  17  18
ATOM     18  C   UNL A   1      31.528  24.357  26.491  1.00  0.00     0.063 C 
ATOM     19  N   UNL A   1      31.353  23.601  27.485  1.00  0.00    -0.198 NA
ENDBRANCH  17  18
ENDBRANCH  14  17
ENDBRANCH  13  14
ENDBRANCH   7  13
ENDBRANCH   5   6
ENDBRANCH   3   5
ENDBRANCH   2   3
ENDBRANCH   1   2
BRANCH   1  20
ATOM     20  C   UNL A   1      34.612  32.096  29.006  1.00  0.00     0.275 C 
BRANCH  20  21
ATOM     21  O   UNL A   1      36.011  32.083  29.353  1.00  0.00    -0.458 OA
BRANCH  21  22
ATOM     22  C   UNL A   1      36.362  31.204  30.320  1.00  0.00     0.338 C 
ATOM     23  O   UNL A   1      35.773  30.996  31.369  1.00  0.00    -0.246 OA
BRANCH  22  24
ATOM     24  C   UNL A   1      37.583  30.465  29.949  1.00  0.00     0.060 A 
ATOM     25  C   UNL A   1      38.463  30.053  30.943  1.00  0.00     0.016 A 
ATOM     26  C   UNL A   1      37.962  30.365  28.610  1.00  0.00     0.016 A 
ATOM     27  C   UNL A   1      39.761  29.651  30.606  1.00  0.00     0.010 A 
ATOM     28  C   UNL A   1      39.231  29.866  28.274  1.00  0.00     0.010 A 
ATOM     29  C   UNL A   1      40.173  29.547  29.269  1.00  0.00    -0.014 A 
BRANCH  29  30
ATOM     30  C   UNL A   1      41.574  29.144  28.920  1.00  0.00     0.031 A 
ATOM     31  C   UNL A   1      42.708  30.148  28.955  1.00  0.00     0.074 A 
ATOM     32  C   UNL A   1      41.859  27.870  28.573  1.00  0.00     0.049 A 
ATOM     33  N   UNL A   1      43.932  30.035  28.497  1.00  0.00    -0.248 NA
ATOM     34  C   UNL A   1      42.428  31.450  29.580  1.00  0.00     0.031 C 
ATOM     35  C   UNL A   1      40.900  26.763  28.533  1.00  0.00     0.029 A 
ATOM     36  N   UNL A   1      43.044  27.286  28.186  1.00  0.00    -0.354 N 
ATOM     37  C   UNL A   1      44.545  31.266  28.719  1.00  0.00     0.074 A 
ATOM     38  C   UNL A   1      43.558  32.111  29.359  1.00  0.00     0.031 C 
ATOM     39  C   UNL A   1      41.536  25.637  28.181  1.00  0.00     0.029 A 
ATOM     40  C   UNL A   1      42.924  25.952  27.869  1.00  0.00     0.049 A 
ATOM     41  H   UNL A   1      43.896  27.777  28.139  1.00  0.00     0.167 HD
ATOM     42  C   UNL A   1      45.808  31.659  28.415  1.00  0.00     0.037 A 
ATOM     43  C   UNL A   1      43.804  25.082  27.337  1.00  0.00     0.037 A 
ATOM     44  C   UNL A   1      46.815  30.805  27.833  1.00  0.00     0.049 A 
ATOM     45  C   UNL A   1      45.187  25.546  26.978  1.00  0.00     0.074 A 
ATOM     46  C   UNL A   1      48.127  31.116  27.509  1.00  0.00     0.029 A 
ATOM     47  N   UNL A   1      46.634  29.472  27.502  1.00  0.00    -0.354 N 
ATOM     48  N   UNL A   1      45.723  26.733  27.128  1.00  0.00    -0.248 NA
ATOM     49  C   UNL A   1      46.077  24.555  26.356  1.00  0.00     0.031 C 
ATOM     50  C   UNL A   1      48.727  29.982  26.951  1.00  0.00     0.029 A 
ATOM     51  C   UNL A   1      47.802  28.951  26.965  1.00  0.00     0.049 A 
ATOM     52  H   UNL A   1      45.798  28.967  27.628  1.00  0.00     0.167 HD
ATOM     53  C   UNL A   1      47.014  26.630  26.623  1.00  0.00     0.074 A 
ATOM     54  C   UNL A   1      47.187  25.260  26.188  1.00  0.00     0.031 C 
ATOM     55  C   UNL A   1      47.967  27.590  26.522  1.00  0.00     0.037 A 
BRANCH  42  56
ATOM     56  C   UNL A   1      46.179  33.097  28.674  1.00  0.00     0.058 A 
ATOM     57  C   UNL A   1      46.782  33.511  29.872  1.00  0.00     0.135 A 
ATOM     58  C   UNL A   1      45.970  34.068  27.680  1.00  0.00     0.135 A 
ATOM     59  F   UNL A   1      46.994  32.628  30.860  1.00  0.00    -0.206 F 
ATOM     60  C   UNL A   1      47.141  34.840  30.084  1.00  0.00     0.059 A 
ATOM     61  C   UNL A   1      46.343  35.396  27.861  1.00  0.00     0.059 A 
ATOM     62  F   UNL A   1      45.403  33.726  26.511  1.00  0.00    -0.206 F 
ATOM     63  C   UNL A   1      46.913  35.776  29.073  1.00  0.00     0.060 A 
BRANCH  63  64
ATOM     64  S   UNL A   1      47.382  37.497  29.362  1.00  0.00     0.124 S 
ATOM     65  O   UNL A   1      48.374  37.706  28.312  1.00  0.00    -0.237 OA
ATOM     66  O   UNL A   1      46.117  38.202  29.186  1.00  0.00    -0.237 OA
ATOM     67  O   UNL A   1      47.903  37.482  30.725  1.00  0.00    -0.744 OA
ENDBRANCH  63  64
ENDBRANCH  42  56
BRANCH  43  68
ATOM     68  C   UNL A   1      43.379  23.685  27.056  1.00  0.00     0.058 A 
ATOM     69  C   UNL A   1      43.318  22.729  28.080  1.00  0.00     0.135 A 
ATOM     70  C   UNL A   1      43.005  23.286  25.763  1.00  0.00     0.135 A 
ATOM     71  F   UNL A   1      43.680  23.059  29.328  1.00  0.00    -0.206 F 
ATOM     72  C   UNL A   1      42.902  21.425  27.832  1.00  0.00     0.059 A 
ATOM     73  C   UNL A   1      42.559  21.996  25.496  1.00  0.00     0.059 A 
ATOM     74  F   UNL A   1      43.037  24.168  24.750  1.00  0.00    -0.206 F 
ATOM     75  C   UNL A   1      42.519  21.071  26.538  1.00  0.00     0.060 A 
BRANCH  75  76
ATOM     76  S   UNL A   1      41.910  19.398  26.236  1.00  0.00     0.124 S 
ATOM     77  O   UNL A   1      42.645  19.032  25.030  1.00  0.00    -0.237 OA
ATOM     78  O   UNL A   1      42.301  18.702  27.458  1.00  0.00    -0.237 OA
ATOM     79  O   UNL A   1      40.473  19.591  26.067  1.00  0.00    -0.744 OA
ENDBRANCH  75  76
ENDBRANCH  43  68
BRANCH  55  80
ATOM     80  C   UNL A   1      49.288  27.180  25.931  1.00  0.00     0.058 A 
ATOM     81  C   UNL A   1      50.332  26.693  26.735  1.00  0.00     0.135 A 
ATOM     82  C   UNL A   1      49.514  27.276  24.550  1.00  0.00     0.135 A 
ATOM     83  F   UNL A   1      50.168  26.590  28.063  1.00  0.00    -0.206 F 
ATOM     84  C   UNL A   1      51.568  26.353  26.195  1.00  0.00     0.059 A 
ATOM     85  C   UNL A   1      50.735  26.919  23.984  1.00  0.00     0.059 A 
ATOM     86  F   UNL A   1      48.547  27.725  23.735  1.00  0.00    -0.206 F 
ATOM     87  C   UNL A   1      51.763  26.477  24.817  1.00  0.00     0.060 A 
BRANCH  87  88
ATOM     88  S   UNL A   1      53.373  26.042  24.125  1.00  0.00     0.124 S 
ATOM     89  O   UNL A   1      53.060  25.932  22.704  1.00  0.00    -0.237 OA
ATOM     90  O   UNL A   1      54.200  27.184  24.506  1.00  0.00    -0.237 OA
ATOM     91  O   UNL A   1      53.701  24.788  24.797  1.00  0.00    -0.744 OA
ENDBRANCH  87  88
ENDBRANCH  55  80
ENDBRANCH  29  30
ENDBRANCH  22  24
ENDBRANCH  21  22
ENDBRANCH  20  21
ENDBRANCH   1  20
TORSDOF 19
ENDMDL
MODEL 3
REMARK VINA RESULT:      -9.8      6.439     11.746
REMARK SMILES N#CCC1(C[N@H+]2CCO[C@H](CC(=O)OCCOC(=O)c3ccc(-c4c5nc(c(-c6c(F)cc(S(=O)(=O)[O-])cc6F)c6ccc([nH]6)c(-c6c(F)cc(S(=O)(=O)[O-])cc6F)c6nc(c(-c7c(F)cc(S(=O)(=O)[O-])cc7F)c7ccc4[nH]7)C=C6)C=C5)cc3)C2)CC1
REMARK SMILES IDX 15 1 14 2 12 3 13 4 11 5 10 6 6 7 7 8 86 9 8 11 9 12 5 13
REMARK SMILES IDX 4 14 87 15 88 16 3 17 2 18 1 19 16 20 17 21 18 22 19 23
REMARK SMILES IDX 20 24 21 25 85 26 22 27 84 28 23 29 24 30 25 31 78 32 26 33
REMARK SMILES IDX 83 34 77 35 79 36 27 37 82 38 76 39 75 40 28 42 62 43 41 44
REMARK SMILES IDX 61 45 42 46 45 47 60 48 80 49 43 50 44 51 59 53 81 54 46 55
REMARK SMILES IDX 29 56 30 57 39 58 31 59 32 60 38 61 40 62 33 63 34 64 35 65
REMARK SMILES IDX 36 66 37 67 63 68 64 69 73 70 65 71 66 72 72 73 74 74 67 75
REMARK SMILES IDX 68 76 69 77 70 78 71 79 47 80 48 81 57 82 49 83 50 84 56 85
REMARK SMILES IDX 58 86 51 87 52 88 53 89 54 90 55 91
REMARK H PARENT 6 10 79 41 45 52
REMARK Flexibility Score: inf
ROOT
ATOM      1  C   UNL A   1      33.071  30.426  26.224  1.00  0.00     0.274 C 
ENDROOT
BRANCH   1   2
ATOM      2  O   UNL A   1      32.865  29.003  26.228  1.00  0.00    -0.462 OA
BRANCH   2   3
ATOM      3  C   UNL A   1      31.949  28.541  25.339  1.00  0.00     0.308 C 
ATOM      4  O   UNL A   1      31.096  29.228  24.794  1.00  0.00    -0.252 OA
BRANCH   3   5
ATOM      5  C   UNL A   1      32.085  27.058  25.138  1.00  0.00     0.160 C 
BRANCH   5   6
ATOM      6  C   UNL A   1      30.827  26.305  25.583  1.00  0.00     0.184 C 
ATOM      7  N   UNL A   1      31.660  24.074  25.105  1.00  0.00    -0.330 N 
ATOM      8  C   UNL A   1      30.654  23.865  24.068  1.00  0.00     0.291 C 
ATOM      9  C   UNL A   1      31.149  24.913  26.169  1.00  0.00     0.295 C 
ATOM     10  H   UNL A   1      32.428  24.509  24.591  1.00  0.00     0.348 HD
ATOM     11  C   UNL A   1      30.228  25.244  23.493  1.00  0.00     0.222 C 
ATOM     12  O   UNL A   1      29.863  26.195  24.506  1.00  0.00    -0.366 OA
BRANCH   7  13
ATOM     13  C   UNL A   1      32.848  23.250  25.292  1.00  0.00     0.270 C 
BRANCH  13  14
ATOM     14  C   UNL A   1      34.126  23.969  24.770  1.00  0.00     0.032 C 
ATOM     15  C   UNL A   1      35.442  23.751  25.485  1.00  0.00     0.015 C 
ATOM     16  C   UNL A   1      34.785  25.104  25.521  1.00  0.00     0.015 C 
BRANCH  14  17
ATOM     17  C   UNL A   1      34.055  23.996  23.316  1.00  0.00     0.133 C 
BRANCH  17  18
ATOM     18  C   UNL A   1      33.756  25.165  22.391  1.00  0.00     0.063 C 
ATOM     19  N   UNL A   1      33.509  26.135  21.624  1.00  0.00    -0.198 NA
ENDBRANCH  17  18
ENDBRANCH  14  17
ENDBRANCH  13  14
ENDBRANCH   7  13
ENDBRANCH   5   6
ENDBRANCH   3   5
ENDBRANCH   2   3
ENDBRANCH   1   2
BRANCH   1  20
ATOM     20  C   UNL A   1      33.596  30.921  27.569  1.00  0.00     0.275 C 
BRANCH  20  21
ATOM     21  O   UNL A   1      34.569  30.018  28.133  1.00  0.00    -0.458 OA
BRANCH  21  22
ATOM     22  C   UNL A   1      35.528  30.597  28.891  1.00  0.00     0.338 C 
ATOM     23  O   UNL A   1      35.401  31.572  29.614  1.00  0.00    -0.246 OA
BRANCH  22  24
ATOM     24  C   UNL A   1      36.811  29.879  28.764  1.00  0.00     0.060 A 
ATOM     25  C   UNL A   1      37.453  29.416  29.908  1.00  0.00     0.016 A 
ATOM     26  C   UNL A   1      37.480  29.850  27.541  1.00  0.00     0.016 A 
ATOM     27  C   UNL A   1      38.797  29.034  29.848  1.00  0.00     0.010 A 
ATOM     28  C   UNL A   1      38.797  29.370  27.471  1.00  0.00     0.010 A 
ATOM     29  C   UNL A   1      39.498  29.000  28.633  1.00  0.00    -0.014 A 
BRANCH  29  30
ATOM     30  C   UNL A   1      40.947  28.616  28.586  1.00  0.00     0.031 A 
ATOM     31  C   UNL A   1      42.035  29.637  28.849  1.00  0.00     0.074 A 
ATOM     32  C   UNL A   1      41.315  27.345  28.314  1.00  0.00     0.049 A 
ATOM     33  N   UNL A   1      43.329  29.542  28.656  1.00  0.00    -0.248 NA
ATOM     34  C   UNL A   1      41.613  30.937  29.394  1.00  0.00     0.031 C 
ATOM     35  C   UNL A   1      40.401  26.225  28.082  1.00  0.00     0.029 A 
ATOM     36  N   UNL A   1      42.563  26.778  28.185  1.00  0.00    -0.354 N 
ATOM     37  C   UNL A   1      43.865  30.782  28.992  1.00  0.00     0.074 A 
ATOM     38  C   UNL A   1      42.755  31.614  29.408  1.00  0.00     0.031 C 
ATOM     39  C   UNL A   1      41.112  25.107  27.878  1.00  0.00     0.029 A 
ATOM     40  C   UNL A   1      42.530  25.442  27.859  1.00  0.00     0.049 A 
ATOM     41  H   UNL A   1      43.399  27.281  28.313  1.00  0.00     0.167 HD
ATOM     42  C   UNL A   1      45.158  31.193  28.955  1.00  0.00     0.037 A 
ATOM     43  C   UNL A   1      43.514  24.583  27.526  1.00  0.00     0.037 A 
ATOM     44  C   UNL A   1      46.276  30.352  28.600  1.00  0.00     0.049 A 
ATOM     45  C   UNL A   1      44.934  25.066  27.459  1.00  0.00     0.074 A 
ATOM     46  C   UNL A   1      47.622  30.682  28.554  1.00  0.00     0.029 A 
ATOM     47  N   UNL A   1      46.186  29.015  28.247  1.00  0.00    -0.354 N 
ATOM     48  N   UNL A   1      45.410  26.262  27.710  1.00  0.00    -0.248 NA
ATOM     49  C   UNL A   1      45.947  24.087  27.043  1.00  0.00     0.031 C 
ATOM     50  C   UNL A   1      48.340  29.554  28.140  1.00  0.00     0.029 A 
ATOM     51  C   UNL A   1      47.447  28.510  27.968  1.00  0.00     0.049 A 
ATOM     52  H   UNL A   1      45.349  28.499  28.201  1.00  0.00     0.167 HD
ATOM     53  C   UNL A   1      46.779  26.176  27.485  1.00  0.00     0.074 A 
ATOM     54  C   UNL A   1      47.059  24.808  27.104  1.00  0.00     0.031 C 
ATOM     55  C   UNL A   1      47.720  27.150  27.577  1.00  0.00     0.037 A 
BRANCH  42  56
ATOM     56  C   UNL A   1      45.446  32.637  29.276  1.00  0.00     0.058 A 
ATOM     57  C   UNL A   1      45.811  33.059  30.564  1.00  0.00     0.135 A 
ATOM     58  C   UNL A   1      45.406  33.606  28.259  1.00  0.00     0.135 A 
ATOM     59  F   UNL A   1      45.855  32.179  31.576  1.00  0.00    -0.206 F 
ATOM     60  C   UNL A   1      46.099  34.395  30.837  1.00  0.00     0.059 A 
ATOM     61  C   UNL A   1      45.713  34.941  28.504  1.00  0.00     0.059 A 
ATOM     62  F   UNL A   1      45.070  33.257  27.007  1.00  0.00    -0.206 F 
ATOM     63  C   UNL A   1      46.043  35.329  29.800  1.00  0.00     0.060 A 
BRANCH  63  64
ATOM     64  S   UNL A   1      46.417  37.058  30.169  1.00  0.00     0.124 S 
ATOM     65  O   UNL A   1      47.196  37.441  28.995  1.00  0.00    -0.237 OA
ATOM     66  O   UNL A   1      45.089  37.653  30.268  1.00  0.00    -0.237 OA
ATOM     67  O   UNL A   1      47.163  36.984  31.421  1.00  0.00    -0.744 OA
ENDBRANCH  63  64
ENDBRANCH  42  56
BRANCH  43  68
ATOM     68  C   UNL A   1      43.175  23.179  27.172  1.00  0.00     0.058 A 
ATOM     69  C   UNL A   1      43.120  22.764  25.834  1.00  0.00     0.135 A 
ATOM     70  C   UNL A   1      42.921  22.221  28.167  1.00  0.00     0.135 A 
ATOM     71  F   UNL A   1      43.341  23.647  24.849  1.00  0.00    -0.206 F 
ATOM     72  C   UNL A   1      42.824  21.448  25.493  1.00  0.00     0.059 A 
ATOM     73  C   UNL A   1      42.651  20.894  27.852  1.00  0.00     0.059 A 
ATOM     74  F   UNL A   1      42.971  22.567  29.464  1.00  0.00    -0.206 F 
ATOM     75  C   UNL A   1      42.598  20.519  26.510  1.00  0.00     0.060 A 
BRANCH  75  76
ATOM     76  S   UNL A   1      42.286  18.798  26.065  1.00  0.00     0.124 S 
ATOM     77  O   UNL A   1      40.863  18.829  25.752  1.00  0.00    -0.237 OA
ATOM     78  O   UNL A   1      43.186  18.604  24.932  1.00  0.00    -0.237 OA
ATOM     79  O   UNL A   1      42.653  18.069  27.276  1.00  0.00    -0.744 OA
ENDBRANCH  75  76
ENDBRANCH  43  68
BRANCH  55  80
ATOM     80  C   UNL A   1      49.139  26.757  27.277  1.00  0.00     0.058 A 
ATOM     81  C   UNL A   1      50.009  26.318  28.288  1.00  0.00     0.135 A 
ATOM     82  C   UNL A   1      49.638  26.824  25.967  1.00  0.00     0.135 A 
ATOM     83  F   UNL A   1      49.584  26.244  29.559  1.00  0.00    -0.206 F 
ATOM     84  C   UNL A   1      51.335  25.995  28.018  1.00  0.00     0.059 A 
ATOM     85  C   UNL A   1      50.954  26.482  25.669  1.00  0.00     0.059 A 
ATOM     86  F   UNL A   1      48.846  27.228  24.961  1.00  0.00    -0.206 F 
ATOM     87  C   UNL A   1      51.801  26.088  26.705  1.00  0.00     0.060 A 
BRANCH  87  88
ATOM     88  S   UNL A   1      53.525  25.675  26.363  1.00  0.00     0.124 S 
ATOM     89  O   UNL A   1      53.394  24.361  25.743  1.00  0.00    -0.237 OA
ATOM     90  O   UNL A   1      53.940  26.757  25.474  1.00  0.00    -0.237 OA
ATOM     91  O   UNL A   1      54.144  25.688  27.686  1.00  0.00    -0.744 OA
ENDBRANCH  87  88
ENDBRANCH  55  80
ENDBRANCH  29  30
ENDBRANCH  22  24
ENDBRANCH  21  22
ENDBRANCH  20  21
ENDBRANCH   1  20
TORSDOF 19
ENDMDL
