MODEL 1
REMARK VINA RESULT:      -9.3      0.000      0.000
REMARK SMILES CCC[N@@H+](CC1CC[NH2+]CC1)[C@@H](CC)C(=O)OCCOC(=O)c1ccc(-c2c3nc(c(-c4c(F)cc(S(=O)(=O)[O-])cc4F)c4ccc([nH]4)c(-c4c(F)cc(S(=O)(=O)[O-])cc4F)c4nc(c(-c5c(F)cc(S(=O)(=O)[O-])cc5F)c5ccc2[nH]5)C=C4)C=C3)cc1
REMARK SMILES IDX 18 1 17 2 15 3 16 4 12 5 4 6 3 8 2 9 1 10 5 11 6 12 7 13
REMARK SMILES IDX 11 14 8 15 10 16 9 17 13 20 14 21 19 22 20 23 21 24 22 25
REMARK SMILES IDX 23 26 24 27 88 28 25 29 87 30 26 31 27 32 28 33 81 34 29 35
REMARK SMILES IDX 86 36 80 37 82 38 30 39 85 40 79 41 78 42 31 44 65 45 44 46
REMARK SMILES IDX 64 47 45 48 48 49 63 50 83 51 46 52 47 53 62 55 84 56 49 57
REMARK SMILES IDX 32 58 33 59 42 60 34 61 35 62 41 63 43 64 36 65 37 66 38 67
REMARK SMILES IDX 39 68 40 69 66 70 67 71 76 72 68 73 69 74 75 75 77 76 70 77
REMARK SMILES IDX 71 78 72 79 73 80 74 81 50 82 51 83 60 84 52 85 53 86 59 87
REMARK SMILES IDX 61 88 54 89 55 90 56 91 57 92 58 93
REMARK H PARENT 4 7 9 18 9 19 82 43 48 54
REMARK Flexibility Score: inf
ROOT
ATOM      1  C   UNL A   1      35.584  23.310  26.122  1.00  0.00     0.274 C 
ENDROOT
BRANCH   1   2
ATOM      2  O   UNL A   1      35.073  24.560  25.618  1.00  0.00    -0.458 OA
BRANCH   2   3
ATOM      3  C   UNL A   1      33.740  24.765  25.688  1.00  0.00     0.365 C 
ATOM      4  O   UNL A   1      33.034  24.319  26.591  1.00  0.00    -0.245 OA
BRANCH   3   5
ATOM      5  C   UNL A   1      33.134  25.438  24.443  1.00  0.00     0.294 C 
BRANCH   5   6
ATOM      6  N   UNL A   1      32.641  26.824  24.591  1.00  0.00    -0.323 N 
ATOM      7  H   UNL A   1      32.685  26.770  23.573  1.00  0.00     0.348 HD
BRANCH   6   8
ATOM      8  C   UNL A   1      31.256  27.274  24.473  1.00  0.00     0.262 C 
BRANCH   8   9
ATOM      9  C   UNL A   1      30.661  27.655  23.103  1.00  0.00     0.058 C 
ATOM     10  C   UNL A   1      29.233  28.173  23.125  1.00  0.00     0.010 C 
ENDBRANCH   8   9
ENDBRANCH   6   8
BRANCH   6  11
ATOM     11  C   UNL A   1      33.533  27.778  25.287  1.00  0.00     0.266 C 
BRANCH  11  12
ATOM     12  C   UNL A   1      33.398  28.221  26.784  1.00  0.00     0.055 C 
ATOM     13  C   UNL A   1      32.085  28.930  27.155  1.00  0.00     0.071 C 
ATOM     14  C   UNL A   1      34.572  28.953  27.436  1.00  0.00     0.071 C 
ATOM     15  C   UNL A   1      32.100  30.435  26.959  1.00  0.00     0.261 C 
ATOM     16  C   UNL A   1      34.557  30.456  27.203  1.00  0.00     0.261 C 
ATOM     17  N   UNL A   1      33.280  31.093  27.516  1.00  0.00    -0.346 N 
ATOM     18  H   UNL A   1      33.180  31.114  28.531  1.00  0.00     0.346 HD
ATOM     19  H   UNL A   1      33.315  32.018  27.089  1.00  0.00     0.346 HD
ENDBRANCH  11  12
ENDBRANCH   6  11
ENDBRANCH   5   6
BRANCH   5  20
ATOM     20  C   UNL A   1      33.947  24.972  23.220  1.00  0.00     0.074 C 
ATOM     21  C   UNL A   1      33.539  23.730  22.466  1.00  0.00     0.011 C 
ENDBRANCH   5  20
ENDBRANCH   3   5
ENDBRANCH   2   3
ENDBRANCH   1   2
BRANCH   1  22
ATOM     22  C   UNL A   1      36.598  22.684  25.165  1.00  0.00     0.275 C 
BRANCH  22  23
ATOM     23  O   UNL A   1      37.777  23.495  25.091  1.00  0.00    -0.458 OA
BRANCH  23  24
ATOM     24  C   UNL A   1      38.797  23.117  25.905  1.00  0.00     0.338 C 
ATOM     25  O   UNL A   1      39.380  22.056  25.920  1.00  0.00    -0.246 OA
BRANCH  24  26
ATOM     26  C   UNL A   1      39.208  24.303  26.672  1.00  0.00     0.060 A 
ATOM     27  C   UNL A   1      38.725  24.453  27.976  1.00  0.00     0.016 A 
ATOM     28  C   UNL A   1      40.097  25.226  26.124  1.00  0.00     0.016 A 
ATOM     29  C   UNL A   1      39.161  25.517  28.760  1.00  0.00     0.010 A 
ATOM     30  C   UNL A   1      40.522  26.297  26.901  1.00  0.00     0.010 A 
ATOM     31  C   UNL A   1      40.060  26.443  28.221  1.00  0.00    -0.014 A 
BRANCH  31  32
ATOM     32  C   UNL A   1      40.494  27.623  28.995  1.00  0.00     0.031 A 
ATOM     33  C   UNL A   1      41.765  27.535  29.780  1.00  0.00     0.074 A 
ATOM     34  C   UNL A   1      39.712  28.715  29.045  1.00  0.00     0.049 A 
ATOM     35  N   UNL A   1      42.236  28.349  30.685  1.00  0.00    -0.248 NA
ATOM     36  C   UNL A   1      42.613  26.360  29.520  1.00  0.00     0.031 C 
ATOM     37  C   UNL A   1      38.477  28.906  28.283  1.00  0.00     0.029 A 
ATOM     38  N   UNL A   1      39.827  29.857  29.795  1.00  0.00    -0.354 N 
ATOM     39  C   UNL A   1      43.423  27.775  31.122  1.00  0.00     0.074 A 
ATOM     40  C   UNL A   1      43.590  26.534  30.397  1.00  0.00     0.031 C 
ATOM     41  C   UNL A   1      37.932  30.086  28.626  1.00  0.00     0.029 A 
ATOM     42  C   UNL A   1      38.750  30.702  29.666  1.00  0.00     0.049 A 
ATOM     43  H   UNL A   1      40.602  30.051  30.369  1.00  0.00     0.167 HD
ATOM     44  C   UNL A   1      44.288  28.249  32.048  1.00  0.00     0.037 A 
ATOM     45  C   UNL A   1      38.441  31.822  30.351  1.00  0.00     0.037 A 
ATOM     46  C   UNL A   1      44.090  29.485  32.760  1.00  0.00     0.049 A 
ATOM     47  C   UNL A   1      39.378  32.286  31.436  1.00  0.00     0.074 A 
ATOM     48  C   UNL A   1      44.911  30.077  33.702  1.00  0.00     0.029 A 
ATOM     49  N   UNL A   1      42.982  30.311  32.615  1.00  0.00    -0.354 N 
ATOM     50  N   UNL A   1      40.512  31.755  31.830  1.00  0.00    -0.248 NA
ATOM     51  C   UNL A   1      38.989  33.492  32.179  1.00  0.00     0.031 C 
ATOM     52  C   UNL A   1      44.272  31.231  34.169  1.00  0.00     0.029 A 
ATOM     53  C   UNL A   1      43.080  31.390  33.478  1.00  0.00     0.049 A 
ATOM     54  H   UNL A   1      42.238  30.153  31.991  1.00  0.00     0.167 HD
ATOM     55  C   UNL A   1      40.979  32.569  32.856  1.00  0.00     0.074 A 
ATOM     56  C   UNL A   1      40.015  33.640  33.006  1.00  0.00     0.031 C 
ATOM     57  C   UNL A   1      42.100  32.441  33.610  1.00  0.00     0.037 A 
BRANCH  44  58
ATOM     58  C   UNL A   1      45.496  27.412  32.366  1.00  0.00     0.058 A 
ATOM     59  C   UNL A   1      45.449  26.365  33.300  1.00  0.00     0.135 A 
ATOM     60  C   UNL A   1      46.718  27.651  31.716  1.00  0.00     0.135 A 
ATOM     61  F   UNL A   1      44.313  26.104  33.968  1.00  0.00    -0.206 F 
ATOM     62  C   UNL A   1      46.575  25.603  33.598  1.00  0.00     0.059 A 
ATOM     63  C   UNL A   1      47.849  26.883  31.977  1.00  0.00     0.059 A 
ATOM     64  F   UNL A   1      46.823  28.645  30.819  1.00  0.00    -0.206 F 
ATOM     65  C   UNL A   1      47.770  25.870  32.930  1.00  0.00     0.060 A 
BRANCH  65  66
ATOM     66  S   UNL A   1      49.220  24.872  33.328  1.00  0.00     0.124 S 
ATOM     67  O   UNL A   1      49.978  25.784  34.180  1.00  0.00    -0.237 OA
ATOM     68  O   UNL A   1      48.628  23.720  34.003  1.00  0.00    -0.237 OA
ATOM     69  O   UNL A   1      49.813  24.594  32.023  1.00  0.00    -0.744 OA
ENDBRANCH  65  66
ENDBRANCH  44  58
BRANCH  45  70
ATOM     70  C   UNL A   1      37.182  32.556  30.051  1.00  0.00     0.058 A 
ATOM     71  C   UNL A   1      37.178  33.647  29.171  1.00  0.00     0.135 A 
ATOM     72  C   UNL A   1      35.957  32.173  30.620  1.00  0.00     0.135 A 
ATOM     73  F   UNL A   1      38.325  34.062  28.610  1.00  0.00    -0.206 F 
ATOM     74  C   UNL A   1      36.008  34.338  28.872  1.00  0.00     0.059 A 
ATOM     75  C   UNL A   1      34.769  32.830  30.315  1.00  0.00     0.059 A 
ATOM     76  F   UNL A   1      35.903  31.130  31.464  1.00  0.00    -0.206 F 
ATOM     77  C   UNL A   1      34.806  33.918  29.445  1.00  0.00     0.060 A 
BRANCH  77  78
ATOM     78  S   UNL A   1      33.286  34.788  29.001  1.00  0.00     0.124 S 
ATOM     79  O   UNL A   1      32.650  34.952  30.304  1.00  0.00    -0.237 OA
ATOM     80  O   UNL A   1      33.801  36.007  28.385  1.00  0.00    -0.237 OA
ATOM     81  O   UNL A   1      32.623  33.864  28.087  1.00  0.00    -0.744 OA
ENDBRANCH  77  78
ENDBRANCH  45  70
BRANCH  57  82
ATOM     82  C   UNL A   1      42.349  33.490  34.660  1.00  0.00     0.058 A 
ATOM     83  C   UNL A   1      43.062  34.663  34.368  1.00  0.00     0.135 A 
ATOM     84  C   UNL A   1      41.807  33.353  35.948  1.00  0.00     0.135 A 
ATOM     85  F   UNL A   1      43.610  34.838  33.155  1.00  0.00    -0.206 F 
ATOM     86  C   UNL A   1      43.241  35.659  35.321  1.00  0.00     0.059 A 
ATOM     87  C   UNL A   1      41.947  34.350  36.907  1.00  0.00     0.059 A 
ATOM     88  F   UNL A   1      41.108  32.255  36.275  1.00  0.00    -0.206 F 
ATOM     89  C   UNL A   1      42.672  35.497  36.586  1.00  0.00     0.060 A 
BRANCH  89  90
ATOM     90  S   UNL A   1      42.865  36.824  37.794  1.00  0.00     0.124 S 
ATOM     91  O   UNL A   1      43.753  36.205  38.774  1.00  0.00    -0.237 OA
ATOM     92  O   UNL A   1      43.452  37.892  36.992  1.00  0.00    -0.237 OA
ATOM     93  O   UNL A   1      41.501  37.070  38.252  1.00  0.00    -0.744 OA
ENDBRANCH  89  90
ENDBRANCH  57  82
ENDBRANCH  31  32
ENDBRANCH  24  26
ENDBRANCH  23  24
ENDBRANCH  22  23
ENDBRANCH   1  22
TORSDOF 20
ENDMDL
MODEL 2
REMARK VINA RESULT:      -9.2      3.770      9.820
REMARK SMILES CCC[N@@H+](CC1CC[NH2+]CC1)[C@@H](CC)C(=O)OCCOC(=O)c1ccc(-c2c3nc(c(-c4c(F)cc(S(=O)(=O)[O-])cc4F)c4ccc([nH]4)c(-c4c(F)cc(S(=O)(=O)[O-])cc4F)c4nc(c(-c5c(F)cc(S(=O)(=O)[O-])cc5F)c5ccc2[nH]5)C=C4)C=C3)cc1
REMARK SMILES IDX 18 1 17 2 15 3 16 4 12 5 4 6 3 8 2 9 1 10 5 11 6 12 7 13
REMARK SMILES IDX 11 14 8 15 10 16 9 17 13 20 14 21 19 22 20 23 21 24 22 25
REMARK SMILES IDX 23 26 24 27 88 28 25 29 87 30 26 31 27 32 28 33 81 34 29 35
REMARK SMILES IDX 86 36 80 37 82 38 30 39 85 40 79 41 78 42 31 44 65 45 44 46
REMARK SMILES IDX 64 47 45 48 48 49 63 50 83 51 46 52 47 53 62 55 84 56 49 57
REMARK SMILES IDX 32 58 33 59 42 60 34 61 35 62 41 63 43 64 36 65 37 66 38 67
REMARK SMILES IDX 39 68 40 69 66 70 67 71 76 72 68 73 69 74 75 75 77 76 70 77
REMARK SMILES IDX 71 78 72 79 73 80 74 81 50 82 51 83 60 84 52 85 53 86 59 87
REMARK SMILES IDX 61 88 54 89 55 90 56 91 57 92 58 93
REMARK H PARENT 4 7 9 18 9 19 82 43 48 54
REMARK Flexibility Score: inf
ROOT
ATOM      1  C   UNL A   1      33.349  29.155  25.502  1.00  0.00     0.274 C 
ENDROOT
BRANCH   1   2
ATOM      2  O   UNL A   1      33.621  27.740  25.467  1.00  0.00    -0.458 OA
BRANCH   2   3
ATOM      3  C   UNL A   1      32.807  26.964  24.718  1.00  0.00     0.365 C 
ATOM      4  O   UNL A   1      31.650  26.695  25.037  1.00  0.00    -0.245 OA
BRANCH   3   5
ATOM      5  C   UNL A   1      33.500  26.278  23.528  1.00  0.00     0.294 C 
BRANCH   5   6
ATOM      6  N   UNL A   1      33.485  24.799  23.492  1.00  0.00    -0.323 N 
ATOM      7  H   UNL A   1      32.769  24.957  24.202  1.00  0.00     0.348 HD
BRANCH   6   8
ATOM      8  C   UNL A   1      32.533  23.955  22.771  1.00  0.00     0.262 C 
BRANCH   8   9
ATOM      9  C   UNL A   1      31.128  23.682  23.341  1.00  0.00     0.058 C 
ATOM     10  C   UNL A   1      31.061  23.427  24.838  1.00  0.00     0.010 C 
ENDBRANCH   8   9
ENDBRANCH   6   8
BRANCH   6  11
ATOM     11  C   UNL A   1      34.732  24.109  23.886  1.00  0.00     0.266 C 
BRANCH  11  12
ATOM     12  C   UNL A   1      35.264  23.963  25.352  1.00  0.00     0.055 C 
ATOM     13  C   UNL A   1      36.511  23.080  25.526  1.00  0.00     0.071 C 
ATOM     14  C   UNL A   1      34.261  23.648  26.464  1.00  0.00     0.071 C 
ATOM     15  C   UNL A   1      36.219  21.605  25.737  1.00  0.00     0.261 C 
ATOM     16  C   UNL A   1      33.986  22.162  26.632  1.00  0.00     0.261 C 
ATOM     17  N   UNL A   1      35.191  21.343  26.743  1.00  0.00    -0.346 N 
ATOM     18  H   UNL A   1      35.600  21.509  27.663  1.00  0.00     0.346 HD
ATOM     19  H   UNL A   1      34.891  20.380  26.596  1.00  0.00     0.346 HD
ENDBRANCH  11  12
ENDBRANCH   6  11
ENDBRANCH   5   6
BRANCH   5  20
ATOM     20  C   UNL A   1      33.241  27.141  22.278  1.00  0.00     0.074 C 
ATOM     21  C   UNL A   1      34.041  28.401  22.047  1.00  0.00     0.011 C 
ENDBRANCH   5  20
ENDBRANCH   3   5
ENDBRANCH   2   3
ENDBRANCH   1   2
BRANCH   1  22
ATOM     22  C   UNL A   1      33.064  29.642  26.922  1.00  0.00     0.275 C 
BRANCH  22  23
ATOM     23  O   UNL A   1      34.180  29.364  27.776  1.00  0.00    -0.458 OA
BRANCH  23  24
ATOM     24  C   UNL A   1      34.778  30.451  28.327  1.00  0.00     0.338 C 
ATOM     25  O   UNL A   1      34.250  31.465  28.730  1.00  0.00    -0.246 OA
BRANCH  24  26
ATOM     26  C   UNL A   1      36.197  30.119  28.524  1.00  0.00     0.060 A 
ATOM     27  C   UNL A   1      36.630  29.779  29.810  1.00  0.00     0.016 A 
ATOM     28  C   UNL A   1      37.075  30.100  27.441  1.00  0.00     0.016 A 
ATOM     29  C   UNL A   1      37.946  29.376  30.016  1.00  0.00     0.010 A 
ATOM     30  C   UNL A   1      38.393  29.712  27.649  1.00  0.00     0.010 A 
ATOM     31  C   UNL A   1      38.831  29.345  28.934  1.00  0.00    -0.014 A 
BRANCH  31  32
ATOM     32  C   UNL A   1      40.252  28.991  29.121  1.00  0.00     0.031 A 
ATOM     33  C   UNL A   1      41.210  30.067  29.526  1.00  0.00     0.074 A 
ATOM     34  C   UNL A   1      40.672  27.742  28.853  1.00  0.00     0.049 A 
ATOM     35  N   UNL A   1      42.514  30.048  29.547  1.00  0.00    -0.248 NA
ATOM     36  C   UNL A   1      40.614  31.346  29.947  1.00  0.00     0.031 C 
ATOM     37  C   UNL A   1      39.806  26.619  28.491  1.00  0.00     0.029 A 
ATOM     38  N   UNL A   1      41.938  27.219  28.812  1.00  0.00    -0.354 N 
ATOM     39  C   UNL A   1      42.900  31.316  29.961  1.00  0.00     0.074 A 
ATOM     40  C   UNL A   1      41.692  32.086  30.161  1.00  0.00     0.031 C 
ATOM     41  C   UNL A   1      40.571  25.543  28.238  1.00  0.00     0.029 A 
ATOM     42  C   UNL A   1      41.976  25.919  28.367  1.00  0.00     0.049 A 
ATOM     43  H   UNL A   1      42.740  27.725  29.074  1.00  0.00     0.167 HD
ATOM     44  C   UNL A   1      44.154  31.786  30.153  1.00  0.00     0.037 A 
ATOM     45  C   UNL A   1      43.032  25.141  28.055  1.00  0.00     0.037 A 
ATOM     46  C   UNL A   1      45.339  30.997  29.939  1.00  0.00     0.049 A 
ATOM     47  C   UNL A   1      44.418  25.713  28.196  1.00  0.00     0.074 A 
ATOM     48  C   UNL A   1      46.660  31.360  30.124  1.00  0.00     0.029 A 
ATOM     49  N   UNL A   1      45.343  29.687  29.476  1.00  0.00    -0.354 N 
ATOM     50  N   UNL A   1      44.780  26.905  28.611  1.00  0.00    -0.248 NA
ATOM     51  C   UNL A   1      45.539  24.844  27.815  1.00  0.00     0.031 C 
ATOM     52  C   UNL A   1      47.465  30.290  29.719  1.00  0.00     0.029 A 
ATOM     53  C   UNL A   1      46.645  29.238  29.334  1.00  0.00     0.049 A 
ATOM     54  H   UNL A   1      44.538  29.156  29.279  1.00  0.00     0.167 HD
ATOM     55  C   UNL A   1      46.169  26.923  28.556  1.00  0.00     0.074 A 
ATOM     56  C   UNL A   1      46.582  25.616  28.087  1.00  0.00     0.031 C 
ATOM     57  C   UNL A   1      47.027  27.930  28.859  1.00  0.00     0.037 A 
BRANCH  44  58
ATOM     58  C   UNL A   1      44.303  33.221  30.578  1.00  0.00     0.058 A 
ATOM     59  C   UNL A   1      44.462  34.259  29.645  1.00  0.00     0.135 A 
ATOM     60  C   UNL A   1      44.271  33.567  31.939  1.00  0.00     0.135 A 
ATOM     61  F   UNL A   1      44.521  33.985  28.332  1.00  0.00    -0.206 F 
ATOM     62  C   UNL A   1      44.612  35.583  30.047  1.00  0.00     0.059 A 
ATOM     63  C   UNL A   1      44.389  34.888  32.362  1.00  0.00     0.059 A 
ATOM     64  F   UNL A   1      44.128  32.615  32.875  1.00  0.00    -0.206 F 
ATOM     65  C   UNL A   1      44.573  35.886  31.408  1.00  0.00     0.060 A 
BRANCH  65  66
ATOM     66  S   UNL A   1      44.768  37.609  31.912  1.00  0.00     0.124 S 
ATOM     67  O   UNL A   1      46.201  37.811  31.716  1.00  0.00    -0.237 OA
ATOM     68  O   UNL A   1      43.896  38.307  30.971  1.00  0.00    -0.237 OA
ATOM     69  O   UNL A   1      44.319  37.612  33.301  1.00  0.00    -0.744 OA
ENDBRANCH  65  66
ENDBRANCH  44  58
BRANCH  45  70
ATOM     70  C   UNL A   1      42.815  23.758  27.551  1.00  0.00     0.058 A 
ATOM     71  C   UNL A   1      42.845  22.661  28.424  1.00  0.00     0.135 A 
ATOM     72  C   UNL A   1      42.556  23.504  26.195  1.00  0.00     0.135 A 
ATOM     73  F   UNL A   1      43.101  22.849  29.728  1.00  0.00    -0.206 F 
ATOM     74  C   UNL A   1      42.634  21.362  27.972  1.00  0.00     0.059 A 
ATOM     75  C   UNL A   1      42.313  22.217  25.722  1.00  0.00     0.059 A 
ATOM     76  F   UNL A   1      42.508  24.518  25.316  1.00  0.00    -0.206 F 
ATOM     77  C   UNL A   1      42.363  21.151  26.619  1.00  0.00     0.060 A 
BRANCH  77  78
ATOM     78  S   UNL A   1      42.034  19.466  26.056  1.00  0.00     0.124 S 
ATOM     79  O   UNL A   1      42.417  18.685  27.227  1.00  0.00    -0.237 OA
ATOM     80  O   UNL A   1      40.606  19.515  25.762  1.00  0.00    -0.237 OA
ATOM     81  O   UNL A   1      42.903  19.323  24.892  1.00  0.00    -0.744 OA
ENDBRANCH  77  78
ENDBRANCH  45  70
BRANCH  57  82
ATOM     82  C   UNL A   1      48.497  27.655  28.701  1.00  0.00     0.058 A 
ATOM     83  C   UNL A   1      49.239  27.029  29.716  1.00  0.00     0.135 A 
ATOM     84  C   UNL A   1      49.154  27.953  27.496  1.00  0.00     0.135 A 
ATOM     85  F   UNL A   1      48.661  26.733  30.891  1.00  0.00    -0.206 F 
ATOM     86  C   UNL A   1      50.584  26.721  29.547  1.00  0.00     0.059 A 
ATOM     87  C   UNL A   1      50.491  27.626  27.294  1.00  0.00     0.059 A 
ATOM     88  F   UNL A   1      48.489  28.543  26.491  1.00  0.00    -0.206 F 
ATOM     89  C   UNL A   1      51.199  27.016  28.328  1.00  0.00     0.060 A 
BRANCH  89  90
ATOM     90  S   UNL A   1      52.930  26.558  28.104  1.00  0.00     0.124 S 
ATOM     91  O   UNL A   1      53.493  27.789  27.558  1.00  0.00    -0.237 OA
ATOM     92  O   UNL A   1      53.341  26.223  29.464  1.00  0.00    -0.237 OA
ATOM     93  O   UNL A   1      52.869  25.432  27.178  1.00  0.00    -0.744 OA
ENDBRANCH  89  90
ENDBRANCH  57  82
ENDBRANCH  31  32
ENDBRANCH  24  26
ENDBRANCH  23  24
ENDBRANCH  22  23
ENDBRANCH   1  22
TORSDOF 20
ENDMDL
MODEL 3
REMARK VINA RESULT:      -9.1      1.193      2.262
REMARK SMILES CCC[N@@H+](CC1CC[NH2+]CC1)[C@@H](CC)C(=O)OCCOC(=O)c1ccc(-c2c3nc(c(-c4c(F)cc(S(=O)(=O)[O-])cc4F)c4ccc([nH]4)c(-c4c(F)cc(S(=O)(=O)[O-])cc4F)c4nc(c(-c5c(F)cc(S(=O)(=O)[O-])cc5F)c5ccc2[nH]5)C=C4)C=C3)cc1
REMARK SMILES IDX 18 1 17 2 15 3 16 4 12 5 4 6 3 8 2 9 1 10 5 11 6 12 7 13
REMARK SMILES IDX 11 14 8 15 10 16 9 17 13 20 14 21 19 22 20 23 21 24 22 25
REMARK SMILES IDX 23 26 24 27 88 28 25 29 87 30 26 31 27 32 28 33 81 34 29 35
REMARK SMILES IDX 86 36 80 37 82 38 30 39 85 40 79 41 78 42 31 44 65 45 44 46
REMARK SMILES IDX 64 47 45 48 48 49 63 50 83 51 46 52 47 53 62 55 84 56 49 57
REMARK SMILES IDX 32 58 33 59 42 60 34 61 35 62 41 63 43 64 36 65 37 66 38 67
REMARK SMILES IDX 39 68 40 69 66 70 67 71 76 72 68 73 69 74 75 75 77 76 70 77
REMARK SMILES IDX 71 78 72 79 73 80 74 81 50 82 51 83 60 84 52 85 53 86 59 87
REMARK SMILES IDX 61 88 54 89 55 90 56 91 57 92 58 93
REMARK H PARENT 4 7 9 18 9 19 82 43 48 54
REMARK Flexibility Score: inf
ROOT
ATOM      1  C   UNL A   1      36.005  22.335  24.202  1.00  0.00     0.274 C 
ENDROOT
BRANCH   1   2
ATOM      2  O   UNL A   1      34.863  22.918  23.544  1.00  0.00    -0.458 OA
BRANCH   2   3
ATOM      3  C   UNL A   1      33.685  22.905  24.206  1.00  0.00     0.365 C 
ATOM      4  O   UNL A   1      32.713  22.246  23.841  1.00  0.00    -0.245 OA
BRANCH   3   5
ATOM      5  C   UNL A   1      33.585  23.933  25.347  1.00  0.00     0.294 C 
BRANCH   5   6
ATOM      6  N   UNL A   1      33.006  25.255  25.023  1.00  0.00    -0.323 N 
ATOM      7  H   UNL A   1      32.323  24.655  24.561  1.00  0.00     0.348 HD
BRANCH   6   8
ATOM      8  C   UNL A   1      31.904  25.917  25.717  1.00  0.00     0.262 C 
BRANCH   8   9
ATOM      9  C   UNL A   1      32.171  27.061  26.715  1.00  0.00     0.058 C 
ATOM     10  C   UNL A   1      31.630  28.425  26.315  1.00  0.00     0.010 C 
ENDBRANCH   8   9
ENDBRANCH   6   8
BRANCH   6  11
ATOM     11  C   UNL A   1      33.831  26.158  24.190  1.00  0.00     0.266 C 
BRANCH  11  12
ATOM     12  C   UNL A   1      33.512  26.576  22.714  1.00  0.00     0.055 C 
ATOM     13  C   UNL A   1      33.727  28.060  22.378  1.00  0.00     0.071 C 
ATOM     14  C   UNL A   1      32.198  26.100  22.089  1.00  0.00     0.071 C 
ATOM     15  C   UNL A   1      32.526  28.951  22.639  1.00  0.00     0.261 C 
ATOM     16  C   UNL A   1      31.018  27.012  22.387  1.00  0.00     0.261 C 
ATOM     17  N   UNL A   1      31.271  28.423  22.106  1.00  0.00    -0.346 N 
ATOM     18  H   UNL A   1      31.282  28.544  21.093  1.00  0.00     0.346 HD
ATOM     19  H   UNL A   1      30.527  28.941  22.572  1.00  0.00     0.346 HD
ENDBRANCH  11  12
ENDBRANCH   6  11
ENDBRANCH   5   6
BRANCH   5  20
ATOM     20  C   UNL A   1      33.230  23.166  26.635  1.00  0.00     0.074 C 
ATOM     21  C   UNL A   1      34.326  22.649  27.536  1.00  0.00     0.011 C 
ENDBRANCH   5  20
ENDBRANCH   3   5
ENDBRANCH   2   3
ENDBRANCH   1   2
BRANCH   1  22
ATOM     22  C   UNL A   1      37.083  23.377  24.496  1.00  0.00     0.275 C 
BRANCH  22  23
ATOM     23  O   UNL A   1      37.433  23.352  25.885  1.00  0.00    -0.458 OA
BRANCH  23  24
ATOM     24  C   UNL A   1      38.749  23.157  26.153  1.00  0.00     0.338 C 
ATOM     25  O   UNL A   1      39.470  22.277  25.734  1.00  0.00    -0.246 OA
BRANCH  24  26
ATOM     26  C   UNL A   1      39.219  24.322  26.917  1.00  0.00     0.060 A 
ATOM     27  C   UNL A   1      40.063  25.240  26.282  1.00  0.00     0.016 A 
ATOM     28  C   UNL A   1      38.792  24.526  28.229  1.00  0.00     0.016 A 
ATOM     29  C   UNL A   1      40.456  26.397  26.948  1.00  0.00     0.010 A 
ATOM     30  C   UNL A   1      39.197  25.673  28.899  1.00  0.00     0.010 A 
ATOM     31  C   UNL A   1      40.026  26.614  28.261  1.00  0.00    -0.014 A 
BRANCH  31  32
ATOM     32  C   UNL A   1      40.476  27.793  29.026  1.00  0.00     0.031 A 
ATOM     33  C   UNL A   1      41.764  27.704  29.784  1.00  0.00     0.074 A 
ATOM     34  C   UNL A   1      39.695  28.885  29.095  1.00  0.00     0.049 A 
ATOM     35  N   UNL A   1      42.254  28.516  30.680  1.00  0.00    -0.248 NA
ATOM     36  C   UNL A   1      42.606  26.529  29.503  1.00  0.00     0.031 C 
ATOM     37  C   UNL A   1      38.444  29.076  28.361  1.00  0.00     0.029 A 
ATOM     38  N   UNL A   1      39.826  30.025  29.844  1.00  0.00    -0.354 N 
ATOM     39  C   UNL A   1      43.450  27.942  31.090  1.00  0.00     0.074 A 
ATOM     40  C   UNL A   1      43.602  26.702  30.360  1.00  0.00     0.031 C 
ATOM     41  C   UNL A   1      37.906  30.255  28.717  1.00  0.00     0.029 A 
ATOM     42  C   UNL A   1      38.746  30.871  29.740  1.00  0.00     0.049 A 
ATOM     43  H   UNL A   1      40.613  30.219  30.401  1.00  0.00     0.167 HD
ATOM     44  C   UNL A   1      44.335  28.415  31.998  1.00  0.00     0.037 A 
ATOM     45  C   UNL A   1      38.452  31.989  30.433  1.00  0.00     0.037 A 
ATOM     46  C   UNL A   1      44.152  29.650  32.716  1.00  0.00     0.049 A 
ATOM     47  C   UNL A   1      39.412  32.452  31.498  1.00  0.00     0.074 A 
ATOM     48  C   UNL A   1      44.993  30.241  33.640  1.00  0.00     0.029 A 
ATOM     49  N   UNL A   1      43.042  30.476  32.596  1.00  0.00    -0.354 N 
ATOM     50  N   UNL A   1      40.554  31.920  31.867  1.00  0.00    -0.248 NA
ATOM     51  C   UNL A   1      39.039  33.657  32.251  1.00  0.00     0.031 C 
ATOM     52  C   UNL A   1      44.365  31.393  34.123  1.00  0.00     0.029 A 
ATOM     53  C   UNL A   1      43.158  31.554  33.458  1.00  0.00     0.049 A 
ATOM     54  H   UNL A   1      42.284  30.319  31.988  1.00  0.00     0.167 HD
ATOM     55  C   UNL A   1      41.044  32.733  32.884  1.00  0.00     0.074 A 
ATOM     56  C   UNL A   1      40.083  33.803  33.057  1.00  0.00     0.031 C 
ATOM     57  C   UNL A   1      42.181  32.604  33.613  1.00  0.00     0.037 A 
BRANCH  44  58
ATOM     58  C   UNL A   1      45.550  27.578  32.289  1.00  0.00     0.058 A 
ATOM     59  C   UNL A   1      46.771  27.787  31.628  1.00  0.00     0.135 A 
ATOM     60  C   UNL A   1      45.497  26.559  33.254  1.00  0.00     0.135 A 
ATOM     61  F   UNL A   1      46.875  28.733  30.681  1.00  0.00    -0.206 F 
ATOM     62  C   UNL A   1      47.887  26.999  31.894  1.00  0.00     0.059 A 
ATOM     63  C   UNL A   1      46.608  25.778  33.557  1.00  0.00     0.059 A 
ATOM     64  F   UNL A   1      44.353  26.310  33.912  1.00  0.00    -0.206 F 
ATOM     65  C   UNL A   1      47.795  25.998  32.861  1.00  0.00     0.060 A 
BRANCH  65  66
ATOM     66  S   UNL A   1      49.253  24.986  33.194  1.00  0.00     0.124 S 
ATOM     67  O   UNL A   1      50.059  25.893  34.006  1.00  0.00    -0.237 OA
ATOM     68  O   UNL A   1      48.682  23.843  33.901  1.00  0.00    -0.237 OA
ATOM     69  O   UNL A   1      49.780  24.698  31.864  1.00  0.00    -0.744 OA
ENDBRANCH  65  66
ENDBRANCH  44  58
BRANCH  45  70
ATOM     70  C   UNL A   1      37.187  32.723  30.162  1.00  0.00     0.058 A 
ATOM     71  C   UNL A   1      37.130  33.719  29.176  1.00  0.00     0.135 A 
ATOM     72  C   UNL A   1      36.007  32.435  30.865  1.00  0.00     0.135 A 
ATOM     73  F   UNL A   1      38.234  34.042  28.484  1.00  0.00    -0.206 F 
ATOM     74  C   UNL A   1      35.953  34.408  28.902  1.00  0.00     0.059 A 
ATOM     75  C   UNL A   1      34.809  33.090  30.590  1.00  0.00     0.059 A 
ATOM     76  F   UNL A   1      36.003  31.486  31.814  1.00  0.00    -0.206 F 
ATOM     77  C   UNL A   1      34.795  34.082  29.611  1.00  0.00     0.060 A 
BRANCH  77  78
ATOM     78  S   UNL A   1      33.261  34.944  29.205  1.00  0.00     0.124 S 
ATOM     79  O   UNL A   1      32.715  34.094  28.153  1.00  0.00    -0.237 OA
ATOM     80  O   UNL A   1      32.549  34.919  30.478  1.00  0.00    -0.237 OA
ATOM     81  O   UNL A   1      33.718  36.263  28.777  1.00  0.00    -0.744 OA
ENDBRANCH  77  78
ENDBRANCH  45  70
BRANCH  57  82
ATOM     82  C   UNL A   1      42.452  33.651  34.658  1.00  0.00     0.058 A 
ATOM     83  C   UNL A   1      43.114  34.848  34.342  1.00  0.00     0.135 A 
ATOM     84  C   UNL A   1      41.981  33.488  35.971  1.00  0.00     0.135 A 
ATOM     85  F   UNL A   1      43.594  35.049  33.104  1.00  0.00    -0.206 F 
ATOM     86  C   UNL A   1      43.312  35.841  35.295  1.00  0.00     0.059 A 
ATOM     87  C   UNL A   1      42.141  34.481  36.932  1.00  0.00     0.059 A 
ATOM     88  F   UNL A   1      41.333  32.367  36.323  1.00  0.00    -0.206 F 
ATOM     89  C   UNL A   1      42.814  35.652  36.586  1.00  0.00     0.060 A 
BRANCH  89  90
ATOM     90  S   UNL A   1      43.030  36.974  37.795  1.00  0.00     0.124 S 
ATOM     91  O   UNL A   1      43.620  38.029  36.977  1.00  0.00    -0.237 OA
ATOM     92  O   UNL A   1      41.661  37.211  38.243  1.00  0.00    -0.237 OA
ATOM     93  O   UNL A   1      43.916  36.383  38.792  1.00  0.00    -0.744 OA
ENDBRANCH  89  90
ENDBRANCH  57  82
ENDBRANCH  31  32
ENDBRANCH  24  26
ENDBRANCH  23  24
ENDBRANCH  22  23
ENDBRANCH   1  22
TORSDOF 20
ENDMDL
