MODEL 1
REMARK VINA RESULT:     -12.7      0.000      0.000
REMARK SMILES O=C1[NH+]=C(Nc2ccc(C(=O)OCCOC(=O)c3ccc(-c4c5nc(c(-c6c(F)cc(S(=O)(=O)[O-])cc6F)c6ccc([nH]6)c(-c6c(F)cc(S(=O)(=O)[O-])cc6F)c6nc(c(-c7c(F)cc(S(=O)(=O)[O-])cc7F)c7ccc4[nH]7)C=C6)C=C5)cc3)c(O)c2)S/C1=C\c1ccc[nH]1
REMARK SMILES IDX 14 1 13 2 12 3 10 4 11 5 9 6 6 7 7 8 86 9 8 10 84 11 5 12
REMARK SMILES IDX 1 13 2 14 3 15 88 16 4 17 87 19 89 20 90 22 91 23 94 24
REMARK SMILES IDX 92 25 93 26 85 28 15 30 16 31 17 32 18 33 19 34 83 35 20 36
REMARK SMILES IDX 82 37 21 38 22 39 23 40 76 41 24 42 81 43 75 44 77 45 25 46
REMARK SMILES IDX 80 47 74 48 73 49 26 51 60 52 39 53 59 54 40 55 43 56 58 57
REMARK SMILES IDX 78 58 41 59 42 60 57 62 79 63 44 64 27 65 28 66 37 67 29 68
REMARK SMILES IDX 30 69 36 70 38 71 31 72 32 73 33 74 34 75 35 76 61 77 62 78
REMARK SMILES IDX 71 79 63 80 64 81 70 82 72 83 65 84 66 85 67 86 68 87 69 88
REMARK SMILES IDX 45 89 46 90 55 91 47 92 48 93 54 94 56 95 49 96 50 97 51 98
REMARK SMILES IDX 52 99 53 100
REMARK H PARENT 3 18 5 21 94 27 85 29 77 50 43 61
REMARK Flexibility Score: inf
ROOT
ATOM      1  C   UNL A   1      34.811  30.808  27.966  1.00  0.00     0.275 C 
ENDROOT
BRANCH   1   2
ATOM      2  C   UNL A   1      33.552  30.434  27.177  1.00  0.00     0.275 C 
BRANCH   2   3
ATOM      3  O   UNL A   1      33.214  29.035  27.311  1.00  0.00    -0.458 OA
BRANCH   3   4
ATOM      4  C   UNL A   1      32.466  28.505  26.305  1.00  0.00     0.342 C 
ATOM      5  O   UNL A   1      31.748  29.130  25.542  1.00  0.00    -0.246 OA
BRANCH   4   6
ATOM      6  C   UNL A   1      32.709  27.043  26.175  1.00  0.00     0.102 A 
ATOM      7  C   UNL A   1      33.386  24.308  26.015  1.00  0.00     0.129 A 
ATOM      8  C   UNL A   1      34.328  25.290  25.703  1.00  0.00     0.053 A 
ATOM      9  C   UNL A   1      32.084  24.705  26.340  1.00  0.00     0.098 A 
ATOM     10  C   UNL A   1      33.976  26.639  25.730  1.00  0.00     0.024 A 
ATOM     11  C   UNL A   1      31.758  26.061  26.462  1.00  0.00     0.134 A 
BRANCH   7  12
ATOM     12  N   UNL A   1      33.717  22.953  25.937  1.00  0.00    -0.234 N 
ATOM     13  O   UNL A   1      31.818  21.222  22.054  1.00  0.00    -0.240 OA
ATOM     14  C   UNL A   1      32.308  21.219  23.171  1.00  0.00     0.346 C 
ATOM     15  N   UNL A   1      32.610  22.344  23.906  1.00  0.00    -0.199 N 
ATOM     16  C   UNL A   1      32.712  19.970  23.883  1.00  0.00     0.111 C 
ATOM     17  C   UNL A   1      33.215  22.082  25.014  1.00  0.00     0.322 C 
ATOM     18  H   UNL A   1      32.385  23.258  23.616  1.00  0.00     0.316 HD
ATOM     19  S   UNL A   1      33.469  20.387  25.372  1.00  0.00     0.006 SA
ATOM     20  C   UNL A   1      32.530  18.755  23.348  1.00  0.00     0.050 C 
ATOM     21  H   UNL A   1      34.359  22.601  26.595  1.00  0.00     0.313 HD
BRANCH  20  22
ATOM     22  C   UNL A   1      32.892  17.561  24.016  1.00  0.00     0.039 A 
ATOM     23  C   UNL A   1      33.977  16.711  23.931  1.00  0.00     0.027 A 
ATOM     24  N   UNL A   1      32.058  17.072  24.991  1.00  0.00    -0.362 N 
ATOM     25  C   UNL A   1      33.767  15.655  24.850  1.00  0.00     0.020 A 
ATOM     26  C   UNL A   1      32.566  15.894  25.480  1.00  0.00     0.083 A 
ATOM     27  H   UNL A   1      31.224  17.498  25.292  1.00  0.00     0.166 HD
ENDBRANCH  20  22
ENDBRANCH   7  12
BRANCH  11  28
ATOM     28  O   UNL A   1      30.479  26.340  26.858  1.00  0.00    -0.507 OA
ATOM     29  H   UNL A   1      30.295  27.133  27.321  1.00  0.00     0.293 HD
ENDBRANCH  11  28
ENDBRANCH   4   6
ENDBRANCH   3   4
ENDBRANCH   2   3
ENDBRANCH   1   2
BRANCH   1  30
ATOM     30  O   UNL A   1      35.572  29.641  28.328  1.00  0.00    -0.458 OA
BRANCH  30  31
ATOM     31  C   UNL A   1      36.265  29.759  29.484  1.00  0.00     0.338 C 
ATOM     32  O   UNL A   1      35.818  29.670  30.616  1.00  0.00    -0.246 OA
BRANCH  31  33
ATOM     33  C   UNL A   1      37.708  29.863  29.222  1.00  0.00     0.060 A 
ATOM     34  C   UNL A   1      38.112  29.673  27.908  1.00  0.00     0.016 A 
ATOM     35  C   UNL A   1      38.655  29.897  30.241  1.00  0.00     0.016 A 
ATOM     36  C   UNL A   1      39.435  29.381  27.605  1.00  0.00     0.010 A 
ATOM     37  C   UNL A   1      40.010  29.699  29.923  1.00  0.00     0.010 A 
ATOM     38  C   UNL A   1      40.410  29.374  28.610  1.00  0.00    -0.014 A 
BRANCH  38  39
ATOM     39  C   UNL A   1      41.800  28.922  28.287  1.00  0.00     0.031 A 
ATOM     40  C   UNL A   1      42.949  29.903  28.345  1.00  0.00     0.074 A 
ATOM     41  C   UNL A   1      42.056  27.626  28.009  1.00  0.00     0.049 A 
ATOM     42  N   UNL A   1      44.200  29.738  27.991  1.00  0.00    -0.248 NA
ATOM     43  C   UNL A   1      42.651  31.253  28.848  1.00  0.00     0.031 C 
ATOM     44  C   UNL A   1      41.059  26.553  27.961  1.00  0.00     0.029 A 
ATOM     45  N   UNL A   1      43.239  26.982  27.729  1.00  0.00    -0.354 N 
ATOM     46  C   UNL A   1      44.818  30.971  28.176  1.00  0.00     0.074 A 
ATOM     47  C   UNL A   1      43.801  31.882  28.654  1.00  0.00     0.031 C 
ATOM     48  C   UNL A   1      41.674  25.387  27.709  1.00  0.00     0.029 A 
ATOM     49  C   UNL A   1      43.095  25.634  27.491  1.00  0.00     0.049 A 
ATOM     50  H   UNL A   1      44.109  27.443  27.701  1.00  0.00     0.167 HD
ATOM     51  C   UNL A   1      46.115  31.315  27.974  1.00  0.00     0.037 A 
ATOM     52  C   UNL A   1      43.989  24.703  27.104  1.00  0.00     0.037 A 
ATOM     53  C   UNL A   1      47.144  30.388  27.573  1.00  0.00     0.049 A 
ATOM     54  C   UNL A   1      45.422  25.111  26.881  1.00  0.00     0.074 A 
ATOM     55  C   UNL A   1      48.492  30.635  27.369  1.00  0.00     0.029 A 
ATOM     56  N   UNL A   1      46.948  29.037  27.335  1.00  0.00    -0.354 N 
ATOM     57  N   UNL A   1      45.975  26.292  27.017  1.00  0.00    -0.248 NA
ATOM     58  C   UNL A   1      46.350  24.058  26.448  1.00  0.00     0.031 C 
ATOM     59  C   UNL A   1      49.101  29.444  26.964  1.00  0.00     0.029 A 
ATOM     60  C   UNL A   1      48.147  28.439  26.974  1.00  0.00     0.049 A 
ATOM     61  H   UNL A   1      46.085  28.569  27.411  1.00  0.00     0.167 HD
ATOM     62  C   UNL A   1      47.321  26.118  26.712  1.00  0.00     0.074 A 
ATOM     63  C   UNL A   1      47.501  24.714  26.407  1.00  0.00     0.031 C 
ATOM     64  C   UNL A   1      48.318  27.038  26.683  1.00  0.00     0.037 A 
BRANCH  51  65
ATOM     65  C   UNL A   1      46.501  32.761  28.156  1.00  0.00     0.058 A 
ATOM     66  C   UNL A   1      47.023  33.255  29.361  1.00  0.00     0.135 A 
ATOM     67  C   UNL A   1      46.397  33.656  27.077  1.00  0.00     0.135 A 
ATOM     68  F   UNL A   1      47.133  32.451  30.430  1.00  0.00    -0.206 F 
ATOM     69  C   UNL A   1      47.406  34.587  29.498  1.00  0.00     0.059 A 
ATOM     70  C   UNL A   1      46.804  34.983  27.182  1.00  0.00     0.059 A 
ATOM     71  F   UNL A   1      45.907  33.240  25.899  1.00  0.00    -0.206 F 
ATOM     72  C   UNL A   1      47.297  35.443  28.402  1.00  0.00     0.060 A 
BRANCH  72  73
ATOM     73  S   UNL A   1      47.825  37.160  28.584  1.00  0.00     0.124 S 
ATOM     74  O   UNL A   1      48.549  37.112  29.850  1.00  0.00    -0.237 OA
ATOM     75  O   UNL A   1      48.644  37.364  27.392  1.00  0.00    -0.237 OA
ATOM     76  O   UNL A   1      46.569  37.904  28.610  1.00  0.00    -0.744 OA
ENDBRANCH  72  73
ENDBRANCH  51  65
BRANCH  52  77
ATOM     77  C   UNL A   1      43.554  23.299  26.861  1.00  0.00     0.058 A 
ATOM     78  C   UNL A   1      43.268  22.427  27.923  1.00  0.00     0.135 A 
ATOM     79  C   UNL A   1      43.433  22.795  25.555  1.00  0.00     0.135 A 
ATOM     80  F   UNL A   1      43.379  22.854  29.190  1.00  0.00    -0.206 F 
ATOM     81  C   UNL A   1      42.904  21.102  27.701  1.00  0.00     0.059 A 
ATOM     82  C   UNL A   1      43.035  21.485  25.309  1.00  0.00     0.059 A 
ATOM     83  F   UNL A   1      43.682  23.587  24.502  1.00  0.00    -0.206 F 
ATOM     84  C   UNL A   1      42.790  20.641  26.389  1.00  0.00     0.060 A 
BRANCH  84  85
ATOM     85  S   UNL A   1      42.286  18.929  26.109  1.00  0.00     0.124 S 
ATOM     86  O   UNL A   1      40.878  19.090  25.767  1.00  0.00    -0.237 OA
ATOM     87  O   UNL A   1      43.167  18.523  25.018  1.00  0.00    -0.237 OA
ATOM     88  O   UNL A   1      42.554  18.287  27.392  1.00  0.00    -0.744 OA
ENDBRANCH  84  85
ENDBRANCH  52  77
BRANCH  64  89
ATOM     89  C   UNL A   1      49.703  26.540  26.369  1.00  0.00     0.058 A 
ATOM     90  C   UNL A   1      50.246  26.612  25.076  1.00  0.00     0.135 A 
ATOM     91  C   UNL A   1      50.501  25.984  27.382  1.00  0.00     0.135 A 
ATOM     92  F   UNL A   1      49.527  27.132  24.069  1.00  0.00    -0.206 F 
ATOM     93  C   UNL A   1      51.507  26.100  24.788  1.00  0.00     0.059 A 
ATOM     94  C   UNL A   1      51.779  25.497  27.123  1.00  0.00     0.059 A 
ATOM     95  F   UNL A   1      50.040  25.905  28.641  1.00  0.00    -0.206 F 
ATOM     96  C   UNL A   1      52.263  25.539  25.818  1.00  0.00     0.060 A 
BRANCH  96  97
ATOM     97  S   UNL A   1      53.891  24.860  25.429  1.00  0.00     0.124 S 
ATOM     98  O   UNL A   1      54.637  25.171  26.644  1.00  0.00    -0.237 OA
ATOM     99  O   UNL A   1      53.597  23.447  25.210  1.00  0.00    -0.237 OA
ATOM    100  O   UNL A   1      54.293  25.603  24.238  1.00  0.00    -0.744 OA
ENDBRANCH  96  97
ENDBRANCH  64  89
ENDBRANCH  38  39
ENDBRANCH  31  33
ENDBRANCH  30  31
ENDBRANCH   1  30
TORSDOF 17
ENDMDL
MODEL 2
REMARK VINA RESULT:     -12.5      6.795     12.368
REMARK SMILES O=C1[NH+]=C(Nc2ccc(C(=O)OCCOC(=O)c3ccc(-c4c5nc(c(-c6c(F)cc(S(=O)(=O)[O-])cc6F)c6ccc([nH]6)c(-c6c(F)cc(S(=O)(=O)[O-])cc6F)c6nc(c(-c7c(F)cc(S(=O)(=O)[O-])cc7F)c7ccc4[nH]7)C=C6)C=C5)cc3)c(O)c2)S/C1=C\c1ccc[nH]1
REMARK SMILES IDX 14 1 13 2 12 3 10 4 11 5 9 6 6 7 7 8 86 9 8 10 84 11 5 12
REMARK SMILES IDX 1 13 2 14 3 15 88 16 4 17 87 19 89 20 90 22 91 23 94 24
REMARK SMILES IDX 92 25 93 26 85 28 15 30 16 31 17 32 18 33 19 34 83 35 20 36
REMARK SMILES IDX 82 37 21 38 22 39 23 40 76 41 24 42 81 43 75 44 77 45 25 46
REMARK SMILES IDX 80 47 74 48 73 49 26 51 60 52 39 53 59 54 40 55 43 56 58 57
REMARK SMILES IDX 78 58 41 59 42 60 57 62 79 63 44 64 27 65 28 66 37 67 29 68
REMARK SMILES IDX 30 69 36 70 38 71 31 72 32 73 33 74 34 75 35 76 61 77 62 78
REMARK SMILES IDX 71 79 63 80 64 81 70 82 72 83 65 84 66 85 67 86 68 87 69 88
REMARK SMILES IDX 45 89 46 90 55 91 47 92 48 93 54 94 56 95 49 96 50 97 51 98
REMARK SMILES IDX 52 99 53 100
REMARK H PARENT 3 18 5 21 94 27 85 29 77 50 43 61
REMARK Flexibility Score: inf
ROOT
ATOM      1  C   UNL A   1      41.676  21.912  26.507  1.00  0.00     0.275 C 
ENDROOT
BRANCH   1   2
ATOM      2  C   UNL A   1      40.570  20.913  26.155  1.00  0.00     0.275 C 
BRANCH   2   3
ATOM      3  O   UNL A   1      39.249  21.486  26.282  1.00  0.00    -0.458 OA
BRANCH   3   4
ATOM      4  C   UNL A   1      38.288  20.947  25.482  1.00  0.00     0.342 C 
ATOM      5  O   UNL A   1      38.301  19.823  25.006  1.00  0.00    -0.246 OA
BRANCH   4   6
ATOM      6  C   UNL A   1      37.137  21.877  25.331  1.00  0.00     0.102 A 
ATOM      7  C   UNL A   1      34.826  23.488  25.170  1.00  0.00     0.129 A 
ATOM      8  C   UNL A   1      34.728  22.099  25.077  1.00  0.00     0.053 A 
ATOM      9  C   UNL A   1      36.095  24.068  25.276  1.00  0.00     0.098 A 
ATOM     10  C   UNL A   1      35.876  21.308  25.102  1.00  0.00     0.024 A 
ATOM     11  C   UNL A   1      37.238  23.269  25.400  1.00  0.00     0.134 A 
BRANCH   7  12
ATOM     12  N   UNL A   1      33.684  24.289  25.092  1.00  0.00    -0.234 N 
ATOM     13  O   UNL A   1      33.122  25.572  20.651  1.00  0.00    -0.240 OA
ATOM     14  C   UNL A   1      32.998  25.613  21.864  1.00  0.00     0.346 C 
ATOM     15  N   UNL A   1      33.667  24.805  22.756  1.00  0.00    -0.199 N 
ATOM     16  C   UNL A   1      32.038  26.523  22.557  1.00  0.00     0.111 C 
ATOM     17  C   UNL A   1      33.287  24.970  23.977  1.00  0.00     0.322 C 
ATOM     18  H   UNL A   1      34.366  24.164  22.489  1.00  0.00     0.316 HD
ATOM     19  S   UNL A   1      32.072  26.200  24.247  1.00  0.00     0.006 SA
ATOM     20  C   UNL A   1      31.265  27.388  21.885  1.00  0.00     0.050 C 
ATOM     21  H   UNL A   1      33.124  24.369  25.898  1.00  0.00     0.313 HD
BRANCH  20  22
ATOM     22  C   UNL A   1      30.362  28.268  22.526  1.00  0.00     0.039 A 
ATOM     23  C   UNL A   1      29.021  28.194  22.846  1.00  0.00     0.027 A 
ATOM     24  N   UNL A   1      30.831  29.475  22.984  1.00  0.00    -0.362 N 
ATOM     25  C   UNL A   1      28.663  29.411  23.474  1.00  0.00     0.020 A 
ATOM     26  C   UNL A   1      29.796  30.191  23.533  1.00  0.00     0.083 A 
ATOM     27  H   UNL A   1      31.765  29.780  22.927  1.00  0.00     0.166 HD
ENDBRANCH  20  22
ENDBRANCH   7  12
BRANCH  11  28
ATOM     28  O   UNL A   1      38.422  23.933  25.573  1.00  0.00    -0.507 OA
ATOM     29  H   UNL A   1      38.849  23.917  26.407  1.00  0.00     0.293 HD
ENDBRANCH  11  28
ENDBRANCH   4   6
ENDBRANCH   3   4
ENDBRANCH   2   3
ENDBRANCH   1   2
BRANCH   1  30
ATOM     30  O   UNL A   1      41.131  23.129  27.054  1.00  0.00    -0.458 OA
BRANCH  30  31
ATOM     31  C   UNL A   1      41.827  24.245  26.739  1.00  0.00     0.338 C 
ATOM     32  O   UNL A   1      42.685  24.353  25.877  1.00  0.00    -0.246 OA
BRANCH  31  33
ATOM     33  C   UNL A   1      41.313  25.410  27.475  1.00  0.00     0.060 A 
ATOM     34  C   UNL A   1      42.169  26.496  27.585  1.00  0.00     0.016 A 
ATOM     35  C   UNL A   1      40.150  25.362  28.238  1.00  0.00     0.016 A 
ATOM     36  C   UNL A   1      41.954  27.478  28.543  1.00  0.00     0.010 A 
ATOM     37  C   UNL A   1      39.880  26.406  29.140  1.00  0.00     0.010 A 
ATOM     38  C   UNL A   1      40.811  27.444  29.351  1.00  0.00    -0.014 A 
BRANCH  38  39
ATOM     39  C   UNL A   1      40.668  28.430  30.469  1.00  0.00     0.031 A 
ATOM     40  C   UNL A   1      41.602  28.371  31.657  1.00  0.00     0.074 A 
ATOM     41  C   UNL A   1      39.754  29.422  30.400  1.00  0.00     0.049 A 
ATOM     42  N   UNL A   1      41.569  29.056  32.773  1.00  0.00    -0.248 NA
ATOM     43  C   UNL A   1      42.707  27.401  31.590  1.00  0.00     0.031 C 
ATOM     44  C   UNL A   1      38.813  29.638  29.297  1.00  0.00     0.029 A 
ATOM     45  N   UNL A   1      39.475  30.450  31.271  1.00  0.00    -0.354 N 
ATOM     46  C   UNL A   1      42.608  28.562  33.558  1.00  0.00     0.074 A 
ATOM     47  C   UNL A   1      43.241  27.506  32.798  1.00  0.00     0.031 C 
ATOM     48  C   UNL A   1      38.093  30.744  29.539  1.00  0.00     0.029 A 
ATOM     49  C   UNL A   1      38.454  31.272  30.850  1.00  0.00     0.049 A 
ATOM     50  H   UNL A   1      39.960  30.585  32.117  1.00  0.00     0.167 HD
ATOM     51  C   UNL A   1      43.005  28.956  34.793  1.00  0.00     0.037 A 
ATOM     52  C   UNL A   1      37.846  32.309  31.458  1.00  0.00     0.037 A 
ATOM     53  C   UNL A   1      42.424  30.060  35.516  1.00  0.00     0.049 A 
ATOM     54  C   UNL A   1      38.301  32.724  32.832  1.00  0.00     0.074 A 
ATOM     55  C   UNL A   1      42.777  30.552  36.762  1.00  0.00     0.029 A 
ATOM     56  N   UNL A   1      41.388  30.856  35.054  1.00  0.00    -0.354 N 
ATOM     57  N   UNL A   1      39.255  32.214  33.575  1.00  0.00    -0.248 NA
ATOM     58  C   UNL A   1      37.595  33.853  33.452  1.00  0.00     0.031 C 
ATOM     59  C   UNL A   1      41.924  31.616  37.072  1.00  0.00     0.029 A 
ATOM     60  C   UNL A   1      41.079  31.827  35.994  1.00  0.00     0.049 A 
ATOM     61  H   UNL A   1      40.937  30.748  34.185  1.00  0.00     0.167 HD
ATOM     62  C   UNL A   1      39.280  32.977  34.738  1.00  0.00     0.074 A 
ATOM     63  C   UNL A   1      38.261  33.996  34.589  1.00  0.00     0.031 C 
ATOM     64  C   UNL A   1      40.071  32.844  35.832  1.00  0.00     0.037 A 
BRANCH  51  65
ATOM     65  C   UNL A   1      44.106  28.175  35.466  1.00  0.00     0.058 A 
ATOM     66  C   UNL A   1      43.850  27.061  36.279  1.00  0.00     0.135 A 
ATOM     67  C   UNL A   1      45.450  28.523  35.243  1.00  0.00     0.135 A 
ATOM     68  F   UNL A   1      42.587  26.689  36.539  1.00  0.00    -0.206 F 
ATOM     69  C   UNL A   1      44.883  26.332  36.864  1.00  0.00     0.059 A 
ATOM     70  C   UNL A   1      46.499  27.789  35.791  1.00  0.00     0.059 A 
ATOM     71  F   UNL A   1      45.757  29.578  34.473  1.00  0.00    -0.206 F 
ATOM     72  C   UNL A   1      46.205  26.701  36.611  1.00  0.00     0.060 A 
BRANCH  72  73
ATOM     73  S   UNL A   1      47.535  25.731  37.352  1.00  0.00     0.124 S 
ATOM     74  O   UNL A   1      48.162  26.715  38.230  1.00  0.00    -0.237 OA
ATOM     75  O   UNL A   1      46.804  24.658  38.021  1.00  0.00    -0.237 OA
ATOM     76  O   UNL A   1      48.337  25.317  36.205  1.00  0.00    -0.744 OA
ENDBRANCH  72  73
ENDBRANCH  51  65
BRANCH  52  77
ATOM     77  C   UNL A   1      36.710  33.009  30.793  1.00  0.00     0.058 A 
ATOM     78  C   UNL A   1      36.925  33.943  29.768  1.00  0.00     0.135 A 
ATOM     79  C   UNL A   1      35.383  32.767  31.186  1.00  0.00     0.135 A 
ATOM     80  F   UNL A   1      38.174  34.218  29.363  1.00  0.00    -0.206 F 
ATOM     81  C   UNL A   1      35.870  34.630  29.175  1.00  0.00     0.059 A 
ATOM     82  C   UNL A   1      34.310  33.416  30.582  1.00  0.00     0.059 A 
ATOM     83  F   UNL A   1      35.118  31.876  32.152  1.00  0.00    -0.206 F 
ATOM     84  C   UNL A   1      34.565  34.359  29.589  1.00  0.00     0.060 A 
BRANCH  84  85
ATOM     85  S   UNL A   1      33.200  35.232  28.792  1.00  0.00     0.124 S 
ATOM     86  O   UNL A   1      33.911  36.248  28.024  1.00  0.00    -0.237 OA
ATOM     87  O   UNL A   1      32.567  34.170  28.016  1.00  0.00    -0.237 OA
ATOM     88  O   UNL A   1      32.415  35.726  29.919  1.00  0.00    -0.744 OA
ENDBRANCH  84  85
ENDBRANCH  52  77
BRANCH  64  89
ATOM     89  C   UNL A   1      39.906  33.864  36.926  1.00  0.00     0.058 A 
ATOM     90  C   UNL A   1      39.050  33.654  38.019  1.00  0.00     0.135 A 
ATOM     91  C   UNL A   1      40.620  35.073  36.879  1.00  0.00     0.135 A 
ATOM     92  F   UNL A   1      38.342  32.518  38.114  1.00  0.00    -0.206 F 
ATOM     93  C   UNL A   1      38.867  34.627  38.997  1.00  0.00     0.059 A 
ATOM     94  C   UNL A   1      40.479  36.046  37.864  1.00  0.00     0.059 A 
ATOM     95  F   UNL A   1      41.466  35.321  35.867  1.00  0.00    -0.206 F 
ATOM     96  C   UNL A   1      39.581  35.823  38.907  1.00  0.00     0.060 A 
BRANCH  96  97
ATOM     97  S   UNL A   1      39.321  37.087  40.170  1.00  0.00     0.124 S 
ATOM     98  O   UNL A   1      38.633  38.124  39.409  1.00  0.00    -0.237 OA
ATOM     99  O   UNL A   1      38.511  36.381  41.157  1.00  0.00    -0.237 OA
ATOM    100  O   UNL A   1      40.676  37.419  40.601  1.00  0.00    -0.744 OA
ENDBRANCH  96  97
ENDBRANCH  64  89
ENDBRANCH  38  39
ENDBRANCH  31  33
ENDBRANCH  30  31
ENDBRANCH   1  30
TORSDOF 17
ENDMDL
MODEL 3
REMARK VINA RESULT:     -12.5      2.328      3.132
REMARK SMILES O=C1[NH+]=C(Nc2ccc(C(=O)OCCOC(=O)c3ccc(-c4c5nc(c(-c6c(F)cc(S(=O)(=O)[O-])cc6F)c6ccc([nH]6)c(-c6c(F)cc(S(=O)(=O)[O-])cc6F)c6nc(c(-c7c(F)cc(S(=O)(=O)[O-])cc7F)c7ccc4[nH]7)C=C6)C=C5)cc3)c(O)c2)S/C1=C\c1ccc[nH]1
REMARK SMILES IDX 14 1 13 2 12 3 10 4 11 5 9 6 6 7 7 8 86 9 8 10 84 11 5 12
REMARK SMILES IDX 1 13 2 14 3 15 88 16 4 17 87 19 89 20 90 22 91 23 94 24
REMARK SMILES IDX 92 25 93 26 85 28 15 30 16 31 17 32 18 33 19 34 83 35 20 36
REMARK SMILES IDX 82 37 21 38 22 39 23 40 76 41 24 42 81 43 75 44 77 45 25 46
REMARK SMILES IDX 80 47 74 48 73 49 26 51 60 52 39 53 59 54 40 55 43 56 58 57
REMARK SMILES IDX 78 58 41 59 42 60 57 62 79 63 44 64 27 65 28 66 37 67 29 68
REMARK SMILES IDX 30 69 36 70 38 71 31 72 32 73 33 74 34 75 35 76 61 77 62 78
REMARK SMILES IDX 71 79 63 80 64 81 70 82 72 83 65 84 66 85 67 86 68 87 69 88
REMARK SMILES IDX 45 89 46 90 55 91 47 92 48 93 54 94 56 95 49 96 50 97 51 98
REMARK SMILES IDX 52 99 53 100
REMARK H PARENT 3 18 5 21 94 27 85 29 77 50 43 61
REMARK Flexibility Score: inf
ROOT
ATOM      1  C   UNL A   1      32.970  31.241  27.054  1.00  0.00     0.275 C 
ENDROOT
BRANCH   1   2
ATOM      2  C   UNL A   1      31.689  30.588  26.525  1.00  0.00     0.275 C 
BRANCH   2   3
ATOM      3  O   UNL A   1      31.804  29.150  26.428  1.00  0.00    -0.458 OA
BRANCH   3   4
ATOM      4  C   UNL A   1      32.207  28.667  25.221  1.00  0.00     0.342 C 
ATOM      5  O   UNL A   1      32.400  29.328  24.214  1.00  0.00    -0.246 OA
BRANCH   4   6
ATOM      6  C   UNL A   1      32.489  27.208  25.299  1.00  0.00     0.102 A 
ATOM      7  C   UNL A   1      33.254  24.496  25.446  1.00  0.00     0.129 A 
ATOM      8  C   UNL A   1      33.972  25.392  24.653  1.00  0.00     0.053 A 
ATOM      9  C   UNL A   1      32.110  24.953  26.110  1.00  0.00     0.098 A 
ATOM     10  C   UNL A   1      33.561  26.719  24.538  1.00  0.00     0.024 A 
ATOM     11  C   UNL A   1      31.754  26.307  26.073  1.00  0.00     0.134 A 
BRANCH   7  12
ATOM     12  N   UNL A   1      33.629  23.152  25.522  1.00  0.00    -0.234 N 
ATOM     13  O   UNL A   1      31.784  20.928  21.871  1.00  0.00    -0.240 OA
ATOM     14  C   UNL A   1      32.275  21.069  22.979  1.00  0.00     0.346 C 
ATOM     15  N   UNL A   1      32.540  22.280  23.579  1.00  0.00    -0.199 N 
ATOM     16  C   UNL A   1      32.721  19.923  23.827  1.00  0.00     0.111 C 
ATOM     17  C   UNL A   1      33.155  22.165  24.707  1.00  0.00     0.322 C 
ATOM     18  H   UNL A   1      32.286  23.147  23.187  1.00  0.00     0.316 HD
ATOM     19  S   UNL A   1      33.465  20.532  25.255  1.00  0.00     0.006 SA
ATOM     20  C   UNL A   1      32.579  18.649  23.435  1.00  0.00     0.050 C 
ATOM     21  H   UNL A   1      34.283  22.899  26.213  1.00  0.00     0.313 HD
BRANCH  20  22
ATOM     22  C   UNL A   1      32.981  17.552  24.233  1.00  0.00     0.039 A 
ATOM     23  C   UNL A   1      34.198  16.954  24.490  1.00  0.00     0.027 A 
ATOM     24  N   UNL A   1      32.028  16.884  24.963  1.00  0.00    -0.362 N 
ATOM     25  C   UNL A   1      33.965  15.867  25.365  1.00  0.00     0.020 A 
ATOM     26  C   UNL A   1      32.614  15.836  25.629  1.00  0.00     0.083 A 
ATOM     27  H   UNL A   1      31.074  17.119  25.002  1.00  0.00     0.166 HD
ENDBRANCH  20  22
ENDBRANCH   7  12
BRANCH  11  28
ATOM     28  O   UNL A   1      30.663  26.664  26.817  1.00  0.00    -0.507 OA
ATOM     29  H   UNL A   1      30.737  26.745  27.747  1.00  0.00     0.293 HD
ENDBRANCH  11  28
ENDBRANCH   4   6
ENDBRANCH   3   4
ENDBRANCH   2   3
ENDBRANCH   1   2
BRANCH   1  30
ATOM     30  O   UNL A   1      33.634  30.397  28.014  1.00  0.00    -0.458 OA
BRANCH  30  31
ATOM     31  C   UNL A   1      34.632  31.003  28.697  1.00  0.00     0.338 C 
ATOM     32  O   UNL A   1      34.535  31.985  29.415  1.00  0.00    -0.246 OA
BRANCH  31  33
ATOM     33  C   UNL A   1      35.879  30.230  28.600  1.00  0.00     0.060 A 
ATOM     34  C   UNL A   1      36.376  29.710  29.787  1.00  0.00     0.016 A 
ATOM     35  C   UNL A   1      36.667  30.217  27.453  1.00  0.00     0.016 A 
ATOM     36  C   UNL A   1      37.698  29.296  29.884  1.00  0.00     0.010 A 
ATOM     37  C   UNL A   1      37.975  29.707  27.526  1.00  0.00     0.010 A 
ATOM     38  C   UNL A   1      38.529  29.300  28.758  1.00  0.00    -0.014 A 
BRANCH  38  39
ATOM     39  C   UNL A   1      39.984  28.983  28.913  1.00  0.00     0.031 A 
ATOM     40  C   UNL A   1      40.928  30.016  29.487  1.00  0.00     0.074 A 
ATOM     41  C   UNL A   1      40.459  27.756  28.610  1.00  0.00     0.049 A 
ATOM     42  N   UNL A   1      42.233  29.979  29.595  1.00  0.00    -0.248 NA
ATOM     43  C   UNL A   1      40.329  31.263  29.989  1.00  0.00     0.031 C 
ATOM     44  C   UNL A   1      39.663  26.640  28.091  1.00  0.00     0.029 A 
ATOM     45  N   UNL A   1      41.727  27.231  28.710  1.00  0.00    -0.354 N 
ATOM     46  C   UNL A   1      42.611  31.211  30.120  1.00  0.00     0.074 A 
ATOM     47  C   UNL A   1      41.399  31.982  30.292  1.00  0.00     0.031 C 
ATOM     48  C   UNL A   1      40.448  25.560  27.956  1.00  0.00     0.029 A 
ATOM     49  C   UNL A   1      41.820  25.922  28.295  1.00  0.00     0.049 A 
ATOM     50  H   UNL A   1      42.496  27.744  29.048  1.00  0.00     0.167 HD
ATOM     51  C   UNL A   1      43.851  31.658  30.439  1.00  0.00     0.037 A 
ATOM     52  C   UNL A   1      42.888  25.111  28.161  1.00  0.00     0.037 A 
ATOM     53  C   UNL A   1      45.049  30.862  30.340  1.00  0.00     0.049 A 
ATOM     54  C   UNL A   1      44.255  25.633  28.515  1.00  0.00     0.074 A 
ATOM     55  C   UNL A   1      46.347  31.217  30.666  1.00  0.00     0.029 A 
ATOM     56  N   UNL A   1      45.095  29.546  29.906  1.00  0.00    -0.354 N 
ATOM     57  N   UNL A   1      44.595  26.817  28.967  1.00  0.00    -0.248 NA
ATOM     58  C   UNL A   1      45.383  24.709  28.339  1.00  0.00     0.031 C 
ATOM     59  C   UNL A   1      47.184  30.133  30.384  1.00  0.00     0.029 A 
ATOM     60  C   UNL A   1      46.401  29.080  29.942  1.00  0.00     0.049 A 
ATOM     61  H   UNL A   1      44.316  29.020  29.614  1.00  0.00     0.167 HD
ATOM     62  C   UNL A   1      45.973  26.770  29.154  1.00  0.00     0.074 A 
ATOM     63  C   UNL A   1      46.398  25.435  28.787  1.00  0.00     0.031 C 
ATOM     64  C   UNL A   1      46.812  27.745  29.585  1.00  0.00     0.037 A 
BRANCH  51  65
ATOM     65  C   UNL A   1      43.992  33.087  30.901  1.00  0.00     0.058 A 
ATOM     66  C   UNL A   1      44.180  34.152  30.007  1.00  0.00     0.135 A 
ATOM     67  C   UNL A   1      43.881  33.397  32.267  1.00  0.00     0.135 A 
ATOM     68  F   UNL A   1      44.308  33.916  28.691  1.00  0.00    -0.206 F 
ATOM     69  C   UNL A   1      44.274  35.469  30.451  1.00  0.00     0.059 A 
ATOM     70  C   UNL A   1      43.939  34.709  32.730  1.00  0.00     0.059 A 
ATOM     71  F   UNL A   1      43.698  32.420  33.169  1.00  0.00    -0.206 F 
ATOM     72  C   UNL A   1      44.148  35.738  31.814  1.00  0.00     0.060 A 
BRANCH  72  73
ATOM     73  S   UNL A   1      44.243  37.453  32.373  1.00  0.00     0.124 S 
ATOM     74  O   UNL A   1      43.235  37.472  33.429  1.00  0.00    -0.237 OA
ATOM     75  O   UNL A   1      45.629  37.560  32.818  1.00  0.00    -0.237 OA
ATOM     76  O   UNL A   1      43.910  38.222  31.178  1.00  0.00    -0.744 OA
ENDBRANCH  72  73
ENDBRANCH  51  65
BRANCH  52  77
ATOM     77  C   UNL A   1      42.719  23.729  27.629  1.00  0.00     0.058 A 
ATOM     78  C   UNL A   1      42.570  22.628  28.486  1.00  0.00     0.135 A 
ATOM     79  C   UNL A   1      42.721  23.481  26.246  1.00  0.00     0.135 A 
ATOM     80  F   UNL A   1      42.572  22.808  29.816  1.00  0.00    -0.206 F 
ATOM     81  C   UNL A   1      42.456  21.331  27.994  1.00  0.00     0.059 A 
ATOM     82  C   UNL A   1      42.572  22.198  25.731  1.00  0.00     0.059 A 
ATOM     83  F   UNL A   1      42.848  24.498  25.380  1.00  0.00    -0.206 F 
ATOM     84  C   UNL A   1      42.458  21.126  26.614  1.00  0.00     0.060 A 
BRANCH  84  85
ATOM     85  S   UNL A   1      42.277  19.443  25.983  1.00  0.00     0.124 S 
ATOM     86  O   UNL A   1      42.747  18.654  27.116  1.00  0.00    -0.237 OA
ATOM     87  O   UNL A   1      40.847  19.371  25.704  1.00  0.00    -0.237 OA
ATOM     88  O   UNL A   1      43.139  19.433  24.805  1.00  0.00    -0.744 OA
ENDBRANCH  84  85
ENDBRANCH  52  77
BRANCH  64  89
ATOM     89  C   UNL A   1      48.264  27.382  29.742  1.00  0.00     0.058 A 
ATOM     90  C   UNL A   1      48.760  26.776  30.907  1.00  0.00     0.135 A 
ATOM     91  C   UNL A   1      49.174  27.644  28.705  1.00  0.00     0.135 A 
ATOM     92  F   UNL A   1      47.935  26.503  31.931  1.00  0.00    -0.206 F 
ATOM     93  C   UNL A   1      50.114  26.493  31.060  1.00  0.00     0.059 A 
ATOM     94  C   UNL A   1      50.526  27.339  28.822  1.00  0.00     0.059 A 
ATOM     95  F   UNL A   1      48.754  28.207  27.561  1.00  0.00    -0.206 F 
ATOM     96  C   UNL A   1      50.990  26.785  30.014  1.00  0.00     0.060 A 
BRANCH  96  97
ATOM     97  S   UNL A   1      52.748  26.432  30.230  1.00  0.00     0.124 S 
ATOM     98  O   UNL A   1      53.259  27.734  30.648  1.00  0.00    -0.237 OA
ATOM     99  O   UNL A   1      52.736  25.396  31.258  1.00  0.00    -0.237 OA
ATOM    100  O   UNL A   1      53.170  25.988  28.905  1.00  0.00    -0.744 OA
ENDBRANCH  96  97
ENDBRANCH  64  89
ENDBRANCH  38  39
ENDBRANCH  31  33
ENDBRANCH  30  31
ENDBRANCH   1  30
TORSDOF 17
ENDMDL
