MODEL 1
REMARK VINA RESULT:     -10.7      0.000      0.000
REMARK SMILES Cc1cc(/C=C/C(=O)OCCOC(=O)c2ccc(-c3c4nc(c(-c5c(F)cc(S(=O)(=O)[O-])cc5F)c5ccc([nH]5)c(-c5c(F)cc(S(=O)(=O)[O-])cc5F)c5nc(c(-c6c(F)cc(S(=O)(=O)[O-])cc6F)c6ccc3[nH]6)C=C5)C=C4)cc2)ccc1O
REMARK SMILES IDX 11 1 10 2 9 3 7 4 8 5 6 6 5 7 4 8 1 9 2 10 3 11 83 12 82 13
REMARK SMILES IDX 81 14 84 15 12 17 13 18 14 19 15 20 16 21 80 22 17 23 79 24
REMARK SMILES IDX 18 25 19 26 20 27 73 28 21 29 78 30 72 31 74 32 22 33 77 34
REMARK SMILES IDX 71 35 70 36 23 38 57 39 36 40 56 41 37 42 40 43 55 44 75 45
REMARK SMILES IDX 38 46 39 47 54 49 76 50 41 51 24 52 25 53 34 54 26 55 27 56
REMARK SMILES IDX 33 57 35 58 28 59 29 60 30 61 31 62 32 63 58 64 59 65 68 66
REMARK SMILES IDX 60 67 61 68 67 69 69 70 62 71 63 72 64 73 65 74 66 75 42 76
REMARK SMILES IDX 43 77 52 78 44 79 45 80 51 81 53 82 46 83 47 84 48 85 49 86
REMARK SMILES IDX 50 87
REMARK H PARENT 84 16 74 37 40 48
REMARK Flexibility Score: inf
ROOT
ATOM      1  C   UNL A   1      41.427  22.655  26.103  1.00  0.00     0.275 C 
ENDROOT
BRANCH   1   2
ATOM      2  C   UNL A   1      40.175  22.200  26.858  1.00  0.00     0.275 C 
BRANCH   2   3
ATOM      3  O   UNL A   1      39.296  21.436  26.012  1.00  0.00    -0.459 OA
BRANCH   3   4
ATOM      4  C   UNL A   1      38.119  22.031  25.703  1.00  0.00     0.330 C 
ATOM      5  O   UNL A   1      37.925  23.233  25.603  1.00  0.00    -0.247 OA
BRANCH   4   6
ATOM      6  C   UNL A   1      37.039  21.061  25.434  1.00  0.00     0.094 C 
ATOM      7  C   UNL A   1      35.756  21.361  25.181  1.00  0.00     0.015 C 
BRANCH   7   8
ATOM      8  C   UNL A   1      34.727  20.324  25.012  1.00  0.00    -0.025 A 
ATOM      9  C   UNL A   1      34.577  16.640  24.032  1.00  0.00     0.048 C 
ATOM     10  C   UNL A   1      34.137  18.018  24.433  1.00  0.00    -0.009 A 
ATOM     11  C   UNL A   1      35.098  19.027  24.626  1.00  0.00     0.015 A 
ATOM     12  C   UNL A   1      32.787  18.337  24.627  1.00  0.00     0.118 A 
ATOM     13  C   UNL A   1      32.403  19.624  24.988  1.00  0.00     0.047 A 
ATOM     14  C   UNL A   1      33.367  20.616  25.174  1.00  0.00     0.012 A 
BRANCH  12  15
ATOM     15  O   UNL A   1      31.777  17.432  24.473  1.00  0.00    -0.508 OA
ATOM     16  H   UNL A   1      30.961  17.699  24.096  1.00  0.00     0.293 HD
ENDBRANCH  12  15
ENDBRANCH   7   8
ENDBRANCH   4   6
ENDBRANCH   3   4
ENDBRANCH   2   3
ENDBRANCH   1   2
BRANCH   1  17
ATOM     17  O   UNL A   1      42.144  23.683  26.811  1.00  0.00    -0.458 OA
BRANCH  17  18
ATOM     18  C   UNL A   1      42.007  24.931  26.302  1.00  0.00     0.338 C 
ATOM     19  O   UNL A   1      42.055  25.252  25.125  1.00  0.00    -0.246 OA
BRANCH  18  20
ATOM     20  C   UNL A   1      41.668  25.879  27.377  1.00  0.00     0.060 A 
ATOM     21  C   UNL A   1      42.460  27.023  27.515  1.00  0.00     0.016 A 
ATOM     22  C   UNL A   1      40.634  25.621  28.282  1.00  0.00     0.016 A 
ATOM     23  C   UNL A   1      42.223  27.913  28.561  1.00  0.00     0.010 A 
ATOM     24  C   UNL A   1      40.401  26.515  29.334  1.00  0.00     0.010 A 
ATOM     25  C   UNL A   1      41.201  27.661  29.486  1.00  0.00    -0.014 A 
BRANCH  25  26
ATOM     26  C   UNL A   1      40.998  28.586  30.629  1.00  0.00     0.031 A 
ATOM     27  C   UNL A   1      41.869  28.478  31.849  1.00  0.00     0.074 A 
ATOM     28  C   UNL A   1      40.048  29.537  30.559  1.00  0.00     0.049 A 
ATOM     29  N   UNL A   1      41.836  29.179  32.953  1.00  0.00    -0.248 NA
ATOM     30  C   UNL A   1      42.918  27.446  31.823  1.00  0.00     0.031 C 
ATOM     31  C   UNL A   1      39.155  29.754  29.420  1.00  0.00     0.029 A 
ATOM     32  N   UNL A   1      39.674  30.498  31.465  1.00  0.00    -0.354 N 
ATOM     33  C   UNL A   1      42.850  28.673  33.756  1.00  0.00     0.074 A 
ATOM     34  C   UNL A   1      43.467  27.588  33.022  1.00  0.00     0.031 C 
ATOM     35  C   UNL A   1      38.339  30.785  29.694  1.00  0.00     0.029 A 
ATOM     36  C   UNL A   1      38.626  31.280  31.039  1.00  0.00     0.049 A 
ATOM     37  H   UNL A   1      40.116  30.617  32.337  1.00  0.00     0.167 HD
ATOM     38  C   UNL A   1      43.236  29.081  34.989  1.00  0.00     0.037 A 
ATOM     39  C   UNL A   1      37.962  32.269  31.668  1.00  0.00     0.037 A 
ATOM     40  C   UNL A   1      42.625  30.167  35.714  1.00  0.00     0.049 A 
ATOM     41  C   UNL A   1      38.379  32.671  33.057  1.00  0.00     0.074 A 
ATOM     42  C   UNL A   1      42.962  30.668  36.960  1.00  0.00     0.029 A 
ATOM     43  N   UNL A   1      41.549  30.916  35.261  1.00  0.00    -0.354 N 
ATOM     44  N   UNL A   1      39.353  32.196  33.795  1.00  0.00    -0.248 NA
ATOM     45  C   UNL A   1      37.604  33.741  33.701  1.00  0.00     0.031 C 
ATOM     46  C   UNL A   1      42.065  31.694  37.277  1.00  0.00     0.029 A 
ATOM     47  C   UNL A   1      41.194  31.859  36.211  1.00  0.00     0.049 A 
ATOM     48  H   UNL A   1      41.102  30.794  34.392  1.00  0.00     0.167 HD
ATOM     49  C   UNL A   1      39.321  32.920  34.982  1.00  0.00     0.074 A 
ATOM     50  C   UNL A   1      38.237  33.875  34.859  1.00  0.00     0.031 C 
ATOM     51  C   UNL A   1      40.115  32.804  36.074  1.00  0.00     0.037 A 
BRANCH  38  52
ATOM     52  C   UNL A   1      44.366  28.339  35.646  1.00  0.00     0.058 A 
ATOM     53  C   UNL A   1      45.708  28.688  35.419  1.00  0.00     0.135 A 
ATOM     54  C   UNL A   1      44.104  27.292  36.544  1.00  0.00     0.135 A 
ATOM     55  F   UNL A   1      46.014  29.672  34.559  1.00  0.00    -0.206 F 
ATOM     56  C   UNL A   1      46.750  28.009  36.041  1.00  0.00     0.059 A 
ATOM     57  C   UNL A   1      45.131  26.613  37.194  1.00  0.00     0.059 A 
ATOM     58  F   UNL A   1      42.840  26.919  36.796  1.00  0.00    -0.206 F 
ATOM     59  C   UNL A   1      46.452  26.970  36.926  1.00  0.00     0.060 A 
BRANCH  59  60
ATOM     60  S   UNL A   1      47.814  26.097  37.727  1.00  0.00     0.124 S 
ATOM     61  O   UNL A   1      48.092  26.972  38.863  1.00  0.00    -0.237 OA
ATOM     62  O   UNL A   1      47.211  24.808  38.054  1.00  0.00    -0.237 OA
ATOM     63  O   UNL A   1      48.846  26.059  36.697  1.00  0.00    -0.744 OA
ENDBRANCH  59  60
ENDBRANCH  38  52
BRANCH  39  64
ATOM     64  C   UNL A   1      36.821  32.939  30.993  1.00  0.00     0.058 A 
ATOM     65  C   UNL A   1      35.495  32.659  31.357  1.00  0.00     0.135 A 
ATOM     66  C   UNL A   1      37.034  33.878  29.972  1.00  0.00     0.135 A 
ATOM     67  F   UNL A   1      35.241  31.760  32.320  1.00  0.00    -0.206 F 
ATOM     68  C   UNL A   1      34.421  33.276  30.724  1.00  0.00     0.059 A 
ATOM     69  C   UNL A   1      35.977  34.526  29.341  1.00  0.00     0.059 A 
ATOM     70  F   UNL A   1      38.284  34.188  29.593  1.00  0.00    -0.206 F 
ATOM     71  C   UNL A   1      34.673  34.210  29.717  1.00  0.00     0.060 A 
BRANCH  71  72
ATOM     72  S   UNL A   1      33.275  35.040  28.931  1.00  0.00     0.124 S 
ATOM     73  O   UNL A   1      32.417  35.319  30.077  1.00  0.00    -0.237 OA
ATOM     74  O   UNL A   1      33.911  36.199  28.313  1.00  0.00    -0.237 OA
ATOM     75  O   UNL A   1      32.774  34.038  27.995  1.00  0.00    -0.744 OA
ENDBRANCH  71  72
ENDBRANCH  39  64
BRANCH  51  76
ATOM     76  C   UNL A   1      39.859  33.745  37.219  1.00  0.00     0.058 A 
ATOM     77  C   UNL A   1      40.453  35.016  37.270  1.00  0.00     0.135 A 
ATOM     78  C   UNL A   1      38.965  33.395  38.244  1.00  0.00     0.135 A 
ATOM     79  F   UNL A   1      41.319  35.396  36.318  1.00  0.00    -0.206 F 
ATOM     80  C   UNL A   1      40.183  35.901  38.309  1.00  0.00     0.059 A 
ATOM     81  C   UNL A   1      38.665  34.274  39.280  1.00  0.00     0.059 A 
ATOM     82  F   UNL A   1      38.365  32.194  38.236  1.00  0.00    -0.206 F 
ATOM     83  C   UNL A   1      39.286  35.522  39.309  1.00  0.00     0.060 A 
BRANCH  83  84
ATOM     84  S   UNL A   1      38.911  36.695  40.630  1.00  0.00     0.124 S 
ATOM     85  O   UNL A   1      40.245  37.010  41.129  1.00  0.00    -0.237 OA
ATOM     86  O   UNL A   1      38.232  37.770  39.914  1.00  0.00    -0.237 OA
ATOM     87  O   UNL A   1      38.066  35.925  41.537  1.00  0.00    -0.744 OA
ENDBRANCH  83  84
ENDBRANCH  51  76
ENDBRANCH  25  26
ENDBRANCH  18  20
ENDBRANCH  17  18
ENDBRANCH   1  17
TORSDOF 16
ENDMDL
MODEL 2
REMARK VINA RESULT:     -10.7      7.180     12.887
REMARK SMILES Cc1cc(/C=C/C(=O)OCCOC(=O)c2ccc(-c3c4nc(c(-c5c(F)cc(S(=O)(=O)[O-])cc5F)c5ccc([nH]5)c(-c5c(F)cc(S(=O)(=O)[O-])cc5F)c5nc(c(-c6c(F)cc(S(=O)(=O)[O-])cc6F)c6ccc3[nH]6)C=C5)C=C4)cc2)ccc1O
REMARK SMILES IDX 11 1 10 2 9 3 7 4 8 5 6 6 5 7 4 8 1 9 2 10 3 11 83 12 82 13
REMARK SMILES IDX 81 14 84 15 12 17 13 18 14 19 15 20 16 21 80 22 17 23 79 24
REMARK SMILES IDX 18 25 19 26 20 27 73 28 21 29 78 30 72 31 74 32 22 33 77 34
REMARK SMILES IDX 71 35 70 36 23 38 57 39 36 40 56 41 37 42 40 43 55 44 75 45
REMARK SMILES IDX 38 46 39 47 54 49 76 50 41 51 24 52 25 53 34 54 26 55 27 56
REMARK SMILES IDX 33 57 35 58 28 59 29 60 30 61 31 62 32 63 58 64 59 65 68 66
REMARK SMILES IDX 60 67 61 68 67 69 69 70 62 71 63 72 64 73 65 74 66 75 42 76
REMARK SMILES IDX 43 77 52 78 44 79 45 80 51 81 53 82 46 83 47 84 48 85 49 86
REMARK SMILES IDX 50 87
REMARK H PARENT 84 16 74 37 40 48
REMARK Flexibility Score: inf
ROOT
ATOM      1  C   UNL A   1      34.783  32.031  29.110  1.00  0.00     0.275 C 
ENDROOT
BRANCH   1   2
ATOM      2  C   UNL A   1      34.683  31.450  27.696  1.00  0.00     0.275 C 
BRANCH   2   3
ATOM      3  O   UNL A   1      33.586  30.526  27.580  1.00  0.00    -0.459 OA
BRANCH   3   4
ATOM      4  C   UNL A   1      33.757  29.524  26.684  1.00  0.00     0.330 C 
ATOM      5  O   UNL A   1      34.566  28.612  26.772  1.00  0.00    -0.247 OA
BRANCH   4   6
ATOM      6  C   UNL A   1      32.807  29.594  25.557  1.00  0.00     0.094 C 
ATOM      7  C   UNL A   1      31.549  30.057  25.615  1.00  0.00     0.015 C 
BRANCH   7   8
ATOM      8  C   UNL A   1      30.642  30.006  24.458  1.00  0.00    -0.025 A 
ATOM      9  C   UNL A   1      27.890  32.170  22.941  1.00  0.00     0.048 C 
ATOM     10  C   UNL A   1      28.837  31.024  23.151  1.00  0.00    -0.009 A 
ATOM     11  C   UNL A   1      29.734  31.052  24.235  1.00  0.00     0.015 A 
ATOM     12  C   UNL A   1      28.861  29.916  22.295  1.00  0.00     0.118 A 
ATOM     13  C   UNL A   1      29.741  28.861  22.517  1.00  0.00     0.047 A 
ATOM     14  C   UNL A   1      30.623  28.902  23.597  1.00  0.00     0.012 A 
BRANCH  12  15
ATOM     15  O   UNL A   1      28.039  29.792  21.212  1.00  0.00    -0.508 OA
ATOM     16  H   UNL A   1      27.634  30.551  20.842  1.00  0.00     0.293 HD
ENDBRANCH  12  15
ENDBRANCH   7   8
ENDBRANCH   4   6
ENDBRANCH   3   4
ENDBRANCH   2   3
ENDBRANCH   1   2
BRANCH   1  17
ATOM     17  O   UNL A   1      36.149  32.161  29.546  1.00  0.00    -0.458 OA
BRANCH  17  18
ATOM     18  C   UNL A   1      36.560  31.218  30.429  1.00  0.00     0.338 C 
ATOM     19  O   UNL A   1      35.947  30.806  31.400  1.00  0.00    -0.246 OA
BRANCH  18  20
ATOM     20  C   UNL A   1      37.845  30.647  29.990  1.00  0.00     0.060 A 
ATOM     21  C   UNL A   1      38.840  30.456  30.955  1.00  0.00     0.016 A 
ATOM     22  C   UNL A   1      38.102  30.365  28.646  1.00  0.00     0.016 A 
ATOM     23  C   UNL A   1      40.096  29.985  30.579  1.00  0.00     0.010 A 
ATOM     24  C   UNL A   1      39.366  29.896  28.269  1.00  0.00     0.010 A 
ATOM     25  C   UNL A   1      40.374  29.713  29.232  1.00  0.00    -0.014 A 
BRANCH  25  26
ATOM     26  C   UNL A   1      41.734  29.269  28.837  1.00  0.00     0.031 A 
ATOM     27  C   UNL A   1      42.874  30.249  28.827  1.00  0.00     0.074 A 
ATOM     28  C   UNL A   1      41.948  27.981  28.510  1.00  0.00     0.049 A 
ATOM     29  N   UNL A   1      44.125  30.059  28.496  1.00  0.00    -0.248 NA
ATOM     30  C   UNL A   1      42.565  31.626  29.248  1.00  0.00     0.031 C 
ATOM     31  C   UNL A   1      40.927  26.932  28.503  1.00  0.00     0.029 A 
ATOM     32  N   UNL A   1      43.094  27.334  28.121  1.00  0.00    -0.354 N 
ATOM     33  C   UNL A   1      44.753  31.287  28.660  1.00  0.00     0.074 A 
ATOM     34  C   UNL A   1      43.740  32.224  29.099  1.00  0.00     0.031 C 
ATOM     35  C   UNL A   1      41.494  25.773  28.130  1.00  0.00     0.029 A 
ATOM     36  C   UNL A   1      42.908  26.001  27.840  1.00  0.00     0.049 A 
ATOM     37  H   UNL A   1      43.968  27.782  28.051  1.00  0.00     0.167 HD
ATOM     38  C   UNL A   1      46.057  31.602  28.471  1.00  0.00     0.037 A 
ATOM     39  C   UNL A   1      43.772  25.075  27.383  1.00  0.00     0.037 A 
ATOM     40  C   UNL A   1      47.065  30.666  28.043  1.00  0.00     0.049 A 
ATOM     41  C   UNL A   1      45.205  25.462  27.134  1.00  0.00     0.074 A 
ATOM     42  C   UNL A   1      48.417  30.887  27.843  1.00  0.00     0.029 A 
ATOM     43  N   UNL A   1      46.831  29.332  27.742  1.00  0.00    -0.354 N 
ATOM     44  N   UNL A   1      45.789  26.623  27.313  1.00  0.00    -0.248 NA
ATOM     45  C   UNL A   1      46.098  24.416  26.616  1.00  0.00     0.031 C 
ATOM     46  C   UNL A   1      48.993  29.697  27.385  1.00  0.00     0.029 A 
ATOM     47  C   UNL A   1      48.008  28.724  27.337  1.00  0.00     0.049 A 
ATOM     48  H   UNL A   1      45.957  28.884  27.805  1.00  0.00     0.167 HD
ATOM     49  C   UNL A   1      47.118  26.442  26.949  1.00  0.00     0.074 A 
ATOM     50  C   UNL A   1      47.257  25.056  26.549  1.00  0.00     0.031 C 
ATOM     51  C   UNL A   1      48.132  27.343  26.944  1.00  0.00     0.037 A 
BRANCH  38  52
ATOM     52  C   UNL A   1      46.470  33.027  28.710  1.00  0.00     0.058 A 
ATOM     53  C   UNL A   1      46.438  33.986  27.685  1.00  0.00     0.135 A 
ATOM     54  C   UNL A   1      46.865  33.449  29.990  1.00  0.00     0.135 A 
ATOM     55  F   UNL A   1      46.081  33.633  26.440  1.00  0.00    -0.206 F 
ATOM     56  C   UNL A   1      46.805  35.308  27.914  1.00  0.00     0.059 A 
ATOM     57  C   UNL A   1      47.217  34.772  30.247  1.00  0.00     0.059 A 
ATOM     58  F   UNL A   1      46.913  32.573  31.005  1.00  0.00    -0.206 F 
ATOM     59  C   UNL A   1      47.196  35.691  29.200  1.00  0.00     0.060 A 
BRANCH  59  60
ATOM     60  S   UNL A   1      47.670  37.410  29.484  1.00  0.00     0.124 S 
ATOM     61  O   UNL A   1      46.885  37.736  30.671  1.00  0.00    -0.237 OA
ATOM     62  O   UNL A   1      49.112  37.308  29.687  1.00  0.00    -0.237 OA
ATOM     63  O   UNL A   1      47.260  38.084  28.257  1.00  0.00    -0.744 OA
ENDBRANCH  59  60
ENDBRANCH  38  52
BRANCH  39  64
ATOM     64  C   UNL A   1      43.303  23.691  27.118  1.00  0.00     0.058 A 
ATOM     65  C   UNL A   1      43.151  22.763  28.158  1.00  0.00     0.135 A 
ATOM     66  C   UNL A   1      42.991  23.270  25.815  1.00  0.00     0.135 A 
ATOM     67  F   UNL A   1      43.447  23.115  29.418  1.00  0.00    -0.206 F 
ATOM     68  C   UNL A   1      42.721  21.462  27.917  1.00  0.00     0.059 A 
ATOM     69  C   UNL A   1      42.536  21.982  25.551  1.00  0.00     0.059 A 
ATOM     70  F   UNL A   1      43.111  24.123  24.786  1.00  0.00    -0.206 F 
ATOM     71  C   UNL A   1      42.414  21.082  26.609  1.00  0.00     0.060 A 
BRANCH  71  72
ATOM     72  S   UNL A   1      41.812  19.405  26.308  1.00  0.00     0.124 S 
ATOM     73  O   UNL A   1      42.242  18.718  27.520  1.00  0.00    -0.237 OA
ATOM     74  O   UNL A   1      40.374  19.614  26.168  1.00  0.00    -0.237 OA
ATOM     75  O   UNL A   1      42.503  19.017  25.082  1.00  0.00    -0.744 OA
ENDBRANCH  71  72
ENDBRANCH  39  64
BRANCH  51  76
ATOM     76  C   UNL A   1      49.488  26.856  26.513  1.00  0.00     0.058 A 
ATOM     77  C   UNL A   1      50.372  26.250  27.420  1.00  0.00     0.135 A 
ATOM     78  C   UNL A   1      49.884  26.944  25.169  1.00  0.00     0.135 A 
ATOM     79  F   UNL A   1      50.043  26.148  28.717  1.00  0.00    -0.206 F 
ATOM     80  C   UNL A   1      51.609  25.763  27.011  1.00  0.00     0.059 A 
ATOM     81  C   UNL A   1      51.107  26.443  24.735  1.00  0.00     0.059 A 
ATOM     82  F   UNL A   1      49.071  27.507  24.260  1.00  0.00    -0.206 F 
ATOM     83  C   UNL A   1      51.968  25.863  25.666  1.00  0.00     0.060 A 
BRANCH  83  84
ATOM     84  S   UNL A   1      53.559  25.190  25.139  1.00  0.00     0.124 S 
ATOM     85  O   UNL A   1      53.651  25.691  23.772  1.00  0.00    -0.237 OA
ATOM     86  O   UNL A   1      54.486  25.785  26.097  1.00  0.00    -0.237 OA
ATOM     87  O   UNL A   1      53.375  23.748  25.269  1.00  0.00    -0.744 OA
ENDBRANCH  83  84
ENDBRANCH  51  76
ENDBRANCH  25  26
ENDBRANCH  18  20
ENDBRANCH  17  18
ENDBRANCH   1  17
TORSDOF 16
ENDMDL
MODEL 3
REMARK VINA RESULT:     -10.6      1.732      2.333
REMARK SMILES Cc1cc(/C=C/C(=O)OCCOC(=O)c2ccc(-c3c4nc(c(-c5c(F)cc(S(=O)(=O)[O-])cc5F)c5ccc([nH]5)c(-c5c(F)cc(S(=O)(=O)[O-])cc5F)c5nc(c(-c6c(F)cc(S(=O)(=O)[O-])cc6F)c6ccc3[nH]6)C=C5)C=C4)cc2)ccc1O
REMARK SMILES IDX 11 1 10 2 9 3 7 4 8 5 6 6 5 7 4 8 1 9 2 10 3 11 83 12 82 13
REMARK SMILES IDX 81 14 84 15 12 17 13 18 14 19 15 20 16 21 80 22 17 23 79 24
REMARK SMILES IDX 18 25 19 26 20 27 73 28 21 29 78 30 72 31 74 32 22 33 77 34
REMARK SMILES IDX 71 35 70 36 23 38 57 39 36 40 56 41 37 42 40 43 55 44 75 45
REMARK SMILES IDX 38 46 39 47 54 49 76 50 41 51 24 52 25 53 34 54 26 55 27 56
REMARK SMILES IDX 33 57 35 58 28 59 29 60 30 61 31 62 32 63 58 64 59 65 68 66
REMARK SMILES IDX 60 67 61 68 67 69 69 70 62 71 63 72 64 73 65 74 66 75 42 76
REMARK SMILES IDX 43 77 52 78 44 79 45 80 51 81 53 82 46 83 47 84 48 85 49 86
REMARK SMILES IDX 50 87
REMARK H PARENT 84 16 74 37 40 48
REMARK Flexibility Score: inf
ROOT
ATOM      1  C   UNL A   1      42.925  23.013  25.662  1.00  0.00     0.275 C 
ENDROOT
BRANCH   1   2
ATOM      2  C   UNL A   1      42.749  21.608  26.246  1.00  0.00     0.275 C 
BRANCH   2   3
ATOM      3  O   UNL A   1      41.531  20.994  25.786  1.00  0.00    -0.459 OA
BRANCH   3   4
ATOM      4  C   UNL A   1      40.443  21.195  26.568  1.00  0.00     0.330 C 
ATOM      5  O   UNL A   1      40.396  21.062  27.782  1.00  0.00    -0.247 OA
BRANCH   4   6
ATOM      6  C   UNL A   1      39.267  21.658  25.806  1.00  0.00     0.094 C 
ATOM      7  C   UNL A   1      38.549  22.763  26.061  1.00  0.00     0.015 C 
BRANCH   7   8
ATOM      8  C   UNL A   1      37.336  23.101  25.302  1.00  0.00    -0.025 A 
ATOM      9  C   UNL A   1      34.285  25.352  25.726  1.00  0.00     0.048 C 
ATOM     10  C   UNL A   1      35.235  24.351  25.136  1.00  0.00    -0.009 A 
ATOM     11  C   UNL A   1      36.417  24.023  25.826  1.00  0.00     0.015 A 
ATOM     12  C   UNL A   1      34.985  23.726  23.908  1.00  0.00     0.118 A 
ATOM     13  C   UNL A   1      35.876  22.794  23.387  1.00  0.00     0.047 A 
ATOM     14  C   UNL A   1      37.043  22.477  24.083  1.00  0.00     0.012 A 
BRANCH  12  15
ATOM     15  O   UNL A   1      33.874  23.977  23.156  1.00  0.00    -0.508 OA
ATOM     16  H   UNL A   1      33.021  23.851  23.523  1.00  0.00     0.293 HD
ENDBRANCH  12  15
ENDBRANCH   7   8
ENDBRANCH   4   6
ENDBRANCH   3   4
ENDBRANCH   2   3
ENDBRANCH   1   2
BRANCH   1  17
ATOM     17  O   UNL A   1      42.000  23.957  26.231  1.00  0.00    -0.458 OA
BRANCH  17  18
ATOM     18  C   UNL A   1      42.213  25.250  25.883  1.00  0.00     0.338 C 
ATOM     19  O   UNL A   1      42.568  25.665  24.792  1.00  0.00    -0.246 OA
BRANCH  18  20
ATOM     20  C   UNL A   1      41.841  26.138  26.998  1.00  0.00     0.060 A 
ATOM     21  C   UNL A   1      42.563  27.325  27.157  1.00  0.00     0.016 A 
ATOM     22  C   UNL A   1      40.847  25.786  27.915  1.00  0.00     0.016 A 
ATOM     23  C   UNL A   1      42.296  28.164  28.238  1.00  0.00     0.010 A 
ATOM     24  C   UNL A   1      40.584  26.629  29.002  1.00  0.00     0.010 A 
ATOM     25  C   UNL A   1      41.314  27.817  29.175  1.00  0.00    -0.014 A 
BRANCH  25  26
ATOM     26  C   UNL A   1      41.081  28.690  30.354  1.00  0.00     0.031 A 
ATOM     27  C   UNL A   1      41.946  28.552  31.576  1.00  0.00     0.074 A 
ATOM     28  C   UNL A   1      40.110  29.620  30.315  1.00  0.00     0.049 A 
ATOM     29  N   UNL A   1      41.888  29.207  32.707  1.00  0.00    -0.248 NA
ATOM     30  C   UNL A   1      43.019  27.546  31.516  1.00  0.00     0.031 C 
ATOM     31  C   UNL A   1      39.221  29.864  29.178  1.00  0.00     0.029 A 
ATOM     32  N   UNL A   1      39.707  30.535  31.256  1.00  0.00    -0.354 N 
ATOM     33  C   UNL A   1      42.908  28.691  33.497  1.00  0.00     0.074 A 
ATOM     34  C   UNL A   1      43.555  27.652  32.725  1.00  0.00     0.031 C 
ATOM     35  C   UNL A   1      38.378  30.864  29.488  1.00  0.00     0.029 A 
ATOM     36  C   UNL A   1      38.644  31.309  30.854  1.00  0.00     0.049 A 
ATOM     37  H   UNL A   1      40.139  30.628  32.135  1.00  0.00     0.167 HD
ATOM     38  C   UNL A   1      43.275  29.058  34.749  1.00  0.00     0.037 A 
ATOM     39  C   UNL A   1      37.952  32.256  31.516  1.00  0.00     0.037 A 
ATOM     40  C   UNL A   1      42.634  30.098  35.512  1.00  0.00     0.049 A 
ATOM     41  C   UNL A   1      38.349  32.611  32.924  1.00  0.00     0.074 A 
ATOM     42  C   UNL A   1      42.949  30.555  36.780  1.00  0.00     0.029 A 
ATOM     43  N   UNL A   1      41.544  30.840  35.081  1.00  0.00    -0.354 N 
ATOM     44  N   UNL A   1      39.329  32.128  33.651  1.00  0.00    -0.248 NA
ATOM     45  C   UNL A   1      37.545  33.635  33.605  1.00  0.00     0.031 C 
ATOM     46  C   UNL A   1      42.026  31.547  37.131  1.00  0.00     0.029 A 
ATOM     47  C   UNL A   1      41.160  31.735  36.066  1.00  0.00     0.049 A 
ATOM     48  H   UNL A   1      41.106  30.744  34.204  1.00  0.00     0.167 HD
ATOM     49  C   UNL A   1      39.271  32.802  34.865  1.00  0.00     0.074 A 
ATOM     50  C   UNL A   1      38.167  33.736  34.772  1.00  0.00     0.031 C 
ATOM     51  C   UNL A   1      40.060  32.660  35.959  1.00  0.00     0.037 A 
BRANCH  38  52
ATOM     52  C   UNL A   1      44.417  28.315  35.384  1.00  0.00     0.058 A 
ATOM     53  C   UNL A   1      45.745  28.755  35.255  1.00  0.00     0.135 A 
ATOM     54  C   UNL A   1      44.178  27.173  36.164  1.00  0.00     0.135 A 
ATOM     55  F   UNL A   1      46.030  29.835  34.510  1.00  0.00    -0.206 F 
ATOM     56  C   UNL A   1      46.798  28.075  35.859  1.00  0.00     0.059 A 
ATOM     57  C   UNL A   1      45.214  26.488  36.794  1.00  0.00     0.059 A 
ATOM     58  F   UNL A   1      42.928  26.711  36.319  1.00  0.00    -0.206 F 
ATOM     59  C   UNL A   1      46.522  26.940  36.625  1.00  0.00     0.060 A 
BRANCH  59  60
ATOM     60  S   UNL A   1      47.897  26.066  37.402  1.00  0.00     0.124 S 
ATOM     61  O   UNL A   1      47.953  26.714  38.709  1.00  0.00    -0.237 OA
ATOM     62  O   UNL A   1      47.431  24.682  37.401  1.00  0.00    -0.237 OA
ATOM     63  O   UNL A   1      49.022  26.344  36.516  1.00  0.00    -0.744 OA
ENDBRANCH  59  60
ENDBRANCH  38  52
BRANCH  39  64
ATOM     64  C   UNL A   1      36.801  32.927  30.860  1.00  0.00     0.058 A 
ATOM     65  C   UNL A   1      35.480  32.562  31.160  1.00  0.00     0.135 A 
ATOM     66  C   UNL A   1      36.999  33.952  29.922  1.00  0.00     0.135 A 
ATOM     67  F   UNL A   1      35.240  31.580  32.043  1.00  0.00    -0.206 F 
ATOM     68  C   UNL A   1      34.396  33.179  30.543  1.00  0.00     0.059 A 
ATOM     69  C   UNL A   1      35.932  34.600  29.310  1.00  0.00     0.059 A 
ATOM     70  F   UNL A   1      38.244  34.344  29.607  1.00  0.00    -0.206 F 
ATOM     71  C   UNL A   1      34.633  34.199  29.620  1.00  0.00     0.060 A 
BRANCH  71  72
ATOM     72  S   UNL A   1      33.221  35.027  28.857  1.00  0.00     0.124 S 
ATOM     73  O   UNL A   1      33.865  36.153  28.192  1.00  0.00    -0.237 OA
ATOM     74  O   UNL A   1      32.690  33.987  27.980  1.00  0.00    -0.237 OA
ATOM     75  O   UNL A   1      32.374  35.365  29.997  1.00  0.00    -0.744 OA
ENDBRANCH  71  72
ENDBRANCH  39  64
BRANCH  51  76
ATOM     76  C   UNL A   1      39.773  33.547  37.138  1.00  0.00     0.058 A 
ATOM     77  C   UNL A   1      38.874  33.162  38.145  1.00  0.00     0.135 A 
ATOM     78  C   UNL A   1      40.447  34.770  37.292  1.00  0.00     0.135 A 
ATOM     79  F   UNL A   1      38.199  32.007  38.042  1.00  0.00    -0.206 F 
ATOM     80  C   UNL A   1      38.640  33.967  39.256  1.00  0.00     0.059 A 
ATOM     81  C   UNL A   1      40.245  35.578  38.406  1.00  0.00     0.059 A 
ATOM     82  F   UNL A   1      41.324  35.180  36.361  1.00  0.00    -0.206 F 
ATOM     83  C   UNL A   1      39.332  35.173  39.378  1.00  0.00     0.060 A 
BRANCH  83  84
ATOM     84  S   UNL A   1      39.052  36.189  40.845  1.00  0.00     0.124 S 
ATOM     85  O   UNL A   1      38.160  35.338  41.625  1.00  0.00    -0.237 OA
ATOM     86  O   UNL A   1      40.401  36.352  41.378  1.00  0.00    -0.237 OA
ATOM     87  O   UNL A   1      38.449  37.404  40.305  1.00  0.00    -0.744 OA
ENDBRANCH  83  84
ENDBRANCH  51  76
ENDBRANCH  25  26
ENDBRANCH  18  20
ENDBRANCH  17  18
ENDBRANCH   1  17
TORSDOF 16
ENDMDL
