MODEL 1
REMARK VINA RESULT:     -10.5      0.000      0.000
REMARK SMILES O=C(C[N@@H+](CC(F)(F)F)[C@H]1CCCC[C@H]1O)OCCOC(=O)c1ccc(-c2c3nc(c(-c4c(F)cc(S(=O)(=O)[O-])cc4F)c4ccc([nH]4)c(-c4c(F)cc(S(=O)(=O)[O-])cc4F)c4nc(c(-c5c(F)cc(S(=O)(=O)[O-])cc5F)c5ccc2[nH]5)C=C4)C=C3)cc1
REMARK SMILES IDX 18 1 17 2 2 3 1 4 3 5 4 6 5 8 6 9 7 10 8 11 9 12 10 13 11 14
REMARK SMILES IDX 15 15 12 16 14 17 13 18 16 19 19 21 20 22 21 23 22 24 23 25
REMARK SMILES IDX 24 26 88 27 25 28 87 29 26 30 27 31 28 32 81 33 29 34 86 35
REMARK SMILES IDX 80 36 82 37 30 38 85 39 79 40 78 41 31 43 65 44 44 45 64 46
REMARK SMILES IDX 45 47 48 48 63 49 83 50 46 51 47 52 62 54 84 55 49 56 32 57
REMARK SMILES IDX 33 58 42 59 34 60 35 61 41 62 43 63 36 64 37 65 38 66 39 67
REMARK SMILES IDX 40 68 66 69 67 70 76 71 68 72 69 73 75 74 77 75 70 76 71 77
REMARK SMILES IDX 72 78 73 79 74 80 50 81 51 82 60 83 52 84 53 85 59 86 61 87
REMARK SMILES IDX 54 88 55 89 56 90 57 91 58 92
REMARK H PARENT 4 7 16 20 82 42 48 53
REMARK Flexibility Score: inf
ROOT
ATOM      1  C   UNL A   1      33.362  31.245  27.400  1.00  0.00     0.274 C 
ENDROOT
BRANCH   1   2
ATOM      2  O   UNL A   1      33.691  29.935  26.892  1.00  0.00    -0.458 OA
BRANCH   2   3
ATOM      3  C   UNL A   1      33.177  29.384  25.765  1.00  0.00     0.361 C 
ATOM      4  O   UNL A   1      33.933  28.893  24.926  1.00  0.00    -0.245 OA
BRANCH   3   5
ATOM      5  C   UNL A   1      31.661  29.385  25.564  1.00  0.00     0.387 C 
BRANCH   5   6
ATOM      6  N   UNL A   1      31.238  28.747  24.296  1.00  0.00    -0.314 N 
ATOM      7  H   UNL A   1      31.992  28.834  23.614  1.00  0.00     0.349 HD
BRANCH   6   8
ATOM      8  C   UNL A   1      31.021  27.275  24.484  1.00  0.00     0.380 C 
BRANCH   8   9
ATOM      9  C   UNL A   1      31.643  26.205  23.548  1.00  0.00     0.438 C 
ATOM     10  F   UNL A   1      31.720  24.987  24.110  1.00  0.00    -0.165 F 
ATOM     11  F   UNL A   1      30.955  26.105  22.392  1.00  0.00    -0.165 F 
ATOM     12  F   UNL A   1      32.912  26.570  23.222  1.00  0.00    -0.165 F 
ENDBRANCH   8   9
ENDBRANCH   6   8
BRANCH   6  13
ATOM     13  C   UNL A   1      30.073  29.460  23.696  1.00  0.00     0.213 C 
ATOM     14  C   UNL A   1      30.015  30.921  24.189  1.00  0.00     0.068 C 
ATOM     15  C   UNL A   1      29.914  29.408  22.148  1.00  0.00     0.172 C 
ATOM     16  C   UNL A   1      28.703  31.584  23.766  1.00  0.00     0.006 C 
ATOM     17  C   UNL A   1      28.610  30.088  21.715  1.00  0.00     0.038 C 
ATOM     18  C   UNL A   1      28.473  31.511  22.259  1.00  0.00     0.003 C 
BRANCH  15  19
ATOM     19  O   UNL A   1      31.036  30.013  21.501  1.00  0.00    -0.387 OA
ATOM     20  H   UNL A   1      31.839  29.514  21.715  1.00  0.00     0.211 HD
ENDBRANCH  15  19
ENDBRANCH   6  13
ENDBRANCH   5   6
ENDBRANCH   3   5
ENDBRANCH   2   3
ENDBRANCH   1   2
BRANCH   1  21
ATOM     21  C   UNL A   1      34.463  31.781  28.321  1.00  0.00     0.275 C 
BRANCH  21  22
ATOM     22  O   UNL A   1      35.498  30.797  28.510  1.00  0.00    -0.458 OA
BRANCH  22  23
ATOM     23  C   UNL A   1      36.352  31.002  29.546  1.00  0.00     0.338 C 
ATOM     24  O   UNL A   1      36.057  31.449  30.641  1.00  0.00    -0.246 OA
BRANCH  23  25
ATOM     25  C   UNL A   1      37.674  30.405  29.222  1.00  0.00     0.060 A 
ATOM     26  C   UNL A   1      38.609  30.267  30.257  1.00  0.00     0.016 A 
ATOM     27  C   UNL A   1      37.979  29.926  27.943  1.00  0.00     0.016 A 
ATOM     28  C   UNL A   1      39.849  29.664  30.014  1.00  0.00     0.010 A 
ATOM     29  C   UNL A   1      39.220  29.324  27.702  1.00  0.00     0.010 A 
ATOM     30  C   UNL A   1      40.171  29.204  28.730  1.00  0.00    -0.014 A 
BRANCH  30  31
ATOM     31  C   UNL A   1      41.549  28.748  28.413  1.00  0.00     0.031 A 
ATOM     32  C   UNL A   1      42.649  29.773  28.359  1.00  0.00     0.074 A 
ATOM     33  C   UNL A   1      41.833  27.456  28.159  1.00  0.00     0.049 A 
ATOM     34  N   UNL A   1      43.918  29.618  28.084  1.00  0.00    -0.248 NA
ATOM     35  C   UNL A   1      42.262  31.163  28.655  1.00  0.00     0.031 C 
ATOM     36  C   UNL A   1      40.877  26.352  28.192  1.00  0.00     0.029 A 
ATOM     37  N   UNL A   1      43.019  26.858  27.801  1.00  0.00    -0.354 N 
ATOM     38  C   UNL A   1      44.484  30.881  28.191  1.00  0.00     0.074 A 
ATOM     39  C   UNL A   1      43.413  31.801  28.505  1.00  0.00     0.031 C 
ATOM     40  C   UNL A   1      41.503  25.218  27.831  1.00  0.00     0.029 A 
ATOM     41  C   UNL A   1      42.905  25.513  27.542  1.00  0.00     0.049 A 
ATOM     42  H   UNL A   1      43.870  27.348  27.737  1.00  0.00     0.167 HD
ATOM     43  C   UNL A   1      45.782  31.244  28.063  1.00  0.00     0.037 A 
ATOM     44  C   UNL A   1      43.823  24.623  27.112  1.00  0.00     0.037 A 
ATOM     45  C   UNL A   1      46.853  30.341  27.737  1.00  0.00     0.049 A 
ATOM     46  C   UNL A   1      45.248  25.063  26.895  1.00  0.00     0.074 A 
ATOM     47  C   UNL A   1      48.202  30.616  27.614  1.00  0.00     0.029 A 
ATOM     48  N   UNL A   1      46.694  28.990  27.470  1.00  0.00    -0.354 N 
ATOM     49  N   UNL A   1      45.781  26.250  27.065  1.00  0.00    -0.248 NA
ATOM     50  C   UNL A   1      46.203  24.038  26.444  1.00  0.00     0.031 C 
ATOM     51  C   UNL A   1      48.856  29.439  27.233  1.00  0.00     0.029 A 
ATOM     52  C   UNL A   1      47.918  28.422  27.160  1.00  0.00     0.049 A 
ATOM     53  H   UNL A   1      45.838  28.506  27.498  1.00  0.00     0.167 HD
ATOM     54  C   UNL A   1      47.135  26.103  26.781  1.00  0.00     0.074 A 
ATOM     55  C   UNL A   1      47.342  24.716  26.424  1.00  0.00     0.031 C 
ATOM     56  C   UNL A   1      48.120  27.035  26.823  1.00  0.00     0.037 A 
BRANCH  43  57
ATOM     57  C   UNL A   1      46.108  32.693  28.276  1.00  0.00     0.058 A 
ATOM     58  C   UNL A   1      46.091  33.607  27.210  1.00  0.00     0.135 A 
ATOM     59  C   UNL A   1      46.436  33.174  29.552  1.00  0.00     0.135 A 
ATOM     60  F   UNL A   1      45.801  33.192  25.967  1.00  0.00    -0.206 F 
ATOM     61  C   UNL A   1      46.418  34.945  27.398  1.00  0.00     0.059 A 
ATOM     62  C   UNL A   1      46.746  34.513  29.766  1.00  0.00     0.059 A 
ATOM     63  F   UNL A   1      46.470  32.338  30.602  1.00  0.00    -0.206 F 
ATOM     64  C   UNL A   1      46.751  35.387  28.679  1.00  0.00     0.060 A 
BRANCH  64  65
ATOM     65  S   UNL A   1      47.190  37.123  28.907  1.00  0.00     0.124 S 
ATOM     66  O   UNL A   1      46.959  37.658  27.568  1.00  0.00    -0.237 OA
ATOM     67  O   UNL A   1      46.245  37.554  29.932  1.00  0.00    -0.237 OA
ATOM     68  O   UNL A   1      48.585  37.067  29.329  1.00  0.00    -0.744 OA
ENDBRANCH  64  65
ENDBRANCH  43  57
BRANCH  44  69
ATOM     69  C   UNL A   1      43.433  23.210  26.864  1.00  0.00     0.058 A 
ATOM     70  C   UNL A   1      43.166  22.336  27.928  1.00  0.00     0.135 A 
ATOM     71  C   UNL A   1      43.345  22.699  25.560  1.00  0.00     0.135 A 
ATOM     72  F   UNL A   1      43.251  22.774  29.193  1.00  0.00    -0.206 F 
ATOM     73  C   UNL A   1      42.842  21.000  27.710  1.00  0.00     0.059 A 
ATOM     74  C   UNL A   1      43.003  21.372  25.315  1.00  0.00     0.059 A 
ATOM     75  F   UNL A   1      43.589  23.496  24.508  1.00  0.00    -0.206 F 
ATOM     76  C   UNL A   1      42.764  20.527  26.399  1.00  0.00     0.060 A 
BRANCH  76  77
ATOM     77  S   UNL A   1      42.305  18.802  26.125  1.00  0.00     0.124 S 
ATOM     78  O   UNL A   1      43.253  18.405  25.091  1.00  0.00    -0.237 OA
ATOM     79  O   UNL A   1      42.515  18.215  27.444  1.00  0.00    -0.237 OA
ATOM     80  O   UNL A   1      40.909  18.890  25.704  1.00  0.00    -0.744 OA
ENDBRANCH  76  77
ENDBRANCH  44  69
BRANCH  56  81
ATOM     81  C   UNL A   1      49.524  26.587  26.521  1.00  0.00     0.058 A 
ATOM     82  C   UNL A   1      50.333  25.984  27.495  1.00  0.00     0.135 A 
ATOM     83  C   UNL A   1      50.039  26.702  25.219  1.00  0.00     0.135 A 
ATOM     84  F   UNL A   1      49.891  25.855  28.755  1.00  0.00    -0.206 F 
ATOM     85  C   UNL A   1      51.611  25.522  27.193  1.00  0.00     0.059 A 
ATOM     86  C   UNL A   1      51.304  26.227  24.890  1.00  0.00     0.059 A 
ATOM     87  F   UNL A   1      49.301  27.263  24.247  1.00  0.00    -0.206 F 
ATOM     88  C   UNL A   1      52.087  25.646  25.886  1.00  0.00     0.060 A 
BRANCH  88  89
ATOM     89  S   UNL A   1      53.727  24.998  25.492  1.00  0.00     0.124 S 
ATOM     90  O   UNL A   1      54.057  25.749  24.285  1.00  0.00    -0.237 OA
ATOM     91  O   UNL A   1      54.497  25.343  26.683  1.00  0.00    -0.237 OA
ATOM     92  O   UNL A   1      53.490  23.570  25.299  1.00  0.00    -0.744 OA
ENDBRANCH  88  89
ENDBRANCH  56  81
ENDBRANCH  30  31
ENDBRANCH  23  25
ENDBRANCH  22  23
ENDBRANCH  21  22
ENDBRANCH   1  21
TORSDOF 19
ENDMDL
MODEL 2
REMARK VINA RESULT:     -10.4      7.294     12.852
REMARK SMILES O=C(C[N@@H+](CC(F)(F)F)[C@H]1CCCC[C@H]1O)OCCOC(=O)c1ccc(-c2c3nc(c(-c4c(F)cc(S(=O)(=O)[O-])cc4F)c4ccc([nH]4)c(-c4c(F)cc(S(=O)(=O)[O-])cc4F)c4nc(c(-c5c(F)cc(S(=O)(=O)[O-])cc5F)c5ccc2[nH]5)C=C4)C=C3)cc1
REMARK SMILES IDX 18 1 17 2 2 3 1 4 3 5 4 6 5 8 6 9 7 10 8 11 9 12 10 13 11 14
REMARK SMILES IDX 15 15 12 16 14 17 13 18 16 19 19 21 20 22 21 23 22 24 23 25
REMARK SMILES IDX 24 26 88 27 25 28 87 29 26 30 27 31 28 32 81 33 29 34 86 35
REMARK SMILES IDX 80 36 82 37 30 38 85 39 79 40 78 41 31 43 65 44 44 45 64 46
REMARK SMILES IDX 45 47 48 48 63 49 83 50 46 51 47 52 62 54 84 55 49 56 32 57
REMARK SMILES IDX 33 58 42 59 34 60 35 61 41 62 43 63 36 64 37 65 38 66 39 67
REMARK SMILES IDX 40 68 66 69 67 70 76 71 68 72 69 73 75 74 77 75 70 76 71 77
REMARK SMILES IDX 72 78 73 79 74 80 50 81 51 82 60 83 52 84 53 85 59 86 61 87
REMARK SMILES IDX 54 88 55 89 56 90 57 91 58 92
REMARK H PARENT 4 7 16 20 82 42 48 53
REMARK Flexibility Score: inf
ROOT
ATOM      1  C   UNL A   1      38.219  22.431  26.023  1.00  0.00     0.274 C 
ENDROOT
BRANCH   1   2
ATOM      2  O   UNL A   1      37.819  21.501  24.995  1.00  0.00    -0.458 OA
BRANCH   2   3
ATOM      3  C   UNL A   1      36.740  20.683  25.060  1.00  0.00     0.361 C 
ATOM      4  O   UNL A   1      36.897  19.462  25.029  1.00  0.00    -0.245 OA
BRANCH   3   5
ATOM      5  C   UNL A   1      35.346  21.303  25.174  1.00  0.00     0.387 C 
BRANCH   5   6
ATOM      6  N   UNL A   1      34.418  20.507  26.009  1.00  0.00    -0.314 N 
ATOM      7  H   UNL A   1      34.948  19.785  26.497  1.00  0.00     0.349 HD
BRANCH   6   8
ATOM      8  C   UNL A   1      33.800  21.358  27.079  1.00  0.00     0.380 C 
BRANCH   8   9
ATOM      9  C   UNL A   1      33.316  22.810  26.827  1.00  0.00     0.438 C 
ATOM     10  F   UNL A   1      32.423  23.238  27.736  1.00  0.00    -0.165 F 
ATOM     11  F   UNL A   1      34.352  23.675  26.798  1.00  0.00    -0.165 F 
ATOM     12  F   UNL A   1      32.707  22.881  25.613  1.00  0.00    -0.165 F 
ENDBRANCH   8   9
ENDBRANCH   6   8
BRANCH   6  13
ATOM     13  C   UNL A   1      33.427  19.776  25.169  1.00  0.00     0.213 C 
ATOM     14  C   UNL A   1      33.372  20.372  23.746  1.00  0.00     0.068 C 
ATOM     15  C   UNL A   1      33.547  18.224  25.096  1.00  0.00     0.172 C 
ATOM     16  C   UNL A   1      32.202  19.785  22.957  1.00  0.00     0.006 C 
ATOM     17  C   UNL A   1      32.387  17.629  24.289  1.00  0.00     0.038 C 
ATOM     18  C   UNL A   1      32.243  18.260  22.903  1.00  0.00     0.003 C 
BRANCH  15  19
ATOM     19  O   UNL A   1      34.803  17.837  24.533  1.00  0.00    -0.387 OA
ATOM     20  H   UNL A   1      34.683  17.618  23.597  1.00  0.00     0.211 HD
ENDBRANCH  15  19
ENDBRANCH   6  13
ENDBRANCH   5   6
ENDBRANCH   3   5
ENDBRANCH   2   3
ENDBRANCH   1   2
BRANCH   1  21
ATOM     21  C   UNL A   1      39.741  22.443  26.205  1.00  0.00     0.275 C 
BRANCH  21  22
ATOM     22  O   UNL A   1      40.117  23.267  27.325  1.00  0.00    -0.458 OA
BRANCH  22  23
ATOM     23  C   UNL A   1      41.053  24.222  27.091  1.00  0.00     0.338 C 
ATOM     24  O   UNL A   1      41.837  24.246  26.157  1.00  0.00    -0.246 OA
BRANCH  23  25
ATOM     25  C   UNL A   1      40.848  25.356  28.030  1.00  0.00     0.060 A 
ATOM     26  C   UNL A   1      41.911  26.245  28.237  1.00  0.00     0.016 A 
ATOM     27  C   UNL A   1      39.617  25.589  28.654  1.00  0.00     0.016 A 
ATOM     28  C   UNL A   1      41.751  27.358  29.071  1.00  0.00     0.010 A 
ATOM     29  C   UNL A   1      39.459  26.702  29.489  1.00  0.00     0.010 A 
ATOM     30  C   UNL A   1      40.529  27.585  29.719  1.00  0.00    -0.014 A 
BRANCH  30  31
ATOM     31  C   UNL A   1      40.406  28.641  30.757  1.00  0.00     0.031 A 
ATOM     32  C   UNL A   1      41.254  28.529  31.995  1.00  0.00     0.074 A 
ATOM     33  C   UNL A   1      39.553  29.674  30.628  1.00  0.00     0.049 A 
ATOM     34  N   UNL A   1      41.306  29.313  33.041  1.00  0.00    -0.248 NA
ATOM     35  C   UNL A   1      42.168  27.377  32.061  1.00  0.00     0.031 C 
ATOM     36  C   UNL A   1      38.683  29.921  29.480  1.00  0.00     0.029 A 
ATOM     37  N   UNL A   1      39.265  30.705  31.491  1.00  0.00    -0.354 N 
ATOM     38  C   UNL A   1      42.265  28.761  33.879  1.00  0.00     0.074 A 
ATOM     39  C   UNL A   1      42.735  27.548  33.245  1.00  0.00     0.031 C 
ATOM     40  C   UNL A   1      37.932  31.009  29.725  1.00  0.00     0.029 A 
ATOM     41  C   UNL A   1      38.266  31.538  31.046  1.00  0.00     0.049 A 
ATOM     42  H   UNL A   1      39.731  30.835  32.349  1.00  0.00     0.167 HD
ATOM     43  C   UNL A   1      42.734  29.230  35.059  1.00  0.00     0.037 A 
ATOM     44  C   UNL A   1      37.682  32.600  31.639  1.00  0.00     0.037 A 
ATOM     45  C   UNL A   1      42.265  30.426  35.705  1.00  0.00     0.049 A 
ATOM     46  C   UNL A   1      38.161  33.060  32.992  1.00  0.00     0.074 A 
ATOM     47  C   UNL A   1      42.702  30.992  36.889  1.00  0.00     0.029 A 
ATOM     48  N   UNL A   1      41.245  31.234  35.228  1.00  0.00    -0.354 N 
ATOM     49  N   UNL A   1      39.117  32.564  33.741  1.00  0.00    -0.248 NA
ATOM     50  C   UNL A   1      37.493  34.235  33.573  1.00  0.00     0.031 C 
ATOM     51  C   UNL A   1      41.918  32.122  37.149  1.00  0.00     0.029 A 
ATOM     52  C   UNL A   1      41.022  32.282  36.105  1.00  0.00     0.049 A 
ATOM     53  H   UNL A   1      40.752  31.086  34.389  1.00  0.00     0.167 HD
ATOM     54  C   UNL A   1      39.190  33.389  34.860  1.00  0.00     0.074 A 
ATOM     55  C   UNL A   1      38.181  34.413  34.692  1.00  0.00     0.031 C 
ATOM     56  C   UNL A   1      40.027  33.309  35.924  1.00  0.00     0.037 A 
BRANCH  43  57
ATOM     57  C   UNL A   1      43.815  28.432  35.728  1.00  0.00     0.058 A 
ATOM     58  C   UNL A   1      43.506  27.368  36.591  1.00  0.00     0.135 A 
ATOM     59  C   UNL A   1      45.168  28.729  35.504  1.00  0.00     0.135 A 
ATOM     60  F   UNL A   1      42.227  27.058  36.852  1.00  0.00    -0.206 F 
ATOM     61  C   UNL A   1      44.504  26.644  37.233  1.00  0.00     0.059 A 
ATOM     62  C   UNL A   1      46.182  28.003  36.119  1.00  0.00     0.059 A 
ATOM     63  F   UNL A   1      45.512  29.739  34.690  1.00  0.00    -0.206 F 
ATOM     64  C   UNL A   1      45.839  26.973  36.996  1.00  0.00     0.060 A 
BRANCH  64  65
ATOM     65  S   UNL A   1      47.124  26.036  37.849  1.00  0.00     0.124 S 
ATOM     66  O   UNL A   1      46.503  25.811  39.150  1.00  0.00    -0.237 OA
ATOM     67  O   UNL A   1      47.266  24.856  37.003  1.00  0.00    -0.237 OA
ATOM     68  O   UNL A   1      48.265  26.946  37.846  1.00  0.00    -0.744 OA
ENDBRANCH  64  65
ENDBRANCH  43  57
BRANCH  44  69
ATOM     69  C   UNL A   1      36.577  33.322  30.954  1.00  0.00     0.058 A 
ATOM     70  C   UNL A   1      35.247  33.174  31.374  1.00  0.00     0.135 A 
ATOM     71  C   UNL A   1      36.826  34.153  29.851  1.00  0.00     0.135 A 
ATOM     72  F   UNL A   1      34.957  32.379  32.415  1.00  0.00    -0.206 F 
ATOM     73  C   UNL A   1      34.199  33.810  30.715  1.00  0.00     0.059 A 
ATOM     74  C   UNL A   1      35.798  34.815  29.187  1.00  0.00     0.059 A 
ATOM     75  F   UNL A   1      38.082  34.328  29.412  1.00  0.00    -0.206 F 
ATOM     76  C   UNL A   1      34.485  34.629  29.621  1.00  0.00     0.060 A 
BRANCH  76  77
ATOM     77  S   UNL A   1      33.123  35.481  28.796  1.00  0.00     0.124 S 
ATOM     78  O   UNL A   1      33.835  36.474  28.001  1.00  0.00    -0.237 OA
ATOM     79  O   UNL A   1      32.490  34.399  28.050  1.00  0.00    -0.237 OA
ATOM     80  O   UNL A   1      32.335  36.007  29.908  1.00  0.00    -0.744 OA
ENDBRANCH  76  77
ENDBRANCH  44  69
BRANCH  56  81
ATOM     81  C   UNL A   1      39.928  34.379  36.977  1.00  0.00     0.058 A 
ATOM     82  C   UNL A   1      40.671  35.566  36.896  1.00  0.00     0.135 A 
ATOM     83  C   UNL A   1      39.025  34.241  38.044  1.00  0.00     0.135 A 
ATOM     84  F   UNL A   1      41.551  35.746  35.900  1.00  0.00    -0.206 F 
ATOM     85  C   UNL A   1      40.532  36.575  37.845  1.00  0.00     0.059 A 
ATOM     86  C   UNL A   1      38.854  35.246  38.991  1.00  0.00     0.059 A 
ATOM     87  F   UNL A   1      38.283  33.128  38.162  1.00  0.00    -0.206 F 
ATOM     88  C   UNL A   1      39.619  36.407  38.888  1.00  0.00     0.060 A 
BRANCH  88  89
ATOM     89  S   UNL A   1      39.410  37.742  40.086  1.00  0.00     0.124 S 
ATOM     90  O   UNL A   1      39.269  36.998  41.334  1.00  0.00    -0.237 OA
ATOM     91  O   UNL A   1      40.650  38.498  39.936  1.00  0.00    -0.237 OA
ATOM     92  O   UNL A   1      38.207  38.428  39.624  1.00  0.00    -0.744 OA
ENDBRANCH  88  89
ENDBRANCH  56  81
ENDBRANCH  30  31
ENDBRANCH  23  25
ENDBRANCH  22  23
ENDBRANCH  21  22
ENDBRANCH   1  21
TORSDOF 19
ENDMDL
MODEL 3
REMARK VINA RESULT:     -10.4      7.234     12.633
REMARK SMILES O=C(C[N@@H+](CC(F)(F)F)[C@H]1CCCC[C@H]1O)OCCOC(=O)c1ccc(-c2c3nc(c(-c4c(F)cc(S(=O)(=O)[O-])cc4F)c4ccc([nH]4)c(-c4c(F)cc(S(=O)(=O)[O-])cc4F)c4nc(c(-c5c(F)cc(S(=O)(=O)[O-])cc5F)c5ccc2[nH]5)C=C4)C=C3)cc1
REMARK SMILES IDX 18 1 17 2 2 3 1 4 3 5 4 6 5 8 6 9 7 10 8 11 9 12 10 13 11 14
REMARK SMILES IDX 15 15 12 16 14 17 13 18 16 19 19 21 20 22 21 23 22 24 23 25
REMARK SMILES IDX 24 26 88 27 25 28 87 29 26 30 27 31 28 32 81 33 29 34 86 35
REMARK SMILES IDX 80 36 82 37 30 38 85 39 79 40 78 41 31 43 65 44 44 45 64 46
REMARK SMILES IDX 45 47 48 48 63 49 83 50 46 51 47 52 62 54 84 55 49 56 32 57
REMARK SMILES IDX 33 58 42 59 34 60 35 61 41 62 43 63 36 64 37 65 38 66 39 67
REMARK SMILES IDX 40 68 66 69 67 70 76 71 68 72 69 73 75 74 77 75 70 76 71 77
REMARK SMILES IDX 72 78 73 79 74 80 50 81 51 82 60 83 52 84 53 85 59 86 61 87
REMARK SMILES IDX 54 88 55 89 56 90 57 91 58 92
REMARK H PARENT 4 7 16 20 82 42 48 53
REMARK Flexibility Score: inf
ROOT
ATOM      1  C   UNL A   1      38.476  22.002  25.776  1.00  0.00     0.274 C 
ENDROOT
BRANCH   1   2
ATOM      2  O   UNL A   1      37.192  21.946  25.119  1.00  0.00    -0.458 OA
BRANCH   2   3
ATOM      3  C   UNL A   1      36.325  20.906  25.189  1.00  0.00     0.361 C 
ATOM      4  O   UNL A   1      36.718  19.766  24.937  1.00  0.00    -0.245 OA
BRANCH   3   5
ATOM      5  C   UNL A   1      34.873  21.177  25.584  1.00  0.00     0.387 C 
BRANCH   5   6
ATOM      6  N   UNL A   1      33.926  21.056  24.452  1.00  0.00    -0.314 N 
ATOM      7  H   UNL A   1      34.431  20.720  23.632  1.00  0.00     0.349 HD
BRANCH   6   8
ATOM      8  C   UNL A   1      32.878  20.022  24.740  1.00  0.00     0.380 C 
BRANCH   8   9
ATOM      9  C   UNL A   1      32.941  18.578  24.176  1.00  0.00     0.438 C 
ATOM     10  F   UNL A   1      32.097  17.730  24.788  1.00  0.00    -0.165 F 
ATOM     11  F   UNL A   1      32.690  18.557  22.850  1.00  0.00    -0.165 F 
ATOM     12  F   UNL A   1      34.194  18.077  24.348  1.00  0.00    -0.165 F 
ENDBRANCH   8   9
ENDBRANCH   6   8
BRANCH   6  13
ATOM     13  C   UNL A   1      33.374  22.386  24.065  1.00  0.00     0.213 C 
ATOM     14  C   UNL A   1      34.408  23.187  23.245  1.00  0.00     0.068 C 
ATOM     15  C   UNL A   1      31.988  22.415  23.355  1.00  0.00     0.172 C 
ATOM     16  C   UNL A   1      33.942  24.630  23.047  1.00  0.00     0.006 C 
ATOM     17  C   UNL A   1      31.523  23.859  23.135  1.00  0.00     0.038 C 
ATOM     18  C   UNL A   1      32.560  24.712  22.404  1.00  0.00     0.003 C 
BRANCH  15  19
ATOM     19  O   UNL A   1      32.037  21.707  22.115  1.00  0.00    -0.387 OA
ATOM     20  H   UNL A   1      32.483  20.857  22.245  1.00  0.00     0.211 HD
ENDBRANCH  15  19
ENDBRANCH   6  13
ENDBRANCH   5   6
ENDBRANCH   3   5
ENDBRANCH   2   3
ENDBRANCH   1   2
BRANCH   1  21
ATOM     21  C   UNL A   1      38.747  23.394  26.357  1.00  0.00     0.275 C 
BRANCH  21  22
ATOM     22  O   UNL A   1      39.852  23.358  27.280  1.00  0.00    -0.458 OA
BRANCH  22  23
ATOM     23  C   UNL A   1      40.836  24.274  27.087  1.00  0.00     0.338 C 
ATOM     24  O   UNL A   1      41.646  24.276  26.175  1.00  0.00    -0.246 OA
BRANCH  23  25
ATOM     25  C   UNL A   1      40.656  25.401  28.038  1.00  0.00     0.060 A 
ATOM     26  C   UNL A   1      41.706  26.319  28.184  1.00  0.00     0.016 A 
ATOM     27  C   UNL A   1      39.459  25.602  28.733  1.00  0.00     0.016 A 
ATOM     28  C   UNL A   1      41.565  27.427  29.028  1.00  0.00     0.010 A 
ATOM     29  C   UNL A   1      39.320  26.710  29.579  1.00  0.00     0.010 A 
ATOM     30  C   UNL A   1      40.378  27.621  29.747  1.00  0.00    -0.014 A 
BRANCH  30  31
ATOM     31  C   UNL A   1      40.289  28.673  30.792  1.00  0.00     0.031 A 
ATOM     32  C   UNL A   1      41.163  28.547  32.010  1.00  0.00     0.074 A 
ATOM     33  C   UNL A   1      39.442  29.714  30.687  1.00  0.00     0.049 A 
ATOM     34  N   UNL A   1      41.245  29.326  33.059  1.00  0.00    -0.248 NA
ATOM     35  C   UNL A   1      42.067  27.386  32.050  1.00  0.00     0.031 C 
ATOM     36  C   UNL A   1      38.549  29.975  29.561  1.00  0.00     0.029 A 
ATOM     37  N   UNL A   1      39.183  30.744  31.562  1.00  0.00    -0.354 N 
ATOM     38  C   UNL A   1      42.218  28.761  33.872  1.00  0.00     0.074 A 
ATOM     39  C   UNL A   1      42.662  27.547  33.223  1.00  0.00     0.031 C 
ATOM     40  C   UNL A   1      37.814  31.069  29.827  1.00  0.00     0.029 A 
ATOM     41  C   UNL A   1      38.182  31.588  31.142  1.00  0.00     0.049 A 
ATOM     42  H   UNL A   1      39.670  30.865  32.409  1.00  0.00     0.167 HD
ATOM     43  C   UNL A   1      42.718  29.219  35.044  1.00  0.00     0.037 A 
ATOM     44  C   UNL A   1      37.622  32.652  31.753  1.00  0.00     0.037 A 
ATOM     45  C   UNL A   1      42.274  30.417  35.705  1.00  0.00     0.049 A 
ATOM     46  C   UNL A   1      38.136  33.101  33.097  1.00  0.00     0.074 A 
ATOM     47  C   UNL A   1      42.743  30.973  36.881  1.00  0.00     0.029 A 
ATOM     48  N   UNL A   1      41.252  31.237  35.255  1.00  0.00    -0.354 N 
ATOM     49  N   UNL A   1      39.103  32.593  33.823  1.00  0.00    -0.248 NA
ATOM     50  C   UNL A   1      37.492  34.280  33.699  1.00  0.00     0.031 C 
ATOM     51  C   UNL A   1      41.976  32.109  37.165  1.00  0.00     0.029 A 
ATOM     52  C   UNL A   1      41.058  32.282  36.142  1.00  0.00     0.049 A 
ATOM     53  H   UNL A   1      40.739  31.097  34.426  1.00  0.00     0.167 HD
ATOM     54  C   UNL A   1      39.209  33.412  34.943  1.00  0.00     0.074 A 
ATOM     55  C   UNL A   1      38.206  34.447  34.803  1.00  0.00     0.031 C 
ATOM     56  C   UNL A   1      40.069  33.319  35.988  1.00  0.00     0.037 A 
BRANCH  43  57
ATOM     57  C   UNL A   1      43.806  28.409  35.684  1.00  0.00     0.058 A 
ATOM     58  C   UNL A   1      45.156  28.622  35.365  1.00  0.00     0.135 A 
ATOM     59  C   UNL A   1      43.499  27.415  36.626  1.00  0.00     0.135 A 
ATOM     60  F   UNL A   1      45.499  29.548  34.455  1.00  0.00    -0.206 F 
ATOM     61  C   UNL A   1      46.166  27.855  35.936  1.00  0.00     0.059 A 
ATOM     62  C   UNL A   1      44.496  26.652  37.226  1.00  0.00     0.059 A 
ATOM     63  F   UNL A   1      42.223  27.172  36.961  1.00  0.00    -0.206 F 
ATOM     64  C   UNL A   1      45.825  26.868  36.861  1.00  0.00     0.060 A 
BRANCH  64  65
ATOM     65  S   UNL A   1      47.143  25.869  37.583  1.00  0.00     0.124 S 
ATOM     66  O   UNL A   1      47.142  24.707  36.699  1.00  0.00    -0.237 OA
ATOM     67  O   UNL A   1      48.301  26.749  37.470  1.00  0.00    -0.237 OA
ATOM     68  O   UNL A   1      46.676  25.623  38.943  1.00  0.00    -0.744 OA
ENDBRANCH  64  65
ENDBRANCH  43  57
BRANCH  44  69
ATOM     69  C   UNL A   1      36.508  33.388  31.097  1.00  0.00     0.058 A 
ATOM     70  C   UNL A   1      35.197  33.299  31.585  1.00  0.00     0.135 A 
ATOM     71  C   UNL A   1      36.730  34.172  29.954  1.00  0.00     0.135 A 
ATOM     72  F   UNL A   1      34.932  32.550  32.666  1.00  0.00    -0.206 F 
ATOM     73  C   UNL A   1      34.139  33.948  30.955  1.00  0.00     0.059 A 
ATOM     74  C   UNL A   1      35.692  34.846  29.318  1.00  0.00     0.059 A 
ATOM     75  F   UNL A   1      37.968  34.290  29.450  1.00  0.00    -0.206 F 
ATOM     76  C   UNL A   1      34.397  34.719  29.820  1.00  0.00     0.060 A 
BRANCH  76  77
ATOM     77  S   UNL A   1      33.025  35.589  29.031  1.00  0.00     0.124 S 
ATOM     78  O   UNL A   1      32.275  36.066  30.187  1.00  0.00    -0.237 OA
ATOM     79  O   UNL A   1      33.715  36.610  28.251  1.00  0.00    -0.237 OA
ATOM     80  O   UNL A   1      32.376  34.544  28.243  1.00  0.00    -0.744 OA
ENDBRANCH  76  77
ENDBRANCH  44  69
BRANCH  56  81
ATOM     81  C   UNL A   1      40.004  34.385  37.047  1.00  0.00     0.058 A 
ATOM     82  C   UNL A   1      40.754  35.567  36.954  1.00  0.00     0.135 A 
ATOM     83  C   UNL A   1      39.126  34.249  38.135  1.00  0.00     0.135 A 
ATOM     84  F   UNL A   1      41.612  35.745  35.938  1.00  0.00    -0.206 F 
ATOM     85  C   UNL A   1      40.646  36.572  37.911  1.00  0.00     0.059 A 
ATOM     86  C   UNL A   1      38.985  35.251  39.091  1.00  0.00     0.059 A 
ATOM     87  F   UNL A   1      38.378  33.142  38.266  1.00  0.00    -0.206 F 
ATOM     88  C   UNL A   1      39.756  36.406  38.975  1.00  0.00     0.060 A 
BRANCH  88  89
ATOM     89  S   UNL A   1      39.586  37.738  40.184  1.00  0.00     0.124 S 
ATOM     90  O   UNL A   1      39.819  37.028  41.437  1.00  0.00    -0.237 OA
ATOM     91  O   UNL A   1      40.636  38.668  39.778  1.00  0.00    -0.237 OA
ATOM     92  O   UNL A   1      38.222  38.214  39.974  1.00  0.00    -0.744 OA
ENDBRANCH  88  89
ENDBRANCH  56  81
ENDBRANCH  30  31
ENDBRANCH  23  25
ENDBRANCH  22  23
ENDBRANCH  21  22
ENDBRANCH   1  21
TORSDOF 19
ENDMDL
