MODEL 1
REMARK VINA RESULT:     -10.3      0.000      0.000
REMARK SMILES C[C@H](CCC[C@@H](C)[NH3+])C(=O)N[C@H]1C=C[C@@H](C(=O)OCCOC(=O)c2ccc(-c3c4nc(c(-c5c(F)cc(S(=O)(=O)[O-])cc5F)c5ccc([nH]5)c(-c5c(F)cc(S(=O)(=O)[O-])cc5F)c5nc(c(-c6c(F)cc(S(=O)(=O)[O-])cc6F)c6ccc3[nH]6)C=C5)C=C4)cc2)C1
REMARK SMILES IDX 16 1 17 2 15 3 12 4 13 5 90 6 14 7 11 8 9 9 10 10 2 12 1 13
REMARK SMILES IDX 3 14 4 15 5 16 6 17 7 18 8 19 18 23 19 24 20 25 21 26 22 27
REMARK SMILES IDX 23 28 24 29 25 30 89 31 26 32 88 33 27 34 28 35 29 36 82 37
REMARK SMILES IDX 30 38 87 39 81 40 83 41 31 42 86 43 80 44 79 45 32 47 66 48
REMARK SMILES IDX 45 49 65 50 46 51 49 52 64 53 84 54 47 55 48 56 63 58 85 59
REMARK SMILES IDX 50 60 33 61 34 62 43 63 35 64 36 65 42 66 44 67 37 68 38 69
REMARK SMILES IDX 39 70 40 71 41 72 67 73 68 74 77 75 69 76 70 77 76 78 78 79
REMARK SMILES IDX 71 80 72 81 73 82 74 83 75 84 51 85 52 86 61 87 53 88 54 89
REMARK SMILES IDX 60 90 62 91 55 92 56 93 57 94 58 95 59 96
REMARK H PARENT 11 11 8 20 8 21 8 22 83 46 49 57
REMARK Flexibility Score: inf
ROOT
ATOM      1  C   UNL A   1      38.352  21.113  25.416  1.00  0.00     0.312 C 
ATOM      2  O   UNL A   1      38.443  19.933  25.088  1.00  0.00    -0.252 OA
ENDROOT
BRANCH   1   3
ATOM      3  C   UNL A   1      37.230  22.002  24.923  1.00  0.00     0.124 C 
ATOM      4  C   UNL A   1      35.071  22.967  25.141  1.00  0.00     0.106 C 
ATOM      5  C   UNL A   1      36.112  23.945  25.582  1.00  0.00    -0.006 C 
ATOM      6  C   UNL A   1      35.790  21.637  25.313  1.00  0.00     0.048 C 
ATOM      7  C   UNL A   1      37.333  23.412  25.441  1.00  0.00    -0.014 C 
BRANCH   4   8
ATOM      8  N   UNL A   1      33.854  23.158  25.857  1.00  0.00    -0.350 N 
ATOM      9  C   UNL A   1      32.595  23.301  25.355  1.00  0.00     0.223 C 
ATOM     10  O   UNL A   1      31.726  23.697  26.141  1.00  0.00    -0.275 OA
ATOM     11  H   UNL A   1      33.932  23.192  26.838  1.00  0.00     0.164 HD
BRANCH   9  12
ATOM     12  C   UNL A   1      32.214  22.950  23.902  1.00  0.00     0.075 C 
ATOM     13  C   UNL A   1      30.890  23.568  23.463  1.00  0.00     0.018 C 
BRANCH  12  14
ATOM     14  C   UNL A   1      32.514  21.522  23.376  1.00  0.00     0.013 C 
BRANCH  14  15
ATOM     15  C   UNL A   1      32.379  20.248  24.226  1.00  0.00     0.007 C 
BRANCH  15  16
ATOM     16  C   UNL A   1      32.658  18.895  23.549  1.00  0.00     0.064 C 
BRANCH  16  17
ATOM     17  C   UNL A   1      33.445  17.868  24.369  1.00  0.00     0.177 C 
ATOM     18  C   UNL A   1      33.687  16.574  23.595  1.00  0.00     0.075 C 
BRANCH  17  19
ATOM     19  N   UNL A   1      34.742  18.476  24.693  1.00  0.00    -0.355 N 
ATOM     20  H   UNL A   1      35.457  18.104  24.068  1.00  0.00     0.344 HD
ATOM     21  H   UNL A   1      34.988  18.258  25.658  1.00  0.00     0.344 HD
ATOM     22  H   UNL A   1      34.681  19.488  24.577  1.00  0.00     0.344 HD
ENDBRANCH  17  19
ENDBRANCH  16  17
ENDBRANCH  15  16
ENDBRANCH  14  15
ENDBRANCH  12  14
ENDBRANCH   9  12
ENDBRANCH   4   8
ENDBRANCH   1   3
BRANCH   1  23
ATOM     23  O   UNL A   1      39.219  21.756  26.235  1.00  0.00    -0.462 OA
BRANCH  23  24
ATOM     24  C   UNL A   1      40.572  21.270  26.230  1.00  0.00     0.274 C 
BRANCH  24  25
ATOM     25  C   UNL A   1      41.551  22.423  26.466  1.00  0.00     0.275 C 
BRANCH  25  26
ATOM     26  O   UNL A   1      40.878  23.694  26.567  1.00  0.00    -0.458 OA
BRANCH  26  27
ATOM     27  C   UNL A   1      41.655  24.784  26.370  1.00  0.00     0.338 C 
ATOM     28  O   UNL A   1      42.408  24.986  25.429  1.00  0.00    -0.246 OA
BRANCH  27  29
ATOM     29  C   UNL A   1      41.402  25.789  27.415  1.00  0.00     0.060 A 
ATOM     30  C   UNL A   1      42.303  26.850  27.550  1.00  0.00     0.016 A 
ATOM     31  C   UNL A   1      40.332  25.652  28.303  1.00  0.00     0.016 A 
ATOM     32  C   UNL A   1      42.136  27.779  28.577  1.00  0.00     0.010 A 
ATOM     33  C   UNL A   1      40.167  26.584  29.332  1.00  0.00     0.010 A 
ATOM     34  C   UNL A   1      41.072  27.650  29.481  1.00  0.00    -0.014 A 
BRANCH  34  35
ATOM     35  C   UNL A   1      40.921  28.620  30.594  1.00  0.00     0.031 A 
ATOM     36  C   UNL A   1      41.815  28.534  31.798  1.00  0.00     0.074 A 
ATOM     37  C   UNL A   1      39.980  29.581  30.518  1.00  0.00     0.049 A 
ATOM     38  N   UNL A   1      41.795  29.248  32.894  1.00  0.00    -0.248 NA
ATOM     39  C   UNL A   1      42.869  27.509  31.766  1.00  0.00     0.031 C 
ATOM     40  C   UNL A   1      39.066  29.780  29.392  1.00  0.00     0.029 A 
ATOM     41  N   UNL A   1      39.634  30.567  31.408  1.00  0.00    -0.354 N 
ATOM     42  C   UNL A   1      42.820  28.753  33.690  1.00  0.00     0.074 A 
ATOM     43  C   UNL A   1      43.431  27.663  32.957  1.00  0.00     0.031 C 
ATOM     44  C   UNL A   1      38.263  30.822  29.659  1.00  0.00     0.029 A 
ATOM     45  C   UNL A   1      38.579  31.341  30.987  1.00  0.00     0.049 A 
ATOM     46  H   UNL A   1      40.097  30.706  32.265  1.00  0.00     0.167 HD
ATOM     47  C   UNL A   1      43.216  29.170  34.917  1.00  0.00     0.037 A 
ATOM     48  C   UNL A   1      37.925  32.341  31.611  1.00  0.00     0.037 A 
ATOM     49  C   UNL A   1      42.613  30.262  35.638  1.00  0.00     0.049 A 
ATOM     50  C   UNL A   1      38.362  32.762  32.988  1.00  0.00     0.074 A 
ATOM     51  C   UNL A   1      42.959  30.771  36.878  1.00  0.00     0.029 A 
ATOM     52  N   UNL A   1      41.537  31.012  35.186  1.00  0.00    -0.354 N 
ATOM     53  N   UNL A   1      39.338  32.288  33.724  1.00  0.00    -0.248 NA
ATOM     54  C   UNL A   1      37.605  33.852  33.620  1.00  0.00     0.031 C 
ATOM     55  C   UNL A   1      42.073  31.809  37.190  1.00  0.00     0.029 A 
ATOM     56  C   UNL A   1      41.197  31.970  36.129  1.00  0.00     0.049 A 
ATOM     57  H   UNL A   1      41.081  30.884  34.323  1.00  0.00     0.167 HD
ATOM     58  C   UNL A   1      39.324  33.032  34.898  1.00  0.00     0.074 A 
ATOM     59  C   UNL A   1      38.251  33.997  34.769  1.00  0.00     0.031 C 
ATOM     60  C   UNL A   1      40.127  32.925  35.986  1.00  0.00     0.037 A 
BRANCH  47  61
ATOM     61  C   UNL A   1      44.349  28.429  35.570  1.00  0.00     0.058 A 
ATOM     62  C   UNL A   1      44.122  27.316  36.395  1.00  0.00     0.135 A 
ATOM     63  C   UNL A   1      45.678  28.815  35.340  1.00  0.00     0.135 A 
ATOM     64  F   UNL A   1      42.870  26.914  36.659  1.00  0.00    -0.206 F 
ATOM     65  C   UNL A   1      45.175  26.625  36.986  1.00  0.00     0.059 A 
ATOM     66  C   UNL A   1      46.748  28.125  35.904  1.00  0.00     0.059 A 
ATOM     67  F   UNL A   1      45.949  29.873  34.560  1.00  0.00    -0.206 F 
ATOM     68  C   UNL A   1      46.485  27.039  36.737  1.00  0.00     0.060 A 
BRANCH  68  69
ATOM     69  S   UNL A   1      47.843  26.133  37.509  1.00  0.00     0.124 S 
ATOM     70  O   UNL A   1      47.677  26.504  38.912  1.00  0.00    -0.237 OA
ATOM     71  O   UNL A   1      47.526  24.748  37.178  1.00  0.00    -0.237 OA
ATOM     72  O   UNL A   1      49.029  26.675  36.853  1.00  0.00    -0.744 OA
ENDBRANCH  68  69
ENDBRANCH  47  61
BRANCH  48  73
ATOM     73  C   UNL A   1      36.778  33.004  30.941  1.00  0.00     0.058 A 
ATOM     74  C   UNL A   1      36.982  33.963  29.938  1.00  0.00     0.135 A 
ATOM     75  C   UNL A   1      35.455  32.686  31.285  1.00  0.00     0.135 A 
ATOM     76  F   UNL A   1      38.229  34.307  29.583  1.00  0.00    -0.206 F 
ATOM     77  C   UNL A   1      35.914  34.590  29.304  1.00  0.00     0.059 A 
ATOM     78  C   UNL A   1      34.371  33.282  30.649  1.00  0.00     0.059 A 
ATOM     79  F   UNL A   1      35.209  31.767  32.231  1.00  0.00    -0.206 F 
ATOM     80  C   UNL A   1      34.612  34.241  29.666  1.00  0.00     0.060 A 
BRANCH  80  81
ATOM     81  S   UNL A   1      33.230  35.020  28.801  1.00  0.00     0.124 S 
ATOM     82  O   UNL A   1      32.317  35.301  29.900  1.00  0.00    -0.237 OA
ATOM     83  O   UNL A   1      33.866  36.180  28.185  1.00  0.00    -0.237 OA
ATOM     84  O   UNL A   1      32.798  33.984  27.866  1.00  0.00    -0.744 OA
ENDBRANCH  80  81
ENDBRANCH  48  73
BRANCH  60  85
ATOM     85  C   UNL A   1      39.892  33.892  37.112  1.00  0.00     0.058 A 
ATOM     86  C   UNL A   1      39.044  33.577  38.184  1.00  0.00     0.135 A 
ATOM     87  C   UNL A   1      40.552  35.130  37.137  1.00  0.00     0.135 A 
ATOM     88  F   UNL A   1      38.384  32.408  38.204  1.00  0.00    -0.206 F 
ATOM     89  C   UNL A   1      38.837  34.469  39.233  1.00  0.00     0.059 A 
ATOM     90  C   UNL A   1      40.378  36.028  38.186  1.00  0.00     0.059 A 
ATOM     91  F   UNL A   1      41.381  35.475  36.139  1.00  0.00    -0.206 F 
ATOM     92  C   UNL A   1      39.508  35.693  39.223  1.00  0.00     0.060 A 
BRANCH  92  93
ATOM     93  S   UNL A   1      39.255  36.834  40.600  1.00  0.00     0.124 S 
ATOM     94  O   UNL A   1      38.555  37.934  39.945  1.00  0.00    -0.237 OA
ATOM     95  O   UNL A   1      38.457  36.038  41.527  1.00  0.00    -0.237 OA
ATOM     96  O   UNL A   1      40.613  37.131  41.048  1.00  0.00    -0.744 OA
ENDBRANCH  92  93
ENDBRANCH  60  85
ENDBRANCH  34  35
ENDBRANCH  27  29
ENDBRANCH  26  27
ENDBRANCH  25  26
ENDBRANCH  24  25
ENDBRANCH  23  24
ENDBRANCH   1  23
TORSDOF 21
ENDMDL
MODEL 2
REMARK VINA RESULT:     -10.1      3.416      5.066
REMARK SMILES C[C@H](CCC[C@@H](C)[NH3+])C(=O)N[C@H]1C=C[C@@H](C(=O)OCCOC(=O)c2ccc(-c3c4nc(c(-c5c(F)cc(S(=O)(=O)[O-])cc5F)c5ccc([nH]5)c(-c5c(F)cc(S(=O)(=O)[O-])cc5F)c5nc(c(-c6c(F)cc(S(=O)(=O)[O-])cc6F)c6ccc3[nH]6)C=C5)C=C4)cc2)C1
REMARK SMILES IDX 16 1 17 2 15 3 12 4 13 5 90 6 14 7 11 8 9 9 10 10 2 12 1 13
REMARK SMILES IDX 3 14 4 15 5 16 6 17 7 18 8 19 18 23 19 24 20 25 21 26 22 27
REMARK SMILES IDX 23 28 24 29 25 30 89 31 26 32 88 33 27 34 28 35 29 36 82 37
REMARK SMILES IDX 30 38 87 39 81 40 83 41 31 42 86 43 80 44 79 45 32 47 66 48
REMARK SMILES IDX 45 49 65 50 46 51 49 52 64 53 84 54 47 55 48 56 63 58 85 59
REMARK SMILES IDX 50 60 33 61 34 62 43 63 35 64 36 65 42 66 44 67 37 68 38 69
REMARK SMILES IDX 39 70 40 71 41 72 67 73 68 74 77 75 69 76 70 77 76 78 78 79
REMARK SMILES IDX 71 80 72 81 73 82 74 83 75 84 51 85 52 86 61 87 53 88 54 89
REMARK SMILES IDX 60 90 62 91 55 92 56 93 57 94 58 95 59 96
REMARK H PARENT 11 11 8 20 8 21 8 22 83 46 49 57
REMARK Flexibility Score: inf
ROOT
ATOM      1  C   UNL A   1      34.099  21.583  26.160  1.00  0.00     0.312 C 
ATOM      2  O   UNL A   1      33.632  20.708  26.883  1.00  0.00    -0.252 OA
ENDROOT
BRANCH   1   3
ATOM      3  C   UNL A   1      33.246  22.359  25.177  1.00  0.00     0.124 C 
ATOM      4  C   UNL A   1      32.983  23.911  23.400  1.00  0.00     0.106 C 
ATOM      5  C   UNL A   1      32.932  22.515  22.867  1.00  0.00    -0.006 C 
ATOM      6  C   UNL A   1      33.751  23.728  24.701  1.00  0.00     0.048 C 
ATOM      7  C   UNL A   1      33.060  21.636  23.870  1.00  0.00    -0.014 C 
BRANCH   4   8
ATOM      8  N   UNL A   1      33.524  24.808  22.433  1.00  0.00    -0.350 N 
ATOM      9  C   UNL A   1      33.405  26.165  22.384  1.00  0.00     0.223 C 
ATOM     10  O   UNL A   1      33.747  26.714  21.330  1.00  0.00    -0.275 OA
ATOM     11  H   UNL A   1      34.048  24.396  21.710  1.00  0.00     0.164 HD
BRANCH   9  12
ATOM     12  C   UNL A   1      32.923  27.020  23.574  1.00  0.00     0.075 C 
ATOM     13  C   UNL A   1      31.926  28.101  23.170  1.00  0.00     0.018 C 
BRANCH  12  14
ATOM     14  C   UNL A   1      33.941  27.402  24.680  1.00  0.00     0.013 C 
BRANCH  14  15
ATOM     15  C   UNL A   1      33.542  27.895  26.081  1.00  0.00     0.007 C 
BRANCH  15  16
ATOM     16  C   UNL A   1      34.317  29.084  26.675  1.00  0.00     0.064 C 
BRANCH  16  17
ATOM     17  C   UNL A   1      33.557  30.408  26.791  1.00  0.00     0.177 C 
ATOM     18  C   UNL A   1      32.061  30.242  26.534  1.00  0.00     0.075 C 
BRANCH  17  19
ATOM     19  N   UNL A   1      33.750  30.899  28.162  1.00  0.00    -0.355 N 
ATOM     20  H   UNL A   1      33.950  30.112  28.779  1.00  0.00     0.344 HD
ATOM     21  H   UNL A   1      32.903  31.372  28.476  1.00  0.00     0.344 HD
ATOM     22  H   UNL A   1      34.533  31.553  28.181  1.00  0.00     0.344 HD
ENDBRANCH  17  19
ENDBRANCH  16  17
ENDBRANCH  15  16
ENDBRANCH  14  15
ENDBRANCH  12  14
ENDBRANCH   9  12
ENDBRANCH   4   8
ENDBRANCH   1   3
BRANCH   1  23
ATOM     23  O   UNL A   1      35.401  21.959  26.143  1.00  0.00    -0.462 OA
BRANCH  23  24
ATOM     24  C   UNL A   1      36.282  21.149  25.346  1.00  0.00     0.274 C 
BRANCH  24  25
ATOM     25  C   UNL A   1      37.286  22.033  24.603  1.00  0.00     0.275 C 
BRANCH  25  26
ATOM     26  O   UNL A   1      37.717  23.155  25.400  1.00  0.00    -0.458 OA
BRANCH  26  27
ATOM     27  C   UNL A   1      38.869  22.976  26.087  1.00  0.00     0.338 C 
ATOM     28  O   UNL A   1      39.590  21.990  26.064  1.00  0.00    -0.246 OA
BRANCH  27  29
ATOM     29  C   UNL A   1      39.222  24.202  26.821  1.00  0.00     0.060 A 
ATOM     30  C   UNL A   1      40.045  25.141  26.190  1.00  0.00     0.016 A 
ATOM     31  C   UNL A   1      38.813  24.394  28.143  1.00  0.00     0.016 A 
ATOM     32  C   UNL A   1      40.461  26.278  26.882  1.00  0.00     0.010 A 
ATOM     33  C   UNL A   1      39.233  25.535  28.834  1.00  0.00     0.010 A 
ATOM     34  C   UNL A   1      40.066  26.481  28.212  1.00  0.00    -0.014 A 
BRANCH  34  35
ATOM     35  C   UNL A   1      40.542  27.674  28.954  1.00  0.00     0.031 A 
ATOM     36  C   UNL A   1      41.920  27.690  29.556  1.00  0.00     0.074 A 
ATOM     37  C   UNL A   1      39.737  28.745  29.085  1.00  0.00     0.049 A 
ATOM     38  N   UNL A   1      42.489  28.610  30.290  1.00  0.00    -0.248 NA
ATOM     39  C   UNL A   1      42.766  26.515  29.299  1.00  0.00     0.031 C 
ATOM     40  C   UNL A   1      38.387  28.858  28.528  1.00  0.00     0.029 A 
ATOM     41  N   UNL A   1      39.933  29.940  29.730  1.00  0.00    -0.354 N 
ATOM     42  C   UNL A   1      43.754  28.124  30.597  1.00  0.00     0.074 A 
ATOM     43  C   UNL A   1      43.861  26.816  29.983  1.00  0.00     0.031 C 
ATOM     44  C   UNL A   1      37.876  30.055  28.858  1.00  0.00     0.029 A 
ATOM     45  C   UNL A   1      38.845  30.779  29.677  1.00  0.00     0.049 A 
ATOM     46  H   UNL A   1      40.772  30.174  30.188  1.00  0.00     0.167 HD
ATOM     47  C   UNL A   1      44.736  28.714  31.321  1.00  0.00     0.037 A 
ATOM     48  C   UNL A   1      38.642  31.984  30.244  1.00  0.00     0.037 A 
ATOM     49  C   UNL A   1      44.629  30.020  31.920  1.00  0.00     0.049 A 
ATOM     50  C   UNL A   1      39.735  32.603  31.073  1.00  0.00     0.074 A 
ATOM     51  C   UNL A   1      45.579  30.711  32.654  1.00  0.00     0.029 A 
ATOM     52  N   UNL A   1      43.507  30.833  31.857  1.00  0.00    -0.354 N 
ATOM     53  N   UNL A   1      40.928  32.133  31.348  1.00  0.00    -0.248 NA
ATOM     54  C   UNL A   1      39.452  33.915  31.673  1.00  0.00     0.031 C 
ATOM     55  C   UNL A   1      45.020  31.927  33.063  1.00  0.00     0.029 A 
ATOM     56  C   UNL A   1      43.734  32.010  32.552  1.00  0.00     0.049 A 
ATOM     57  H   UNL A   1      42.671  30.607  31.389  1.00  0.00     0.167 HD
ATOM     58  C   UNL A   1      41.544  33.097  32.137  1.00  0.00     0.074 A 
ATOM     59  C   UNL A   1      40.598  34.184  32.284  1.00  0.00     0.031 C 
ATOM     60  C   UNL A   1      42.783  33.084  32.690  1.00  0.00     0.037 A 
BRANCH  47  61
ATOM     61  C   UNL A   1      46.010  27.943  31.523  1.00  0.00     0.058 A 
ATOM     62  C   UNL A   1      46.172  27.057  32.599  1.00  0.00     0.135 A 
ATOM     63  C   UNL A   1      47.067  28.065  30.608  1.00  0.00     0.135 A 
ATOM     64  F   UNL A   1      45.197  26.915  33.511  1.00  0.00    -0.206 F 
ATOM     65  C   UNL A   1      47.348  26.335  32.774  1.00  0.00     0.059 A 
ATOM     66  C   UNL A   1      48.245  27.335  30.750  1.00  0.00     0.059 A 
ATOM     67  F   UNL A   1      46.963  28.898  29.561  1.00  0.00    -0.206 F 
ATOM     68  C   UNL A   1      48.381  26.483  31.845  1.00  0.00     0.060 A 
BRANCH  68  69
ATOM     69  S   UNL A   1      49.901  25.539  32.082  1.00  0.00     0.124 S 
ATOM     70  O   UNL A   1      50.123  25.006  30.740  1.00  0.00    -0.237 OA
ATOM     71  O   UNL A   1      50.843  26.564  32.519  1.00  0.00    -0.237 OA
ATOM     72  O   UNL A   1      49.536  24.556  33.096  1.00  0.00    -0.744 OA
ENDBRANCH  68  69
ENDBRANCH  47  61
BRANCH  48  73
ATOM     73  C   UNL A   1      37.344  32.680  30.057  1.00  0.00     0.058 A 
ATOM     74  C   UNL A   1      36.249  32.407  30.890  1.00  0.00     0.135 A 
ATOM     75  C   UNL A   1      37.176  33.640  29.047  1.00  0.00     0.135 A 
ATOM     76  F   UNL A   1      36.360  31.489  31.863  1.00  0.00    -0.206 F 
ATOM     77  C   UNL A   1      35.029  33.053  30.723  1.00  0.00     0.059 A 
ATOM     78  C   UNL A   1      35.973  34.317  28.876  1.00  0.00     0.059 A 
ATOM     79  F   UNL A   1      38.197  33.944  28.232  1.00  0.00    -0.206 F 
ATOM     80  C   UNL A   1      34.902  34.009  29.713  1.00  0.00     0.060 A 
BRANCH  80  81
ATOM     81  S   UNL A   1      33.332  34.884  29.537  1.00  0.00     0.124 S 
ATOM     82  O   UNL A   1      32.586  33.978  28.674  1.00  0.00    -0.237 OA
ATOM     83  O   UNL A   1      32.872  34.975  30.919  1.00  0.00    -0.237 OA
ATOM     84  O   UNL A   1      33.725  36.154  28.933  1.00  0.00    -0.744 OA
ENDBRANCH  80  81
ENDBRANCH  48  73
BRANCH  60  85
ATOM     85  C   UNL A   1      43.193  34.291  33.485  1.00  0.00     0.058 A 
ATOM     86  C   UNL A   1      43.832  35.385  32.882  1.00  0.00     0.135 A 
ATOM     87  C   UNL A   1      42.910  34.370  34.858  1.00  0.00     0.135 A 
ATOM     88  F   UNL A   1      44.131  35.356  31.573  1.00  0.00    -0.206 F 
ATOM     89  C   UNL A   1      44.200  36.508  33.618  1.00  0.00     0.059 A 
ATOM     90  C   UNL A   1      43.249  35.491  35.609  1.00  0.00     0.059 A 
ATOM     91  F   UNL A   1      42.293  33.354  35.480  1.00  0.00    -0.206 F 
ATOM     92  C   UNL A   1      43.905  36.550  34.982  1.00  0.00     0.060 A 
BRANCH  92  93
ATOM     93  S   UNL A   1      44.363  38.021  35.924  1.00  0.00     0.124 S 
ATOM     94  O   UNL A   1      43.616  37.822  37.161  1.00  0.00    -0.237 OA
ATOM     95  O   UNL A   1      45.812  37.889  36.031  1.00  0.00    -0.237 OA
ATOM     96  O   UNL A   1      43.902  39.120  35.081  1.00  0.00    -0.744 OA
ENDBRANCH  92  93
ENDBRANCH  60  85
ENDBRANCH  34  35
ENDBRANCH  27  29
ENDBRANCH  26  27
ENDBRANCH  25  26
ENDBRANCH  24  25
ENDBRANCH  23  24
ENDBRANCH   1  23
TORSDOF 21
ENDMDL
MODEL 3
REMARK VINA RESULT:     -10.0      6.822     12.141
REMARK SMILES C[C@H](CCC[C@@H](C)[NH3+])C(=O)N[C@H]1C=C[C@@H](C(=O)OCCOC(=O)c2ccc(-c3c4nc(c(-c5c(F)cc(S(=O)(=O)[O-])cc5F)c5ccc([nH]5)c(-c5c(F)cc(S(=O)(=O)[O-])cc5F)c5nc(c(-c6c(F)cc(S(=O)(=O)[O-])cc6F)c6ccc3[nH]6)C=C5)C=C4)cc2)C1
REMARK SMILES IDX 16 1 17 2 15 3 12 4 13 5 90 6 14 7 11 8 9 9 10 10 2 12 1 13
REMARK SMILES IDX 3 14 4 15 5 16 6 17 7 18 8 19 18 23 19 24 20 25 21 26 22 27
REMARK SMILES IDX 23 28 24 29 25 30 89 31 26 32 88 33 27 34 28 35 29 36 82 37
REMARK SMILES IDX 30 38 87 39 81 40 83 41 31 42 86 43 80 44 79 45 32 47 66 48
REMARK SMILES IDX 45 49 65 50 46 51 49 52 64 53 84 54 47 55 48 56 63 58 85 59
REMARK SMILES IDX 50 60 33 61 34 62 43 63 35 64 36 65 42 66 44 67 37 68 38 69
REMARK SMILES IDX 39 70 40 71 41 72 67 73 68 74 77 75 69 76 70 77 76 78 78 79
REMARK SMILES IDX 71 80 72 81 73 82 74 83 75 84 51 85 52 86 61 87 53 88 54 89
REMARK SMILES IDX 60 90 62 91 55 92 56 93 57 94 58 95 59 96
REMARK H PARENT 11 11 8 20 8 21 8 22 83 46 49 57
REMARK Flexibility Score: inf
ROOT
ATOM      1  C   UNL A   1      31.794  28.427  26.331  1.00  0.00     0.312 C 
ATOM      2  O   UNL A   1      31.502  27.905  27.403  1.00  0.00    -0.252 OA
ENDROOT
BRANCH   1   3
ATOM      3  C   UNL A   1      31.043  28.118  25.052  1.00  0.00     0.124 C 
ATOM      4  C   UNL A   1      30.957  27.354  22.806  1.00  0.00     0.106 C 
ATOM      5  C   UNL A   1      30.517  26.265  23.730  1.00  0.00    -0.006 C 
ATOM      6  C   UNL A   1      31.802  28.227  23.721  1.00  0.00     0.048 C 
ATOM      7  C   UNL A   1      30.544  26.699  24.998  1.00  0.00    -0.014 C 
BRANCH   4   8
ATOM      8  N   UNL A   1      31.583  26.815  21.643  1.00  0.00    -0.350 N 
ATOM      9  C   UNL A   1      32.596  25.906  21.577  1.00  0.00     0.223 C 
ATOM     10  O   UNL A   1      33.144  25.765  20.477  1.00  0.00    -0.275 OA
ATOM     11  H   UNL A   1      31.241  27.142  20.780  1.00  0.00     0.164 HD
BRANCH   9  12
ATOM     12  C   UNL A   1      33.036  25.036  22.772  1.00  0.00     0.075 C 
ATOM     13  C   UNL A   1      34.099  25.702  23.640  1.00  0.00     0.018 C 
BRANCH  12  14
ATOM     14  C   UNL A   1      33.176  23.504  22.569  1.00  0.00     0.013 C 
BRANCH  14  15
ATOM     15  C   UNL A   1      34.026  22.593  23.470  1.00  0.00     0.007 C 
BRANCH  15  16
ATOM     16  C   UNL A   1      33.303  21.506  24.284  1.00  0.00     0.064 C 
BRANCH  16  17
ATOM     17  C   UNL A   1      33.286  21.685  25.805  1.00  0.00     0.177 C 
ATOM     18  C   UNL A   1      32.048  22.440  26.285  1.00  0.00     0.075 C 
BRANCH  17  19
ATOM     19  N   UNL A   1      33.281  20.341  26.398  1.00  0.00    -0.355 N 
ATOM     20  H   UNL A   1      34.099  20.232  26.998  1.00  0.00     0.344 HD
ATOM     21  H   UNL A   1      33.307  19.642  25.656  1.00  0.00     0.344 HD
ATOM     22  H   UNL A   1      32.434  20.219  26.952  1.00  0.00     0.344 HD
ENDBRANCH  17  19
ENDBRANCH  16  17
ENDBRANCH  15  16
ENDBRANCH  14  15
ENDBRANCH  12  14
ENDBRANCH   9  12
ENDBRANCH   4   8
ENDBRANCH   1   3
BRANCH   1  23
ATOM     23  O   UNL A   1      32.797  29.321  26.154  1.00  0.00    -0.462 OA
BRANCH  23  24
ATOM     24  C   UNL A   1      33.122  30.139  27.291  1.00  0.00     0.274 C 
BRANCH  24  25
ATOM     25  C   UNL A   1      34.614  30.480  27.289  1.00  0.00     0.275 C 
BRANCH  25  26
ATOM     26  O   UNL A   1      35.368  29.632  28.178  1.00  0.00    -0.458 OA
BRANCH  26  27
ATOM     27  C   UNL A   1      36.116  30.273  29.104  1.00  0.00     0.338 C 
ATOM     28  O   UNL A   1      35.706  30.944  30.040  1.00  0.00    -0.246 OA
BRANCH  27  29
ATOM     29  C   UNL A   1      37.544  29.975  28.905  1.00  0.00     0.060 A 
ATOM     30  C   UNL A   1      37.998  29.734  27.605  1.00  0.00     0.016 A 
ATOM     31  C   UNL A   1      38.414  29.858  29.992  1.00  0.00     0.016 A 
ATOM     32  C   UNL A   1      39.328  29.374  27.387  1.00  0.00     0.010 A 
ATOM     33  C   UNL A   1      39.746  29.496  29.771  1.00  0.00     0.010 A 
ATOM     34  C   UNL A   1      40.211  29.245  28.469  1.00  0.00    -0.014 A 
BRANCH  34  35
ATOM     35  C   UNL A   1      41.615  28.825  28.234  1.00  0.00     0.031 A 
ATOM     36  C   UNL A   1      42.723  29.840  28.268  1.00  0.00     0.074 A 
ATOM     37  C   UNL A   1      41.894  27.530  27.994  1.00  0.00     0.049 A 
ATOM     38  N   UNL A   1      43.998  29.679  28.027  1.00  0.00    -0.248 NA
ATOM     39  C   UNL A   1      42.345  31.218  28.618  1.00  0.00     0.031 C 
ATOM     40  C   UNL A   1      40.908  26.449  27.957  1.00  0.00     0.029 A 
ATOM     41  N   UNL A   1      43.087  26.905  27.731  1.00  0.00    -0.354 N 
ATOM     42  C   UNL A   1      44.577  30.933  28.179  1.00  0.00     0.074 A 
ATOM     43  C   UNL A   1      43.507  31.850  28.517  1.00  0.00     0.031 C 
ATOM     44  C   UNL A   1      41.536  25.293  27.685  1.00  0.00     0.029 A 
ATOM     45  C   UNL A   1      42.960  25.557  27.494  1.00  0.00     0.049 A 
ATOM     46  H   UNL A   1      43.950  27.376  27.715  1.00  0.00     0.167 HD
ATOM     47  C   UNL A   1      45.879  31.286  28.053  1.00  0.00     0.037 A 
ATOM     48  C   UNL A   1      43.882  24.641  27.139  1.00  0.00     0.037 A 
ATOM     49  C   UNL A   1      46.942  30.369  27.729  1.00  0.00     0.049 A 
ATOM     50  C   UNL A   1      45.316  25.065  26.970  1.00  0.00     0.074 A 
ATOM     51  C   UNL A   1      48.295  30.630  27.600  1.00  0.00     0.029 A 
ATOM     52  N   UNL A   1      46.772  29.015  27.481  1.00  0.00    -0.354 N 
ATOM     53  N   UNL A   1      45.848  26.254  27.125  1.00  0.00    -0.248 NA
ATOM     54  C   UNL A   1      46.275  24.024  26.574  1.00  0.00     0.031 C 
ATOM     55  C   UNL A   1      48.940  29.440  27.241  1.00  0.00     0.029 A 
ATOM     56  C   UNL A   1      47.993  28.430  27.184  1.00  0.00     0.049 A 
ATOM     57  H   UNL A   1      45.911  28.538  27.510  1.00  0.00     0.167 HD
ATOM     58  C   UNL A   1      47.204  26.101  26.862  1.00  0.00     0.074 A 
ATOM     59  C   UNL A   1      47.415  24.701  26.553  1.00  0.00     0.031 C 
ATOM     60  C   UNL A   1      48.188  27.035  26.877  1.00  0.00     0.037 A 
BRANCH  47  61
ATOM     61  C   UNL A   1      46.228  32.735  28.248  1.00  0.00     0.058 A 
ATOM     62  C   UNL A   1      46.650  33.230  29.492  1.00  0.00     0.135 A 
ATOM     63  C   UNL A   1      46.175  33.631  27.169  1.00  0.00     0.135 A 
ATOM     64  F   UNL A   1      46.704  32.418  30.560  1.00  0.00    -0.206 F 
ATOM     65  C   UNL A   1      46.985  34.569  29.665  1.00  0.00     0.059 A 
ATOM     66  C   UNL A   1      46.527  34.970  27.314  1.00  0.00     0.059 A 
ATOM     67  F   UNL A   1      45.778  33.209  25.959  1.00  0.00    -0.206 F 
ATOM     68  C   UNL A   1      46.918  35.433  28.569  1.00  0.00     0.060 A 
BRANCH  68  69
ATOM     69  S   UNL A   1      47.358  37.168  28.805  1.00  0.00     0.124 S 
ATOM     70  O   UNL A   1      46.337  37.599  29.756  1.00  0.00    -0.237 OA
ATOM     71  O   UNL A   1      48.716  37.080  29.331  1.00  0.00    -0.237 OA
ATOM     72  O   UNL A   1      47.244  37.732  27.465  1.00  0.00    -0.744 OA
ENDBRANCH  68  69
ENDBRANCH  47  61
BRANCH  48  73
ATOM     73  C   UNL A   1      43.474  23.232  26.907  1.00  0.00     0.058 A 
ATOM     74  C   UNL A   1      43.169  22.381  27.979  1.00  0.00     0.135 A 
ATOM     75  C   UNL A   1      43.373  22.712  25.607  1.00  0.00     0.135 A 
ATOM     76  F   UNL A   1      43.263  22.831  29.240  1.00  0.00    -0.206 F 
ATOM     77  C   UNL A   1      42.786  21.061  27.772  1.00  0.00     0.059 A 
ATOM     78  C   UNL A   1      42.968  21.402  25.374  1.00  0.00     0.059 A 
ATOM     79  F   UNL A   1      43.643  23.490  24.548  1.00  0.00    -0.206 F 
ATOM     80  C   UNL A   1      42.687  20.581  26.465  1.00  0.00     0.060 A 
BRANCH  80  81
ATOM     81  S   UNL A   1      42.135  18.880  26.202  1.00  0.00     0.124 S 
ATOM     82  O   UNL A   1      42.407  18.279  27.501  1.00  0.00    -0.237 OA
ATOM     83  O   UNL A   1      40.727  19.061  25.864  1.00  0.00    -0.237 OA
ATOM     84  O   UNL A   1      42.981  18.423  25.102  1.00  0.00    -0.744 OA
ENDBRANCH  80  81
ENDBRANCH  48  73
BRANCH  60  85
ATOM     85  C   UNL A   1      49.583  26.569  26.572  1.00  0.00     0.058 A 
ATOM     86  C   UNL A   1      50.445  26.121  27.584  1.00  0.00     0.135 A 
ATOM     87  C   UNL A   1      50.049  26.536  25.248  1.00  0.00     0.135 A 
ATOM     88  F   UNL A   1      50.049  26.139  28.866  1.00  0.00    -0.206 F 
ATOM     89  C   UNL A   1      51.733  25.677  27.297  1.00  0.00     0.059 A 
ATOM     90  C   UNL A   1      51.325  26.077  24.936  1.00  0.00     0.059 A 
ATOM     91  F   UNL A   1      49.261  26.946  24.243  1.00  0.00    -0.206 F 
ATOM     92  C   UNL A   1      52.164  25.661  25.969  1.00  0.00     0.060 A 
BRANCH  92  93
ATOM     93  S   UNL A   1      53.827  25.060  25.603  1.00  0.00     0.124 S 
ATOM     94  O   UNL A   1      54.188  25.878  24.450  1.00  0.00    -0.237 OA
ATOM     95  O   UNL A   1      54.548  25.353  26.838  1.00  0.00    -0.237 OA
ATOM     96  O   UNL A   1      53.621  23.641  25.328  1.00  0.00    -0.744 OA
ENDBRANCH  92  93
ENDBRANCH  60  85
ENDBRANCH  34  35
ENDBRANCH  27  29
ENDBRANCH  26  27
ENDBRANCH  25  26
ENDBRANCH  24  25
ENDBRANCH  23  24
ENDBRANCH   1  23
TORSDOF 21
ENDMDL
