MODEL 1
REMARK VINA RESULT:     -10.9      0.000      0.000
REMARK SMILES C[C@H]1[NH2+]CC[C@@H]1C(=O)N[C@@H](CC(=O)OCCOC(=O)c1ccc(-c2c3nc(c(-c4c(F)cc(S(=O)(=O)[O-])cc4F)c4ccc([nH]4)c(-c4c(F)cc(S(=O)(=O)[O-])cc4F)c4nc(c(-c5c(F)cc(S(=O)(=O)[O-])cc5F)c5ccc2[nH]5)C=C4)C=C3)cc1)c1cccs1
REMARK SMILES IDX 15 1 14 2 12 3 13 4 11 5 10 6 9 7 7 8 8 9 6 11 1 12 2 13
REMARK SMILES IDX 3 14 4 15 5 18 86 19 87 20 90 21 88 22 89 23 16 24 17 25
REMARK SMILES IDX 18 26 19 27 20 28 21 29 85 30 22 31 84 32 23 33 24 34 25 35
REMARK SMILES IDX 78 36 26 37 83 38 77 39 79 40 27 41 82 42 76 43 75 44 28 46
REMARK SMILES IDX 62 47 41 48 61 49 42 50 45 51 60 52 80 53 43 54 44 55 59 57
REMARK SMILES IDX 81 58 46 59 29 60 30 61 39 62 31 63 32 64 38 65 40 66 33 67
REMARK SMILES IDX 34 68 35 69 36 70 37 71 63 72 64 73 73 74 65 75 66 76 72 77
REMARK SMILES IDX 74 78 67 79 68 80 69 81 70 82 71 83 47 84 48 85 57 86 49 87
REMARK SMILES IDX 50 88 56 89 58 90 51 91 52 92 53 93 54 94 55 95
REMARK H PARENT 9 10 3 16 3 17 79 45 45 56
REMARK Flexibility Score: inf
ROOT
ATOM      1  C   UNL A   1      33.415  30.143  26.716  1.00  0.00     0.274 C 
ENDROOT
BRANCH   1   2
ATOM      2  O   UNL A   1      32.229  29.568  27.306  1.00  0.00    -0.462 OA
BRANCH   2   3
ATOM      3  C   UNL A   1      32.169  28.216  27.234  1.00  0.00     0.308 C 
ATOM      4  O   UNL A   1      31.253  27.534  27.685  1.00  0.00    -0.252 OA
BRANCH   3   5
ATOM      5  C   UNL A   1      33.378  27.564  26.623  1.00  0.00     0.153 C 
BRANCH   5   6
ATOM      6  C   UNL A   1      33.229  26.312  25.770  1.00  0.00     0.133 C 
BRANCH   6   7
ATOM      7  N   UNL A   1      34.501  25.718  25.403  1.00  0.00    -0.347 N 
ATOM      8  C   UNL A   1      34.865  24.412  25.260  1.00  0.00     0.229 C 
ATOM      9  O   UNL A   1      36.017  24.207  24.872  1.00  0.00    -0.275 OA
ATOM     10  H   UNL A   1      35.221  26.366  25.228  1.00  0.00     0.164 HD
BRANCH   8  11
ATOM     11  C   UNL A   1      33.922  23.279  25.694  1.00  0.00     0.142 C 
ATOM     12  C   UNL A   1      33.033  22.508  27.946  1.00  0.00     0.076 C 
ATOM     13  C   UNL A   1      34.285  22.741  27.096  1.00  0.00     0.192 C 
ATOM     14  N   UNL A   1      34.986  21.449  26.906  1.00  0.00    -0.343 N 
ATOM     15  C   UNL A   1      35.117  21.229  25.467  1.00  0.00     0.261 C 
ATOM     16  H   UNL A   1      34.444  20.693  27.326  1.00  0.00     0.346 HD
ATOM     17  H   UNL A   1      35.903  21.467  27.351  1.00  0.00     0.346 HD
ATOM     18  C   UNL A   1      33.977  22.009  24.857  1.00  0.00     0.081 C 
ENDBRANCH   8  11
ENDBRANCH   6   7
BRANCH   6  19
ATOM     19  C   UNL A   1      32.323  26.443  24.559  1.00  0.00     0.027 A 
ATOM     20  C   UNL A   1      30.992  26.067  24.467  1.00  0.00     0.017 A 
ATOM     21  S   UNL A   1      32.901  26.981  23.028  1.00  0.00    -0.147 S 
ATOM     22  C   UNL A   1      30.474  26.172  23.144  1.00  0.00     0.012 A 
ATOM     23  C   UNL A   1      31.419  26.633  22.257  1.00  0.00     0.065 A 
ENDBRANCH   6  19
ENDBRANCH   5   6
ENDBRANCH   3   5
ENDBRANCH   2   3
ENDBRANCH   1   2
BRANCH   1  24
ATOM     24  C   UNL A   1      34.260  30.872  27.761  1.00  0.00     0.275 C 
BRANCH  24  25
ATOM     25  O   UNL A   1      35.301  30.005  28.240  1.00  0.00    -0.458 OA
BRANCH  25  26
ATOM     26  C   UNL A   1      36.087  30.528  29.210  1.00  0.00     0.338 C 
ATOM     27  O   UNL A   1      35.731  31.241  30.132  1.00  0.00    -0.246 OA
BRANCH  26  28
ATOM     28  C   UNL A   1      37.500  30.160  28.973  1.00  0.00     0.060 A 
ATOM     29  C   UNL A   1      37.996  29.906  27.692  1.00  0.00     0.016 A 
ATOM     30  C   UNL A   1      38.330  30.002  30.084  1.00  0.00     0.016 A 
ATOM     31  C   UNL A   1      39.301  29.435  27.526  1.00  0.00     0.010 A 
ATOM     32  C   UNL A   1      39.656  29.604  29.912  1.00  0.00     0.010 A 
ATOM     33  C   UNL A   1      40.149  29.294  28.635  1.00  0.00    -0.014 A 
BRANCH  33  34
ATOM     34  C   UNL A   1      41.557  28.842  28.482  1.00  0.00     0.031 A 
ATOM     35  C   UNL A   1      42.684  29.838  28.544  1.00  0.00     0.074 A 
ATOM     36  C   UNL A   1      41.817  27.545  28.229  1.00  0.00     0.049 A 
ATOM     37  N   UNL A   1      43.948  29.673  28.253  1.00  0.00    -0.248 NA
ATOM     38  C   UNL A   1      42.340  31.201  28.980  1.00  0.00     0.031 C 
ATOM     39  C   UNL A   1      40.817  26.479  28.157  1.00  0.00     0.029 A 
ATOM     40  N   UNL A   1      43.003  26.906  27.964  1.00  0.00    -0.354 N 
ATOM     41  C   UNL A   1      44.547  30.915  28.435  1.00  0.00     0.074 A 
ATOM     42  C   UNL A   1      43.504  31.827  28.857  1.00  0.00     0.031 C 
ATOM     43  C   UNL A   1      41.429  25.320  27.874  1.00  0.00     0.029 A 
ATOM     44  C   UNL A   1      42.853  25.570  27.680  1.00  0.00     0.049 A 
ATOM     45  H   UNL A   1      43.875  27.361  27.977  1.00  0.00     0.167 HD
ATOM     46  C   UNL A   1      45.845  31.262  28.261  1.00  0.00     0.037 A 
ATOM     47  C   UNL A   1      43.751  24.655  27.266  1.00  0.00     0.037 A 
ATOM     48  C   UNL A   1      46.882  30.346  27.859  1.00  0.00     0.049 A 
ATOM     49  C   UNL A   1      45.177  25.070  27.049  1.00  0.00     0.074 A 
ATOM     50  C   UNL A   1      48.232  30.596  27.678  1.00  0.00     0.029 A 
ATOM     51  N   UNL A   1      46.686  29.002  27.577  1.00  0.00    -0.354 N 
ATOM     52  N   UNL A   1      45.723  26.252  27.209  1.00  0.00    -0.248 NA
ATOM     53  C   UNL A   1      46.106  24.031  26.583  1.00  0.00     0.031 C 
ATOM     54  C   UNL A   1      48.846  29.411  27.257  1.00  0.00     0.029 A 
ATOM     55  C   UNL A   1      47.885  28.414  27.210  1.00  0.00     0.049 A 
ATOM     56  H   UNL A   1      45.821  28.535  27.630  1.00  0.00     0.167 HD
ATOM     57  C   UNL A   1      47.061  26.098  26.869  1.00  0.00     0.074 A 
ATOM     58  C   UNL A   1      47.246  24.706  26.513  1.00  0.00     0.031 C 
ATOM     59  C   UNL A   1      48.048  27.027  26.850  1.00  0.00     0.037 A 
BRANCH  46  60
ATOM     60  C   UNL A   1      46.217  32.701  28.482  1.00  0.00     0.058 A 
ATOM     61  C   UNL A   1      46.649  33.169  29.733  1.00  0.00     0.135 A 
ATOM     62  C   UNL A   1      46.174  33.618  27.418  1.00  0.00     0.135 A 
ATOM     63  F   UNL A   1      46.693  32.340  30.787  1.00  0.00    -0.206 F 
ATOM     64  C   UNL A   1      47.004  34.501  29.927  1.00  0.00     0.059 A 
ATOM     65  C   UNL A   1      46.543  34.950  27.585  1.00  0.00     0.059 A 
ATOM     66  F   UNL A   1      45.768  33.222  26.202  1.00  0.00    -0.206 F 
ATOM     67  C   UNL A   1      46.944  35.385  28.848  1.00  0.00     0.060 A 
BRANCH  67  68
ATOM     68  S   UNL A   1      47.402  37.111  29.114  1.00  0.00     0.124 S 
ATOM     69  O   UNL A   1      47.478  37.605  27.743  1.00  0.00    -0.237 OA
ATOM     70  O   UNL A   1      46.284  37.615  29.907  1.00  0.00    -0.237 OA
ATOM     71  O   UNL A   1      48.675  37.020  29.821  1.00  0.00    -0.744 OA
ENDBRANCH  67  68
ENDBRANCH  46  60
BRANCH  47  72
ATOM     72  C   UNL A   1      43.309  23.262  27.005  1.00  0.00     0.058 A 
ATOM     73  C   UNL A   1      43.169  22.785  25.695  1.00  0.00     0.135 A 
ATOM     74  C   UNL A   1      43.061  22.368  28.059  1.00  0.00     0.135 A 
ATOM     75  F   UNL A   1      43.389  23.606  24.656  1.00  0.00    -0.206 F 
ATOM     76  C   UNL A   1      42.799  21.470  25.436  1.00  0.00     0.059 A 
ATOM     77  C   UNL A   1      42.712  21.042  27.826  1.00  0.00     0.059 A 
ATOM     78  F   UNL A   1      43.196  22.776  29.331  1.00  0.00    -0.206 F 
ATOM     79  C   UNL A   1      42.577  20.605  26.509  1.00  0.00     0.060 A 
BRANCH  79  80
ATOM     80  S   UNL A   1      42.173  18.878  26.165  1.00  0.00     0.124 S 
ATOM     81  O   UNL A   1      42.426  18.256  27.459  1.00  0.00    -0.237 OA
ATOM     82  O   UNL A   1      40.773  18.962  25.759  1.00  0.00    -0.237 OA
ATOM     83  O   UNL A   1      43.105  18.525  25.098  1.00  0.00    -0.744 OA
ENDBRANCH  79  80
ENDBRANCH  47  72
BRANCH  59  84
ATOM     84  C   UNL A   1      49.416  26.560  26.445  1.00  0.00     0.058 A 
ATOM     85  C   UNL A   1      49.899  26.753  25.142  1.00  0.00     0.135 A 
ATOM     86  C   UNL A   1      50.259  25.933  27.375  1.00  0.00     0.135 A 
ATOM     87  F   UNL A   1      49.125  27.339  24.215  1.00  0.00    -0.206 F 
ATOM     88  C   UNL A   1      51.165  26.317  24.767  1.00  0.00     0.059 A 
ATOM     89  C   UNL A   1      51.537  25.509  27.027  1.00  0.00     0.059 A 
ATOM     90  F   UNL A   1      49.845  25.733  28.637  1.00  0.00    -0.206 F 
ATOM     91  C   UNL A   1      51.977  25.692  25.716  1.00  0.00     0.060 A 
BRANCH  91  92
ATOM     92  S   UNL A   1      53.626  25.145  25.227  1.00  0.00     0.124 S 
ATOM     93  O   UNL A   1      54.465  25.855  26.187  1.00  0.00    -0.237 OA
ATOM     94  O   UNL A   1      53.545  23.698  25.406  1.00  0.00    -0.237 OA
ATOM     95  O   UNL A   1      53.733  25.593  23.842  1.00  0.00    -0.744 OA
ENDBRANCH  91  92
ENDBRANCH  59  84
ENDBRANCH  33  34
ENDBRANCH  26  28
ENDBRANCH  25  26
ENDBRANCH  24  25
ENDBRANCH   1  24
TORSDOF 18
ENDMDL
MODEL 2
REMARK VINA RESULT:     -10.9      6.592     12.089
REMARK SMILES C[C@H]1[NH2+]CC[C@@H]1C(=O)N[C@@H](CC(=O)OCCOC(=O)c1ccc(-c2c3nc(c(-c4c(F)cc(S(=O)(=O)[O-])cc4F)c4ccc([nH]4)c(-c4c(F)cc(S(=O)(=O)[O-])cc4F)c4nc(c(-c5c(F)cc(S(=O)(=O)[O-])cc5F)c5ccc2[nH]5)C=C4)C=C3)cc1)c1cccs1
REMARK SMILES IDX 15 1 14 2 12 3 13 4 11 5 10 6 9 7 7 8 8 9 6 11 1 12 2 13
REMARK SMILES IDX 3 14 4 15 5 18 86 19 87 20 90 21 88 22 89 23 16 24 17 25
REMARK SMILES IDX 18 26 19 27 20 28 21 29 85 30 22 31 84 32 23 33 24 34 25 35
REMARK SMILES IDX 78 36 26 37 83 38 77 39 79 40 27 41 82 42 76 43 75 44 28 46
REMARK SMILES IDX 62 47 41 48 61 49 42 50 45 51 60 52 80 53 43 54 44 55 59 57
REMARK SMILES IDX 81 58 46 59 29 60 30 61 39 62 31 63 32 64 38 65 40 66 33 67
REMARK SMILES IDX 34 68 35 69 36 70 37 71 63 72 64 73 73 74 65 75 66 76 72 77
REMARK SMILES IDX 74 78 67 79 68 80 69 81 70 82 71 83 47 84 48 85 57 86 49 87
REMARK SMILES IDX 50 88 56 89 58 90 51 91 52 92 53 93 54 94 55 95
REMARK H PARENT 9 10 3 16 3 17 79 45 45 56
REMARK Flexibility Score: inf
ROOT
ATOM      1  C   UNL A   1      37.409  22.462  25.976  1.00  0.00     0.274 C 
ENDROOT
BRANCH   1   2
ATOM      2  O   UNL A   1      36.644  23.685  25.926  1.00  0.00    -0.462 OA
BRANCH   2   3
ATOM      3  C   UNL A   1      35.690  23.708  24.962  1.00  0.00     0.308 C 
ATOM      4  O   UNL A   1      35.898  23.499  23.770  1.00  0.00    -0.252 OA
BRANCH   3   5
ATOM      5  C   UNL A   1      34.322  24.106  25.441  1.00  0.00     0.153 C 
BRANCH   5   6
ATOM      6  C   UNL A   1      33.770  25.491  25.131  1.00  0.00     0.133 C 
BRANCH   6   7
ATOM      7  N   UNL A   1      32.789  25.943  26.099  1.00  0.00    -0.347 N 
ATOM      8  C   UNL A   1      32.510  27.193  26.566  1.00  0.00     0.229 C 
ATOM      9  O   UNL A   1      31.566  27.284  27.353  1.00  0.00    -0.275 OA
ATOM     10  H   UNL A   1      32.232  25.228  26.484  1.00  0.00     0.164 HD
BRANCH   8  11
ATOM     11  C   UNL A   1      33.421  28.383  26.224  1.00  0.00     0.142 C 
ATOM     12  C   UNL A   1      35.371  29.495  27.416  1.00  0.00     0.076 C 
ATOM     13  C   UNL A   1      33.886  29.129  27.494  1.00  0.00     0.192 C 
ATOM     14  N   UNL A   1      33.087  30.375  27.592  1.00  0.00    -0.343 N 
ATOM     15  C   UNL A   1      32.131  30.369  26.488  1.00  0.00     0.261 C 
ATOM     16  H   UNL A   1      33.699  31.188  27.520  1.00  0.00     0.346 HD
ATOM     17  H   UNL A   1      32.602  30.422  28.488  1.00  0.00     0.346 HD
ATOM     18  C   UNL A   1      32.777  29.509  25.428  1.00  0.00     0.081 C 
ENDBRANCH   8  11
ENDBRANCH   6   7
BRANCH   6  19
ATOM     19  C   UNL A   1      33.267  25.697  23.713  1.00  0.00     0.027 A 
ATOM     20  C   UNL A   1      33.711  26.639  22.799  1.00  0.00     0.017 A 
ATOM     21  S   UNL A   1      31.922  24.830  23.076  1.00  0.00    -0.147 S 
ATOM     22  C   UNL A   1      32.920  26.680  21.614  1.00  0.00     0.012 A 
ATOM     23  C   UNL A   1      31.896  25.763  21.648  1.00  0.00     0.065 A 
ENDBRANCH   6  19
ENDBRANCH   5   6
ENDBRANCH   3   5
ENDBRANCH   2   3
ENDBRANCH   1   2
BRANCH   1  24
ATOM     24  C   UNL A   1      38.901  22.745  26.152  1.00  0.00     0.275 C 
BRANCH  24  25
ATOM     25  O   UNL A   1      39.108  24.142  26.412  1.00  0.00    -0.458 OA
BRANCH  25  26
ATOM     26  C   UNL A   1      40.380  24.492  26.716  1.00  0.00     0.338 C 
ATOM     27  O   UNL A   1      41.398  24.022  26.239  1.00  0.00    -0.246 OA
BRANCH  26  28
ATOM     28  C   UNL A   1      40.385  25.515  27.783  1.00  0.00     0.060 A 
ATOM     29  C   UNL A   1      39.351  25.619  28.717  1.00  0.00     0.016 A 
ATOM     30  C   UNL A   1      41.432  26.438  27.798  1.00  0.00     0.016 A 
ATOM     31  C   UNL A   1      39.332  26.680  29.627  1.00  0.00     0.010 A 
ATOM     32  C   UNL A   1      41.450  27.454  28.754  1.00  0.00     0.010 A 
ATOM     33  C   UNL A   1      40.390  27.600  29.663  1.00  0.00    -0.014 A 
BRANCH  33  34
ATOM     34  C   UNL A   1      40.419  28.710  30.651  1.00  0.00     0.031 A 
ATOM     35  C   UNL A   1      41.377  28.668  31.812  1.00  0.00     0.074 A 
ATOM     36  C   UNL A   1      39.544  29.727  30.538  1.00  0.00     0.049 A 
ATOM     37  N   UNL A   1      41.428  29.435  32.870  1.00  0.00    -0.248 NA
ATOM     38  C   UNL A   1      42.405  27.615  31.783  1.00  0.00     0.031 C 
ATOM     39  C   UNL A   1      38.574  29.893  29.454  1.00  0.00     0.029 A 
ATOM     40  N   UNL A   1      39.313  30.804  31.357  1.00  0.00    -0.354 N 
ATOM     41  C   UNL A   1      42.467  28.941  33.651  1.00  0.00     0.074 A 
ATOM     42  C   UNL A   1      43.017  27.802  32.946  1.00  0.00     0.031 C 
ATOM     43  C   UNL A   1      37.858  31.007  29.670  1.00  0.00     0.029 A 
ATOM     44  C   UNL A   1      38.272  31.598  30.938  1.00  0.00     0.049 A 
ATOM     45  H   UNL A   1      39.843  30.991  32.165  1.00  0.00     0.167 HD
ATOM     46  C   UNL A   1      42.916  29.394  34.846  1.00  0.00     0.037 A 
ATOM     47  C   UNL A   1      37.683  32.657  31.528  1.00  0.00     0.037 A 
ATOM     48  C   UNL A   1      42.376  30.540  35.533  1.00  0.00     0.049 A 
ATOM     49  C   UNL A   1      38.177  33.121  32.867  1.00  0.00     0.074 A 
ATOM     50  C   UNL A   1      42.778  31.092  36.737  1.00  0.00     0.029 A 
ATOM     51  N   UNL A   1      41.318  31.312  35.075  1.00  0.00    -0.354 N 
ATOM     52  N   UNL A   1      39.149  32.632  33.600  1.00  0.00    -0.248 NA
ATOM     53  C   UNL A   1      37.486  34.271  33.465  1.00  0.00     0.031 C 
ATOM     54  C   UNL A   1      41.943  32.179  37.023  1.00  0.00     0.029 A 
ATOM     55  C   UNL A   1      41.045  32.326  35.979  1.00  0.00     0.049 A 
ATOM     56  H   UNL A   1      40.834  31.162  34.232  1.00  0.00     0.167 HD
ATOM     57  C   UNL A   1      39.191  33.419  34.744  1.00  0.00     0.074 A 
ATOM     58  C   UNL A   1      38.160  34.427  34.598  1.00  0.00     0.031 C 
ATOM     59  C   UNL A   1      40.008  33.315  35.821  1.00  0.00     0.037 A 
BRANCH  46  60
ATOM     60  C   UNL A   1      44.034  28.635  35.503  1.00  0.00     0.058 A 
ATOM     61  C   UNL A   1      45.381  28.933  35.244  1.00  0.00     0.135 A 
ATOM     62  C   UNL A   1      43.754  27.620  36.432  1.00  0.00     0.135 A 
ATOM     63  F   UNL A   1      45.705  29.882  34.352  1.00  0.00    -0.206 F 
ATOM     64  C   UNL A   1      46.412  28.234  35.865  1.00  0.00     0.059 A 
ATOM     65  C   UNL A   1      44.769  26.921  37.081  1.00  0.00     0.059 A 
ATOM     66  F   UNL A   1      42.483  27.296  36.716  1.00  0.00    -0.206 F 
ATOM     67  C   UNL A   1      46.096  27.227  36.779  1.00  0.00     0.060 A 
BRANCH  67  68
ATOM     68  S   UNL A   1      47.442  26.324  37.575  1.00  0.00     0.124 S 
ATOM     69  O   UNL A   1      47.857  27.271  38.605  1.00  0.00    -0.237 OA
ATOM     70  O   UNL A   1      46.772  25.119  38.057  1.00  0.00    -0.237 OA
ATOM     71  O   UNL A   1      48.397  26.114  36.492  1.00  0.00    -0.744 OA
ENDBRANCH  67  68
ENDBRANCH  46  60
BRANCH  47  72
ATOM     72  C   UNL A   1      36.542  33.328  30.856  1.00  0.00     0.058 A 
ATOM     73  C   UNL A   1      35.240  33.207  31.360  1.00  0.00     0.135 A 
ATOM     74  C   UNL A   1      36.736  34.136  29.725  1.00  0.00     0.135 A 
ATOM     75  F   UNL A   1      35.006  32.438  32.435  1.00  0.00    -0.206 F 
ATOM     76  C   UNL A   1      34.168  33.865  30.768  1.00  0.00     0.059 A 
ATOM     77  C   UNL A   1      35.684  34.822  29.128  1.00  0.00     0.059 A 
ATOM     78  F   UNL A   1      37.968  34.293  29.215  1.00  0.00    -0.206 F 
ATOM     79  C   UNL A   1      34.401  34.674  29.654  1.00  0.00     0.060 A 
BRANCH  79  80
ATOM     80  S   UNL A   1      33.018  35.588  28.937  1.00  0.00     0.124 S 
ATOM     81  O   UNL A   1      32.271  35.971  30.128  1.00  0.00    -0.237 OA
ATOM     82  O   UNL A   1      33.694  36.671  28.230  1.00  0.00    -0.237 OA
ATOM     83  O   UNL A   1      32.376  34.596  28.077  1.00  0.00    -0.744 OA
ENDBRANCH  79  80
ENDBRANCH  47  72
BRANCH  59  84
ATOM     84  C   UNL A   1      39.825  34.326  36.915  1.00  0.00     0.058 A 
ATOM     85  C   UNL A   1      40.396  35.605  36.832  1.00  0.00     0.135 A 
ATOM     86  C   UNL A   1      39.052  34.021  38.046  1.00  0.00     0.135 A 
ATOM     87  F   UNL A   1      41.151  35.940  35.773  1.00  0.00    -0.206 F 
ATOM     88  C   UNL A   1      40.227  36.541  37.847  1.00  0.00     0.059 A 
ATOM     89  C   UNL A   1      38.854  34.949  39.063  1.00  0.00     0.059 A 
ATOM     90  F   UNL A   1      38.479  32.813  38.167  1.00  0.00    -0.206 F 
ATOM     91  C   UNL A   1      39.457  36.202  38.961  1.00  0.00     0.060 A 
BRANCH  91  92
ATOM     92  S   UNL A   1      39.228  37.428  40.267  1.00  0.00     0.124 S 
ATOM     93  O   UNL A   1      38.664  36.612  41.337  1.00  0.00    -0.237 OA
ATOM     94  O   UNL A   1      40.588  37.912  40.488  1.00  0.00    -0.237 OA
ATOM     95  O   UNL A   1      38.316  38.395  39.664  1.00  0.00    -0.744 OA
ENDBRANCH  91  92
ENDBRANCH  59  84
ENDBRANCH  33  34
ENDBRANCH  26  28
ENDBRANCH  25  26
ENDBRANCH  24  25
ENDBRANCH   1  24
TORSDOF 18
ENDMDL
MODEL 3
REMARK VINA RESULT:     -10.8      6.720     12.187
REMARK SMILES C[C@H]1[NH2+]CC[C@@H]1C(=O)N[C@@H](CC(=O)OCCOC(=O)c1ccc(-c2c3nc(c(-c4c(F)cc(S(=O)(=O)[O-])cc4F)c4ccc([nH]4)c(-c4c(F)cc(S(=O)(=O)[O-])cc4F)c4nc(c(-c5c(F)cc(S(=O)(=O)[O-])cc5F)c5ccc2[nH]5)C=C4)C=C3)cc1)c1cccs1
REMARK SMILES IDX 15 1 14 2 12 3 13 4 11 5 10 6 9 7 7 8 8 9 6 11 1 12 2 13
REMARK SMILES IDX 3 14 4 15 5 18 86 19 87 20 90 21 88 22 89 23 16 24 17 25
REMARK SMILES IDX 18 26 19 27 20 28 21 29 85 30 22 31 84 32 23 33 24 34 25 35
REMARK SMILES IDX 78 36 26 37 83 38 77 39 79 40 27 41 82 42 76 43 75 44 28 46
REMARK SMILES IDX 62 47 41 48 61 49 42 50 45 51 60 52 80 53 43 54 44 55 59 57
REMARK SMILES IDX 81 58 46 59 29 60 30 61 39 62 31 63 32 64 38 65 40 66 33 67
REMARK SMILES IDX 34 68 35 69 36 70 37 71 63 72 64 73 73 74 65 75 66 76 72 77
REMARK SMILES IDX 74 78 67 79 68 80 69 81 70 82 71 83 47 84 48 85 57 86 49 87
REMARK SMILES IDX 50 88 56 89 58 90 51 91 52 92 53 93 54 94 55 95
REMARK H PARENT 9 10 3 16 3 17 79 45 45 56
REMARK Flexibility Score: inf
ROOT
ATOM      1  C   UNL A   1      36.965  23.299  25.996  1.00  0.00     0.274 C 
ENDROOT
BRANCH   1   2
ATOM      2  O   UNL A   1      37.165  22.414  24.872  1.00  0.00    -0.462 OA
BRANCH   2   3
ATOM      3  C   UNL A   1      36.021  21.930  24.331  1.00  0.00     0.308 C 
ATOM      4  O   UNL A   1      35.323  22.535  23.521  1.00  0.00    -0.252 OA
BRANCH   3   5
ATOM      5  C   UNL A   1      35.588  20.594  24.865  1.00  0.00     0.153 C 
BRANCH   5   6
ATOM      6  C   UNL A   1      34.145  20.369  25.300  1.00  0.00     0.133 C 
BRANCH   6   7
ATOM      7  N   UNL A   1      33.862  20.889  26.625  1.00  0.00    -0.347 N 
ATOM      8  C   UNL A   1      33.138  21.974  27.019  1.00  0.00     0.229 C 
ATOM      9  O   UNL A   1      33.017  22.137  28.234  1.00  0.00    -0.275 OA
ATOM     10  H   UNL A   1      34.261  20.373  27.362  1.00  0.00     0.164 HD
BRANCH   8  11
ATOM     11  C   UNL A   1      32.627  22.996  25.990  1.00  0.00     0.142 C 
ATOM     12  C   UNL A   1      32.933  25.503  25.713  1.00  0.00     0.076 C 
ATOM     13  C   UNL A   1      32.416  24.388  26.626  1.00  0.00     0.192 C 
ATOM     14  N   UNL A   1      30.958  24.567  26.828  1.00  0.00    -0.343 N 
ATOM     15  C   UNL A   1      30.304  23.329  26.409  1.00  0.00     0.261 C 
ATOM     16  H   UNL A   1      30.622  25.348  26.264  1.00  0.00     0.346 HD
ATOM     17  H   UNL A   1      30.752  24.769  27.806  1.00  0.00     0.346 HD
ATOM     18  C   UNL A   1      31.250  22.719  25.403  1.00  0.00     0.081 C 
ENDBRANCH   8  11
ENDBRANCH   6   7
BRANCH   6  19
ATOM     19  C   UNL A   1      33.625  18.951  25.152  1.00  0.00     0.027 A 
ATOM     20  C   UNL A   1      32.701  18.312  25.963  1.00  0.00     0.017 A 
ATOM     21  S   UNL A   1      34.250  17.856  23.978  1.00  0.00    -0.147 S 
ATOM     22  C   UNL A   1      32.550  16.929  25.653  1.00  0.00     0.012 A 
ATOM     23  C   UNL A   1      33.357  16.546  24.608  1.00  0.00     0.065 A 
ENDBRANCH   6  19
ENDBRANCH   5   6
ENDBRANCH   3   5
ENDBRANCH   2   3
ENDBRANCH   1   2
BRANCH   1  24
ATOM     24  C   UNL A   1      38.148  24.252  26.173  1.00  0.00     0.275 C 
BRANCH  24  25
ATOM     25  O   UNL A   1      39.133  23.656  27.033  1.00  0.00    -0.458 OA
BRANCH  25  26
ATOM     26  C   UNL A   1      40.357  24.231  26.993  1.00  0.00     0.338 C 
ATOM     27  O   UNL A   1      41.329  23.835  26.373  1.00  0.00    -0.246 OA
BRANCH  26  28
ATOM     28  C   UNL A   1      40.391  25.417  27.877  1.00  0.00     0.060 A 
ATOM     29  C   UNL A   1      41.402  26.378  27.790  1.00  0.00     0.016 A 
ATOM     30  C   UNL A   1      39.411  25.525  28.864  1.00  0.00     0.016 A 
ATOM     31  C   UNL A   1      41.469  27.412  28.728  1.00  0.00     0.010 A 
ATOM     32  C   UNL A   1      39.435  26.599  29.754  1.00  0.00     0.010 A 
ATOM     33  C   UNL A   1      40.476  27.540  29.711  1.00  0.00    -0.014 A 
BRANCH  33  34
ATOM     34  C   UNL A   1      40.495  28.658  30.691  1.00  0.00     0.031 A 
ATOM     35  C   UNL A   1      41.444  28.627  31.859  1.00  0.00     0.074 A 
ATOM     36  C   UNL A   1      39.617  29.671  30.564  1.00  0.00     0.049 A 
ATOM     37  N   UNL A   1      41.485  29.403  32.911  1.00  0.00    -0.248 NA
ATOM     38  C   UNL A   1      42.476  27.578  31.847  1.00  0.00     0.031 C 
ATOM     39  C   UNL A   1      38.655  29.825  29.471  1.00  0.00     0.029 A 
ATOM     40  N   UNL A   1      39.377  30.754  31.372  1.00  0.00    -0.354 N 
ATOM     41  C   UNL A   1      42.519  28.919  33.704  1.00  0.00     0.074 A 
ATOM     42  C   UNL A   1      43.078  27.775  33.012  1.00  0.00     0.031 C 
ATOM     43  C   UNL A   1      37.935  30.939  29.673  1.00  0.00     0.029 A 
ATOM     44  C   UNL A   1      38.337  31.541  30.939  1.00  0.00     0.049 A 
ATOM     45  H   UNL A   1      39.901  30.948  32.183  1.00  0.00     0.167 HD
ATOM     46  C   UNL A   1      42.958  29.382  34.899  1.00  0.00     0.037 A 
ATOM     47  C   UNL A   1      37.741  32.602  31.516  1.00  0.00     0.037 A 
ATOM     48  C   UNL A   1      42.410  30.532  35.573  1.00  0.00     0.049 A 
ATOM     49  C   UNL A   1      38.224  33.079  32.855  1.00  0.00     0.074 A 
ATOM     50  C   UNL A   1      42.801  31.094  36.776  1.00  0.00     0.029 A 
ATOM     51  N   UNL A   1      41.353  31.297  35.101  1.00  0.00    -0.354 N 
ATOM     52  N   UNL A   1      39.191  32.599  33.599  1.00  0.00    -0.248 NA
ATOM     53  C   UNL A   1      37.524  34.231  33.439  1.00  0.00     0.031 C 
ATOM     54  C   UNL A   1      41.961  32.181  37.047  1.00  0.00     0.029 A 
ATOM     55  C   UNL A   1      41.070  32.317  35.995  1.00  0.00     0.049 A 
ATOM     56  H   UNL A   1      40.875  31.138  34.256  1.00  0.00     0.167 HD
ATOM     57  C   UNL A   1      39.222  33.394  34.738  1.00  0.00     0.074 A 
ATOM     58  C   UNL A   1      38.189  34.398  34.576  1.00  0.00     0.031 C 
ATOM     59  C   UNL A   1      40.031  33.301  35.821  1.00  0.00     0.037 A 
BRANCH  46  60
ATOM     60  C   UNL A   1      44.073  28.632  35.571  1.00  0.00     0.058 A 
ATOM     61  C   UNL A   1      45.421  28.934  35.323  1.00  0.00     0.135 A 
ATOM     62  C   UNL A   1      43.789  27.619  36.502  1.00  0.00     0.135 A 
ATOM     63  F   UNL A   1      45.749  29.881  34.430  1.00  0.00    -0.206 F 
ATOM     64  C   UNL A   1      46.450  28.243  35.958  1.00  0.00     0.059 A 
ATOM     65  C   UNL A   1      44.801  26.929  37.163  1.00  0.00     0.059 A 
ATOM     66  F   UNL A   1      42.517  27.290  36.774  1.00  0.00    -0.206 F 
ATOM     67  C   UNL A   1      46.129  27.239  36.873  1.00  0.00     0.060 A 
BRANCH  67  68
ATOM     68  S   UNL A   1      47.472  26.346  37.687  1.00  0.00     0.124 S 
ATOM     69  O   UNL A   1      47.245  24.986  37.211  1.00  0.00    -0.237 OA
ATOM     70  O   UNL A   1      48.659  27.012  37.157  1.00  0.00    -0.237 OA
ATOM     71  O   UNL A   1      47.215  26.567  39.106  1.00  0.00    -0.744 OA
ENDBRANCH  67  68
ENDBRANCH  46  60
BRANCH  47  72
ATOM     72  C   UNL A   1      36.603  33.265  30.831  1.00  0.00     0.058 A 
ATOM     73  C   UNL A   1      35.290  33.091  31.287  1.00  0.00     0.135 A 
ATOM     74  C   UNL A   1      36.810  34.117  29.735  1.00  0.00     0.135 A 
ATOM     75  F   UNL A   1      35.043  32.279  32.327  1.00  0.00    -0.206 F 
ATOM     76  C   UNL A   1      34.218  33.739  30.683  1.00  0.00     0.059 A 
ATOM     77  C   UNL A   1      35.757  34.794  29.127  1.00  0.00     0.059 A 
ATOM     78  F   UNL A   1      38.052  34.326  29.271  1.00  0.00    -0.206 F 
ATOM     79  C   UNL A   1      34.463  34.593  29.605  1.00  0.00     0.060 A 
BRANCH  79  80
ATOM     80  S   UNL A   1      33.078  35.493  28.874  1.00  0.00     0.124 S 
ATOM     81  O   UNL A   1      33.770  36.509  28.092  1.00  0.00    -0.237 OA
ATOM     82  O   UNL A   1      32.398  34.450  28.112  1.00  0.00    -0.237 OA
ATOM     83  O   UNL A   1      32.346  35.979  30.041  1.00  0.00    -0.744 OA
ENDBRANCH  79  80
ENDBRANCH  47  72
BRANCH  59  84
ATOM     84  C   UNL A   1      39.837  34.321  36.906  1.00  0.00     0.058 A 
ATOM     85  C   UNL A   1      39.040  34.052  38.029  1.00  0.00     0.135 A 
ATOM     86  C   UNL A   1      40.472  35.570  36.831  1.00  0.00     0.135 A 
ATOM     87  F   UNL A   1      38.405  32.874  38.140  1.00  0.00    -0.206 F 
ATOM     88  C   UNL A   1      38.859  34.998  39.032  1.00  0.00     0.059 A 
ATOM     89  C   UNL A   1      40.321  36.523  37.833  1.00  0.00     0.059 A 
ATOM     90  F   UNL A   1      41.251  35.872  35.780  1.00  0.00    -0.206 F 
ATOM     91  C   UNL A   1      39.501  36.233  38.923  1.00  0.00     0.060 A 
BRANCH  91  92
ATOM     92  S   UNL A   1      39.276  37.451  40.238  1.00  0.00     0.124 S 
ATOM     93  O   UNL A   1      38.268  38.329  39.653  1.00  0.00    -0.237 OA
ATOM     94  O   UNL A   1      38.826  36.627  41.357  1.00  0.00    -0.237 OA
ATOM     95  O   UNL A   1      40.606  38.031  40.391  1.00  0.00    -0.744 OA
ENDBRANCH  91  92
ENDBRANCH  59  84
ENDBRANCH  33  34
ENDBRANCH  26  28
ENDBRANCH  25  26
ENDBRANCH  24  25
ENDBRANCH   1  24
TORSDOF 18
ENDMDL
