MODEL 1
REMARK VINA RESULT:     -11.2      0.000      0.000
REMARK SMILES COc1ccc([C@@H](CC(=O)OCCOC(=O)c2ccc(-c3c4nc(c(-c5c(F)cc(S(=O)(=O)[O-])cc5F)c5ccc([nH]5)c(-c5c(F)cc(S(=O)(=O)[O-])cc5F)c5nc(c(-c6c(F)cc(S(=O)(=O)[O-])cc6F)c6ccc3[nH]6)C=C5)C=C4)cc2)NC(=O)c2ccc(Cl)c([N+](=O)[O-])c2)cc1
REMARK SMILES IDX 12 1 11 2 9 3 10 4 8 5 7 6 6 7 3 8 4 9 97 10 5 11 96 12 2 13
REMARK SMILES IDX 1 14 83 15 84 16 85 18 86 19 87 20 95 21 88 22 91 23 89 24
REMARK SMILES IDX 90 25 92 26 93 27 94 28 13 29 14 30 15 31 16 32 17 33 18 34
REMARK SMILES IDX 82 35 19 36 81 37 20 38 21 39 22 40 75 41 23 42 80 43 74 44
REMARK SMILES IDX 76 45 24 46 79 47 73 48 72 49 25 51 59 52 38 53 58 54 39 55
REMARK SMILES IDX 42 56 57 57 77 58 40 59 41 60 56 62 78 63 43 64 26 65 27 66
REMARK SMILES IDX 36 67 28 68 29 69 35 70 37 71 30 72 31 73 32 74 33 75 34 76
REMARK SMILES IDX 60 77 61 78 70 79 62 80 63 81 69 82 71 83 64 84 65 85 66 86
REMARK SMILES IDX 67 87 68 88 44 89 45 90 54 91 46 92 47 93 53 94 55 95 48 96
REMARK SMILES IDX 49 97 50 98 51 99 52 100
REMARK H PARENT 83 17 76 50 42 61
REMARK Flexibility Score: inf
ROOT
ATOM      1  C   UNL A   1      34.830  29.555  26.874  1.00  0.00     0.274 C 
ENDROOT
BRANCH   1   2
ATOM      2  O   UNL A   1      33.547  29.591  26.213  1.00  0.00    -0.462 OA
BRANCH   2   3
ATOM      3  C   UNL A   1      32.575  28.797  26.716  1.00  0.00     0.308 C 
ATOM      4  O   UNL A   1      31.549  29.217  27.240  1.00  0.00    -0.252 OA
BRANCH   3   5
ATOM      5  C   UNL A   1      32.898  27.320  26.683  1.00  0.00     0.152 C 
BRANCH   5   6
ATOM      6  C   UNL A   1      32.941  26.569  25.341  1.00  0.00     0.123 C 
BRANCH   6   7
ATOM      7  C   UNL A   1      33.578  25.192  25.456  1.00  0.00    -0.025 A 
ATOM      8  C   UNL A   1      34.860  22.741  25.952  1.00  0.00     0.118 A 
ATOM      9  C   UNL A   1      35.379  23.622  25.009  1.00  0.00     0.047 A 
ATOM     10  C   UNL A   1      33.693  23.062  26.640  1.00  0.00     0.047 A 
ATOM     11  C   UNL A   1      34.726  24.826  24.741  1.00  0.00     0.010 A 
ATOM     12  C   UNL A   1      33.057  24.280  26.393  1.00  0.00     0.010 A 
BRANCH   8  13
ATOM     13  O   UNL A   1      35.598  21.622  26.227  1.00  0.00    -0.497 OA
ATOM     14  C   UNL A   1      36.836  21.602  25.524  1.00  0.00     0.278 C 
ENDBRANCH   8  13
ENDBRANCH   6   7
BRANCH   6  15
ATOM     15  N   UNL A   1      33.455  27.355  24.224  1.00  0.00    -0.345 N 
ATOM     16  C   UNL A   1      32.805  27.952  23.174  1.00  0.00     0.252 C 
ATOM     17  H   UNL A   1      34.432  27.477  24.226  1.00  0.00     0.164 HD
ATOM     18  O   UNL A   1      33.427  28.373  22.205  1.00  0.00    -0.269 OA
BRANCH  16  19
ATOM     19  C   UNL A   1      31.336  28.096  23.176  1.00  0.00     0.046 A 
ATOM     20  C   UNL A   1      30.551  26.963  23.418  1.00  0.00     0.016 A 
ATOM     21  C   UNL A   1      30.728  29.318  22.887  1.00  0.00     0.101 A 
ATOM     22  C   UNL A   1      29.156  27.069  23.451  1.00  0.00     0.028 A 
ATOM     23  C   UNL A   1      29.328  29.416  22.940  1.00  0.00     0.288 A 
ATOM     24  C   UNL A   1      28.533  28.306  23.237  1.00  0.00     0.118 A 
ATOM     25  Cl  UNL A   1      26.820  28.358  23.439  1.00  0.00    -0.077 Cl
BRANCH  23  26
ATOM     26  N   UNL A   1      28.753  30.737  22.746  1.00  0.00     0.064 N 
ATOM     27  O   UNL A   1      28.792  31.540  23.684  1.00  0.00    -0.258 OA
ATOM     28  O   UNL A   1      28.232  30.951  21.640  1.00  0.00    -0.258 OA
ENDBRANCH  23  26
ENDBRANCH  16  19
ENDBRANCH   6  15
ENDBRANCH   5   6
ENDBRANCH   3   5
ENDBRANCH   2   3
ENDBRANCH   1   2
BRANCH   1  29
ATOM     29  C   UNL A   1      34.881  30.490  28.087  1.00  0.00     0.275 C 
BRANCH  29  30
ATOM     30  O   UNL A   1      35.593  29.894  29.185  1.00  0.00    -0.458 OA
BRANCH  30  31
ATOM     31  C   UNL A   1      36.422  30.737  29.844  1.00  0.00     0.338 C 
ATOM     32  O   UNL A   1      36.092  31.596  30.645  1.00  0.00    -0.246 OA
BRANCH  31  33
ATOM     33  C   UNL A   1      37.820  30.364  29.588  1.00  0.00     0.060 A 
ATOM     34  C   UNL A   1      38.205  30.096  28.272  1.00  0.00     0.016 A 
ATOM     35  C   UNL A   1      38.727  30.216  30.636  1.00  0.00     0.016 A 
ATOM     36  C   UNL A   1      39.501  29.678  27.992  1.00  0.00     0.010 A 
ATOM     37  C   UNL A   1      40.035  29.806  30.353  1.00  0.00     0.010 A 
ATOM     38  C   UNL A   1      40.427  29.530  29.031  1.00  0.00    -0.014 A 
BRANCH  38  39
ATOM     39  C   UNL A   1      41.803  29.073  28.727  1.00  0.00     0.031 A 
ATOM     40  C   UNL A   1      42.945  30.047  28.777  1.00  0.00     0.074 A 
ATOM     41  C   UNL A   1      42.021  27.782  28.419  1.00  0.00     0.049 A 
ATOM     42  N   UNL A   1      44.201  29.860  28.465  1.00  0.00    -0.248 NA
ATOM     43  C   UNL A   1      42.632  31.409  29.237  1.00  0.00     0.031 C 
ATOM     44  C   UNL A   1      40.992  26.740  28.375  1.00  0.00     0.029 A 
ATOM     45  N   UNL A   1      43.175  27.125  28.078  1.00  0.00    -0.354 N 
ATOM     46  C   UNL A   1      44.827  31.084  28.667  1.00  0.00     0.074 A 
ATOM     47  C   UNL A   1      43.809  32.010  29.117  1.00  0.00     0.031 C 
ATOM     48  C   UNL A   1      41.563  25.575  28.027  1.00  0.00     0.029 A 
ATOM     49  C   UNL A   1      42.985  25.797  27.780  1.00  0.00     0.049 A 
ATOM     50  H   UNL A   1      44.057  27.563  28.050  1.00  0.00     0.167 HD
ATOM     51  C   UNL A   1      46.133  31.401  28.493  1.00  0.00     0.037 A 
ATOM     52  C   UNL A   1      43.853  24.870  27.332  1.00  0.00     0.037 A 
ATOM     53  C   UNL A   1      47.141  30.469  28.057  1.00  0.00     0.049 A 
ATOM     54  C   UNL A   1      45.289  25.257  27.113  1.00  0.00     0.074 A 
ATOM     55  C   UNL A   1      48.493  30.691  27.862  1.00  0.00     0.029 A 
ATOM     56  N   UNL A   1      46.908  29.136  27.752  1.00  0.00    -0.354 N 
ATOM     57  N   UNL A   1      45.866  26.421  27.299  1.00  0.00    -0.248 NA
ATOM     58  C   UNL A   1      46.192  24.209  26.618  1.00  0.00     0.031 C 
ATOM     59  C   UNL A   1      49.072  29.501  27.406  1.00  0.00     0.029 A 
ATOM     60  C   UNL A   1      48.087  28.525  27.355  1.00  0.00     0.049 A 
ATOM     61  H   UNL A   1      46.033  28.688  27.809  1.00  0.00     0.167 HD
ATOM     62  C   UNL A   1      47.203  26.240  26.961  1.00  0.00     0.074 A 
ATOM     63  C   UNL A   1      47.351  24.852  26.572  1.00  0.00     0.031 C 
ATOM     64  C   UNL A   1      48.215  27.141  26.973  1.00  0.00     0.037 A 
BRANCH  51  65
ATOM     65  C   UNL A   1      46.538  32.825  28.749  1.00  0.00     0.058 A 
ATOM     66  C   UNL A   1      46.504  33.796  27.735  1.00  0.00     0.135 A 
ATOM     67  C   UNL A   1      46.941  33.231  30.031  1.00  0.00     0.135 A 
ATOM     68  F   UNL A   1      46.143  33.459  26.487  1.00  0.00    -0.206 F 
ATOM     69  C   UNL A   1      46.881  35.114  27.979  1.00  0.00     0.059 A 
ATOM     70  C   UNL A   1      47.300  34.548  30.303  1.00  0.00     0.059 A 
ATOM     71  F   UNL A   1      46.992  32.341  31.035  1.00  0.00    -0.206 F 
ATOM     72  C   UNL A   1      47.281  35.479  29.266  1.00  0.00     0.060 A 
BRANCH  72  73
ATOM     73  S   UNL A   1      47.768  37.191  29.570  1.00  0.00     0.124 S 
ATOM     74  O   UNL A   1      48.476  37.516  28.335  1.00  0.00    -0.237 OA
ATOM     75  O   UNL A   1      46.483  37.856  29.756  1.00  0.00    -0.237 OA
ATOM     76  O   UNL A   1      48.601  37.101  30.765  1.00  0.00    -0.744 OA
ENDBRANCH  72  73
ENDBRANCH  51  65
BRANCH  52  77
ATOM     77  C   UNL A   1      43.380  23.490  27.047  1.00  0.00     0.058 A 
ATOM     78  C   UNL A   1      43.125  23.069  25.735  1.00  0.00     0.135 A 
ATOM     79  C   UNL A   1      43.191  22.562  28.082  1.00  0.00     0.135 A 
ATOM     80  F   UNL A   1      43.282  23.925  24.713  1.00  0.00    -0.206 F 
ATOM     81  C   UNL A   1      42.690  21.777  25.457  1.00  0.00     0.059 A 
ATOM     82  C   UNL A   1      42.779  21.257  27.828  1.00  0.00     0.059 A 
ATOM     83  F   UNL A   1      43.433  22.913  29.355  1.00  0.00    -0.206 F 
ATOM     84  C   UNL A   1      42.523  20.877  26.511  1.00  0.00     0.060 A 
BRANCH  84  85
ATOM     85  S   UNL A   1      42.011  19.186  26.138  1.00  0.00     0.124 S 
ATOM     86  O   UNL A   1      42.887  18.854  25.020  1.00  0.00    -0.237 OA
ATOM     87  O   UNL A   1      42.287  18.494  27.393  1.00  0.00    -0.237 OA
ATOM     88  O   UNL A   1      40.596  19.329  25.811  1.00  0.00    -0.744 OA
ENDBRANCH  84  85
ENDBRANCH  52  77
BRANCH  64  89
ATOM     89  C   UNL A   1      49.578  26.646  26.578  1.00  0.00     0.058 A 
ATOM     90  C   UNL A   1      50.425  26.011  27.499  1.00  0.00     0.135 A 
ATOM     91  C   UNL A   1      50.028  26.779  25.255  1.00  0.00     0.135 A 
ATOM     92  F   UNL A   1      50.045  25.865  28.779  1.00  0.00    -0.206 F 
ATOM     93  C   UNL A   1      51.682  25.546  27.128  1.00  0.00     0.059 A 
ATOM     94  C   UNL A   1      51.272  26.302  24.856  1.00  0.00     0.059 A 
ATOM     95  F   UNL A   1      49.251  27.371  24.334  1.00  0.00    -0.206 F 
ATOM     96  C   UNL A   1      52.098  25.698  25.803  1.00  0.00     0.060 A 
BRANCH  96  97
ATOM     97  S   UNL A   1      53.722  25.072  25.324  1.00  0.00     0.124 S 
ATOM     98  O   UNL A   1      54.547  25.504  26.447  1.00  0.00    -0.237 OA
ATOM     99  O   UNL A   1      53.490  23.634  25.224  1.00  0.00    -0.237 OA
ATOM    100  O   UNL A   1      53.983  25.746  24.055  1.00  0.00    -0.744 OA
ENDBRANCH  96  97
ENDBRANCH  64  89
ENDBRANCH  38  39
ENDBRANCH  31  33
ENDBRANCH  30  31
ENDBRANCH  29  30
ENDBRANCH   1  29
TORSDOF 20
ENDMDL
MODEL 2
REMARK VINA RESULT:     -11.0      6.067     10.597
REMARK SMILES COc1ccc([C@@H](CC(=O)OCCOC(=O)c2ccc(-c3c4nc(c(-c5c(F)cc(S(=O)(=O)[O-])cc5F)c5ccc([nH]5)c(-c5c(F)cc(S(=O)(=O)[O-])cc5F)c5nc(c(-c6c(F)cc(S(=O)(=O)[O-])cc6F)c6ccc3[nH]6)C=C5)C=C4)cc2)NC(=O)c2ccc(Cl)c([N+](=O)[O-])c2)cc1
REMARK SMILES IDX 12 1 11 2 9 3 10 4 8 5 7 6 6 7 3 8 4 9 97 10 5 11 96 12 2 13
REMARK SMILES IDX 1 14 83 15 84 16 85 18 86 19 87 20 95 21 88 22 91 23 89 24
REMARK SMILES IDX 90 25 92 26 93 27 94 28 13 29 14 30 15 31 16 32 17 33 18 34
REMARK SMILES IDX 82 35 19 36 81 37 20 38 21 39 22 40 75 41 23 42 80 43 74 44
REMARK SMILES IDX 76 45 24 46 79 47 73 48 72 49 25 51 59 52 38 53 58 54 39 55
REMARK SMILES IDX 42 56 57 57 77 58 40 59 41 60 56 62 78 63 43 64 26 65 27 66
REMARK SMILES IDX 36 67 28 68 29 69 35 70 37 71 30 72 31 73 32 74 33 75 34 76
REMARK SMILES IDX 60 77 61 78 70 79 62 80 63 81 69 82 71 83 64 84 65 85 66 86
REMARK SMILES IDX 67 87 68 88 44 89 45 90 54 91 46 92 47 93 53 94 55 95 48 96
REMARK SMILES IDX 49 97 50 98 51 99 52 100
REMARK H PARENT 83 17 76 50 42 61
REMARK Flexibility Score: inf
ROOT
ATOM      1  C   UNL A   1      33.030  31.559  27.633  1.00  0.00     0.274 C 
ENDROOT
BRANCH   1   2
ATOM      2  O   UNL A   1      33.655  30.723  26.636  1.00  0.00    -0.462 OA
BRANCH   2   3
ATOM      3  C   UNL A   1      34.166  29.544  27.057  1.00  0.00     0.308 C 
ATOM      4  O   UNL A   1      35.362  29.342  27.239  1.00  0.00    -0.252 OA
BRANCH   3   5
ATOM      5  C   UNL A   1      33.148  28.435  27.189  1.00  0.00     0.152 C 
BRANCH   5   6
ATOM      6  C   UNL A   1      32.686  27.658  25.945  1.00  0.00     0.123 C 
BRANCH   6   7
ATOM      7  C   UNL A   1      32.848  26.153  26.096  1.00  0.00    -0.025 A 
ATOM      8  C   UNL A   1      33.154  23.359  26.060  1.00  0.00     0.118 A 
ATOM      9  C   UNL A   1      31.937  23.923  26.428  1.00  0.00     0.047 A 
ATOM     10  C   UNL A   1      34.230  24.176  25.726  1.00  0.00     0.047 A 
ATOM     11  C   UNL A   1      31.794  25.311  26.475  1.00  0.00     0.010 A 
ATOM     12  C   UNL A   1      34.077  25.564  25.744  1.00  0.00     0.010 A 
BRANCH   8  13
ATOM     13  O   UNL A   1      33.197  21.996  25.950  1.00  0.00    -0.497 OA
ATOM     14  C   UNL A   1      34.159  21.410  26.820  1.00  0.00     0.278 C 
ENDBRANCH   8  13
ENDBRANCH   6   7
BRANCH   6  15
ATOM     15  N   UNL A   1      33.206  28.173  24.683  1.00  0.00    -0.345 N 
ATOM     16  C   UNL A   1      32.576  28.425  23.490  1.00  0.00     0.252 C 
ATOM     17  H   UNL A   1      34.169  28.375  24.689  1.00  0.00     0.164 HD
ATOM     18  O   UNL A   1      33.221  28.636  22.469  1.00  0.00    -0.269 OA
BRANCH  16  19
ATOM     19  C   UNL A   1      31.103  28.437  23.399  1.00  0.00     0.046 A 
ATOM     20  C   UNL A   1      30.411  27.228  23.531  1.00  0.00     0.016 A 
ATOM     21  C   UNL A   1      30.404  29.615  23.131  1.00  0.00     0.101 A 
ATOM     22  C   UNL A   1      29.014  27.208  23.474  1.00  0.00     0.028 A 
ATOM     23  C   UNL A   1      29.001  29.586  23.093  1.00  0.00     0.288 A 
ATOM     24  C   UNL A   1      28.294  28.394  23.280  1.00  0.00     0.118 A 
ATOM     25  Cl  UNL A   1      26.574  28.284  23.369  1.00  0.00    -0.077 Cl
BRANCH  23  26
ATOM     26  N   UNL A   1      28.319  30.859  22.927  1.00  0.00     0.064 N 
ATOM     27  O   UNL A   1      27.682  31.054  21.886  1.00  0.00    -0.258 OA
ATOM     28  O   UNL A   1      28.455  31.678  23.848  1.00  0.00    -0.258 OA
ENDBRANCH  23  26
ENDBRANCH  16  19
ENDBRANCH   6  15
ENDBRANCH   5   6
ENDBRANCH   3   5
ENDBRANCH   2   3
ENDBRANCH   1   2
BRANCH   1  29
ATOM     29  C   UNL A   1      33.169  33.049  27.306  1.00  0.00     0.275 C 
BRANCH  29  30
ATOM     30  O   UNL A   1      32.522  33.871  28.293  1.00  0.00    -0.458 OA
BRANCH  30  31
ATOM     31  C   UNL A   1      33.282  34.884  28.771  1.00  0.00     0.338 C 
ATOM     32  O   UNL A   1      33.037  36.075  28.683  1.00  0.00    -0.246 OA
BRANCH  31  33
ATOM     33  C   UNL A   1      34.386  34.342  29.575  1.00  0.00     0.060 A 
ATOM     34  C   UNL A   1      35.695  34.543  29.127  1.00  0.00     0.016 A 
ATOM     35  C   UNL A   1      34.137  33.589  30.722  1.00  0.00     0.016 A 
ATOM     36  C   UNL A   1      36.765  33.993  29.823  1.00  0.00     0.010 A 
ATOM     37  C   UNL A   1      35.216  33.045  31.427  1.00  0.00     0.010 A 
ATOM     38  C   UNL A   1      36.534  33.240  30.979  1.00  0.00    -0.014 A 
BRANCH  38  39
ATOM     39  C   UNL A   1      37.680  32.648  31.708  1.00  0.00     0.031 A 
ATOM     40  C   UNL A   1      38.419  31.479  31.123  1.00  0.00     0.074 A 
ATOM     41  C   UNL A   1      38.058  33.173  32.888  1.00  0.00     0.049 A 
ATOM     42  N   UNL A   1      39.389  30.774  31.643  1.00  0.00    -0.248 NA
ATOM     43  C   UNL A   1      38.012  31.048  29.777  1.00  0.00     0.031 C 
ATOM     44  C   UNL A   1      37.436  34.330  33.535  1.00  0.00     0.029 A 
ATOM     45  N   UNL A   1      39.052  32.799  33.757  1.00  0.00    -0.354 N 
ATOM     46  C   UNL A   1      39.696  29.800  30.701  1.00  0.00     0.074 A 
ATOM     47  C   UNL A   1      38.799  29.998  29.582  1.00  0.00     0.031 C 
ATOM     48  C   UNL A   1      38.063  34.571  34.698  1.00  0.00     0.029 A 
ATOM     49  C   UNL A   1      39.098  33.561  34.899  1.00  0.00     0.049 A 
ATOM     50  H   UNL A   1      39.673  32.056  33.578  1.00  0.00     0.167 HD
ATOM     51  C   UNL A   1      40.641  28.831  30.768  1.00  0.00     0.037 A 
ATOM     52  C   UNL A   1      39.869  33.442  35.998  1.00  0.00     0.037 A 
ATOM     53  C   UNL A   1      41.538  28.651  31.881  1.00  0.00     0.049 A 
ATOM     54  C   UNL A   1      40.886  32.336  36.062  1.00  0.00     0.074 A 
ATOM     55  C   UNL A   1      42.537  27.707  32.037  1.00  0.00     0.029 A 
ATOM     56  N   UNL A   1      41.546  29.434  33.026  1.00  0.00    -0.354 N 
ATOM     57  N   UNL A   1      41.159  31.415  35.167  1.00  0.00    -0.248 NA
ATOM     58  C   UNL A   1      41.696  32.248  37.284  1.00  0.00     0.031 C 
ATOM     59  C   UNL A   1      43.127  27.896  33.293  1.00  0.00     0.029 A 
ATOM     60  C   UNL A   1      42.522  28.985  33.902  1.00  0.00     0.049 A 
ATOM     61  H   UNL A   1      40.946  30.197  33.193  1.00  0.00     0.167 HD
ATOM     62  C   UNL A   1      42.184  30.650  35.711  1.00  0.00     0.074 A 
ATOM     63  C   UNL A   1      42.491  31.224  37.006  1.00  0.00     0.031 C 
ATOM     64  C   UNL A   1      42.815  29.571  35.186  1.00  0.00     0.037 A 
BRANCH  51  65
ATOM     65  C   UNL A   1      40.733  27.874  29.613  1.00  0.00     0.058 A 
ATOM     66  C   UNL A   1      41.771  27.950  28.671  1.00  0.00     0.135 A 
ATOM     67  C   UNL A   1      39.785  26.850  29.462  1.00  0.00     0.135 A 
ATOM     68  F   UNL A   1      42.694  28.920  28.758  1.00  0.00    -0.206 F 
ATOM     69  C   UNL A   1      41.849  27.060  27.603  1.00  0.00     0.059 A 
ATOM     70  C   UNL A   1      39.857  25.934  28.416  1.00  0.00     0.059 A 
ATOM     71  F   UNL A   1      38.772  26.734  30.336  1.00  0.00    -0.206 F 
ATOM     72  C   UNL A   1      40.885  26.058  27.483  1.00  0.00     0.060 A 
BRANCH  72  73
ATOM     73  S   UNL A   1      40.997  24.909  26.093  1.00  0.00     0.124 S 
ATOM     74  O   UNL A   1      41.237  25.821  24.980  1.00  0.00    -0.237 OA
ATOM     75  O   UNL A   1      42.126  24.065  26.473  1.00  0.00    -0.237 OA
ATOM     76  O   UNL A   1      39.697  24.246  26.094  1.00  0.00    -0.744 OA
ENDBRANCH  72  73
ENDBRANCH  51  65
BRANCH  52  77
ATOM     77  C   UNL A   1      39.695  34.388  37.130  1.00  0.00     0.058 A 
ATOM     78  C   UNL A   1      38.943  34.035  38.260  1.00  0.00     0.135 A 
ATOM     79  C   UNL A   1      40.293  35.658  37.110  1.00  0.00     0.135 A 
ATOM     80  F   UNL A   1      38.345  32.836  38.319  1.00  0.00    -0.206 F 
ATOM     81  C   UNL A   1      38.781  34.911  39.328  1.00  0.00     0.059 A 
ATOM     82  C   UNL A   1      40.165  36.542  38.177  1.00  0.00     0.059 A 
ATOM     83  F   UNL A   1      41.032  36.038  36.057  1.00  0.00    -0.206 F 
ATOM     84  C   UNL A   1      39.399  36.162  39.278  1.00  0.00     0.060 A 
BRANCH  84  85
ATOM     85  S   UNL A   1      39.231  37.272  40.693  1.00  0.00     0.124 S 
ATOM     86  O   UNL A   1      40.626  37.562  41.006  1.00  0.00    -0.237 OA
ATOM     87  O   UNL A   1      38.459  38.376  40.131  1.00  0.00    -0.237 OA
ATOM     88  O   UNL A   1      38.519  36.457  41.674  1.00  0.00    -0.744 OA
ENDBRANCH  84  85
ENDBRANCH  52  77
BRANCH  64  89
ATOM     89  C   UNL A   1      43.917  28.958  36.002  1.00  0.00     0.058 A 
ATOM     90  C   UNL A   1      45.229  29.455  35.959  1.00  0.00     0.135 A 
ATOM     91  C   UNL A   1      43.652  27.880  36.861  1.00  0.00     0.135 A 
ATOM     92  F   UNL A   1      45.536  30.480  35.148  1.00  0.00    -0.206 F 
ATOM     93  C   UNL A   1      46.245  28.891  36.723  1.00  0.00     0.059 A 
ATOM     94  C   UNL A   1      44.648  27.313  37.651  1.00  0.00     0.059 A 
ATOM     95  F   UNL A   1      42.412  27.373  36.945  1.00  0.00    -0.206 F 
ATOM     96  C   UNL A   1      45.945  27.817  37.564  1.00  0.00     0.060 A 
BRANCH  96  97
ATOM     97  S   UNL A   1      47.265  27.104  38.568  1.00  0.00     0.124 S 
ATOM     98  O   UNL A   1      48.177  28.234  38.700  1.00  0.00    -0.237 OA
ATOM     99  O   UNL A   1      46.560  26.713  39.785  1.00  0.00    -0.237 OA
ATOM    100  O   UNL A   1      47.749  25.995  37.751  1.00  0.00    -0.744 OA
ENDBRANCH  96  97
ENDBRANCH  64  89
ENDBRANCH  38  39
ENDBRANCH  31  33
ENDBRANCH  30  31
ENDBRANCH  29  30
ENDBRANCH   1  29
TORSDOF 20
ENDMDL
MODEL 3
REMARK VINA RESULT:     -11.0      2.235      8.803
REMARK SMILES COc1ccc([C@@H](CC(=O)OCCOC(=O)c2ccc(-c3c4nc(c(-c5c(F)cc(S(=O)(=O)[O-])cc5F)c5ccc([nH]5)c(-c5c(F)cc(S(=O)(=O)[O-])cc5F)c5nc(c(-c6c(F)cc(S(=O)(=O)[O-])cc6F)c6ccc3[nH]6)C=C5)C=C4)cc2)NC(=O)c2ccc(Cl)c([N+](=O)[O-])c2)cc1
REMARK SMILES IDX 12 1 11 2 9 3 10 4 8 5 7 6 6 7 3 8 4 9 97 10 5 11 96 12 2 13
REMARK SMILES IDX 1 14 83 15 84 16 85 18 86 19 87 20 95 21 88 22 91 23 89 24
REMARK SMILES IDX 90 25 92 26 93 27 94 28 13 29 14 30 15 31 16 32 17 33 18 34
REMARK SMILES IDX 82 35 19 36 81 37 20 38 21 39 22 40 75 41 23 42 80 43 74 44
REMARK SMILES IDX 76 45 24 46 79 47 73 48 72 49 25 51 59 52 38 53 58 54 39 55
REMARK SMILES IDX 42 56 57 57 77 58 40 59 41 60 56 62 78 63 43 64 26 65 27 66
REMARK SMILES IDX 36 67 28 68 29 69 35 70 37 71 30 72 31 73 32 74 33 75 34 76
REMARK SMILES IDX 60 77 61 78 70 79 62 80 63 81 69 82 71 83 64 84 65 85 66 86
REMARK SMILES IDX 67 87 68 88 44 89 45 90 54 91 46 92 47 93 53 94 55 95 48 96
REMARK SMILES IDX 49 97 50 98 51 99 52 100
REMARK H PARENT 83 17 76 50 42 61
REMARK Flexibility Score: inf
ROOT
ATOM      1  C   UNL A   1      33.543  30.373  27.291  1.00  0.00     0.274 C 
ENDROOT
BRANCH   1   2
ATOM      2  O   UNL A   1      33.520  28.930  27.261  1.00  0.00    -0.462 OA
BRANCH   2   3
ATOM      3  C   UNL A   1      33.219  28.345  26.080  1.00  0.00     0.308 C 
ATOM      4  O   UNL A   1      33.771  28.618  25.019  1.00  0.00    -0.252 OA
BRANCH   3   5
ATOM      5  C   UNL A   1      32.053  27.384  26.139  1.00  0.00     0.152 C 
BRANCH   5   6
ATOM      6  C   UNL A   1      32.299  25.867  26.075  1.00  0.00     0.123 C 
BRANCH   6   7
ATOM      7  C   UNL A   1      32.475  25.358  24.652  1.00  0.00    -0.025 A 
ATOM      8  C   UNL A   1      32.915  24.704  21.954  1.00  0.00     0.118 A 
ATOM      9  C   UNL A   1      31.618  24.879  22.427  1.00  0.00     0.047 A 
ATOM     10  C   UNL A   1      33.998  24.834  22.819  1.00  0.00     0.047 A 
ATOM     11  C   UNL A   1      31.398  25.175  23.774  1.00  0.00     0.010 A 
ATOM     12  C   UNL A   1      33.778  25.159  24.159  1.00  0.00     0.010 A 
BRANCH   8  13
ATOM     13  O   UNL A   1      33.061  24.505  20.609  1.00  0.00    -0.497 OA
ATOM     14  C   UNL A   1      32.528  25.578  19.839  1.00  0.00     0.278 C 
ENDBRANCH   8  13
ENDBRANCH   6   7
BRANCH   6  15
ATOM     15  N   UNL A   1      31.367  25.070  26.865  1.00  0.00    -0.345 N 
ATOM     16  C   UNL A   1      31.208  23.710  26.960  1.00  0.00     0.252 C 
ATOM     17  H   UNL A   1      30.749  25.595  27.423  1.00  0.00     0.164 HD
ATOM     18  O   UNL A   1      30.217  23.227  27.498  1.00  0.00    -0.269 OA
BRANCH  16  19
ATOM     19  C   UNL A   1      32.220  22.789  26.409  1.00  0.00     0.046 A 
ATOM     20  C   UNL A   1      33.550  22.926  26.823  1.00  0.00     0.016 A 
ATOM     21  C   UNL A   1      31.884  21.833  25.450  1.00  0.00     0.101 A 
ATOM     22  C   UNL A   1      34.530  22.054  26.338  1.00  0.00     0.028 A 
ATOM     23  C   UNL A   1      32.873  20.952  24.983  1.00  0.00     0.288 A 
ATOM     24  C   UNL A   1      34.194  21.040  25.432  1.00  0.00     0.118 A 
ATOM     25  Cl  UNL A   1      35.445  19.931  25.006  1.00  0.00    -0.077 Cl
BRANCH  23  26
ATOM     26  N   UNL A   1      32.444  19.902  24.074  1.00  0.00     0.064 N 
ATOM     27  O   UNL A   1      32.372  20.160  22.868  1.00  0.00    -0.258 OA
ATOM     28  O   UNL A   1      32.153  18.813  24.592  1.00  0.00    -0.258 OA
ENDBRANCH  23  26
ENDBRANCH  16  19
ENDBRANCH   6  15
ENDBRANCH   5   6
ENDBRANCH   3   5
ENDBRANCH   2   3
ENDBRANCH   1   2
BRANCH   1  29
ATOM     29  C   UNL A   1      34.800  30.916  27.976  1.00  0.00     0.275 C 
BRANCH  29  30
ATOM     30  O   UNL A   1      35.602  29.858  28.529  1.00  0.00    -0.458 OA
BRANCH  30  31
ATOM     31  C   UNL A   1      36.496  30.256  29.463  1.00  0.00     0.338 C 
ATOM     32  O   UNL A   1      36.237  30.753  30.547  1.00  0.00    -0.246 OA
BRANCH  31  33
ATOM     33  C   UNL A   1      37.851  29.852  29.062  1.00  0.00     0.060 A 
ATOM     34  C   UNL A   1      38.820  29.698  30.057  1.00  0.00     0.016 A 
ATOM     35  C   UNL A   1      38.183  29.688  27.718  1.00  0.00     0.016 A 
ATOM     36  C   UNL A   1      40.130  29.379  29.716  1.00  0.00     0.010 A 
ATOM     37  C   UNL A   1      39.498  29.356  27.376  1.00  0.00     0.010 A 
ATOM     38  C   UNL A   1      40.479  29.205  28.372  1.00  0.00    -0.014 A 
BRANCH  38  39
ATOM     39  C   UNL A   1      41.879  28.876  28.016  1.00  0.00     0.031 A 
ATOM     40  C   UNL A   1      42.251  27.464  27.664  1.00  0.00     0.074 A 
ATOM     41  C   UNL A   1      42.806  29.851  27.999  1.00  0.00     0.049 A 
ATOM     42  N   UNL A   1      43.432  26.964  27.406  1.00  0.00    -0.248 NA
ATOM     43  C   UNL A   1      41.152  26.489  27.593  1.00  0.00     0.031 C 
ATOM     44  C   UNL A   1      42.550  31.263  28.289  1.00  0.00     0.029 A 
ATOM     45  N   UNL A   1      44.151  29.803  27.734  1.00  0.00    -0.354 N 
ATOM     46  C   UNL A   1      43.225  25.612  27.166  1.00  0.00     0.074 A 
ATOM     47  C   UNL A   1      41.806  25.368  27.321  1.00  0.00     0.031 C 
ATOM     48  C   UNL A   1      43.701  31.947  28.185  1.00  0.00     0.029 A 
ATOM     49  C   UNL A   1      44.780  31.017  27.867  1.00  0.00     0.049 A 
ATOM     50  H   UNL A   1      44.619  28.978  27.472  1.00  0.00     0.167 HD
ATOM     51  C   UNL A   1      44.138  24.664  26.844  1.00  0.00     0.037 A 
ATOM     52  C   UNL A   1      46.085  31.339  27.771  1.00  0.00     0.037 A 
ATOM     53  C   UNL A   1      45.547  24.920  26.679  1.00  0.00     0.049 A 
ATOM     54  C   UNL A   1      47.083  30.261  27.449  1.00  0.00     0.074 A 
ATOM     55  C   UNL A   1      46.550  24.028  26.343  1.00  0.00     0.029 A 
ATOM     56  N   UNL A   1      46.150  26.159  26.836  1.00  0.00    -0.354 N 
ATOM     57  N   UNL A   1      46.875  28.983  27.233  1.00  0.00    -0.248 NA
ATOM     58  C   UNL A   1      48.493  30.666  27.361  1.00  0.00     0.031 C 
ATOM     59  C   UNL A   1      47.766  24.722  26.329  1.00  0.00     0.029 A 
ATOM     60  C   UNL A   1      47.515  26.054  26.618  1.00  0.00     0.049 A 
ATOM     61  H   UNL A   1      45.678  26.992  27.067  1.00  0.00     0.167 HD
ATOM     62  C   UNL A   1      48.124  28.435  26.966  1.00  0.00     0.074 A 
ATOM     63  C   UNL A   1      49.080  29.522  27.035  1.00  0.00     0.031 C 
ATOM     64  C   UNL A   1      48.450  27.149  26.689  1.00  0.00     0.037 A 
BRANCH  51  65
ATOM     65  C   UNL A   1      43.643  23.255  26.677  1.00  0.00     0.058 A 
ATOM     66  C   UNL A   1      43.519  22.661  25.411  1.00  0.00     0.135 A 
ATOM     67  C   UNL A   1      43.313  22.479  27.800  1.00  0.00     0.135 A 
ATOM     68  F   UNL A   1      43.804  23.362  24.303  1.00  0.00    -0.206 F 
ATOM     69  C   UNL A   1      43.059  21.355  25.264  1.00  0.00     0.059 A 
ATOM     70  C   UNL A   1      42.874  21.164  27.678  1.00  0.00     0.059 A 
ATOM     71  F   UNL A   1      43.414  23.001  29.033  1.00  0.00    -0.206 F 
ATOM     72  C   UNL A   1      42.736  20.616  26.403  1.00  0.00     0.060 A 
BRANCH  72  73
ATOM     73  S   UNL A   1      42.141  18.923  26.200  1.00  0.00     0.124 S 
ATOM     74  O   UNL A   1      40.770  19.148  25.750  1.00  0.00    -0.237 OA
ATOM     75  O   UNL A   1      43.055  18.386  25.197  1.00  0.00    -0.237 OA
ATOM     76  O   UNL A   1      42.277  18.352  27.536  1.00  0.00    -0.744 OA
ENDBRANCH  72  73
ENDBRANCH  51  65
BRANCH  52  77
ATOM     77  C   UNL A   1      46.520  32.741  27.999  1.00  0.00     0.058 A 
ATOM     78  C   UNL A   1      46.480  33.689  26.967  1.00  0.00     0.135 A 
ATOM     79  C   UNL A   1      46.967  33.164  29.260  1.00  0.00     0.135 A 
ATOM     80  F   UNL A   1      46.068  33.328  25.741  1.00  0.00    -0.206 F 
ATOM     81  C   UNL A   1      46.877  35.005  27.172  1.00  0.00     0.059 A 
ATOM     82  C   UNL A   1      47.348  34.481  29.496  1.00  0.00     0.059 A 
ATOM     83  F   UNL A   1      47.013  32.298  30.284  1.00  0.00    -0.206 F 
ATOM     84  C   UNL A   1      47.307  35.393  28.443  1.00  0.00     0.060 A 
BRANCH  84  85
ATOM     85  S   UNL A   1      47.769  37.117  28.716  1.00  0.00     0.124 S 
ATOM     86  O   UNL A   1      47.776  37.192  30.173  1.00  0.00    -0.237 OA
ATOM     87  O   UNL A   1      49.074  37.196  28.067  1.00  0.00    -0.237 OA
ATOM     88  O   UNL A   1      46.701  37.859  28.051  1.00  0.00    -0.744 OA
ENDBRANCH  84  85
ENDBRANCH  52  77
BRANCH  64  89
ATOM     89  C   UNL A   1      49.898  26.853  26.414  1.00  0.00     0.058 A 
ATOM     90  C   UNL A   1      50.788  26.514  27.444  1.00  0.00     0.135 A 
ATOM     91  C   UNL A   1      50.391  26.878  25.100  1.00  0.00     0.135 A 
ATOM     92  F   UNL A   1      50.368  26.483  28.719  1.00  0.00    -0.206 F 
ATOM     93  C   UNL A   1      52.125  26.232  27.184  1.00  0.00     0.059 A 
ATOM     94  C   UNL A   1      51.719  26.578  24.813  1.00  0.00     0.059 A 
ATOM     95  F   UNL A   1      49.577  27.187  24.078  1.00  0.00    -0.206 F 
ATOM     96  C   UNL A   1      52.582  26.269  25.864  1.00  0.00     0.060 A 
BRANCH  96  97
ATOM     97  S   UNL A   1      54.314  25.881  25.533  1.00  0.00     0.124 S 
ATOM     98  O   UNL A   1      54.358  25.955  24.077  1.00  0.00    -0.237 OA
ATOM     99  O   UNL A   1      55.018  26.945  26.243  1.00  0.00    -0.237 OA
ATOM    100  O   UNL A   1      54.476  24.545  26.101  1.00  0.00    -0.744 OA
ENDBRANCH  96  97
ENDBRANCH  64  89
ENDBRANCH  38  39
ENDBRANCH  31  33
ENDBRANCH  30  31
ENDBRANCH  29  30
ENDBRANCH   1  29
TORSDOF 20
ENDMDL
