MODEL 1
REMARK VINA RESULT:     -11.7      0.000      0.000
REMARK SMILES CC[C@@]1(C)NC(=O)N(/N=C/c2ccccc2C(=O)OCCOC(=O)c2ccc(-c3c4nc(c(-c5c(F)cc(S(=O)(=O)[O-])cc5F)c5ccc([nH]5)c(-c5c(F)cc(S(=O)(=O)[O-])cc5F)c5nc(c(-c6c(F)cc(S(=O)(=O)[O-])cc6F)c6ccc3[nH]6)C=C5)C=C4)cc2)C1=O
REMARK SMILES IDX 20 1 19 2 17 3 18 4 16 5 11 6 12 7 13 8 15 9 14 10 10 11
REMARK SMILES IDX 9 12 8 13 3 14 4 15 5 16 91 17 6 18 92 20 7 21 2 22 1 23
REMARK SMILES IDX 21 24 22 25 23 26 24 27 25 28 26 29 90 30 27 31 89 32 28 33
REMARK SMILES IDX 29 34 30 35 83 36 31 37 88 38 82 39 84 40 32 41 87 42 81 43
REMARK SMILES IDX 80 44 33 46 67 47 46 48 66 49 47 50 50 51 65 52 85 53 48 54
REMARK SMILES IDX 49 55 64 57 86 58 51 59 34 60 35 61 44 62 36 63 37 64 43 65
REMARK SMILES IDX 45 66 38 67 39 68 40 69 41 70 42 71 68 72 69 73 78 74 70 75
REMARK SMILES IDX 71 76 77 77 79 78 72 79 73 80 74 81 75 82 76 83 52 84 53 85
REMARK SMILES IDX 62 86 54 87 55 88 61 89 63 90 56 91 57 92 58 93 59 94 60 95
REMARK H PARENT 5 19 84 45 50 56
REMARK Flexibility Score: inf
ROOT
ATOM      1  C   UNL A   1      33.256  29.029  27.092  1.00  0.00     0.275 C 
ENDROOT
BRANCH   1   2
ATOM      2  O   UNL A   1      32.271  29.540  26.171  1.00  0.00    -0.458 OA
BRANCH   2   3
ATOM      3  C   UNL A   1      32.410  29.146  24.878  1.00  0.00     0.338 C 
ATOM      4  O   UNL A   1      33.453  28.954  24.282  1.00  0.00    -0.246 OA
BRANCH   3   5
ATOM      5  C   UNL A   1      31.094  28.802  24.289  1.00  0.00     0.068 A 
ATOM      6  C   UNL A   1      30.579  27.504  24.206  1.00  0.00     0.009 A 
ATOM      7  C   UNL A   1      29.339  27.283  23.581  1.00  0.00     0.010 A 
ATOM      8  C   UNL A   1      28.615  28.349  23.046  1.00  0.00     0.001 A 
ATOM      9  C   UNL A   1      30.334  29.871  23.781  1.00  0.00     0.016 A 
ATOM     10  C   UNL A   1      29.112  29.644  23.145  1.00  0.00     0.001 A 
BRANCH   6  11
ATOM     11  C   UNL A   1      31.257  26.306  24.740  1.00  0.00     0.143 C 
ATOM     12  N   UNL A   1      30.660  25.165  24.846  1.00  0.00    -0.169 NA
BRANCH  12  13
ATOM     13  N   UNL A   1      31.318  24.114  25.428  1.00  0.00    -0.146 N 
ATOM     14  C   UNL A   1      32.796  22.388  26.054  1.00  0.00     0.120 C 
ATOM     15  C   UNL A   1      32.585  21.021  25.401  1.00  0.00     0.045 C 
ATOM     16  N   UNL A   1      31.764  22.614  27.029  1.00  0.00    -0.322 N 
ATOM     17  C   UNL A   1      32.474  23.480  25.015  1.00  0.00     0.276 C 
ATOM     18  C   UNL A   1      30.849  23.561  26.604  1.00  0.00     0.346 C 
ATOM     19  H   UNL A   1      31.713  22.150  27.897  1.00  0.00     0.166 HD
ATOM     20  O   UNL A   1      33.142  23.663  24.003  1.00  0.00    -0.270 OA
ATOM     21  O   UNL A   1      29.836  23.808  27.239  1.00  0.00    -0.246 OA
BRANCH  14  22
ATOM     22  C   UNL A   1      34.213  22.524  26.625  1.00  0.00     0.035 C 
ATOM     23  C   UNL A   1      35.169  21.392  26.258  1.00  0.00     0.007 C 
ENDBRANCH  14  22
ENDBRANCH  12  13
ENDBRANCH   6  11
ENDBRANCH   3   5
ENDBRANCH   2   3
ENDBRANCH   1   2
BRANCH   1  24
ATOM     24  C   UNL A   1      34.306  30.085  27.413  1.00  0.00     0.275 C 
BRANCH  24  25
ATOM     25  O   UNL A   1      35.464  29.455  27.977  1.00  0.00    -0.458 OA
BRANCH  25  26
ATOM     26  C   UNL A   1      36.082  30.171  28.941  1.00  0.00     0.338 C 
ATOM     27  O   UNL A   1      35.575  30.814  29.846  1.00  0.00    -0.246 OA
BRANCH  26  28
ATOM     28  C   UNL A   1      37.526  29.969  28.812  1.00  0.00     0.060 A 
ATOM     29  C   UNL A   1      38.033  29.696  27.544  1.00  0.00     0.016 A 
ATOM     30  C   UNL A   1      38.349  29.936  29.933  1.00  0.00     0.016 A 
ATOM     31  C   UNL A   1      39.360  29.310  27.393  1.00  0.00     0.010 A 
ATOM     32  C   UNL A   1      39.700  29.618  29.771  1.00  0.00     0.010 A 
ATOM     33  C   UNL A   1      40.212  29.265  28.505  1.00  0.00    -0.014 A 
BRANCH  33  34
ATOM     34  C   UNL A   1      41.617  28.798  28.360  1.00  0.00     0.031 A 
ATOM     35  C   UNL A   1      42.748  29.788  28.462  1.00  0.00     0.074 A 
ATOM     36  C   UNL A   1      41.883  27.494  28.135  1.00  0.00     0.049 A 
ATOM     37  N   UNL A   1      44.015  29.629  28.177  1.00  0.00    -0.248 NA
ATOM     38  C   UNL A   1      42.406  31.141  28.930  1.00  0.00     0.031 C 
ATOM     39  C   UNL A   1      40.884  26.427  28.043  1.00  0.00     0.029 A 
ATOM     40  N   UNL A   1      43.077  26.846  27.934  1.00  0.00    -0.354 N 
ATOM     41  C   UNL A   1      44.606  30.875  28.361  1.00  0.00     0.074 A 
ATOM     42  C   UNL A   1      43.561  31.779  28.793  1.00  0.00     0.031 C 
ATOM     43  C   UNL A   1      41.505  25.259  27.822  1.00  0.00     0.029 A 
ATOM     44  C   UNL A   1      42.935  25.502  27.674  1.00  0.00     0.049 A 
ATOM     45  H   UNL A   1      43.950  27.299  27.972  1.00  0.00     0.167 HD
ATOM     46  C   UNL A   1      45.900  31.228  28.181  1.00  0.00     0.037 A 
ATOM     47  C   UNL A   1      43.845  24.578  27.307  1.00  0.00     0.037 A 
ATOM     48  C   UNL A   1      46.945  30.304  27.824  1.00  0.00     0.049 A 
ATOM     49  C   UNL A   1      45.278  24.993  27.128  1.00  0.00     0.074 A 
ATOM     50  C   UNL A   1      48.298  30.553  27.668  1.00  0.00     0.029 A 
ATOM     51  N   UNL A   1      46.759  28.950  27.584  1.00  0.00    -0.354 N 
ATOM     52  N   UNL A   1      45.816  26.180  27.278  1.00  0.00    -0.248 NA
ATOM     53  C   UNL A   1      46.227  23.949  26.717  1.00  0.00     0.031 C 
ATOM     54  C   UNL A   1      48.924  29.358  27.300  1.00  0.00     0.029 A 
ATOM     55  C   UNL A   1      47.969  28.355  27.268  1.00  0.00     0.049 A 
ATOM     56  H   UNL A   1      45.894  28.483  27.631  1.00  0.00     0.167 HD
ATOM     57  C   UNL A   1      47.165  26.025  26.984  1.00  0.00     0.074 A 
ATOM     58  C   UNL A   1      47.367  24.625  26.672  1.00  0.00     0.031 C 
ATOM     59  C   UNL A   1      48.148  26.959  26.966  1.00  0.00     0.037 A 
BRANCH  46  60
ATOM     60  C   UNL A   1      46.266  32.679  28.334  1.00  0.00     0.058 A 
ATOM     61  C   UNL A   1      46.717  33.214  29.548  1.00  0.00     0.135 A 
ATOM     62  C   UNL A   1      46.224  33.533  27.217  1.00  0.00     0.135 A 
ATOM     63  F   UNL A   1      46.759  32.448  30.650  1.00  0.00    -0.206 F 
ATOM     64  C   UNL A   1      47.102  34.548  29.658  1.00  0.00     0.059 A 
ATOM     65  C   UNL A   1      46.626  34.863  27.298  1.00  0.00     0.059 A 
ATOM     66  F   UNL A   1      45.797  33.073  26.031  1.00  0.00    -0.206 F 
ATOM     67  C   UNL A   1      47.055  35.364  28.525  1.00  0.00     0.060 A 
BRANCH  67  68
ATOM     68  S   UNL A   1      47.587  37.083  28.673  1.00  0.00     0.124 S 
ATOM     69  O   UNL A   1      49.037  36.950  28.567  1.00  0.00    -0.237 OA
ATOM     70  O   UNL A   1      46.925  37.716  27.537  1.00  0.00    -0.237 OA
ATOM     71  O   UNL A   1      47.088  37.482  29.987  1.00  0.00    -0.744 OA
ENDBRANCH  67  68
ENDBRANCH  46  60
BRANCH  47  72
ATOM     72  C   UNL A   1      43.411  23.182  27.027  1.00  0.00     0.058 A 
ATOM     73  C   UNL A   1      43.319  22.698  25.714  1.00  0.00     0.135 A 
ATOM     74  C   UNL A   1      43.089  22.302  28.072  1.00  0.00     0.135 A 
ATOM     75  F   UNL A   1      43.607  23.503  24.680  1.00  0.00    -0.206 F 
ATOM     76  C   UNL A   1      42.910  21.394  25.446  1.00  0.00     0.059 A 
ATOM     77  C   UNL A   1      42.706  20.987  27.831  1.00  0.00     0.059 A 
ATOM     78  F   UNL A   1      43.172  22.713  29.348  1.00  0.00    -0.206 F 
ATOM     79  C   UNL A   1      42.607  20.546  26.513  1.00  0.00     0.060 A 
BRANCH  79  80
ATOM     80  S   UNL A   1      42.120  18.843  26.162  1.00  0.00     0.124 S 
ATOM     81  O   UNL A   1      43.053  18.485  25.099  1.00  0.00    -0.237 OA
ATOM     82  O   UNL A   1      42.337  18.188  27.449  1.00  0.00    -0.237 OA
ATOM     83  O   UNL A   1      40.722  18.971  25.761  1.00  0.00    -0.744 OA
ENDBRANCH  79  80
ENDBRANCH  47  72
BRANCH  59  84
ATOM     84  C   UNL A   1      49.533  26.489  26.623  1.00  0.00     0.058 A 
ATOM     85  C   UNL A   1      50.424  26.045  27.611  1.00  0.00     0.135 A 
ATOM     86  C   UNL A   1      49.959  26.449  25.286  1.00  0.00     0.135 A 
ATOM     87  F   UNL A   1      50.066  26.071  28.905  1.00  0.00    -0.206 F 
ATOM     88  C   UNL A   1      51.700  25.596  27.288  1.00  0.00     0.059 A 
ATOM     89  C   UNL A   1      51.222  25.981  24.938  1.00  0.00     0.059 A 
ATOM     90  F   UNL A   1      49.140  26.853  24.302  1.00  0.00    -0.206 F 
ATOM     91  C   UNL A   1      52.090  25.569  25.949  1.00  0.00     0.060 A 
BRANCH  91  92
ATOM     92  S   UNL A   1      53.741  24.964  25.537  1.00  0.00     0.124 S 
ATOM     93  O   UNL A   1      54.132  25.881  24.472  1.00  0.00    -0.237 OA
ATOM     94  O   UNL A   1      54.455  25.116  26.800  1.00  0.00    -0.237 OA
ATOM     95  O   UNL A   1      53.502  23.585  25.122  1.00  0.00    -0.744 OA
ENDBRANCH  91  92
ENDBRANCH  59  84
ENDBRANCH  33  34
ENDBRANCH  26  28
ENDBRANCH  25  26
ENDBRANCH  24  25
ENDBRANCH   1  24
TORSDOF 17
ENDMDL
MODEL 2
REMARK VINA RESULT:     -11.6      6.747     12.189
REMARK SMILES CC[C@@]1(C)NC(=O)N(/N=C/c2ccccc2C(=O)OCCOC(=O)c2ccc(-c3c4nc(c(-c5c(F)cc(S(=O)(=O)[O-])cc5F)c5ccc([nH]5)c(-c5c(F)cc(S(=O)(=O)[O-])cc5F)c5nc(c(-c6c(F)cc(S(=O)(=O)[O-])cc6F)c6ccc3[nH]6)C=C5)C=C4)cc2)C1=O
REMARK SMILES IDX 20 1 19 2 17 3 18 4 16 5 11 6 12 7 13 8 15 9 14 10 10 11
REMARK SMILES IDX 9 12 8 13 3 14 4 15 5 16 91 17 6 18 92 20 7 21 2 22 1 23
REMARK SMILES IDX 21 24 22 25 23 26 24 27 25 28 26 29 90 30 27 31 89 32 28 33
REMARK SMILES IDX 29 34 30 35 83 36 31 37 88 38 82 39 84 40 32 41 87 42 81 43
REMARK SMILES IDX 80 44 33 46 67 47 46 48 66 49 47 50 50 51 65 52 85 53 48 54
REMARK SMILES IDX 49 55 64 57 86 58 51 59 34 60 35 61 44 62 36 63 37 64 43 65
REMARK SMILES IDX 45 66 38 67 39 68 40 69 41 70 42 71 68 72 69 73 78 74 70 75
REMARK SMILES IDX 71 76 77 77 79 78 72 79 73 80 74 81 75 82 76 83 52 84 53 85
REMARK SMILES IDX 62 86 54 87 55 88 61 89 63 90 56 91 57 92 58 93 59 94 60 95
REMARK H PARENT 5 19 84 45 50 56
REMARK Flexibility Score: inf
ROOT
ATOM      1  C   UNL A   1      37.565  22.429  25.715  1.00  0.00     0.275 C 
ENDROOT
BRANCH   1   2
ATOM      2  O   UNL A   1      36.314  22.714  25.054  1.00  0.00    -0.458 OA
BRANCH   2   3
ATOM      3  C   UNL A   1      35.192  22.443  25.771  1.00  0.00     0.338 C 
ATOM      4  O   UNL A   1      34.868  22.939  26.833  1.00  0.00    -0.246 OA
BRANCH   3   5
ATOM      5  C   UNL A   1      34.281  21.558  25.007  1.00  0.00     0.068 A 
ATOM      6  C   UNL A   1      33.209  22.008  24.228  1.00  0.00     0.009 A 
ATOM      7  C   UNL A   1      32.375  21.077  23.584  1.00  0.00     0.010 A 
ATOM      8  C   UNL A   1      32.612  19.708  23.709  1.00  0.00     0.001 A 
ATOM      9  C   UNL A   1      34.531  20.177  25.091  1.00  0.00     0.016 A 
ATOM     10  C   UNL A   1      33.689  19.256  24.463  1.00  0.00     0.001 A 
BRANCH   6  11
ATOM     11  C   UNL A   1      32.870  23.431  24.024  1.00  0.00     0.143 C 
ATOM     12  N   UNL A   1      32.393  23.873  22.908  1.00  0.00    -0.169 NA
BRANCH  12  13
ATOM     13  N   UNL A   1      32.179  25.218  22.755  1.00  0.00    -0.146 N 
ATOM     14  C   UNL A   1      31.624  27.498  22.972  1.00  0.00     0.120 C 
ATOM     15  C   UNL A   1      30.207  27.909  22.573  1.00  0.00     0.045 C 
ATOM     16  N   UNL A   1      32.392  27.225  21.787  1.00  0.00    -0.322 N 
ATOM     17  C   UNL A   1      31.563  26.101  23.620  1.00  0.00     0.276 C 
ATOM     18  C   UNL A   1      32.626  25.871  21.623  1.00  0.00     0.346 C 
ATOM     19  H   UNL A   1      32.712  27.919  21.165  1.00  0.00     0.166 HD
ATOM     20  O   UNL A   1      31.007  25.880  24.691  1.00  0.00    -0.270 OA
ATOM     21  O   UNL A   1      33.160  25.428  20.618  1.00  0.00    -0.246 OA
BRANCH  14  22
ATOM     22  C   UNL A   1      32.273  28.541  23.891  1.00  0.00     0.035 C 
ATOM     23  C   UNL A   1      31.296  29.370  24.718  1.00  0.00     0.007 C 
ENDBRANCH  14  22
ENDBRANCH  12  13
ENDBRANCH   6  11
ENDBRANCH   3   5
ENDBRANCH   2   3
ENDBRANCH   1   2
BRANCH   1  24
ATOM     24  C   UNL A   1      38.389  23.697  25.898  1.00  0.00     0.275 C 
BRANCH  24  25
ATOM     25  O   UNL A   1      39.291  23.528  27.001  1.00  0.00    -0.458 OA
BRANCH  25  26
ATOM     26  C   UNL A   1      40.412  24.277  26.931  1.00  0.00     0.338 C 
ATOM     27  O   UNL A   1      41.390  24.108  26.220  1.00  0.00    -0.246 OA
BRANCH  26  28
ATOM     28  C   UNL A   1      40.240  25.447  27.793  1.00  0.00     0.060 A 
ATOM     29  C   UNL A   1      41.152  26.491  27.658  1.00  0.00     0.016 A 
ATOM     30  C   UNL A   1      39.270  25.469  28.788  1.00  0.00     0.016 A 
ATOM     31  C   UNL A   1      41.152  27.538  28.574  1.00  0.00     0.010 A 
ATOM     32  C   UNL A   1      39.225  26.557  29.665  1.00  0.00     0.010 A 
ATOM     33  C   UNL A   1      40.188  27.584  29.590  1.00  0.00    -0.014 A 
BRANCH  33  34
ATOM     34  C   UNL A   1      40.218  28.670  30.607  1.00  0.00     0.031 A 
ATOM     35  C   UNL A   1      41.192  28.594  31.755  1.00  0.00     0.074 A 
ATOM     36  C   UNL A   1      39.377  29.721  30.509  1.00  0.00     0.049 A 
ATOM     37  N   UNL A   1      41.251  29.321  32.840  1.00  0.00    -0.248 NA
ATOM     38  C   UNL A   1      42.226  27.548  31.679  1.00  0.00     0.031 C 
ATOM     39  C   UNL A   1      38.406  29.933  29.433  1.00  0.00     0.029 A 
ATOM     40  N   UNL A   1      39.199  30.805  31.332  1.00  0.00    -0.354 N 
ATOM     41  C   UNL A   1      42.276  28.779  33.607  1.00  0.00     0.074 A 
ATOM     42  C   UNL A   1      42.821  27.666  32.859  1.00  0.00     0.031 C 
ATOM     43  C   UNL A   1      37.747  31.082  29.653  1.00  0.00     0.029 A 
ATOM     44  C   UNL A   1      38.190  31.646  30.922  1.00  0.00     0.049 A 
ATOM     45  H   UNL A   1      39.741  30.966  32.139  1.00  0.00     0.167 HD
ATOM     46  C   UNL A   1      42.717  29.173  34.825  1.00  0.00     0.037 A 
ATOM     47  C   UNL A   1      37.644  32.721  31.525  1.00  0.00     0.037 A 
ATOM     48  C   UNL A   1      42.218  30.328  35.526  1.00  0.00     0.049 A 
ATOM     49  C   UNL A   1      38.161  33.147  32.870  1.00  0.00     0.074 A 
ATOM     50  C   UNL A   1      42.634  30.842  36.742  1.00  0.00     0.029 A 
ATOM     51  N   UNL A   1      41.205  31.158  35.069  1.00  0.00    -0.354 N 
ATOM     52  N   UNL A   1      39.112  32.607  33.595  1.00  0.00    -0.248 NA
ATOM     53  C   UNL A   1      37.524  34.319  33.487  1.00  0.00     0.031 C 
ATOM     54  C   UNL A   1      41.851  31.962  37.036  1.00  0.00     0.029 A 
ATOM     55  C   UNL A   1      40.975  32.171  35.984  1.00  0.00     0.049 A 
ATOM     56  H   UNL A   1      40.723  31.043  34.218  1.00  0.00     0.167 HD
ATOM     57  C   UNL A   1      39.190  33.376  34.751  1.00  0.00     0.074 A 
ATOM     58  C   UNL A   1      38.208  34.432  34.617  1.00  0.00     0.031 C 
ATOM     59  C   UNL A   1      39.996  33.216  35.829  1.00  0.00     0.037 A 
BRANCH  46  60
ATOM     60  C   UNL A   1      43.770  28.339  35.501  1.00  0.00     0.058 A 
ATOM     61  C   UNL A   1      43.450  27.256  36.331  1.00  0.00     0.135 A 
ATOM     62  C   UNL A   1      45.131  28.596  35.255  1.00  0.00     0.135 A 
ATOM     63  F   UNL A   1      42.167  26.977  36.614  1.00  0.00    -0.206 F 
ATOM     64  C   UNL A   1      44.439  26.463  36.906  1.00  0.00     0.059 A 
ATOM     65  C   UNL A   1      46.136  27.802  35.800  1.00  0.00     0.059 A 
ATOM     66  F   UNL A   1      45.494  29.623  34.470  1.00  0.00    -0.206 F 
ATOM     67  C   UNL A   1      45.780  26.742  36.632  1.00  0.00     0.060 A 
BRANCH  67  68
ATOM     68  S   UNL A   1      47.051  25.686  37.359  1.00  0.00     0.124 S 
ATOM     69  O   UNL A   1      47.112  26.199  38.723  1.00  0.00    -0.237 OA
ATOM     70  O   UNL A   1      46.475  24.353  37.209  1.00  0.00    -0.237 OA
ATOM     71  O   UNL A   1      48.227  25.952  36.535  1.00  0.00    -0.744 OA
ENDBRANCH  67  68
ENDBRANCH  46  60
BRANCH  47  72
ATOM     72  C   UNL A   1      36.504  33.431  30.882  1.00  0.00     0.058 A 
ATOM     73  C   UNL A   1      36.700  34.267  29.775  1.00  0.00     0.135 A 
ATOM     74  C   UNL A   1      35.194  33.278  31.362  1.00  0.00     0.135 A 
ATOM     75  F   UNL A   1      37.935  34.455  29.284  1.00  0.00    -0.206 F 
ATOM     76  C   UNL A   1      35.639  34.938  29.172  1.00  0.00     0.059 A 
ATOM     77  C   UNL A   1      34.114  33.914  30.760  1.00  0.00     0.059 A 
ATOM     78  F   UNL A   1      34.951  32.478  32.414  1.00  0.00    -0.206 F 
ATOM     79  C   UNL A   1      34.349  34.753  29.672  1.00  0.00     0.060 A 
BRANCH  79  80
ATOM     80  S   UNL A   1      32.969  35.589  28.859  1.00  0.00     0.124 S 
ATOM     81  O   UNL A   1      32.362  34.493  28.114  1.00  0.00    -0.237 OA
ATOM     82  O   UNL A   1      32.202  36.093  29.994  1.00  0.00    -0.237 OA
ATOM     83  O   UNL A   1      33.628  36.614  28.054  1.00  0.00    -0.744 OA
ENDBRANCH  79  80
ENDBRANCH  47  72
BRANCH  59  84
ATOM     84  C   UNL A   1      39.867  34.224  36.936  1.00  0.00     0.058 A 
ATOM     85  C   UNL A   1      40.555  35.446  36.900  1.00  0.00     0.135 A 
ATOM     86  C   UNL A   1      39.016  33.978  38.025  1.00  0.00     0.135 A 
ATOM     87  F   UNL A   1      41.386  35.725  35.883  1.00  0.00    -0.206 F 
ATOM     88  C   UNL A   1      40.421  36.383  37.919  1.00  0.00     0.059 A 
ATOM     89  C   UNL A   1      38.849  34.910  39.043  1.00  0.00     0.059 A 
ATOM     90  F   UNL A   1      38.328  32.827  38.100  1.00  0.00    -0.206 F 
ATOM     91  C   UNL A   1      39.566  36.105  38.987  1.00  0.00     0.060 A 
BRANCH  91  92
ATOM     92  S   UNL A   1      39.381  37.337  40.294  1.00  0.00     0.124 S 
ATOM     93  O   UNL A   1      38.559  38.345  39.633  1.00  0.00    -0.237 OA
ATOM     94  O   UNL A   1      38.723  36.576  41.352  1.00  0.00    -0.237 OA
ATOM     95  O   UNL A   1      40.756  37.736  40.581  1.00  0.00    -0.744 OA
ENDBRANCH  91  92
ENDBRANCH  59  84
ENDBRANCH  33  34
ENDBRANCH  26  28
ENDBRANCH  25  26
ENDBRANCH  24  25
ENDBRANCH   1  24
TORSDOF 17
ENDMDL
MODEL 3
REMARK VINA RESULT:     -11.6      2.358      3.157
REMARK SMILES CC[C@@]1(C)NC(=O)N(/N=C/c2ccccc2C(=O)OCCOC(=O)c2ccc(-c3c4nc(c(-c5c(F)cc(S(=O)(=O)[O-])cc5F)c5ccc([nH]5)c(-c5c(F)cc(S(=O)(=O)[O-])cc5F)c5nc(c(-c6c(F)cc(S(=O)(=O)[O-])cc6F)c6ccc3[nH]6)C=C5)C=C4)cc2)C1=O
REMARK SMILES IDX 20 1 19 2 17 3 18 4 16 5 11 6 12 7 13 8 15 9 14 10 10 11
REMARK SMILES IDX 9 12 8 13 3 14 4 15 5 16 91 17 6 18 92 20 7 21 2 22 1 23
REMARK SMILES IDX 21 24 22 25 23 26 24 27 25 28 26 29 90 30 27 31 89 32 28 33
REMARK SMILES IDX 29 34 30 35 83 36 31 37 88 38 82 39 84 40 32 41 87 42 81 43
REMARK SMILES IDX 80 44 33 46 67 47 46 48 66 49 47 50 50 51 65 52 85 53 48 54
REMARK SMILES IDX 49 55 64 57 86 58 51 59 34 60 35 61 44 62 36 63 37 64 43 65
REMARK SMILES IDX 45 66 38 67 39 68 40 69 41 70 42 71 68 72 69 73 78 74 70 75
REMARK SMILES IDX 71 76 77 77 79 78 72 79 73 80 74 81 75 82 76 83 52 84 53 85
REMARK SMILES IDX 62 86 54 87 55 88 61 89 63 90 56 91 57 92 58 93 59 94 60 95
REMARK H PARENT 5 19 84 45 50 56
REMARK Flexibility Score: inf
ROOT
ATOM      1  C   UNL A   1      32.220  27.400  26.554  1.00  0.00     0.275 C 
ENDROOT
BRANCH   1   2
ATOM      2  O   UNL A   1      30.918  26.849  26.843  1.00  0.00    -0.458 OA
BRANCH   2   3
ATOM      3  C   UNL A   1      30.547  25.782  26.088  1.00  0.00     0.338 C 
ATOM      4  O   UNL A   1      29.965  24.785  26.472  1.00  0.00    -0.246 OA
BRANCH   3   5
ATOM      5  C   UNL A   1      30.793  26.044  24.650  1.00  0.00     0.068 A 
ATOM      6  C   UNL A   1      31.766  25.395  23.883  1.00  0.00     0.009 A 
ATOM      7  C   UNL A   1      31.950  25.757  22.537  1.00  0.00     0.010 A 
ATOM      8  C   UNL A   1      31.165  26.755  21.957  1.00  0.00     0.001 A 
ATOM      9  C   UNL A   1      29.983  27.020  24.042  1.00  0.00     0.016 A 
ATOM     10  C   UNL A   1      30.182  27.388  22.709  1.00  0.00     0.001 A 
BRANCH   6  11
ATOM     11  C   UNL A   1      32.647  24.325  24.391  1.00  0.00     0.143 C 
ATOM     12  N   UNL A   1      33.798  24.572  24.923  1.00  0.00    -0.169 NA
BRANCH  12  13
ATOM     13  N   UNL A   1      34.604  23.530  25.297  1.00  0.00    -0.146 N 
ATOM     14  C   UNL A   1      36.212  21.818  25.483  1.00  0.00     0.120 C 
ATOM     15  C   UNL A   1      35.832  20.444  24.929  1.00  0.00     0.045 C 
ATOM     16  N   UNL A   1      35.504  22.048  26.713  1.00  0.00    -0.322 N 
ATOM     17  C   UNL A   1      35.596  22.898  24.574  1.00  0.00     0.276 C 
ATOM     18  C   UNL A   1      34.498  22.986  26.563  1.00  0.00     0.346 C 
ATOM     19  H   UNL A   1      35.708  21.591  27.562  1.00  0.00     0.166 HD
ATOM     20  O   UNL A   1      35.943  23.075  23.411  1.00  0.00    -0.270 OA
ATOM     21  O   UNL A   1      33.709  23.233  27.462  1.00  0.00    -0.246 OA
BRANCH  14  22
ATOM     22  C   UNL A   1      37.733  21.966  25.620  1.00  0.00     0.035 C 
ATOM     23  C   UNL A   1      38.206  23.325  26.127  1.00  0.00     0.007 C 
ENDBRANCH  14  22
ENDBRANCH  12  13
ENDBRANCH   6  11
ENDBRANCH   3   5
ENDBRANCH   2   3
ENDBRANCH   1   2
BRANCH   1  24
ATOM     24  C   UNL A   1      32.534  28.576  27.471  1.00  0.00     0.275 C 
BRANCH  24  25
ATOM     25  O   UNL A   1      33.953  28.683  27.646  1.00  0.00    -0.458 OA
BRANCH  25  26
ATOM     26  C   UNL A   1      34.394  29.927  27.928  1.00  0.00     0.338 C 
ATOM     27  O   UNL A   1      33.748  30.962  27.986  1.00  0.00    -0.246 OA
BRANCH  26  28
ATOM     28  C   UNL A   1      35.811  29.845  28.285  1.00  0.00     0.060 A 
ATOM     29  C   UNL A   1      36.748  30.083  27.281  1.00  0.00     0.016 A 
ATOM     30  C   UNL A   1      36.210  29.434  29.551  1.00  0.00     0.016 A 
ATOM     31  C   UNL A   1      38.095  29.834  27.514  1.00  0.00     0.010 A 
ATOM     32  C   UNL A   1      37.572  29.253  29.807  1.00  0.00     0.010 A 
ATOM     33  C   UNL A   1      38.526  29.415  28.781  1.00  0.00    -0.014 A 
BRANCH  33  34
ATOM     34  C   UNL A   1      39.958  29.092  29.021  1.00  0.00     0.031 A 
ATOM     35  C   UNL A   1      40.884  30.152  29.561  1.00  0.00     0.074 A 
ATOM     36  C   UNL A   1      40.434  27.857  28.757  1.00  0.00     0.049 A 
ATOM     37  N   UNL A   1      42.187  30.141  29.658  1.00  0.00    -0.248 NA
ATOM     38  C   UNL A   1      40.260  31.398  30.037  1.00  0.00     0.031 C 
ATOM     39  C   UNL A   1      39.640  26.730  28.261  1.00  0.00     0.029 A 
ATOM     40  N   UNL A   1      41.703  27.345  28.863  1.00  0.00    -0.354 N 
ATOM     41  C   UNL A   1      42.545  31.397  30.136  1.00  0.00     0.074 A 
ATOM     42  C   UNL A   1      41.319  32.144  30.321  1.00  0.00     0.031 C 
ATOM     43  C   UNL A   1      40.435  25.658  28.121  1.00  0.00     0.029 A 
ATOM     44  C   UNL A   1      41.806  26.040  28.439  1.00  0.00     0.049 A 
ATOM     45  H   UNL A   1      42.467  27.861  29.209  1.00  0.00     0.167 HD
ATOM     46  C   UNL A   1      43.783  31.880  30.393  1.00  0.00     0.037 A 
ATOM     47  C   UNL A   1      42.887  25.253  28.272  1.00  0.00     0.037 A 
ATOM     48  C   UNL A   1      44.991  31.103  30.278  1.00  0.00     0.049 A 
ATOM     49  C   UNL A   1      44.250  25.809  28.578  1.00  0.00     0.074 A 
ATOM     50  C   UNL A   1      46.290  31.485  30.564  1.00  0.00     0.029 A 
ATOM     51  N   UNL A   1      45.047  29.782  29.857  1.00  0.00    -0.354 N 
ATOM     52  N   UNL A   1      44.574  27.007  29.003  1.00  0.00    -0.248 NA
ATOM     53  C   UNL A   1      45.396  24.912  28.370  1.00  0.00     0.031 C 
ATOM     54  C   UNL A   1      47.136  30.406  30.285  1.00  0.00     0.029 A 
ATOM     55  C   UNL A   1      46.359  29.339  29.864  1.00  0.00     0.049 A 
ATOM     56  H   UNL A   1      44.268  29.241  29.594  1.00  0.00     0.167 HD
ATOM     57  C   UNL A   1      45.959  27.007  29.117  1.00  0.00     0.074 A 
ATOM     58  C   UNL A   1      46.409  25.683  28.741  1.00  0.00     0.031 C 
ATOM     59  C   UNL A   1      46.785  28.015  29.491  1.00  0.00     0.037 A 
BRANCH  46  60
ATOM     60  C   UNL A   1      43.911  33.324  30.794  1.00  0.00     0.058 A 
ATOM     61  C   UNL A   1      43.976  33.725  32.136  1.00  0.00     0.135 A 
ATOM     62  C   UNL A   1      44.037  34.316  29.807  1.00  0.00     0.135 A 
ATOM     63  F   UNL A   1      43.843  32.821  33.120  1.00  0.00    -0.206 F 
ATOM     64  C   UNL A   1      44.149  35.061  32.488  1.00  0.00     0.059 A 
ATOM     65  C   UNL A   1      44.234  35.655  30.135  1.00  0.00     0.059 A 
ATOM     66  F   UNL A   1      43.979  33.988  28.507  1.00  0.00    -0.206 F 
ATOM     67  C   UNL A   1      44.279  36.019  31.479  1.00  0.00     0.060 A 
BRANCH  67  68
ATOM     68  S   UNL A   1      44.534  37.743  31.950  1.00  0.00     0.124 S 
ATOM     69  O   UNL A   1      45.917  37.718  32.415  1.00  0.00    -0.237 OA
ATOM     70  O   UNL A   1      44.301  38.449  30.694  1.00  0.00    -0.237 OA
ATOM     71  O   UNL A   1      43.528  37.966  32.985  1.00  0.00    -0.744 OA
ENDBRANCH  67  68
ENDBRANCH  46  60
BRANCH  47  72
ATOM     72  C   UNL A   1      42.725  23.874  27.735  1.00  0.00     0.058 A 
ATOM     73  C   UNL A   1      42.699  22.761  28.586  1.00  0.00     0.135 A 
ATOM     74  C   UNL A   1      42.585  23.648  26.357  1.00  0.00     0.135 A 
ATOM     75  F   UNL A   1      42.838  22.924  29.910  1.00  0.00    -0.206 F 
ATOM     76  C   UNL A   1      42.551  21.469  28.090  1.00  0.00     0.059 A 
ATOM     77  C   UNL A   1      42.408  22.369  25.839  1.00  0.00     0.059 A 
ATOM     78  F   UNL A   1      42.593  24.682  25.500  1.00  0.00    -0.206 F 
ATOM     79  C   UNL A   1      42.406  21.284  26.714  1.00  0.00     0.060 A 
BRANCH  79  80
ATOM     80  S   UNL A   1      42.171  19.610  26.078  1.00  0.00     0.124 S 
ATOM     81  O   UNL A   1      43.092  19.594  24.948  1.00  0.00    -0.237 OA
ATOM     82  O   UNL A   1      42.550  18.788  27.223  1.00  0.00    -0.237 OA
ATOM     83  O   UNL A   1      40.751  19.579  25.738  1.00  0.00    -0.744 OA
ENDBRANCH  79  80
ENDBRANCH  47  72
BRANCH  59  84
ATOM     84  C   UNL A   1      48.256  27.714  29.538  1.00  0.00     0.058 A 
ATOM     85  C   UNL A   1      48.854  27.149  30.674  1.00  0.00     0.135 A 
ATOM     86  C   UNL A   1      49.067  27.960  28.419  1.00  0.00     0.135 A 
ATOM     87  F   UNL A   1      48.122  26.902  31.772  1.00  0.00    -0.206 F 
ATOM     88  C   UNL A   1      50.213  26.858  30.708  1.00  0.00     0.059 A 
ATOM     89  C   UNL A   1      50.424  27.654  28.423  1.00  0.00     0.059 A 
ATOM     90  F   UNL A   1      48.540  28.490  27.304  1.00  0.00    -0.206 F 
ATOM     91  C   UNL A   1      50.990  27.115  29.578  1.00  0.00     0.060 A 
BRANCH  91  92
ATOM     92  S   UNL A   1      52.750  26.712  29.623  1.00  0.00     0.124 S 
ATOM     93  O   UNL A   1      53.351  28.036  29.733  1.00  0.00    -0.237 OA
ATOM     94  O   UNL A   1      52.849  25.870  30.811  1.00  0.00    -0.237 OA
ATOM     95  O   UNL A   1      52.973  26.023  28.355  1.00  0.00    -0.744 OA
ENDBRANCH  91  92
ENDBRANCH  59  84
ENDBRANCH  33  34
ENDBRANCH  26  28
ENDBRANCH  25  26
ENDBRANCH  24  25
ENDBRANCH   1  24
TORSDOF 17
ENDMDL
