MODEL 1
REMARK VINA RESULT:     -11.4      0.000      0.000
REMARK SMILES O=C(OCCOC(=O)[C@H]1CCc2[nH]nc(C(F)(F)F)c2C1)c1ccc(-c2c3nc(c(-c4c(F)cc(S(=O)(=O)[O-])cc4F)c4ccc([nH]4)c(-c4c(F)cc(S(=O)(=O)[O-])cc4F)c4nc(c(-c5c(F)cc(S(=O)(=O)[O-])cc5F)c5ccc2[nH]5)C=C4)C=C3)cc1
REMARK SMILES IDX 4 1 3 2 2 3 1 4 22 5 23 6 87 7 24 8 86 9 25 10 26 11 27 12
REMARK SMILES IDX 80 13 28 14 85 15 79 16 81 17 29 18 84 19 78 20 77 21 30 23
REMARK SMILES IDX 64 24 43 25 63 26 44 27 47 28 62 29 82 30 45 31 46 32 61 34
REMARK SMILES IDX 83 35 48 36 31 37 32 38 41 39 33 40 34 41 40 42 42 43 35 44
REMARK SMILES IDX 36 45 37 46 38 47 39 48 65 49 66 50 75 51 67 52 68 53 74 54
REMARK SMILES IDX 76 55 69 56 70 57 71 58 72 59 73 60 49 61 50 62 59 63 51 64
REMARK SMILES IDX 52 65 58 66 60 67 53 68 54 69 55 70 56 71 57 72 5 73 6 74
REMARK SMILES IDX 7 75 8 76 9 77 10 78 21 79 11 80 20 81 12 82 15 83 13 84
REMARK SMILES IDX 14 85 16 87 17 88 18 89 19 90
REMARK H PARENT 81 22 47 33 13 86
REMARK Flexibility Score: inf
ROOT
ATOM      1  C   UNL A   1      44.968  38.373  26.909  1.00  0.00     0.275 C 
ENDROOT
BRANCH   1   2
ATOM      2  O   UNL A   1      46.122  38.525  26.047  1.00  0.00    -0.458 OA
BRANCH   2   3
ATOM      3  C   UNL A   1      47.099  37.606  25.798  1.00  0.00     0.338 C 
ATOM      4  O   UNL A   1      48.096  37.873  25.143  1.00  0.00    -0.246 OA
BRANCH   3   5
ATOM      5  C   UNL A   1      46.941  36.243  26.341  1.00  0.00     0.060 A 
ATOM      6  C   UNL A   1      47.523  35.893  28.157  1.00  0.00     0.016 A 
ATOM      7  C   UNL A   1      46.084  34.731  25.409  1.00  0.00     0.016 A 
ATOM      8  C   UNL A   1      47.565  34.313  29.242  1.00  0.00     0.010 A 
ATOM      9  C   UNL A   1      45.847  33.123  26.490  1.00  0.00     0.010 A 
ATOM     10  C   UNL A   1      46.458  32.703  28.304  1.00  0.00    -0.014 A 
BRANCH  10  11
ATOM     11  C   UNL A   1      46.082  31.243  28.533  1.00  0.00     0.031 A 
ATOM     12  C   UNL A   1      44.658  30.981  28.857  1.00  0.00     0.074 A 
ATOM     13  C   UNL A   1      46.995  30.268  28.368  1.00  0.00     0.049 A 
ATOM     14  N   UNL A   1      43.979  29.894  28.667  1.00  0.00    -0.248 NA
ATOM     15  C   UNL A   1      43.879  32.073  29.476  1.00  0.00     0.031 C 
ATOM     16  C   UNL A   1      48.435  30.473  28.246  1.00  0.00     0.029 A 
ATOM     17  N   UNL A   1      46.831  28.957  28.031  1.00  0.00    -0.354 N 
ATOM     18  C   UNL A   1      42.700  30.187  29.102  1.00  0.00     0.074 A 
ATOM     19  C   UNL A   1      42.683  31.533  29.600  1.00  0.00     0.031 C 
ATOM     20  C   UNL A   1      48.969  29.458  27.562  1.00  0.00     0.029 A 
ATOM     21  C   UNL A   1      47.960  28.429  27.436  1.00  0.00     0.049 A 
ATOM     22  H   UNL A   1      46.006  28.447  28.194  1.00  0.00     0.167 HD
ATOM     23  C   UNL A   1      41.644  29.358  29.090  1.00  0.00     0.037 A 
ATOM     24  C   UNL A   1      48.157  27.232  26.861  1.00  0.00     0.037 A 
ATOM     25  C   UNL A   1      41.774  27.996  28.674  1.00  0.00     0.049 A 
ATOM     26  C   UNL A   1      46.982  26.316  26.905  1.00  0.00     0.074 A 
ATOM     27  C   UNL A   1      40.814  27.011  28.660  1.00  0.00     0.029 A 
ATOM     28  N   UNL A   1      42.967  27.420  28.243  1.00  0.00    -0.354 N 
ATOM     29  N   UNL A   1      45.756  26.592  27.287  1.00  0.00    -0.248 NA
ATOM     30  C   UNL A   1      47.210  24.931  26.506  1.00  0.00     0.031 C 
ATOM     31  C   UNL A   1      41.450  25.815  28.327  1.00  0.00     0.029 A 
ATOM     32  C   UNL A   1      42.776  26.078  28.002  1.00  0.00     0.049 A 
ATOM     33  H   UNL A   1      43.819  27.901  28.128  1.00  0.00     0.167 HD
ATOM     34  C   UNL A   1      45.052  25.412  27.173  1.00  0.00     0.074 A 
ATOM     35  C   UNL A   1      45.991  24.431  26.647  1.00  0.00     0.031 C 
ATOM     36  C   UNL A   1      43.758  25.155  27.481  1.00  0.00     0.037 A 
BRANCH  23  37
ATOM     37  C   UNL A   1      40.368  29.878  29.664  1.00  0.00     0.058 A 
ATOM     38  C   UNL A   1      40.184  30.083  31.042  1.00  0.00     0.135 A 
ATOM     39  C   UNL A   1      39.284  30.121  28.809  1.00  0.00     0.135 A 
ATOM     40  F   UNL A   1      41.167  29.796  31.913  1.00  0.00    -0.206 F 
ATOM     41  C   UNL A   1      38.964  30.508  31.551  1.00  0.00     0.059 A 
ATOM     42  C   UNL A   1      38.073  30.592  29.289  1.00  0.00     0.059 A 
ATOM     43  F   UNL A   1      39.393  29.883  27.492  1.00  0.00    -0.206 F 
ATOM     44  C   UNL A   1      37.923  30.783  30.662  1.00  0.00     0.060 A 
BRANCH  44  45
ATOM     45  S   UNL A   1      36.379  31.424  31.327  1.00  0.00     0.124 S 
ATOM     46  O   UNL A   1      35.561  31.528  30.122  1.00  0.00    -0.237 OA
ATOM     47  O   UNL A   1      35.997  30.374  32.264  1.00  0.00    -0.237 OA
ATOM     48  O   UNL A   1      36.769  32.694  31.931  1.00  0.00    -0.744 OA
ENDBRANCH  44  45
ENDBRANCH  23  37
BRANCH  24  49
ATOM     49  C   UNL A   1      49.487  26.836  26.326  1.00  0.00     0.058 A 
ATOM     50  C   UNL A   1      50.427  26.146  27.105  1.00  0.00     0.135 A 
ATOM     51  C   UNL A   1      49.850  27.144  25.000  1.00  0.00     0.135 A 
ATOM     52  F   UNL A   1      50.139  25.817  28.373  1.00  0.00    -0.206 F 
ATOM     53  C   UNL A   1      51.679  25.802  26.602  1.00  0.00     0.059 A 
ATOM     54  C   UNL A   1      51.067  26.756  24.458  1.00  0.00     0.059 A 
ATOM     55  F   UNL A   1      48.997  27.797  24.197  1.00  0.00    -0.206 F 
ATOM     56  C   UNL A   1      51.984  26.104  25.273  1.00  0.00     0.060 A 
BRANCH  56  57
ATOM     57  S   UNL A   1      53.595  25.628  24.618  1.00  0.00     0.124 S 
ATOM     58  O   UNL A   1      53.690  24.239  25.051  1.00  0.00    -0.237 OA
ATOM     59  O   UNL A   1      53.413  25.842  23.186  1.00  0.00    -0.237 OA
ATOM     60  O   UNL A   1      54.514  26.554  25.273  1.00  0.00    -0.744 OA
ENDBRANCH  56  57
ENDBRANCH  24  49
BRANCH  36  61
ATOM     61  C   UNL A   1      43.276  23.782  27.155  1.00  0.00     0.058 A 
ATOM     62  C   UNL A   1      42.889  23.410  25.861  1.00  0.00     0.135 A 
ATOM     63  C   UNL A   1      43.225  22.823  28.177  1.00  0.00     0.135 A 
ATOM     64  F   UNL A   1      42.924  24.299  24.855  1.00  0.00    -0.206 F 
ATOM     65  C   UNL A   1      42.397  22.141  25.606  1.00  0.00     0.059 A 
ATOM     66  C   UNL A   1      42.808  21.530  27.928  1.00  0.00     0.059 A 
ATOM     67  F   UNL A   1      43.608  23.135  29.427  1.00  0.00    -0.206 F 
ATOM     68  C   UNL A   1      42.372  21.207  26.645  1.00  0.00     0.060 A 
BRANCH  68  69
ATOM     69  S   UNL A   1      41.777  19.550  26.289  1.00  0.00     0.124 S 
ATOM     70  O   UNL A   1      40.348  19.784  26.110  1.00  0.00    -0.237 OA
ATOM     71  O   UNL A   1      42.523  19.216  25.079  1.00  0.00    -0.237 OA
ATOM     72  O   UNL A   1      42.147  18.792  27.479  1.00  0.00    -0.744 OA
ENDBRANCH  68  69
ENDBRANCH  36  61
ENDBRANCH  10  11
ENDBRANCH   3   5
ENDBRANCH   2   3
ENDBRANCH   1   2
BRANCH   1  73
ATOM     73  C   UNL A   1      43.786  39.312  26.521  1.00  0.00     0.274 C 
BRANCH  73  74
ATOM     74  O   UNL A   1      44.092  40.783  26.396  1.00  0.00    -0.462 OA
BRANCH  74  75
ATOM     75  C   UNL A   1      44.705  41.741  25.664  1.00  0.00     0.309 C 
ATOM     76  O   UNL A   1      45.936  41.622  25.582  1.00  0.00    -0.252 OA
BRANCH  75  77
ATOM     77  C   UNL A   1      44.090  43.028  24.992  1.00  0.00     0.104 C 
ATOM     78  C   UNL A   1      44.743  44.464  24.739  1.00  0.00     0.022 C 
ATOM     79  C   UNL A   1      43.122  43.085  23.884  1.00  0.00     0.055 C 
ATOM     80  C   UNL A   1      46.431  45.182  23.530  1.00  0.00     0.057 C 
ATOM     81  C   UNL A   1      43.808  43.989  22.879  1.00  0.00     0.006 A 
ATOM     82  C   UNL A   1      45.594  44.896  22.664  1.00  0.00     0.039 A 
ATOM     83  C   UNL A   1      43.304  43.830  21.011  1.00  0.00     0.169 A 
ATOM     84  N   UNL A   1      45.793  45.121  20.858  1.00  0.00    -0.282 N 
ATOM     85  N   UNL A   1      44.409  44.458  20.017  1.00  0.00    -0.171 NA
ATOM     86  H   UNL A   1      46.564  45.553  20.425  1.00  0.00     0.190 HD
BRANCH  83  87
ATOM     87  C   UNL A   1      42.351  42.753  20.513  1.00  0.00     0.435 C 
ATOM     88  F   UNL A   1      42.813  41.489  20.639  1.00  0.00    -0.164 F 
ATOM     89  F   UNL A   1      41.179  42.813  21.218  1.00  0.00    -0.164 F 
ATOM     90  F   UNL A   1      41.992  42.940  19.214  1.00  0.00    -0.164 F 
ENDBRANCH  83  87
ENDBRANCH  75  77
ENDBRANCH  74  75
ENDBRANCH  73  74
ENDBRANCH   1  73
TORSDOF 15
ENDMDL
MODEL 2
REMARK VINA RESULT:     -11.4      8.157     15.575
REMARK SMILES O=C(OCCOC(=O)[C@H]1CCc2[nH]nc(C(F)(F)F)c2C1)c1ccc(-c2c3nc(c(-c4c(F)cc(S(=O)(=O)[O-])cc4F)c4ccc([nH]4)c(-c4c(F)cc(S(=O)(=O)[O-])cc4F)c4nc(c(-c5c(F)cc(S(=O)(=O)[O-])cc5F)c5ccc2[nH]5)C=C4)C=C3)cc1
REMARK SMILES IDX 4 1 3 2 2 3 1 4 22 5 23 6 87 7 24 8 86 9 25 10 26 11 27 12
REMARK SMILES IDX 80 13 28 14 85 15 79 16 81 17 29 18 84 19 78 20 77 21 30 23
REMARK SMILES IDX 64 24 43 25 63 26 44 27 47 28 62 29 82 30 45 31 46 32 61 34
REMARK SMILES IDX 83 35 48 36 31 37 32 38 41 39 33 40 34 41 40 42 42 43 35 44
REMARK SMILES IDX 36 45 37 46 38 47 39 48 65 49 66 50 75 51 67 52 68 53 74 54
REMARK SMILES IDX 76 55 69 56 70 57 71 58 72 59 73 60 49 61 50 62 59 63 51 64
REMARK SMILES IDX 52 65 58 66 60 67 53 68 54 69 55 70 56 71 57 72 5 73 6 74
REMARK SMILES IDX 7 75 8 76 9 77 10 78 21 79 11 80 20 81 12 82 15 83 13 84
REMARK SMILES IDX 14 85 16 87 17 88 18 89 19 90
REMARK H PARENT 81 22 47 33 13 86
REMARK Flexibility Score: inf
ROOT
ATOM      1  C   UNL A   1      45.926  27.529  25.284  1.00  0.00     0.275 C 
ENDROOT
BRANCH   1   2
ATOM      2  O   UNL A   1      44.658  26.827  25.286  1.00  0.00    -0.458 OA
BRANCH   2   3
ATOM      3  C   UNL A   1      43.407  27.371  25.273  1.00  0.00     0.338 C 
ATOM      4  O   UNL A   1      42.801  27.590  24.235  1.00  0.00    -0.246 OA
BRANCH   3   5
ATOM      5  C   UNL A   1      42.770  27.705  26.561  1.00  0.00     0.060 A 
ATOM      6  C   UNL A   1      41.799  26.316  27.505  1.00  0.00     0.016 A 
ATOM      7  C   UNL A   1      42.894  29.442  27.485  1.00  0.00     0.016 A 
ATOM      8  C   UNL A   1      40.793  26.292  29.137  1.00  0.00     0.010 A 
ATOM      9  C   UNL A   1      42.112  29.484  29.273  1.00  0.00     0.010 A 
ATOM     10  C   UNL A   1      41.082  28.131  30.248  1.00  0.00    -0.014 A 
BRANCH  10  11
ATOM     11  C   UNL A   1      40.632  28.810  31.536  1.00  0.00     0.031 A 
ATOM     12  C   UNL A   1      41.569  28.715  32.684  1.00  0.00     0.074 A 
ATOM     13  C   UNL A   1      39.485  29.511  31.575  1.00  0.00     0.049 A 
ATOM     14  N   UNL A   1      41.681  29.515  33.697  1.00  0.00    -0.248 NA
ATOM     15  C   UNL A   1      42.511  27.577  32.713  1.00  0.00     0.031 C 
ATOM     16  C   UNL A   1      38.441  29.477  30.555  1.00  0.00     0.029 A 
ATOM     17  N   UNL A   1      39.119  30.558  32.369  1.00  0.00    -0.354 N 
ATOM     18  C   UNL A   1      42.720  29.001  34.449  1.00  0.00     0.074 A 
ATOM     19  C   UNL A   1      43.197  27.804  33.815  1.00  0.00     0.031 C 
ATOM     20  C   UNL A   1      37.758  30.624  30.584  1.00  0.00     0.029 A 
ATOM     21  C   UNL A   1      38.146  31.342  31.780  1.00  0.00     0.049 A 
ATOM     22  H   UNL A   1      39.503  30.735  33.257  1.00  0.00     0.167 HD
ATOM     23  C   UNL A   1      43.202  29.508  35.595  1.00  0.00     0.037 A 
ATOM     24  C   UNL A   1      37.617  32.511  32.175  1.00  0.00     0.037 A 
ATOM     25  C   UNL A   1      42.599  30.647  36.214  1.00  0.00     0.049 A 
ATOM     26  C   UNL A   1      38.138  33.025  33.473  1.00  0.00     0.074 A 
ATOM     27  C   UNL A   1      42.931  31.247  37.407  1.00  0.00     0.029 A 
ATOM     28  N   UNL A   1      41.497  31.325  35.699  1.00  0.00    -0.354 N 
ATOM     29  N   UNL A   1      39.144  32.563  34.181  1.00  0.00    -0.248 NA
ATOM     30  C   UNL A   1      37.438  34.162  34.060  1.00  0.00     0.031 C 
ATOM     31  C   UNL A   1      41.962  32.216  37.668  1.00  0.00     0.029 A 
ATOM     32  C   UNL A   1      41.107  32.313  36.576  1.00  0.00     0.049 A 
ATOM     33  H   UNL A   1      41.062  31.127  34.839  1.00  0.00     0.167 HD
ATOM     34  C   UNL A   1      39.207  33.357  35.306  1.00  0.00     0.074 A 
ATOM     35  C   UNL A   1      38.156  34.353  35.157  1.00  0.00     0.031 C 
ATOM     36  C   UNL A   1      40.046  33.271  36.367  1.00  0.00     0.037 A 
BRANCH  23  37
ATOM     37  C   UNL A   1      44.300  28.748  36.263  1.00  0.00     0.058 A 
ATOM     38  C   UNL A   1      45.657  29.078  36.106  1.00  0.00     0.135 A 
ATOM     39  C   UNL A   1      43.978  27.622  37.034  1.00  0.00     0.135 A 
ATOM     40  F   UNL A   1      46.023  30.103  35.318  1.00  0.00    -0.206 F 
ATOM     41  C   UNL A   1      46.657  28.312  36.690  1.00  0.00     0.059 A 
ATOM     42  C   UNL A   1      44.957  26.872  37.667  1.00  0.00     0.059 A 
ATOM     43  F   UNL A   1      42.700  27.232  37.165  1.00  0.00    -0.206 F 
ATOM     44  C   UNL A   1      46.294  27.226  37.488  1.00  0.00     0.060 A 
BRANCH  44  45
ATOM     45  S   UNL A   1      47.596  26.301  38.316  1.00  0.00     0.124 S 
ATOM     46  O   UNL A   1      47.571  26.890  39.652  1.00  0.00    -0.237 OA
ATOM     47  O   UNL A   1      47.101  24.932  38.217  1.00  0.00    -0.237 OA
ATOM     48  O   UNL A   1      48.783  26.599  37.522  1.00  0.00    -0.744 OA
ENDBRANCH  44  45
ENDBRANCH  23  37
BRANCH  24  49
ATOM     49  C   UNL A   1      36.521  33.165  31.412  1.00  0.00     0.058 A 
ATOM     50  C   UNL A   1      36.753  33.832  30.201  1.00  0.00     0.135 A 
ATOM     51  C   UNL A   1      35.195  33.133  31.886  1.00  0.00     0.135 A 
ATOM     52  F   UNL A   1      37.992  33.892  29.692  1.00  0.00    -0.206 F 
ATOM     53  C   UNL A   1      35.723  34.462  29.507  1.00  0.00     0.059 A 
ATOM     54  C   UNL A   1      34.144  33.698  31.181  1.00  0.00     0.059 A 
ATOM     55  F   UNL A   1      34.900  32.505  33.036  1.00  0.00    -0.206 F 
ATOM     56  C   UNL A   1      34.420  34.381  30.002  1.00  0.00     0.060 A 
BRANCH  56  57
ATOM     57  S   UNL A   1      33.085  35.172  29.083  1.00  0.00     0.124 S 
ATOM     58  O   UNL A   1      32.739  34.136  28.117  1.00  0.00    -0.237 OA
ATOM     59  O   UNL A   1      32.105  35.424  30.134  1.00  0.00    -0.237 OA
ATOM     60  O   UNL A   1      33.719  36.363  28.526  1.00  0.00    -0.744 OA
ENDBRANCH  56  57
ENDBRANCH  24  49
BRANCH  36  61
ATOM     61  C   UNL A   1      39.908  34.348  37.389  1.00  0.00     0.058 A 
ATOM     62  C   UNL A   1      39.033  34.242  38.478  1.00  0.00     0.135 A 
ATOM     63  C   UNL A   1      40.693  35.504  37.264  1.00  0.00     0.135 A 
ATOM     64  F   UNL A   1      38.264  33.151  38.633  1.00  0.00    -0.206 F 
ATOM     65  C   UNL A   1      38.891  35.285  39.378  1.00  0.00     0.059 A 
ATOM     66  C   UNL A   1      40.622  36.524  38.192  1.00  0.00     0.059 A 
ATOM     67  F   UNL A   1      41.559  35.635  36.245  1.00  0.00    -0.206 F 
ATOM     68  C   UNL A   1      39.699  36.415  39.230  1.00  0.00     0.060 A 
BRANCH  68  69
ATOM     69  S   UNL A   1      39.540  37.740  40.434  1.00  0.00     0.124 S 
ATOM     70  O   UNL A   1      40.741  38.523  40.167  1.00  0.00    -0.237 OA
ATOM     71  O   UNL A   1      38.277  38.356  40.037  1.00  0.00    -0.237 OA
ATOM     72  O   UNL A   1      39.518  37.037  41.712  1.00  0.00    -0.744 OA
ENDBRANCH  68  69
ENDBRANCH  36  61
ENDBRANCH  10  11
ENDBRANCH   3   5
ENDBRANCH   2   3
ENDBRANCH   1   2
BRANCH   1  73
ATOM     73  C   UNL A   1      46.600  27.581  26.687  1.00  0.00     0.274 C 
BRANCH  73  74
ATOM     74  O   UNL A   1      45.743  27.216  27.873  1.00  0.00    -0.462 OA
BRANCH  74  75
ATOM     75  C   UNL A   1      45.395  26.243  28.746  1.00  0.00     0.309 C 
ATOM     76  O   UNL A   1      45.010  26.652  29.851  1.00  0.00    -0.252 OA
BRANCH  75  77
ATOM     77  C   UNL A   1      45.506  24.678  28.591  1.00  0.00     0.104 C 
ATOM     78  C   UNL A   1      44.615  23.518  29.235  1.00  0.00     0.022 C 
ATOM     79  C   UNL A   1      45.929  23.923  27.400  1.00  0.00     0.055 C 
ATOM     80  C   UNL A   1      42.503  22.940  29.061  1.00  0.00     0.057 C 
ATOM     81  C   UNL A   1      44.781  22.959  27.181  1.00  0.00     0.006 A 
ATOM     82  C   UNL A   1      42.952  22.616  27.954  1.00  0.00     0.039 A 
ATOM     83  C   UNL A   1      44.509  22.248  25.395  1.00  0.00     0.169 A 
ATOM     84  N   UNL A   1      42.016  21.802  26.609  1.00  0.00    -0.282 N 
ATOM     85  N   UNL A   1      43.023  21.655  25.185  1.00  0.00    -0.171 NA
ATOM     86  H   UNL A   1      41.084  21.492  26.677  1.00  0.00     0.190 HD
BRANCH  83  87
ATOM     87  C   UNL A   1      45.320  22.722  24.197  1.00  0.00     0.435 C 
ATOM     88  F   UNL A   1      44.736  22.503  22.998  1.00  0.00    -0.164 F 
ATOM     89  F   UNL A   1      45.531  24.071  24.289  1.00  0.00    -0.164 F 
ATOM     90  F   UNL A   1      46.563  22.171  24.164  1.00  0.00    -0.164 F 
ENDBRANCH  83  87
ENDBRANCH  75  77
ENDBRANCH  74  75
ENDBRANCH  73  74
ENDBRANCH   1  73
TORSDOF 15
ENDMDL
MODEL 3
REMARK VINA RESULT:     -11.3      8.021     15.975
REMARK SMILES O=C(OCCOC(=O)[C@H]1CCc2[nH]nc(C(F)(F)F)c2C1)c1ccc(-c2c3nc(c(-c4c(F)cc(S(=O)(=O)[O-])cc4F)c4ccc([nH]4)c(-c4c(F)cc(S(=O)(=O)[O-])cc4F)c4nc(c(-c5c(F)cc(S(=O)(=O)[O-])cc5F)c5ccc2[nH]5)C=C4)C=C3)cc1
REMARK SMILES IDX 4 1 3 2 2 3 1 4 22 5 23 6 87 7 24 8 86 9 25 10 26 11 27 12
REMARK SMILES IDX 80 13 28 14 85 15 79 16 81 17 29 18 84 19 78 20 77 21 30 23
REMARK SMILES IDX 64 24 43 25 63 26 44 27 47 28 62 29 82 30 45 31 46 32 61 34
REMARK SMILES IDX 83 35 48 36 31 37 32 38 41 39 33 40 34 41 40 42 42 43 35 44
REMARK SMILES IDX 36 45 37 46 38 47 39 48 65 49 66 50 75 51 67 52 68 53 74 54
REMARK SMILES IDX 76 55 69 56 70 57 71 58 72 59 73 60 49 61 50 62 59 63 51 64
REMARK SMILES IDX 52 65 58 66 60 67 53 68 54 69 55 70 56 71 57 72 5 73 6 74
REMARK SMILES IDX 7 75 8 76 9 77 10 78 21 79 11 80 20 81 12 82 15 83 13 84
REMARK SMILES IDX 14 85 16 87 17 88 18 89 19 90
REMARK H PARENT 81 22 47 33 13 86
REMARK Flexibility Score: inf
ROOT
ATOM      1  C   UNL A   1      47.324  26.384  26.682  1.00  0.00     0.275 C 
ENDROOT
BRANCH   1   2
ATOM      2  O   UNL A   1      46.118  26.254  25.889  1.00  0.00    -0.458 OA
BRANCH   2   3
ATOM      3  C   UNL A   1      45.116  27.168  25.745  1.00  0.00     0.338 C 
ATOM      4  O   UNL A   1      44.870  27.704  24.675  1.00  0.00    -0.246 OA
BRANCH   3   5
ATOM      5  C   UNL A   1      44.305  27.517  26.927  1.00  0.00     0.060 A 
ATOM      6  C   UNL A   1      42.941  26.272  27.518  1.00  0.00     0.016 A 
ATOM      7  C   UNL A   1      44.544  29.121  28.048  1.00  0.00     0.016 A 
ATOM      8  C   UNL A   1      41.644  26.315  28.930  1.00  0.00     0.010 A 
ATOM      9  C   UNL A   1      43.444  29.173  29.660  1.00  0.00     0.010 A 
ATOM     10  C   UNL A   1      42.022  27.972  30.275  1.00  0.00    -0.014 A 
BRANCH  10  11
ATOM     11  C   UNL A   1      41.452  28.623  31.529  1.00  0.00     0.031 A 
ATOM     12  C   UNL A   1      42.322  28.592  32.732  1.00  0.00     0.074 A 
ATOM     13  C   UNL A   1      40.261  29.249  31.495  1.00  0.00     0.049 A 
ATOM     14  N   UNL A   1      42.321  29.399  33.745  1.00  0.00    -0.248 NA
ATOM     15  C   UNL A   1      43.332  27.517  32.824  1.00  0.00     0.031 C 
ATOM     16  C   UNL A   1      39.286  29.145  30.413  1.00  0.00     0.029 A 
ATOM     17  N   UNL A   1      39.781  30.271  32.258  1.00  0.00    -0.354 N 
ATOM     18  C   UNL A   1      43.343  28.955  34.562  1.00  0.00     0.074 A 
ATOM     19  C   UNL A   1      43.934  27.791  33.964  1.00  0.00     0.031 C 
ATOM     20  C   UNL A   1      38.529  30.245  30.394  1.00  0.00     0.029 A 
ATOM     21  C   UNL A   1      38.797  30.989  31.607  1.00  0.00     0.049 A 
ATOM     22  H   UNL A   1      40.098  30.474  33.167  1.00  0.00     0.167 HD
ATOM     23  C   UNL A   1      43.721  29.495  35.731  1.00  0.00     0.037 A 
ATOM     24  C   UNL A   1      38.171  32.121  31.963  1.00  0.00     0.037 A 
ATOM     25  C   UNL A   1      43.008  30.594  36.307  1.00  0.00     0.049 A 
ATOM     26  C   UNL A   1      38.578  32.671  33.287  1.00  0.00     0.074 A 
ATOM     27  C   UNL A   1      43.228  31.216  37.514  1.00  0.00     0.029 A 
ATOM     28  N   UNL A   1      41.898  31.198  35.722  1.00  0.00    -0.354 N 
ATOM     29  N   UNL A   1      39.566  32.277  34.057  1.00  0.00    -0.248 NA
ATOM     30  C   UNL A   1      37.771  33.761  33.824  1.00  0.00     0.031 C 
ATOM     31  C   UNL A   1      42.184  32.121  37.710  1.00  0.00     0.029 A 
ATOM     32  C   UNL A   1      41.392  32.160  36.568  1.00  0.00     0.049 A 
ATOM     33  H   UNL A   1      41.529  30.970  34.838  1.00  0.00     0.167 HD
ATOM     34  C   UNL A   1      39.510  33.076  35.179  1.00  0.00     0.074 A 
ATOM     35  C   UNL A   1      38.407  34.001  34.961  1.00  0.00     0.031 C 
ATOM     36  C   UNL A   1      40.286  33.046  36.289  1.00  0.00     0.037 A 
BRANCH  23  37
ATOM     37  C   UNL A   1      44.822  28.809  36.469  1.00  0.00     0.058 A 
ATOM     38  C   UNL A   1      44.603  27.691  37.293  1.00  0.00     0.135 A 
ATOM     39  C   UNL A   1      46.123  29.328  36.391  1.00  0.00     0.135 A 
ATOM     40  F   UNL A   1      43.364  27.199  37.460  1.00  0.00    -0.206 F 
ATOM     41  C   UNL A   1      45.638  27.114  38.015  1.00  0.00     0.059 A 
ATOM     42  C   UNL A   1      47.180  28.738  37.065  1.00  0.00     0.059 A 
ATOM     43  F   UNL A   1      46.371  30.429  35.665  1.00  0.00    -0.206 F 
ATOM     44  C   UNL A   1      46.927  27.632  37.875  1.00  0.00     0.060 A 
BRANCH  44  45
ATOM     45  S   UNL A   1      48.276  26.815  38.743  1.00  0.00     0.124 S 
ATOM     46  O   UNL A   1      48.840  25.978  37.688  1.00  0.00    -0.237 OA
ATOM     47  O   UNL A   1      49.094  27.949  39.160  1.00  0.00    -0.237 OA
ATOM     48  O   UNL A   1      47.602  26.096  39.819  1.00  0.00    -0.744 OA
ENDBRANCH  44  45
ENDBRANCH  23  37
BRANCH  24  49
ATOM     49  C   UNL A   1      37.083  32.702  31.131  1.00  0.00     0.058 A 
ATOM     50  C   UNL A   1      37.348  33.543  30.041  1.00  0.00     0.135 A 
ATOM     51  C   UNL A   1      35.732  32.418  31.413  1.00  0.00     0.135 A 
ATOM     52  F   UNL A   1      38.613  33.846  29.716  1.00  0.00    -0.206 F 
ATOM     53  C   UNL A   1      36.320  34.100  29.284  1.00  0.00     0.059 A 
ATOM     54  C   UNL A   1      34.695  32.911  30.635  1.00  0.00     0.059 A 
ATOM     55  F   UNL A   1      35.407  31.615  32.438  1.00  0.00    -0.206 F 
ATOM     56  C   UNL A   1      34.997  33.770  29.584  1.00  0.00     0.060 A 
BRANCH  56  57
ATOM     57  S   UNL A   1      33.673  34.469  28.581  1.00  0.00     0.124 S 
ATOM     58  O   UNL A   1      32.694  34.834  29.599  1.00  0.00    -0.237 OA
ATOM     59  O   UNL A   1      34.351  35.577  27.916  1.00  0.00    -0.237 OA
ATOM     60  O   UNL A   1      33.289  33.362  27.709  1.00  0.00    -0.744 OA
ENDBRANCH  56  57
ENDBRANCH  24  49
BRANCH  36  61
ATOM     61  C   UNL A   1      40.017  34.114  37.294  1.00  0.00     0.058 A 
ATOM     62  C   UNL A   1      39.171  33.914  38.394  1.00  0.00     0.135 A 
ATOM     63  C   UNL A   1      40.644  35.360  37.142  1.00  0.00     0.135 A 
ATOM     64  F   UNL A   1      38.553  32.736  38.574  1.00  0.00    -0.206 F 
ATOM     65  C   UNL A   1      38.902  34.946  39.277  1.00  0.00     0.059 A 
ATOM     66  C   UNL A   1      40.448  36.379  38.055  1.00  0.00     0.059 A 
ATOM     67  F   UNL A   1      41.478  35.584  36.113  1.00  0.00    -0.206 F 
ATOM     68  C   UNL A   1      39.555  36.168  39.104  1.00  0.00     0.060 A 
BRANCH  68  69
ATOM     69  S   UNL A   1      39.234  37.483  40.286  1.00  0.00     0.124 S 
ATOM     70  O   UNL A   1      40.552  38.096  40.408  1.00  0.00    -0.237 OA
ATOM     71  O   UNL A   1      38.225  38.275  39.589  1.00  0.00    -0.237 OA
ATOM     72  O   UNL A   1      38.761  36.769  41.468  1.00  0.00    -0.744 OA
ENDBRANCH  68  69
ENDBRANCH  36  61
ENDBRANCH  10  11
ENDBRANCH   3   5
ENDBRANCH   2   3
ENDBRANCH   1   2
BRANCH   1  73
ATOM     73  C   UNL A   1      47.254  25.618  28.036  1.00  0.00     0.274 C 
BRANCH  73  74
ATOM     74  O   UNL A   1      46.583  24.267  28.024  1.00  0.00    -0.462 OA
BRANCH  74  75
ATOM     75  C   UNL A   1      45.424  23.593  27.845  1.00  0.00     0.309 C 
ATOM     76  O   UNL A   1      44.871  23.227  28.893  1.00  0.00    -0.252 OA
BRANCH  75  77
ATOM     77  C   UNL A   1      44.739  23.127  26.504  1.00  0.00     0.104 C 
ATOM     78  C   UNL A   1      45.384  22.480  25.193  1.00  0.00     0.022 C 
ATOM     79  C   UNL A   1      43.399  22.538  26.340  1.00  0.00     0.055 C 
ATOM     80  C   UNL A   1      46.448  20.602  24.783  1.00  0.00     0.057 C 
ATOM     81  C   UNL A   1      43.681  21.254  25.586  1.00  0.00     0.006 A 
ATOM     82  C   UNL A   1      45.289  20.209  24.968  1.00  0.00     0.039 A 
ATOM     83  C   UNL A   1      42.397  19.806  25.732  1.00  0.00     0.169 A 
ATOM     84  N   UNL A   1      44.706  18.479  24.839  1.00  0.00    -0.282 N 
ATOM     85  N   UNL A   1      43.024  18.379  25.314  1.00  0.00    -0.171 NA
ATOM     86  H   UNL A   1      45.256  17.718  24.545  1.00  0.00     0.190 HD
BRANCH  83  87
ATOM     87  C   UNL A   1      41.199  19.870  26.669  1.00  0.00     0.435 C 
ATOM     88  F   UNL A   1      41.467  19.537  27.951  1.00  0.00    -0.164 F 
ATOM     89  F   UNL A   1      40.700  21.144  26.692  1.00  0.00    -0.164 F 
ATOM     90  F   UNL A   1      40.167  19.094  26.242  1.00  0.00    -0.164 F 
ENDBRANCH  83  87
ENDBRANCH  75  77
ENDBRANCH  74  75
ENDBRANCH  73  74
ENDBRANCH   1  73
TORSDOF 15
ENDMDL
