MODEL 1
REMARK VINA RESULT:     -12.3      0.000      0.000
REMARK SMILES COC(=O)c1c(SCC(=O)Nc2cc(C)ccc2C)[nH]c2cc(C(=O)OCCOC(=O)c3ccc(-c4c5nc(c(-c6c(F)cc(S(=O)(=O)[O-])cc6F)c6ccc([nH]6)c(-c6c(F)cc(S(=O)(=O)[O-])cc6F)c6nc(c(-c7c(F)cc(S(=O)(=O)[O-])cc7F)c7ccc4[nH]7)C=C6)C=C5)cc3)ccc2c1=O
REMARK SMILES IDX 27 1 26 2 24 3 25 4 23 5 5 6 6 7 101 8 20 9 100 10 102 11
REMARK SMILES IDX 21 12 99 14 22 15 98 16 3 17 4 18 2 19 1 20 7 21 8 22 9 23
REMARK SMILES IDX 10 24 11 25 12 27 13 28 18 29 14 30 17 31 19 32 15 33 16 34
REMARK SMILES IDX 28 35 29 36 30 37 31 38 32 39 33 40 97 41 34 42 96 43 35 44
REMARK SMILES IDX 36 45 37 46 90 47 38 48 95 49 89 50 91 51 39 52 94 53 88 54
REMARK SMILES IDX 87 55 40 57 74 58 53 59 73 60 54 61 57 62 72 63 92 64 55 65
REMARK SMILES IDX 56 66 71 68 93 69 58 70 41 71 42 72 51 73 43 74 44 75 50 76
REMARK SMILES IDX 52 77 45 78 46 79 47 80 48 81 49 82 75 83 76 84 85 85 77 86
REMARK SMILES IDX 78 87 84 88 86 89 79 90 80 91 81 92 82 93 83 94 59 95 60 96
REMARK SMILES IDX 69 97 61 98 62 99 68 100 70 101 63 102 64 103 65 104 66 105
REMARK SMILES IDX 67 106
REMARK H PARENT 20 13 11 26 91 56 57 67
REMARK Flexibility Score: inf
ROOT
ATOM      1  C   UNL A   1      42.099  19.626  27.117  1.00  0.00     0.275 C 
ENDROOT
BRANCH   1   2
ATOM      2  O   UNL A   1      40.758  19.719  26.625  1.00  0.00    -0.458 OA
BRANCH   2   3
ATOM      3  C   UNL A   1      40.432  20.914  26.105  1.00  0.00     0.338 C 
ATOM      4  O   UNL A   1      41.100  21.951  26.110  1.00  0.00    -0.246 OA
BRANCH   3   5
ATOM      5  C   UNL A   1      39.050  20.885  25.659  1.00  0.00     0.062 A 
ATOM      6  C   UNL A   1      34.088  21.717  24.757  1.00  0.00     0.138 A 
ATOM      7  C   UNL A   1      34.647  22.918  25.041  1.00  0.00     0.092 A 
ATOM      8  C   UNL A   1      34.957  20.503  24.766  1.00  0.00     0.205 A 
ATOM      9  N   UNL A   1      36.022  23.007  25.295  1.00  0.00    -0.349 N 
ATOM     10  C   UNL A   1      36.391  20.644  25.030  1.00  0.00     0.046 A 
ATOM     11  O   UNL A   1      34.496  19.373  24.615  1.00  0.00    -0.288 OA
ATOM     12  C   UNL A   1      36.894  21.917  25.314  1.00  0.00     0.051 A 
ATOM     13  H   UNL A   1      36.398  23.899  25.472  1.00  0.00     0.167 HD
ATOM     14  C   UNL A   1      37.197  19.500  25.050  1.00  0.00     0.015 A 
ATOM     15  C   UNL A   1      38.252  22.041  25.626  1.00  0.00     0.042 A 
ATOM     16  C   UNL A   1      38.534  19.621  25.373  1.00  0.00     0.016 A 
BRANCH   6  17
ATOM     17  C   UNL A   1      32.691  21.412  24.427  1.00  0.00     0.344 C 
ATOM     18  O   UNL A   1      31.919  20.941  25.250  1.00  0.00    -0.246 OA
BRANCH  17  19
ATOM     19  O   UNL A   1      32.391  21.822  23.173  1.00  0.00    -0.465 OA
ATOM     20  C   UNL A   1      31.373  22.824  23.099  1.00  0.00     0.282 C 
ENDBRANCH  17  19
ENDBRANCH   6  17
BRANCH   7  21
ATOM     21  S   UNL A   1      33.807  24.444  25.263  1.00  0.00    -0.098 SA
BRANCH  21  22
ATOM     22  C   UNL A   1      32.572  24.459  26.559  1.00  0.00     0.176 C 
BRANCH  22  23
ATOM     23  C   UNL A   1      31.155  24.878  26.259  1.00  0.00     0.234 C 
ATOM     24  O   UNL A   1      30.229  24.359  26.897  1.00  0.00    -0.274 OA
ATOM     25  N   UNL A   1      30.800  25.936  25.476  1.00  0.00    -0.325 N 
ATOM     26  H   UNL A   1      29.905  25.900  25.068  1.00  0.00     0.169 HD
BRANCH  25  27
ATOM     27  C   UNL A   1      31.572  27.070  25.189  1.00  0.00     0.044 A 
ATOM     28  C   UNL A   1      32.122  27.252  23.920  1.00  0.00     0.029 A 
ATOM     29  C   UNL A   1      31.796  28.032  26.190  1.00  0.00    -0.027 A 
ATOM     30  C   UNL A   1      33.002  28.304  23.652  1.00  0.00    -0.049 A 
ATOM     31  C   UNL A   1      32.661  29.103  25.909  1.00  0.00     0.006 A 
ATOM     32  C   UNL A   1      31.215  27.963  27.578  1.00  0.00     0.046 C 
ATOM     33  C   UNL A   1      33.642  28.432  22.302  1.00  0.00     0.044 C 
ATOM     34  C   UNL A   1      33.276  29.225  24.662  1.00  0.00     0.004 A 
ENDBRANCH  25  27
ENDBRANCH  22  23
ENDBRANCH  21  22
ENDBRANCH   7  21
ENDBRANCH   3   5
ENDBRANCH   2   3
ENDBRANCH   1   2
BRANCH   1  35
ATOM     35  C   UNL A   1      42.970  18.853  26.128  1.00  0.00     0.275 C 
BRANCH  35  36
ATOM     36  O   UNL A   1      43.241  19.492  24.844  1.00  0.00    -0.458 OA
BRANCH  36  37
ATOM     37  C   UNL A   1      44.378  20.115  24.435  1.00  0.00     0.338 C 
ATOM     38  O   UNL A   1      45.154  19.579  23.653  1.00  0.00    -0.246 OA
BRANCH  37  39
ATOM     39  C   UNL A   1      44.635  21.483  24.923  1.00  0.00     0.060 A 
ATOM     40  C   UNL A   1      43.915  22.550  24.369  1.00  0.00     0.016 A 
ATOM     41  C   UNL A   1      45.491  21.696  25.997  1.00  0.00     0.016 A 
ATOM     42  C   UNL A   1      43.924  23.794  25.003  1.00  0.00     0.010 A 
ATOM     43  C   UNL A   1      45.412  22.894  26.682  1.00  0.00     0.010 A 
ATOM     44  C   UNL A   1      44.631  23.955  26.197  1.00  0.00    -0.014 A 
BRANCH  44  45
ATOM     45  C   UNL A   1      44.518  25.202  26.966  1.00  0.00     0.031 A 
ATOM     46  C   UNL A   1      45.486  26.327  26.706  1.00  0.00     0.074 A 
ATOM     47  C   UNL A   1      43.431  25.472  27.719  1.00  0.00     0.049 A 
ATOM     48  N   UNL A   1      46.232  26.961  27.559  1.00  0.00    -0.248 NA
ATOM     49  C   UNL A   1      45.622  26.831  25.333  1.00  0.00     0.031 C 
ATOM     50  C   UNL A   1      42.216  24.666  27.897  1.00  0.00     0.029 A 
ATOM     51  N   UNL A   1      43.140  26.615  28.399  1.00  0.00    -0.354 N 
ATOM     52  C   UNL A   1      46.821  28.033  26.875  1.00  0.00     0.074 A 
ATOM     53  C   UNL A   1      46.462  27.858  25.491  1.00  0.00     0.031 C 
ATOM     54  C   UNL A   1      41.238  25.438  28.414  1.00  0.00     0.029 A 
ATOM     55  C   UNL A   1      41.817  26.713  28.786  1.00  0.00     0.049 A 
ATOM     56  H   UNL A   1      43.811  27.309  28.595  1.00  0.00     0.167 HD
ATOM     57  C   UNL A   1      47.457  29.060  27.518  1.00  0.00     0.037 A 
ATOM     58  C   UNL A   1      41.214  27.771  29.369  1.00  0.00     0.037 A 
ATOM     59  C   UNL A   1      47.763  28.718  28.881  1.00  0.00     0.049 A 
ATOM     60  C   UNL A   1      42.267  28.565  30.042  1.00  0.00     0.074 A 
ATOM     61  C   UNL A   1      48.529  27.751  29.502  1.00  0.00     0.029 A 
ATOM     62  N   UNL A   1      46.998  29.267  29.880  1.00  0.00    -0.354 N 
ATOM     63  N   UNL A   1      42.979  28.125  31.046  1.00  0.00    -0.248 NA
ATOM     64  C   UNL A   1      42.814  29.723  29.355  1.00  0.00     0.031 C 
ATOM     65  C   UNL A   1      47.813  27.426  30.693  1.00  0.00     0.029 A 
ATOM     66  C   UNL A   1      46.677  28.238  30.727  1.00  0.00     0.049 A 
ATOM     67  H   UNL A   1      46.732  30.211  29.971  1.00  0.00     0.167 HD
ATOM     68  C   UNL A   1      44.238  28.676  30.862  1.00  0.00     0.074 A 
ATOM     69  C   UNL A   1      44.040  29.742  29.885  1.00  0.00     0.031 C 
ATOM     70  C   UNL A   1      45.368  28.049  31.312  1.00  0.00     0.037 A 
BRANCH  57  71
ATOM     71  C   UNL A   1      47.596  30.492  27.028  1.00  0.00     0.058 A 
ATOM     72  C   UNL A   1      48.853  31.138  27.109  1.00  0.00     0.135 A 
ATOM     73  C   UNL A   1      46.501  31.342  26.769  1.00  0.00     0.135 A 
ATOM     74  F   UNL A   1      49.975  30.435  27.332  1.00  0.00    -0.206 F 
ATOM     75  C   UNL A   1      48.996  32.526  27.048  1.00  0.00     0.059 A 
ATOM     76  C   UNL A   1      46.628  32.728  26.657  1.00  0.00     0.059 A 
ATOM     77  F   UNL A   1      45.247  30.878  26.709  1.00  0.00    -0.206 F 
ATOM     78  C   UNL A   1      47.869  33.316  26.855  1.00  0.00     0.060 A 
BRANCH  78  79
ATOM     79  S   UNL A   1      48.024  35.111  26.948  1.00  0.00     0.124 S 
ATOM     80  O   UNL A   1      48.098  35.467  25.535  1.00  0.00    -0.237 OA
ATOM     81  O   UNL A   1      46.796  35.495  27.637  1.00  0.00    -0.237 OA
ATOM     82  O   UNL A   1      49.252  35.303  27.713  1.00  0.00    -0.744 OA
ENDBRANCH  78  79
ENDBRANCH  57  71
BRANCH  58  83
ATOM     83  C   UNL A   1      39.840  28.247  29.103  1.00  0.00     0.058 A 
ATOM     84  C   UNL A   1      38.848  28.221  30.092  1.00  0.00     0.135 A 
ATOM     85  C   UNL A   1      39.538  28.963  27.923  1.00  0.00     0.135 A 
ATOM     86  F   UNL A   1      39.070  27.585  31.252  1.00  0.00    -0.206 F 
ATOM     87  C   UNL A   1      37.632  28.893  29.936  1.00  0.00     0.059 A 
ATOM     88  C   UNL A   1      38.331  29.631  27.741  1.00  0.00     0.059 A 
ATOM     89  F   UNL A   1      40.447  29.101  26.945  1.00  0.00    -0.206 F 
ATOM     90  C   UNL A   1      37.391  29.609  28.762  1.00  0.00     0.060 A 
BRANCH  90  91
ATOM     91  S   UNL A   1      35.891  30.609  28.626  1.00  0.00     0.124 S 
ATOM     92  O   UNL A   1      35.671  31.010  30.011  1.00  0.00    -0.237 OA
ATOM     93  O   UNL A   1      36.310  31.668  27.714  1.00  0.00    -0.237 OA
ATOM     94  O   UNL A   1      34.908  29.675  28.083  1.00  0.00    -0.744 OA
ENDBRANCH  90  91
ENDBRANCH  58  83
BRANCH  70  95
ATOM     95  C   UNL A   1      45.222  26.881  32.257  1.00  0.00     0.058 A 
ATOM     96  C   UNL A   1      45.049  27.019  33.644  1.00  0.00     0.135 A 
ATOM     97  C   UNL A   1      45.056  25.595  31.722  1.00  0.00     0.135 A 
ATOM     98  F   UNL A   1      45.075  28.223  34.225  1.00  0.00    -0.206 F 
ATOM     99  C   UNL A   1      44.761  25.930  34.468  1.00  0.00     0.059 A 
ATOM    100  C   UNL A   1      44.739  24.496  32.521  1.00  0.00     0.059 A 
ATOM    101  F   UNL A   1      45.137  25.404  30.394  1.00  0.00    -0.206 F 
ATOM    102  C   UNL A   1      44.603  24.670  33.897  1.00  0.00     0.060 A 
BRANCH 102 103
ATOM    103  S   UNL A   1      44.124  23.287  34.954  1.00  0.00     0.124 S 
ATOM    104  O   UNL A   1      44.914  23.533  36.156  1.00  0.00    -0.237 OA
ATOM    105  O   UNL A   1      42.682  23.474  35.095  1.00  0.00    -0.237 OA
ATOM    106  O   UNL A   1      44.516  22.113  34.179  1.00  0.00    -0.744 OA
ENDBRANCH 102 103
ENDBRANCH  70  95
ENDBRANCH  44  45
ENDBRANCH  37  39
ENDBRANCH  36  37
ENDBRANCH  35  36
ENDBRANCH   1  35
TORSDOF 20
ENDMDL
MODEL 2
REMARK VINA RESULT:     -11.6      4.388      9.417
REMARK SMILES COC(=O)c1c(SCC(=O)Nc2cc(C)ccc2C)[nH]c2cc(C(=O)OCCOC(=O)c3ccc(-c4c5nc(c(-c6c(F)cc(S(=O)(=O)[O-])cc6F)c6ccc([nH]6)c(-c6c(F)cc(S(=O)(=O)[O-])cc6F)c6nc(c(-c7c(F)cc(S(=O)(=O)[O-])cc7F)c7ccc4[nH]7)C=C6)C=C5)cc3)ccc2c1=O
REMARK SMILES IDX 27 1 26 2 24 3 25 4 23 5 5 6 6 7 101 8 20 9 100 10 102 11
REMARK SMILES IDX 21 12 99 14 22 15 98 16 3 17 4 18 2 19 1 20 7 21 8 22 9 23
REMARK SMILES IDX 10 24 11 25 12 27 13 28 18 29 14 30 17 31 19 32 15 33 16 34
REMARK SMILES IDX 28 35 29 36 30 37 31 38 32 39 33 40 97 41 34 42 96 43 35 44
REMARK SMILES IDX 36 45 37 46 90 47 38 48 95 49 89 50 91 51 39 52 94 53 88 54
REMARK SMILES IDX 87 55 40 57 74 58 53 59 73 60 54 61 57 62 72 63 92 64 55 65
REMARK SMILES IDX 56 66 71 68 93 69 58 70 41 71 42 72 51 73 43 74 44 75 50 76
REMARK SMILES IDX 52 77 45 78 46 79 47 80 48 81 49 82 75 83 76 84 85 85 77 86
REMARK SMILES IDX 78 87 84 88 86 89 79 90 80 91 81 92 82 93 83 94 59 95 60 96
REMARK SMILES IDX 69 97 61 98 62 99 68 100 70 101 63 102 64 103 65 104 66 105
REMARK SMILES IDX 67 106
REMARK H PARENT 20 13 11 26 91 56 57 67
REMARK Flexibility Score: inf
ROOT
ATOM      1  C   UNL A   1      44.093  24.384  24.663  1.00  0.00     0.275 C 
ENDROOT
BRANCH   1   2
ATOM      2  O   UNL A   1      44.622  25.009  25.837  1.00  0.00    -0.458 OA
BRANCH   2   3
ATOM      3  C   UNL A   1      45.807  25.617  25.663  1.00  0.00     0.338 C 
ATOM      4  O   UNL A   1      46.352  25.928  24.601  1.00  0.00    -0.246 OA
BRANCH   3   5
ATOM      5  C   UNL A   1      46.488  25.722  26.942  1.00  0.00     0.062 A 
ATOM      6  C   UNL A   1      47.813  26.205  31.855  1.00  0.00     0.138 A 
ATOM      7  C   UNL A   1      46.573  25.660  31.830  1.00  0.00     0.092 A 
ATOM      8  C   UNL A   1      48.481  26.527  30.559  1.00  0.00     0.205 A 
ATOM      9  N   UNL A   1      45.961  25.372  30.604  1.00  0.00    -0.349 N 
ATOM     10  C   UNL A   1      47.805  26.203  29.300  1.00  0.00     0.046 A 
ATOM     11  O   UNL A   1      49.561  27.113  30.511  1.00  0.00    -0.288 OA
ATOM     12  C   UNL A   1      46.527  25.640  29.355  1.00  0.00     0.051 A 
ATOM     13  H   UNL A   1      45.071  24.953  30.623  1.00  0.00     0.167 HD
ATOM     14  C   UNL A   1      48.430  26.519  28.088  1.00  0.00     0.015 A 
ATOM     15  C   UNL A   1      45.859  25.387  28.153  1.00  0.00     0.042 A 
ATOM     16  C   UNL A   1      47.764  26.284  26.902  1.00  0.00     0.016 A 
BRANCH   6  17
ATOM     17  C   UNL A   1      48.642  26.545  33.018  1.00  0.00     0.344 C 
ATOM     18  O   UNL A   1      48.719  27.689  33.446  1.00  0.00    -0.246 OA
BRANCH  17  19
ATOM     19  O   UNL A   1      49.177  25.432  33.571  1.00  0.00    -0.465 OA
ATOM     20  C   UNL A   1      50.558  25.545  33.927  1.00  0.00     0.282 C 
ENDBRANCH  17  19
ENDBRANCH   6  17
BRANCH   7  21
ATOM     21  S   UNL A   1      45.527  25.361  33.208  1.00  0.00    -0.098 SA
BRANCH  21  22
ATOM     22  C   UNL A   1      44.623  23.816  33.165  1.00  0.00     0.176 C 
BRANCH  22  23
ATOM     23  C   UNL A   1      44.245  23.117  34.446  1.00  0.00     0.234 C 
ATOM     24  O   UNL A   1      43.056  22.831  34.644  1.00  0.00    -0.274 OA
ATOM     25  N   UNL A   1      45.128  22.583  35.337  1.00  0.00    -0.325 N 
ATOM     26  H   UNL A   1      44.811  22.485  36.264  1.00  0.00     0.169 HD
BRANCH  25  27
ATOM     27  C   UNL A   1      46.437  22.158  35.076  1.00  0.00     0.044 A 
ATOM     28  C   UNL A   1      46.674  21.044  34.270  1.00  0.00     0.029 A 
ATOM     29  C   UNL A   1      47.522  22.859  35.631  1.00  0.00    -0.027 A 
ATOM     30  C   UNL A   1      47.961  20.525  34.105  1.00  0.00    -0.049 A 
ATOM     31  C   UNL A   1      48.817  22.349  35.442  1.00  0.00     0.006 A 
ATOM     32  C   UNL A   1      47.388  24.099  36.476  1.00  0.00     0.046 C 
ATOM     33  C   UNL A   1      48.179  19.280  33.298  1.00  0.00     0.044 C 
ATOM     34  C   UNL A   1      49.033  21.182  34.707  1.00  0.00     0.004 A 
ENDBRANCH  25  27
ENDBRANCH  22  23
ENDBRANCH  21  22
ENDBRANCH   7  21
ENDBRANCH   3   5
ENDBRANCH   2   3
ENDBRANCH   1   2
BRANCH   1  35
ATOM     35  C   UNL A   1      44.071  22.866  24.841  1.00  0.00     0.275 C 
BRANCH  35  36
ATOM     36  O   UNL A   1      42.762  22.232  24.965  1.00  0.00    -0.458 OA
BRANCH  36  37
ATOM     37  C   UNL A   1      42.030  22.024  26.091  1.00  0.00     0.338 C 
ATOM     38  O   UNL A   1      41.661  20.901  26.414  1.00  0.00    -0.246 OA
BRANCH  37  39
ATOM     39  C   UNL A   1      41.726  23.185  26.948  1.00  0.00     0.060 A 
ATOM     40  C   UNL A   1      42.427  23.348  28.150  1.00  0.00     0.016 A 
ATOM     41  C   UNL A   1      40.843  24.167  26.512  1.00  0.00     0.016 A 
ATOM     42  C   UNL A   1      42.372  24.568  28.825  1.00  0.00     0.010 A 
ATOM     43  C   UNL A   1      40.875  25.407  27.122  1.00  0.00     0.010 A 
ATOM     44  C   UNL A   1      41.636  25.624  28.280  1.00  0.00    -0.014 A 
BRANCH  44  45
ATOM     45  C   UNL A   1      41.700  26.963  28.884  1.00  0.00     0.031 A 
ATOM     46  C   UNL A   1      42.864  27.866  28.570  1.00  0.00     0.074 A 
ATOM     47  C   UNL A   1      40.636  27.506  29.512  1.00  0.00     0.049 A 
ATOM     48  N   UNL A   1      43.660  28.472  29.398  1.00  0.00    -0.248 NA
ATOM     49  C   UNL A   1      43.165  28.157  27.162  1.00  0.00     0.031 C 
ATOM     50  C   UNL A   1      39.290  26.945  29.687  1.00  0.00     0.029 A 
ATOM     51  N   UNL A   1      40.512  28.761  30.026  1.00  0.00    -0.354 N 
ATOM     52  C   UNL A   1      44.466  29.333  28.640  1.00  0.00     0.074 A 
ATOM     53  C   UNL A   1      44.162  29.040  27.263  1.00  0.00     0.031 C 
ATOM     54  C   UNL A   1      38.435  27.931  30.030  1.00  0.00     0.029 A 
ATOM     55  C   UNL A   1      39.207  29.129  30.293  1.00  0.00     0.049 A 
ATOM     56  H   UNL A   1      41.282  29.352  30.191  1.00  0.00     0.167 HD
ATOM     57  C   UNL A   1      45.235  30.313  29.205  1.00  0.00     0.037 A 
ATOM     58  C   UNL A   1      38.767  30.340  30.697  1.00  0.00     0.037 A 
ATOM     59  C   UNL A   1      45.397  30.106  30.619  1.00  0.00     0.049 A 
ATOM     60  C   UNL A   1      39.903  31.027  31.352  1.00  0.00     0.074 A 
ATOM     61  C   UNL A   1      45.944  29.114  31.409  1.00  0.00     0.029 A 
ATOM     62  N   UNL A   1      44.684  30.901  31.482  1.00  0.00    -0.354 N 
ATOM     63  N   UNL A   1      40.468  30.609  32.454  1.00  0.00    -0.248 NA
ATOM     64  C   UNL A   1      40.683  31.978  30.577  1.00  0.00     0.031 C 
ATOM     65  C   UNL A   1      45.115  29.072  32.570  1.00  0.00     0.029 A 
ATOM     66  C   UNL A   1      44.139  30.059  32.417  1.00  0.00     0.049 A 
ATOM     67  H   UNL A   1      44.585  31.880  31.439  1.00  0.00     0.167 HD
ATOM     68  C   UNL A   1      41.812  30.912  32.306  1.00  0.00     0.074 A 
ATOM     69  C   UNL A   1      41.861  31.861  31.196  1.00  0.00     0.031 C 
ATOM     70  C   UNL A   1      42.786  30.171  32.915  1.00  0.00     0.037 A 
BRANCH  57  71
ATOM     71  C   UNL A   1      45.651  31.626  28.561  1.00  0.00     0.058 A 
ATOM     72  C   UNL A   1      44.659  32.513  28.079  1.00  0.00     0.135 A 
ATOM     73  C   UNL A   1      46.965  31.907  28.133  1.00  0.00     0.135 A 
ATOM     74  F   UNL A   1      43.372  32.362  28.433  1.00  0.00    -0.206 F 
ATOM     75  C   UNL A   1      44.932  33.527  27.159  1.00  0.00     0.059 A 
ATOM     76  C   UNL A   1      47.268  32.946  27.250  1.00  0.00     0.059 A 
ATOM     77  F   UNL A   1      47.999  31.128  28.472  1.00  0.00    -0.206 F 
ATOM     78  C   UNL A   1      46.239  33.714  26.724  1.00  0.00     0.060 A 
BRANCH  78  79
ATOM     79  S   UNL A   1      46.569  34.906  25.411  1.00  0.00     0.124 S 
ATOM     80  O   UNL A   1      47.942  34.565  25.052  1.00  0.00    -0.237 OA
ATOM     81  O   UNL A   1      45.551  34.569  24.421  1.00  0.00    -0.237 OA
ATOM     82  O   UNL A   1      46.389  36.194  26.073  1.00  0.00    -0.744 OA
ENDBRANCH  78  79
ENDBRANCH  57  71
BRANCH  58  83
ATOM     83  C   UNL A   1      37.515  30.999  30.268  1.00  0.00     0.058 A 
ATOM     84  C   UNL A   1      36.641  31.589  31.191  1.00  0.00     0.135 A 
ATOM     85  C   UNL A   1      37.271  31.271  28.904  1.00  0.00     0.135 A 
ATOM     86  F   UNL A   1      36.824  31.400  32.506  1.00  0.00    -0.206 F 
ATOM     87  C   UNL A   1      35.598  32.427  30.788  1.00  0.00     0.059 A 
ATOM     88  C   UNL A   1      36.233  32.093  28.478  1.00  0.00     0.059 A 
ATOM     89  F   UNL A   1      38.092  30.807  27.948  1.00  0.00    -0.206 F 
ATOM     90  C   UNL A   1      35.412  32.686  29.429  1.00  0.00     0.060 A 
BRANCH  90  91
ATOM     91  S   UNL A   1      34.169  33.894  28.918  1.00  0.00     0.124 S 
ATOM     92  O   UNL A   1      33.522  34.213  30.185  1.00  0.00    -0.237 OA
ATOM     93  O   UNL A   1      34.990  34.951  28.336  1.00  0.00    -0.237 OA
ATOM     94  O   UNL A   1      33.346  33.152  27.966  1.00  0.00    -0.744 OA
ENDBRANCH  90  91
ENDBRANCH  58  83
BRANCH  70  95
ATOM     95  C   UNL A   1      42.384  29.176  33.977  1.00  0.00     0.058 A 
ATOM     96  C   UNL A   1      42.004  27.853  33.700  1.00  0.00     0.135 A 
ATOM     97  C   UNL A   1      42.576  29.511  35.326  1.00  0.00     0.135 A 
ATOM     98  F   UNL A   1      41.909  27.413  32.441  1.00  0.00    -0.206 F 
ATOM     99  C   UNL A   1      41.789  26.915  34.711  1.00  0.00     0.059 A 
ATOM    100  C   UNL A   1      42.396  28.584  36.352  1.00  0.00     0.059 A 
ATOM    101  F   UNL A   1      43.009  30.739  35.658  1.00  0.00    -0.206 F 
ATOM    102  C   UNL A   1      41.992  27.287  36.036  1.00  0.00     0.060 A 
BRANCH 102 103
ATOM    103  S   UNL A   1      41.817  26.040  37.330  1.00  0.00     0.124 S 
ATOM    104  O   UNL A   1      42.812  26.469  38.306  1.00  0.00    -0.237 OA
ATOM    105  O   UNL A   1      40.423  26.194  37.738  1.00  0.00    -0.237 OA
ATOM    106  O   UNL A   1      42.118  24.788  36.640  1.00  0.00    -0.744 OA
ENDBRANCH 102 103
ENDBRANCH  70  95
ENDBRANCH  44  45
ENDBRANCH  37  39
ENDBRANCH  36  37
ENDBRANCH  35  36
ENDBRANCH   1  35
TORSDOF 20
ENDMDL
MODEL 3
REMARK VINA RESULT:     -11.5      3.000      9.424
REMARK SMILES COC(=O)c1c(SCC(=O)Nc2cc(C)ccc2C)[nH]c2cc(C(=O)OCCOC(=O)c3ccc(-c4c5nc(c(-c6c(F)cc(S(=O)(=O)[O-])cc6F)c6ccc([nH]6)c(-c6c(F)cc(S(=O)(=O)[O-])cc6F)c6nc(c(-c7c(F)cc(S(=O)(=O)[O-])cc7F)c7ccc4[nH]7)C=C6)C=C5)cc3)ccc2c1=O
REMARK SMILES IDX 27 1 26 2 24 3 25 4 23 5 5 6 6 7 101 8 20 9 100 10 102 11
REMARK SMILES IDX 21 12 99 14 22 15 98 16 3 17 4 18 2 19 1 20 7 21 8 22 9 23
REMARK SMILES IDX 10 24 11 25 12 27 13 28 18 29 14 30 17 31 19 32 15 33 16 34
REMARK SMILES IDX 28 35 29 36 30 37 31 38 32 39 33 40 97 41 34 42 96 43 35 44
REMARK SMILES IDX 36 45 37 46 90 47 38 48 95 49 89 50 91 51 39 52 94 53 88 54
REMARK SMILES IDX 87 55 40 57 74 58 53 59 73 60 54 61 57 62 72 63 92 64 55 65
REMARK SMILES IDX 56 66 71 68 93 69 58 70 41 71 42 72 51 73 43 74 44 75 50 76
REMARK SMILES IDX 52 77 45 78 46 79 47 80 48 81 49 82 75 83 76 84 85 85 77 86
REMARK SMILES IDX 78 87 84 88 86 89 79 90 80 91 81 92 82 93 83 94 59 95 60 96
REMARK SMILES IDX 69 97 61 98 62 99 68 100 70 101 63 102 64 103 65 104 66 105
REMARK SMILES IDX 67 106
REMARK H PARENT 20 13 11 26 91 56 57 67
REMARK Flexibility Score: inf
ROOT
ATOM      1  C   UNL A   1      36.488  31.612  28.720  1.00  0.00     0.275 C 
ENDROOT
BRANCH   1   2
ATOM      2  O   UNL A   1      35.558  31.285  27.683  1.00  0.00    -0.458 OA
BRANCH   2   3
ATOM      3  C   UNL A   1      35.161  30.002  27.670  1.00  0.00     0.338 C 
ATOM      4  O   UNL A   1      35.765  29.016  28.099  1.00  0.00    -0.246 OA
BRANCH   3   5
ATOM      5  C   UNL A   1      33.938  29.883  26.895  1.00  0.00     0.062 A 
ATOM      6  C   UNL A   1      30.309  28.889  23.435  1.00  0.00     0.138 A 
ATOM      7  C   UNL A   1      31.224  27.894  23.350  1.00  0.00     0.092 A 
ATOM      8  C   UNL A   1      30.528  29.979  24.433  1.00  0.00     0.205 A 
ATOM      9  N   UNL A   1      32.325  27.879  24.215  1.00  0.00    -0.349 N 
ATOM     10  C   UNL A   1      31.691  29.919  25.322  1.00  0.00     0.046 A 
ATOM     11  O   UNL A   1      29.792  30.962  24.494  1.00  0.00    -0.288 OA
ATOM     12  C   UNL A   1      32.590  28.858  25.174  1.00  0.00     0.051 A 
ATOM     13  H   UNL A   1      32.955  27.127  24.142  1.00  0.00     0.167 HD
ATOM     14  C   UNL A   1      31.898  30.950  26.246  1.00  0.00     0.015 A 
ATOM     15  C   UNL A   1      33.730  28.836  25.982  1.00  0.00     0.042 A 
ATOM     16  C   UNL A   1      33.032  30.936  27.032  1.00  0.00     0.016 A 
BRANCH   6  17
ATOM     17  C   UNL A   1      29.076  29.072  22.660  1.00  0.00     0.344 C 
ATOM     18  O   UNL A   1      28.018  28.560  22.997  1.00  0.00    -0.246 OA
BRANCH  17  19
ATOM     19  O   UNL A   1      29.271  29.941  21.642  1.00  0.00    -0.465 OA
ATOM     20  C   UNL A   1      28.071  30.438  21.041  1.00  0.00     0.282 C 
ENDBRANCH  17  19
ENDBRANCH   6  17
BRANCH   7  21
ATOM     21  S   UNL A   1      31.275  26.613  22.150  1.00  0.00    -0.098 SA
BRANCH  21  22
ATOM     22  C   UNL A   1      31.901  25.040  22.731  1.00  0.00     0.176 C 
BRANCH  22  23
ATOM     23  C   UNL A   1      33.297  24.594  22.376  1.00  0.00     0.234 C 
ATOM     24  O   UNL A   1      34.107  25.434  21.963  1.00  0.00    -0.274 OA
ATOM     25  N   UNL A   1      33.823  23.367  22.657  1.00  0.00    -0.325 N 
ATOM     26  H   UNL A   1      34.568  23.069  22.087  1.00  0.00     0.169 HD
BRANCH  25  27
ATOM     27  C   UNL A   1      33.417  22.487  23.669  1.00  0.00     0.044 A 
ATOM     28  C   UNL A   1      33.848  22.670  24.983  1.00  0.00     0.029 A 
ATOM     29  C   UNL A   1      32.569  21.411  23.357  1.00  0.00    -0.027 A 
ATOM     30  C   UNL A   1      33.566  21.732  25.979  1.00  0.00    -0.049 A 
ATOM     31  C   UNL A   1      32.264  20.483  24.368  1.00  0.00     0.006 A 
ATOM     32  C   UNL A   1      32.005  21.143  21.986  1.00  0.00     0.046 C 
ATOM     33  C   UNL A   1      34.107  21.911  27.365  1.00  0.00     0.044 C 
ATOM     34  C   UNL A   1      32.776  20.628  25.658  1.00  0.00     0.004 A 
ENDBRANCH  25  27
ENDBRANCH  22  23
ENDBRANCH  21  22
ENDBRANCH   7  21
ENDBRANCH   3   5
ENDBRANCH   2   3
ENDBRANCH   1   2
BRANCH   1  35
ATOM     35  C   UNL A   1      35.772  32.333  29.862  1.00  0.00     0.275 C 
BRANCH  35  36
ATOM     36  O   UNL A   1      35.461  31.545  31.051  1.00  0.00    -0.458 OA
BRANCH  36  37
ATOM     37  C   UNL A   1      36.088  31.555  32.256  1.00  0.00     0.338 C 
ATOM     38  O   UNL A   1      35.584  32.093  33.234  1.00  0.00    -0.246 OA
BRANCH  37  39
ATOM     39  C   UNL A   1      37.381  30.854  32.373  1.00  0.00     0.060 A 
ATOM     40  C   UNL A   1      37.409  29.456  32.286  1.00  0.00     0.016 A 
ATOM     41  C   UNL A   1      38.567  31.577  32.448  1.00  0.00     0.016 A 
ATOM     42  C   UNL A   1      38.626  28.797  32.101  1.00  0.00     0.010 A 
ATOM     43  C   UNL A   1      39.755  30.934  32.157  1.00  0.00     0.010 A 
ATOM     44  C   UNL A   1      39.802  29.543  31.980  1.00  0.00    -0.014 A 
BRANCH  44  45
ATOM     45  C   UNL A   1      41.065  28.884  31.619  1.00  0.00     0.031 A 
ATOM     46  C   UNL A   1      42.126  28.685  32.669  1.00  0.00     0.074 A 
ATOM     47  C   UNL A   1      41.212  28.232  30.447  1.00  0.00     0.049 A 
ATOM     48  N   UNL A   1      43.376  29.036  32.629  1.00  0.00    -0.248 NA
ATOM     49  C   UNL A   1      41.765  27.982  33.907  1.00  0.00     0.031 C 
ATOM     50  C   UNL A   1      40.222  28.026  29.382  1.00  0.00     0.029 A 
ATOM     51  N   UNL A   1      42.275  27.496  30.020  1.00  0.00    -0.354 N 
ATOM     52  C   UNL A   1      43.998  28.480  33.755  1.00  0.00     0.074 A 
ATOM     53  C   UNL A   1      42.938  27.902  34.541  1.00  0.00     0.031 C 
ATOM     54  C   UNL A   1      40.636  27.031  28.572  1.00  0.00     0.029 A 
ATOM     55  C   UNL A   1      41.993  26.681  28.940  1.00  0.00     0.049 A 
ATOM     56  H   UNL A   1      43.163  27.540  30.444  1.00  0.00     0.167 HD
ATOM     57  C   UNL A   1      45.358  28.425  33.897  1.00  0.00     0.037 A 
ATOM     58  C   UNL A   1      42.807  25.763  28.376  1.00  0.00     0.037 A 
ATOM     59  C   UNL A   1      46.020  29.308  32.974  1.00  0.00     0.049 A 
ATOM     60  C   UNL A   1      44.200  26.151  28.696  1.00  0.00     0.074 A 
ATOM     61  C   UNL A   1      46.020  30.670  32.749  1.00  0.00     0.029 A 
ATOM     62  N   UNL A   1      46.640  28.762  31.878  1.00  0.00    -0.354 N 
ATOM     63  N   UNL A   1      44.764  27.251  28.272  1.00  0.00    -0.248 NA
ATOM     64  C   UNL A   1      44.862  25.509  29.819  1.00  0.00     0.031 C 
ATOM     65  C   UNL A   1      46.156  30.808  31.335  1.00  0.00     0.029 A 
ATOM     66  C   UNL A   1      46.256  29.521  30.803  1.00  0.00     0.049 A 
ATOM     67  H   UNL A   1      47.242  27.982  31.866  1.00  0.00     0.167 HD
ATOM     68  C   UNL A   1      45.590  27.655  29.309  1.00  0.00     0.074 A 
ATOM     69  C   UNL A   1      45.703  26.484  30.174  1.00  0.00     0.031 C 
ATOM     70  C   UNL A   1      45.890  28.973  29.515  1.00  0.00     0.037 A 
BRANCH  57  71
ATOM     71  C   UNL A   1      46.149  27.393  34.684  1.00  0.00     0.058 A 
ATOM     72  C   UNL A   1      47.077  27.823  35.662  1.00  0.00     0.135 A 
ATOM     73  C   UNL A   1      46.253  26.036  34.315  1.00  0.00     0.135 A 
ATOM     74  F   UNL A   1      47.066  29.089  36.111  1.00  0.00    -0.206 F 
ATOM     75  C   UNL A   1      48.097  27.003  36.151  1.00  0.00     0.059 A 
ATOM     76  C   UNL A   1      47.234  25.185  34.828  1.00  0.00     0.059 A 
ATOM     77  F   UNL A   1      45.471  25.500  33.371  1.00  0.00    -0.206 F 
ATOM     78  C   UNL A   1      48.187  25.692  35.701  1.00  0.00     0.060 A 
BRANCH  78  79
ATOM     79  S   UNL A   1      49.599  24.684  36.196  1.00  0.00     0.124 S 
ATOM     80  O   UNL A   1      50.286  25.584  37.116  1.00  0.00    -0.237 OA
ATOM     81  O   UNL A   1      48.955  23.523  36.803  1.00  0.00    -0.237 OA
ATOM     82  O   UNL A   1      50.284  24.425  34.934  1.00  0.00    -0.744 OA
ENDBRANCH  78  79
ENDBRANCH  57  71
BRANCH  58  83
ATOM     83  C   UNL A   1      42.399  24.445  27.846  1.00  0.00     0.058 A 
ATOM     84  C   UNL A   1      42.238  24.223  26.473  1.00  0.00     0.135 A 
ATOM     85  C   UNL A   1      42.390  23.303  28.678  1.00  0.00     0.135 A 
ATOM     86  F   UNL A   1      42.263  25.254  25.616  1.00  0.00    -0.206 F 
ATOM     87  C   UNL A   1      42.103  22.935  25.945  1.00  0.00     0.059 A 
ATOM     88  C   UNL A   1      42.247  22.013  28.176  1.00  0.00     0.059 A 
ATOM     89  F   UNL A   1      42.603  23.406  29.999  1.00  0.00    -0.206 F 
ATOM     90  C   UNL A   1      42.126  21.836  26.804  1.00  0.00     0.060 A 
BRANCH  90  91
ATOM     91  S   UNL A   1      42.115  20.167  26.110  1.00  0.00     0.124 S 
ATOM     92  O   UNL A   1      43.240  20.220  25.183  1.00  0.00    -0.237 OA
ATOM     93  O   UNL A   1      42.305  19.340  27.297  1.00  0.00    -0.237 OA
ATOM     94  O   UNL A   1      40.798  20.067  25.487  1.00  0.00    -0.744 OA
ENDBRANCH  90  91
ENDBRANCH  58  83
BRANCH  70  95
ATOM     95  C   UNL A   1      45.539  29.974  28.441  1.00  0.00     0.058 A 
ATOM     96  C   UNL A   1      44.318  30.666  28.392  1.00  0.00     0.135 A 
ATOM     97  C   UNL A   1      46.540  30.389  27.550  1.00  0.00     0.135 A 
ATOM     98  F   UNL A   1      43.349  30.416  29.278  1.00  0.00    -0.206 F 
ATOM     99  C   UNL A   1      44.084  31.696  27.479  1.00  0.00     0.059 A 
ATOM    100  C   UNL A   1      46.341  31.436  26.648  1.00  0.00     0.059 A 
ATOM    101  F   UNL A   1      47.755  29.819  27.591  1.00  0.00    -0.206 F 
ATOM    102  C   UNL A   1      45.104  32.079  26.613  1.00  0.00     0.060 A 
BRANCH 102 103
ATOM    103  S   UNL A   1      44.831  33.483  25.511  1.00  0.00     0.124 S 
ATOM    104  O   UNL A   1      46.185  33.993  25.324  1.00  0.00    -0.237 OA
ATOM    105  O   UNL A   1      44.223  32.858  24.339  1.00  0.00    -0.237 OA
ATOM    106  O   UNL A   1      43.937  34.349  26.275  1.00  0.00    -0.744 OA
ENDBRANCH 102 103
ENDBRANCH  70  95
ENDBRANCH  44  45
ENDBRANCH  37  39
ENDBRANCH  36  37
ENDBRANCH  35  36
ENDBRANCH   1  35
TORSDOF 20
ENDMDL
