MODEL 1
REMARK VINA RESULT:     -12.1      0.000      0.000
REMARK SMILES COc1cc(OC)cc(-c2cc3nc(C)c(CCC(=O)OCCOC(=O)c4ccc(-c5c6nc(c(-c7c(F)cc(S(=O)(=O)[O-])cc7F)c7ccc([nH]7)c(-c7c(F)cc(S(=O)(=O)[O-])cc7F)c7nc(c(-c8c(F)cc(S(=O)(=O)[O-])cc8F)c8ccc5[nH]8)C=C7)C=C6)cc4)c(C)n3n2)c1
REMARK SMILES IDX 22 1 21 2 19 3 20 4 18 5 17 6 16 7 10 8 11 9 96 10 12 11
REMARK SMILES IDX 95 12 13 13 93 14 14 15 94 16 15 17 9 18 3 19 4 20 97 21
REMARK SMILES IDX 5 22 8 23 2 24 1 25 6 26 7 27 23 28 24 29 25 30 26 31 27 32
REMARK SMILES IDX 28 33 92 34 29 35 91 36 30 37 31 38 32 39 85 40 33 41 90 42
REMARK SMILES IDX 84 43 86 44 34 45 89 46 83 47 82 48 35 50 69 51 48 52 68 53
REMARK SMILES IDX 49 54 52 55 67 56 87 57 50 58 51 59 66 61 88 62 53 63 36 64
REMARK SMILES IDX 37 65 46 66 38 67 39 68 45 69 47 70 40 71 41 72 42 73 43 74
REMARK SMILES IDX 44 75 70 76 71 77 80 78 72 79 73 80 79 81 81 82 74 83 75 84
REMARK SMILES IDX 76 85 77 86 78 87 54 88 55 89 64 90 56 91 57 92 63 93 65 94
REMARK SMILES IDX 58 95 59 96 60 97 61 98 62 99
REMARK H PARENT 86 49 52 60
REMARK Flexibility Score: inf
ROOT
ATOM      1  C   UNL A   1      32.010  30.525  26.065  1.00  0.00     0.274 C 
ENDROOT
BRANCH   1   2
ATOM      2  O   UNL A   1      31.755  29.137  25.759  1.00  0.00    -0.462 OA
BRANCH   2   3
ATOM      3  C   UNL A   1      32.609  28.530  24.895  1.00  0.00     0.306 C 
ATOM      4  O   UNL A   1      33.421  27.668  25.222  1.00  0.00    -0.252 OA
BRANCH   3   5
ATOM      5  C   UNL A   1      32.515  29.051  23.464  1.00  0.00     0.127 C 
BRANCH   5   6
ATOM      6  C   UNL A   1      31.505  28.426  22.479  1.00  0.00     0.051 C 
BRANCH   6   7
ATOM      7  C   UNL A   1      31.203  26.984  22.780  1.00  0.00    -0.005 A 
ATOM      8  C   UNL A   1      32.188  22.848  24.071  1.00  0.00     0.095 A 
ATOM      9  C   UNL A   1      30.992  23.332  24.637  1.00  0.00     0.080 A 
ATOM     10  N   UNL A   1      32.640  23.653  23.109  1.00  0.00    -0.166 NA
ATOM     11  C   UNL A   1      30.769  24.547  24.029  1.00  0.00     0.156 A 
ATOM     12  N   UNL A   1      31.808  24.722  23.116  1.00  0.00    -0.219 N 
ATOM     13  N   UNL A   1      29.781  25.471  24.178  1.00  0.00    -0.234 NA
ATOM     14  C   UNL A   1      31.988  25.935  22.439  1.00  0.00     0.046 A 
ATOM     15  C   UNL A   1      29.962  26.610  23.570  1.00  0.00     0.045 A 
ATOM     16  C   UNL A   1      33.154  25.968  21.490  1.00  0.00     0.067 C 
ATOM     17  C   UNL A   1      28.765  27.541  23.561  1.00  0.00     0.067 C 
BRANCH   8  18
ATOM     18  C   UNL A   1      32.916  21.635  24.382  1.00  0.00     0.009 A 
ATOM     19  C   UNL A   1      34.999  20.499  24.837  1.00  0.00     0.123 A 
ATOM     20  C   UNL A   1      34.330  19.276  24.732  1.00  0.00     0.092 A 
ATOM     21  C   UNL A   1      34.291  21.685  24.647  1.00  0.00     0.057 A 
ATOM     22  C   UNL A   1      32.960  19.223  24.461  1.00  0.00     0.123 A 
ATOM     23  C   UNL A   1      32.250  20.408  24.301  1.00  0.00     0.057 A 
BRANCH  19  24
ATOM     24  O   UNL A   1      36.345  20.409  25.066  1.00  0.00    -0.497 OA
ATOM     25  C   UNL A   1      37.122  21.523  24.645  1.00  0.00     0.278 C 
ENDBRANCH  19  24
BRANCH  22  26
ATOM     26  O   UNL A   1      32.427  17.965  24.374  1.00  0.00    -0.497 OA
ATOM     27  C   UNL A   1      32.627  17.126  25.509  1.00  0.00     0.278 C 
ENDBRANCH  22  26
ENDBRANCH   8  18
ENDBRANCH   6   7
ENDBRANCH   5   6
ENDBRANCH   3   5
ENDBRANCH   2   3
ENDBRANCH   1   2
BRANCH   1  28
ATOM     28  C   UNL A   1      32.914  30.688  27.288  1.00  0.00     0.275 C 
BRANCH  28  29
ATOM     29  O   UNL A   1      34.314  30.536  27.014  1.00  0.00    -0.458 OA
BRANCH  29  30
ATOM     30  C   UNL A   1      35.102  31.399  27.692  1.00  0.00     0.338 C 
ATOM     31  O   UNL A   1      35.069  32.611  27.649  1.00  0.00    -0.246 OA
BRANCH  30  32
ATOM     32  C   UNL A   1      36.257  30.742  28.289  1.00  0.00     0.060 A 
ATOM     33  C   UNL A   1      37.232  31.600  28.820  1.00  0.00     0.016 A 
ATOM     34  C   UNL A   1      36.494  29.382  28.079  1.00  0.00     0.016 A 
ATOM     35  C   UNL A   1      38.497  31.115  29.035  1.00  0.00     0.010 A 
ATOM     36  C   UNL A   1      37.763  28.895  28.301  1.00  0.00     0.010 A 
ATOM     37  C   UNL A   1      38.756  29.779  28.728  1.00  0.00    -0.014 A 
BRANCH  37  38
ATOM     38  C   UNL A   1      40.100  29.312  28.972  1.00  0.00     0.031 A 
ATOM     39  C   UNL A   1      40.450  29.207  30.408  1.00  0.00     0.074 A 
ATOM     40  C   UNL A   1      40.905  28.890  27.987  1.00  0.00     0.049 A 
ATOM     41  N   UNL A   1      41.335  29.870  31.076  1.00  0.00    -0.248 NA
ATOM     42  C   UNL A   1      39.592  28.340  31.230  1.00  0.00     0.031 C 
ATOM     43  C   UNL A   1      40.579  28.640  26.582  1.00  0.00     0.029 A 
ATOM     44  N   UNL A   1      42.189  28.473  28.094  1.00  0.00    -0.354 N 
ATOM     45  C   UNL A   1      41.272  29.370  32.373  1.00  0.00     0.074 A 
ATOM     46  C   UNL A   1      40.081  28.564  32.448  1.00  0.00     0.031 C 
ATOM     47  C   UNL A   1      41.568  27.900  26.034  1.00  0.00     0.029 A 
ATOM     48  C   UNL A   1      42.634  27.742  27.011  1.00  0.00     0.049 A 
ATOM     49  H   UNL A   1      42.754  28.675  28.875  1.00  0.00     0.167 HD
ATOM     50  C   UNL A   1      42.307  29.473  33.248  1.00  0.00     0.037 A 
ATOM     51  C   UNL A   1      43.740  26.962  26.999  1.00  0.00     0.037 A 
ATOM     52  C   UNL A   1      43.279  30.447  32.831  1.00  0.00     0.049 A 
ATOM     53  C   UNL A   1      44.627  27.433  28.100  1.00  0.00     0.074 A 
ATOM     54  C   UNL A   1      43.251  31.811  32.614  1.00  0.00     0.029 A 
ATOM     55  N   UNL A   1      44.423  29.995  32.219  1.00  0.00    -0.354 N 
ATOM     56  N   UNL A   1      45.186  28.615  28.135  1.00  0.00    -0.248 NA
ATOM     57  C   UNL A   1      44.548  26.755  29.388  1.00  0.00     0.031 C 
ATOM     58  C   UNL A   1      44.112  32.028  31.497  1.00  0.00     0.029 A 
ATOM     59  C   UNL A   1      44.628  30.788  31.115  1.00  0.00     0.049 A 
ATOM     60  H   UNL A   1      44.988  29.245  32.513  1.00  0.00     0.167 HD
ATOM     61  C   UNL A   1      45.168  28.992  29.474  1.00  0.00     0.074 A 
ATOM     62  C   UNL A   1      44.859  27.767  30.204  1.00  0.00     0.031 C 
ATOM     63  C   UNL A   1      45.136  30.307  29.847  1.00  0.00     0.037 A 
BRANCH  50  64
ATOM     64  C   UNL A   1      42.582  28.447  34.311  1.00  0.00     0.058 A 
ATOM     65  C   UNL A   1      42.507  28.799  35.670  1.00  0.00     0.135 A 
ATOM     66  C   UNL A   1      43.168  27.191  34.029  1.00  0.00     0.135 A 
ATOM     67  F   UNL A   1      41.992  29.983  36.041  1.00  0.00    -0.206 F 
ATOM     68  C   UNL A   1      43.021  27.980  36.676  1.00  0.00     0.059 A 
ATOM     69  C   UNL A   1      43.627  26.334  35.017  1.00  0.00     0.059 A 
ATOM     70  F   UNL A   1      43.410  26.788  32.774  1.00  0.00    -0.206 F 
ATOM     71  C   UNL A   1      43.594  26.757  36.335  1.00  0.00     0.060 A 
BRANCH  71  72
ATOM     72  S   UNL A   1      44.382  25.755  37.608  1.00  0.00     0.124 S 
ATOM     73  O   UNL A   1      45.792  25.937  37.282  1.00  0.00    -0.237 OA
ATOM     74  O   UNL A   1      43.920  26.397  38.834  1.00  0.00    -0.237 OA
ATOM     75  O   UNL A   1      43.843  24.420  37.366  1.00  0.00    -0.744 OA
ENDBRANCH  71  72
ENDBRANCH  50  64
BRANCH  51  76
ATOM     76  C   UNL A   1      43.831  25.621  26.369  1.00  0.00     0.058 A 
ATOM     77  C   UNL A   1      44.751  25.352  25.346  1.00  0.00     0.135 A 
ATOM     78  C   UNL A   1      43.167  24.503  26.922  1.00  0.00     0.135 A 
ATOM     79  F   UNL A   1      45.459  26.351  24.797  1.00  0.00    -0.206 F 
ATOM     80  C   UNL A   1      45.007  24.049  24.901  1.00  0.00     0.059 A 
ATOM     81  C   UNL A   1      43.390  23.202  26.483  1.00  0.00     0.059 A 
ATOM     82  F   UNL A   1      42.337  24.630  27.968  1.00  0.00    -0.206 F 
ATOM     83  C   UNL A   1      44.324  22.979  25.483  1.00  0.00     0.060 A 
BRANCH  83  84
ATOM     84  S   UNL A   1      44.741  21.287  25.005  1.00  0.00     0.124 S 
ATOM     85  O   UNL A   1      46.133  21.190  25.431  1.00  0.00    -0.237 OA
ATOM     86  O   UNL A   1      43.780  20.505  25.777  1.00  0.00    -0.237 OA
ATOM     87  O   UNL A   1      44.529  21.280  23.560  1.00  0.00    -0.744 OA
ENDBRANCH  83  84
ENDBRANCH  51  76
BRANCH  63  88
ATOM     88  C   UNL A   1      45.370  31.350  28.781  1.00  0.00     0.058 A 
ATOM     89  C   UNL A   1      44.339  31.887  27.991  1.00  0.00     0.135 A 
ATOM     90  C   UNL A   1      46.631  31.954  28.678  1.00  0.00     0.135 A 
ATOM     91  F   UNL A   1      43.080  31.449  28.116  1.00  0.00    -0.206 F 
ATOM     92  C   UNL A   1      44.555  32.945  27.109  1.00  0.00     0.059 A 
ATOM     93  C   UNL A   1      46.865  33.034  27.826  1.00  0.00     0.059 A 
ATOM     94  F   UNL A   1      47.641  31.537  29.460  1.00  0.00    -0.206 F 
ATOM     95  C   UNL A   1      45.823  33.517  27.037  1.00  0.00     0.060 A 
BRANCH  95  96
ATOM     96  S   UNL A   1      46.068  34.962  25.980  1.00  0.00     0.124 S 
ATOM     97  O   UNL A   1      47.178  34.539  25.132  1.00  0.00    -0.237 OA
ATOM     98  O   UNL A   1      44.775  35.092  25.311  1.00  0.00    -0.237 OA
ATOM     99  O   UNL A   1      46.376  36.029  26.928  1.00  0.00    -0.744 OA
ENDBRANCH  95  96
ENDBRANCH  63  88
ENDBRANCH  37  38
ENDBRANCH  30  32
ENDBRANCH  29  30
ENDBRANCH  28  29
ENDBRANCH   1  28
TORSDOF 19
ENDMDL
MODEL 2
REMARK VINA RESULT:     -12.1      2.641      9.643
REMARK SMILES COc1cc(OC)cc(-c2cc3nc(C)c(CCC(=O)OCCOC(=O)c4ccc(-c5c6nc(c(-c7c(F)cc(S(=O)(=O)[O-])cc7F)c7ccc([nH]7)c(-c7c(F)cc(S(=O)(=O)[O-])cc7F)c7nc(c(-c8c(F)cc(S(=O)(=O)[O-])cc8F)c8ccc5[nH]8)C=C7)C=C6)cc4)c(C)n3n2)c1
REMARK SMILES IDX 22 1 21 2 19 3 20 4 18 5 17 6 16 7 10 8 11 9 96 10 12 11
REMARK SMILES IDX 95 12 13 13 93 14 14 15 94 16 15 17 9 18 3 19 4 20 97 21
REMARK SMILES IDX 5 22 8 23 2 24 1 25 6 26 7 27 23 28 24 29 25 30 26 31 27 32
REMARK SMILES IDX 28 33 92 34 29 35 91 36 30 37 31 38 32 39 85 40 33 41 90 42
REMARK SMILES IDX 84 43 86 44 34 45 89 46 83 47 82 48 35 50 69 51 48 52 68 53
REMARK SMILES IDX 49 54 52 55 67 56 87 57 50 58 51 59 66 61 88 62 53 63 36 64
REMARK SMILES IDX 37 65 46 66 38 67 39 68 45 69 47 70 40 71 41 72 42 73 43 74
REMARK SMILES IDX 44 75 70 76 71 77 80 78 72 79 73 80 79 81 81 82 74 83 75 84
REMARK SMILES IDX 76 85 77 86 78 87 54 88 55 89 64 90 56 91 57 92 63 93 65 94
REMARK SMILES IDX 58 95 59 96 60 97 61 98 62 99
REMARK H PARENT 86 49 52 60
REMARK Flexibility Score: inf
ROOT
ATOM      1  C   UNL A   1      36.803  20.570  25.348  1.00  0.00     0.274 C 
ENDROOT
BRANCH   1   2
ATOM      2  O   UNL A   1      35.633  21.200  24.780  1.00  0.00    -0.462 OA
BRANCH   2   3
ATOM      3  C   UNL A   1      34.852  21.923  25.624  1.00  0.00     0.306 C 
ATOM      4  O   UNL A   1      34.996  23.125  25.833  1.00  0.00    -0.252 OA
BRANCH   3   5
ATOM      5  C   UNL A   1      33.793  21.096  26.347  1.00  0.00     0.127 C 
BRANCH   5   6
ATOM      6  C   UNL A   1      32.479  20.725  25.627  1.00  0.00     0.051 C 
BRANCH   6   7
ATOM      7  C   UNL A   1      31.884  21.873  24.858  1.00  0.00    -0.005 A 
ATOM      8  C   UNL A   1      31.001  26.152  24.047  1.00  0.00     0.095 A 
ATOM      9  C   UNL A   1      31.407  25.445  22.898  1.00  0.00     0.080 A 
ATOM     10  N   UNL A   1      30.763  25.332  25.072  1.00  0.00    -0.166 NA
ATOM     11  C   UNL A   1      31.498  24.130  23.294  1.00  0.00     0.156 A 
ATOM     12  N   UNL A   1      31.119  24.100  24.636  1.00  0.00    -0.219 N 
ATOM     13  N   UNL A   1      31.851  23.000  22.622  1.00  0.00    -0.234 NA
ATOM     14  C   UNL A   1      31.257  22.939  25.407  1.00  0.00     0.046 A 
ATOM     15  C   UNL A   1      32.007  21.926  23.346  1.00  0.00     0.045 A 
ATOM     16  C   UNL A   1      30.806  23.067  26.837  1.00  0.00     0.067 C 
ATOM     17  C   UNL A   1      32.182  20.636  22.567  1.00  0.00     0.067 C 
BRANCH   8  18
ATOM     18  C   UNL A   1      30.801  27.576  24.216  1.00  0.00     0.009 A 
ATOM     19  C   UNL A   1      29.900  29.674  23.425  1.00  0.00     0.123 A 
ATOM     20  C   UNL A   1      30.632  30.336  24.415  1.00  0.00     0.092 A 
ATOM     21  C   UNL A   1      29.996  28.287  23.315  1.00  0.00     0.057 A 
ATOM     22  C   UNL A   1      31.440  29.630  25.311  1.00  0.00     0.123 A 
ATOM     23  C   UNL A   1      31.511  28.244  25.218  1.00  0.00     0.057 A 
BRANCH  19  24
ATOM     24  O   UNL A   1      29.181  30.486  22.591  1.00  0.00    -0.497 OA
ATOM     25  C   UNL A   1      28.063  29.883  21.951  1.00  0.00     0.278 C 
ENDBRANCH  19  24
BRANCH  22  26
ATOM     26  O   UNL A   1      32.111  30.396  26.225  1.00  0.00    -0.497 OA
ATOM     27  C   UNL A   1      33.427  29.959  26.555  1.00  0.00     0.278 C 
ENDBRANCH  22  26
ENDBRANCH   8  18
ENDBRANCH   6   7
ENDBRANCH   5   6
ENDBRANCH   3   5
ENDBRANCH   2   3
ENDBRANCH   1   2
BRANCH   1  28
ATOM     28  C   UNL A   1      38.053  21.439  25.200  1.00  0.00     0.275 C 
BRANCH  28  29
ATOM     29  O   UNL A   1      38.236  22.397  26.251  1.00  0.00    -0.458 OA
BRANCH  29  30
ATOM     30  C   UNL A   1      39.500  22.458  26.723  1.00  0.00     0.338 C 
ATOM     31  O   UNL A   1      40.184  21.533  27.108  1.00  0.00    -0.246 OA
BRANCH  30  32
ATOM     32  C   UNL A   1      39.909  23.821  27.036  1.00  0.00     0.060 A 
ATOM     33  C   UNL A   1      41.119  23.943  27.736  1.00  0.00     0.016 A 
ATOM     34  C   UNL A   1      39.015  24.886  26.898  1.00  0.00     0.016 A 
ATOM     35  C   UNL A   1      41.383  25.111  28.406  1.00  0.00     0.010 A 
ATOM     36  C   UNL A   1      39.286  26.059  27.566  1.00  0.00     0.010 A 
ATOM     37  C   UNL A   1      40.439  26.136  28.349  1.00  0.00    -0.014 A 
BRANCH  37  38
ATOM     38  C   UNL A   1      40.761  27.346  29.067  1.00  0.00     0.031 A 
ATOM     39  C   UNL A   1      41.909  28.094  28.504  1.00  0.00     0.074 A 
ATOM     40  C   UNL A   1      40.003  27.810  30.071  1.00  0.00     0.049 A 
ATOM     41  N   UNL A   1      43.060  28.332  29.040  1.00  0.00    -0.248 NA
ATOM     42  C   UNL A   1      41.796  28.507  27.097  1.00  0.00     0.031 C 
ATOM     43  C   UNL A   1      38.684  27.351  30.509  1.00  0.00     0.029 A 
ATOM     44  N   UNL A   1      40.230  28.903  30.836  1.00  0.00    -0.354 N 
ATOM     45  C   UNL A   1      43.756  29.088  28.102  1.00  0.00     0.074 A 
ATOM     46  C   UNL A   1      43.005  29.020  26.875  1.00  0.00     0.031 C 
ATOM     47  C   UNL A   1      38.136  28.301  31.300  1.00  0.00     0.029 A 
ATOM     48  C   UNL A   1      39.114  29.356  31.513  1.00  0.00     0.049 A 
ATOM     49  H   UNL A   1      41.111  29.335  30.905  1.00  0.00     0.167 HD
ATOM     50  C   UNL A   1      44.794  29.899  28.440  1.00  0.00     0.037 A 
ATOM     51  C   UNL A   1      38.991  30.578  32.082  1.00  0.00     0.037 A 
ATOM     52  C   UNL A   1      45.313  29.604  29.748  1.00  0.00     0.049 A 
ATOM     53  C   UNL A   1      40.367  31.102  32.312  1.00  0.00     0.074 A 
ATOM     54  C   UNL A   1      45.910  28.501  30.326  1.00  0.00     0.029 A 
ATOM     55  N   UNL A   1      44.925  30.409  30.792  1.00  0.00    -0.354 N 
ATOM     56  N   UNL A   1      41.230  30.557  33.132  1.00  0.00    -0.248 NA
ATOM     57  C   UNL A   1      40.950  31.978  31.305  1.00  0.00     0.031 C 
ATOM     58  C   UNL A   1      45.430  28.479  31.669  1.00  0.00     0.029 A 
ATOM     59  C   UNL A   1      44.586  29.580  31.834  1.00  0.00     0.049 A 
ATOM     60  H   UNL A   1      44.894  31.393  30.793  1.00  0.00     0.167 HD
ATOM     61  C   UNL A   1      42.467  30.700  32.514  1.00  0.00     0.074 A 
ATOM     62  C   UNL A   1      42.243  31.670  31.446  1.00  0.00     0.031 C 
ATOM     63  C   UNL A   1      43.490  29.822  32.747  1.00  0.00     0.037 A 
BRANCH  50  64
ATOM     64  C   UNL A   1      45.112  31.168  27.701  1.00  0.00     0.058 A 
ATOM     65  C   UNL A   1      46.291  31.269  26.941  1.00  0.00     0.135 A 
ATOM     66  C   UNL A   1      44.417  32.379  27.926  1.00  0.00     0.135 A 
ATOM     67  F   UNL A   1      47.038  30.180  26.695  1.00  0.00    -0.206 F 
ATOM     68  C   UNL A   1      46.770  32.494  26.477  1.00  0.00     0.059 A 
ATOM     69  C   UNL A   1      44.842  33.599  27.420  1.00  0.00     0.059 A 
ATOM     70  F   UNL A   1      43.348  32.444  28.732  1.00  0.00    -0.206 F 
ATOM     71  C   UNL A   1      46.044  33.654  26.737  1.00  0.00     0.060 A 
BRANCH  71  72
ATOM     72  S   UNL A   1      46.722  35.255  26.263  1.00  0.00     0.124 S 
ATOM     73  O   UNL A   1      47.513  34.894  25.092  1.00  0.00    -0.237 OA
ATOM     74  O   UNL A   1      45.516  36.035  26.007  1.00  0.00    -0.237 OA
ATOM     75  O   UNL A   1      47.483  35.659  27.442  1.00  0.00    -0.744 OA
ENDBRANCH  71  72
ENDBRANCH  50  64
BRANCH  51  76
ATOM     76  C   UNL A   1      37.774  31.426  32.026  1.00  0.00     0.058 A 
ATOM     77  C   UNL A   1      37.095  31.813  33.190  1.00  0.00     0.135 A 
ATOM     78  C   UNL A   1      37.381  32.070  30.831  1.00  0.00     0.135 A 
ATOM     79  F   UNL A   1      37.435  31.284  34.374  1.00  0.00    -0.206 F 
ATOM     80  C   UNL A   1      36.090  32.788  33.174  1.00  0.00     0.059 A 
ATOM     81  C   UNL A   1      36.373  33.027  30.787  1.00  0.00     0.059 A 
ATOM     82  F   UNL A   1      38.025  31.849  29.675  1.00  0.00    -0.206 F 
ATOM     83  C   UNL A   1      35.742  33.394  31.965  1.00  0.00     0.060 A 
BRANCH  83  84
ATOM     84  S   UNL A   1      34.539  34.743  31.956  1.00  0.00     0.124 S 
ATOM     85  O   UNL A   1      35.230  35.767  32.732  1.00  0.00    -0.237 OA
ATOM     86  O   UNL A   1      34.391  35.012  30.529  1.00  0.00    -0.237 OA
ATOM     87  O   UNL A   1      33.367  34.157  32.602  1.00  0.00    -0.744 OA
ENDBRANCH  83  84
ENDBRANCH  51  76
BRANCH  63  88
ATOM     88  C   UNL A   1      43.329  28.836  33.878  1.00  0.00     0.058 A 
ATOM     89  C   UNL A   1      43.630  29.143  35.216  1.00  0.00     0.135 A 
ATOM     90  C   UNL A   1      42.686  27.614  33.634  1.00  0.00     0.135 A 
ATOM     91  F   UNL A   1      44.134  30.337  35.549  1.00  0.00    -0.206 F 
ATOM     92  C   UNL A   1      43.345  28.264  36.260  1.00  0.00     0.059 A 
ATOM     93  C   UNL A   1      42.363  26.731  34.665  1.00  0.00     0.059 A 
ATOM     94  F   UNL A   1      42.305  27.293  32.387  1.00  0.00    -0.206 F 
ATOM     95  C   UNL A   1      42.705  27.059  35.976  1.00  0.00     0.060 A 
BRANCH  95  96
ATOM     96  S   UNL A   1      42.234  25.979  37.345  1.00  0.00     0.124 S 
ATOM     97  O   UNL A   1      43.191  26.358  38.379  1.00  0.00    -0.237 OA
ATOM     98  O   UNL A   1      40.847  26.365  37.594  1.00  0.00    -0.237 OA
ATOM     99  O   UNL A   1      42.406  24.637  36.795  1.00  0.00    -0.744 OA
ENDBRANCH  95  96
ENDBRANCH  63  88
ENDBRANCH  37  38
ENDBRANCH  30  32
ENDBRANCH  29  30
ENDBRANCH  28  29
ENDBRANCH   1  28
TORSDOF 19
ENDMDL
MODEL 3
REMARK VINA RESULT:     -12.0      2.674      9.509
REMARK SMILES COc1cc(OC)cc(-c2cc3nc(C)c(CCC(=O)OCCOC(=O)c4ccc(-c5c6nc(c(-c7c(F)cc(S(=O)(=O)[O-])cc7F)c7ccc([nH]7)c(-c7c(F)cc(S(=O)(=O)[O-])cc7F)c7nc(c(-c8c(F)cc(S(=O)(=O)[O-])cc8F)c8ccc5[nH]8)C=C7)C=C6)cc4)c(C)n3n2)c1
REMARK SMILES IDX 22 1 21 2 19 3 20 4 18 5 17 6 16 7 10 8 11 9 96 10 12 11
REMARK SMILES IDX 95 12 13 13 93 14 14 15 94 16 15 17 9 18 3 19 4 20 97 21
REMARK SMILES IDX 5 22 8 23 2 24 1 25 6 26 7 27 23 28 24 29 25 30 26 31 27 32
REMARK SMILES IDX 28 33 92 34 29 35 91 36 30 37 31 38 32 39 85 40 33 41 90 42
REMARK SMILES IDX 84 43 86 44 34 45 89 46 83 47 82 48 35 50 69 51 48 52 68 53
REMARK SMILES IDX 49 54 52 55 67 56 87 57 50 58 51 59 66 61 88 62 53 63 36 64
REMARK SMILES IDX 37 65 46 66 38 67 39 68 45 69 47 70 40 71 41 72 42 73 43 74
REMARK SMILES IDX 44 75 70 76 71 77 80 78 72 79 73 80 79 81 81 82 74 83 75 84
REMARK SMILES IDX 76 85 77 86 78 87 54 88 55 89 64 90 56 91 57 92 63 93 65 94
REMARK SMILES IDX 58 95 59 96 60 97 61 98 62 99
REMARK H PARENT 86 49 52 60
REMARK Flexibility Score: inf
ROOT
ATOM      1  C   UNL A   1      36.450  21.114  25.242  1.00  0.00     0.274 C 
ENDROOT
BRANCH   1   2
ATOM      2  O   UNL A   1      35.671  21.959  26.117  1.00  0.00    -0.462 OA
BRANCH   2   3
ATOM      3  C   UNL A   1      34.446  21.501  26.485  1.00  0.00     0.306 C 
ATOM      4  O   UNL A   1      34.027  21.509  27.640  1.00  0.00    -0.252 OA
BRANCH   3   5
ATOM      5  C   UNL A   1      33.634  20.915  25.334  1.00  0.00     0.127 C 
BRANCH   5   6
ATOM      6  C   UNL A   1      32.242  21.492  24.999  1.00  0.00     0.051 C 
BRANCH   6   7
ATOM      7  C   UNL A   1      32.274  22.963  24.684  1.00  0.00    -0.005 A 
ATOM      8  C   UNL A   1      32.917  27.264  25.597  1.00  0.00     0.095 A 
ATOM      9  C   UNL A   1      33.470  26.873  24.360  1.00  0.00     0.080 A 
ATOM     10  N   UNL A   1      32.139  26.311  26.112  1.00  0.00    -0.166 NA
ATOM     11  C   UNL A   1      33.061  25.572  24.175  1.00  0.00     0.156 A 
ATOM     12  N   UNL A   1      32.267  25.253  25.276  1.00  0.00    -0.219 N 
ATOM     13  N   UNL A   1      33.291  24.680  23.173  1.00  0.00    -0.234 NA
ATOM     14  C   UNL A   1      31.818  23.944  25.497  1.00  0.00     0.046 A 
ATOM     15  C   UNL A   1      32.898  23.456  23.392  1.00  0.00     0.045 A 
ATOM     16  C   UNL A   1      30.974  23.760  26.729  1.00  0.00     0.067 C 
ATOM     17  C   UNL A   1      32.960  22.528  22.193  1.00  0.00     0.067 C 
BRANCH   8  18
ATOM     18  C   UNL A   1      33.071  28.516  26.307  1.00  0.00     0.009 A 
ATOM     19  C   UNL A   1      32.311  30.757  26.793  1.00  0.00     0.123 A 
ATOM     20  C   UNL A   1      33.508  30.992  27.476  1.00  0.00     0.092 A 
ATOM     21  C   UNL A   1      32.097  29.517  26.193  1.00  0.00     0.057 A 
ATOM     22  C   UNL A   1      34.484  29.998  27.586  1.00  0.00     0.123 A 
ATOM     23  C   UNL A   1      34.256  28.752  27.011  1.00  0.00     0.057 A 
BRANCH  19  24
ATOM     24  O   UNL A   1      31.459  31.826  26.726  1.00  0.00    -0.497 OA
ATOM     25  C   UNL A   1      32.022  33.090  27.053  1.00  0.00     0.278 C 
ENDBRANCH  19  24
BRANCH  22  26
ATOM     26  O   UNL A   1      35.613  30.357  28.271  1.00  0.00    -0.497 OA
ATOM     27  C   UNL A   1      36.794  29.627  27.949  1.00  0.00     0.278 C 
ENDBRANCH  22  26
ENDBRANCH   8  18
ENDBRANCH   6   7
ENDBRANCH   5   6
ENDBRANCH   3   5
ENDBRANCH   2   3
ENDBRANCH   1   2
BRANCH   1  28
ATOM     28  C   UNL A   1      37.951  21.376  25.376  1.00  0.00     0.275 C 
BRANCH  28  29
ATOM     29  O   UNL A   1      38.282  22.534  26.155  1.00  0.00    -0.458 OA
BRANCH  29  30
ATOM     30  C   UNL A   1      39.504  22.477  26.728  1.00  0.00     0.338 C 
ATOM     31  O   UNL A   1      40.048  21.500  27.201  1.00  0.00    -0.246 OA
BRANCH  30  32
ATOM     32  C   UNL A   1      40.038  23.799  27.026  1.00  0.00     0.060 A 
ATOM     33  C   UNL A   1      41.212  23.818  27.796  1.00  0.00     0.016 A 
ATOM     34  C   UNL A   1      39.273  24.947  26.804  1.00  0.00     0.016 A 
ATOM     35  C   UNL A   1      41.560  24.974  28.447  1.00  0.00     0.010 A 
ATOM     36  C   UNL A   1      39.628  26.108  27.454  1.00  0.00     0.010 A 
ATOM     37  C   UNL A   1      40.735  26.090  28.304  1.00  0.00    -0.014 A 
BRANCH  37  38
ATOM     38  C   UNL A   1      41.143  27.283  29.006  1.00  0.00     0.031 A 
ATOM     39  C   UNL A   1      42.326  27.955  28.418  1.00  0.00     0.074 A 
ATOM     40  C   UNL A   1      40.431  27.802  30.016  1.00  0.00     0.049 A 
ATOM     41  N   UNL A   1      43.498  28.125  28.933  1.00  0.00    -0.248 NA
ATOM     42  C   UNL A   1      42.216  28.362  27.009  1.00  0.00     0.031 C 
ATOM     43  C   UNL A   1      39.093  27.428  30.479  1.00  0.00     0.029 A 
ATOM     44  N   UNL A   1      40.737  28.885  30.768  1.00  0.00    -0.354 N 
ATOM     45  C   UNL A   1      44.224  28.830  27.978  1.00  0.00     0.074 A 
ATOM     46  C   UNL A   1      43.450  28.798  26.763  1.00  0.00     0.031 C 
ATOM     47  C   UNL A   1      38.618  28.417  31.269  1.00  0.00     0.029 A 
ATOM     48  C   UNL A   1      39.663  29.412  31.458  1.00  0.00     0.049 A 
ATOM     49  H   UNL A   1      41.644  29.263  30.820  1.00  0.00     0.167 HD
ATOM     50  C   UNL A   1      45.315  29.578  28.292  1.00  0.00     0.037 A 
ATOM     51  C   UNL A   1      39.624  30.644  32.017  1.00  0.00     0.037 A 
ATOM     52  C   UNL A   1      45.836  29.262  29.595  1.00  0.00     0.049 A 
ATOM     53  C   UNL A   1      41.033  31.083  32.222  1.00  0.00     0.074 A 
ATOM     54  C   UNL A   1      46.373  28.129  30.174  1.00  0.00     0.029 A 
ATOM     55  N   UNL A   1      45.515  30.098  30.637  1.00  0.00    -0.354 N 
ATOM     56  N   UNL A   1      41.873  30.493  33.033  1.00  0.00    -0.248 NA
ATOM     57  C   UNL A   1      41.653  31.914  31.197  1.00  0.00     0.031 C 
ATOM     58  C   UNL A   1      45.914  28.147  31.524  1.00  0.00     0.029 A 
ATOM     59  C   UNL A   1      45.143  29.300  31.692  1.00  0.00     0.049 A 
ATOM     60  H   UNL A   1      45.545  31.082  30.630  1.00  0.00     0.167 HD
ATOM     61  C   UNL A   1      43.107  30.555  32.394  1.00  0.00     0.074 A 
ATOM     62  C   UNL A   1      42.927  31.527  31.321  1.00  0.00     0.031 C 
ATOM     63  C   UNL A   1      44.078  29.617  32.620  1.00  0.00     0.037 A 
BRANCH  50  64
ATOM     64  C   UNL A   1      45.699  30.818  27.537  1.00  0.00     0.058 A 
ATOM     65  C   UNL A   1      46.987  30.943  26.988  1.00  0.00     0.135 A 
ATOM     66  C   UNL A   1      44.919  31.998  27.556  1.00  0.00     0.135 A 
ATOM     67  F   UNL A   1      47.816  29.887  26.948  1.00  0.00    -0.206 F 
ATOM     68  C   UNL A   1      47.483  32.166  26.534  1.00  0.00     0.059 A 
ATOM     69  C   UNL A   1      45.368  33.209  27.052  1.00  0.00     0.059 A 
ATOM     70  F   UNL A   1      43.723  32.047  28.159  1.00  0.00    -0.206 F 
ATOM     71  C   UNL A   1      46.669  33.295  26.586  1.00  0.00     0.060 A 
BRANCH  71  72
ATOM     72  S   UNL A   1      47.344  34.902  26.131  1.00  0.00     0.124 S 
ATOM     73  O   UNL A   1      46.153  35.580  25.630  1.00  0.00    -0.237 OA
ATOM     74  O   UNL A   1      47.869  35.386  27.403  1.00  0.00    -0.237 OA
ATOM     75  O   UNL A   1      48.352  34.570  25.129  1.00  0.00    -0.744 OA
ENDBRANCH  71  72
ENDBRANCH  50  64
BRANCH  51  76
ATOM     76  C   UNL A   1      38.461  31.565  31.972  1.00  0.00     0.058 A 
ATOM     77  C   UNL A   1      38.035  32.152  30.773  1.00  0.00     0.135 A 
ATOM     78  C   UNL A   1      37.595  31.709  33.080  1.00  0.00     0.135 A 
ATOM     79  F   UNL A   1      38.775  32.025  29.662  1.00  0.00    -0.206 F 
ATOM     80  C   UNL A   1      36.818  32.837  30.673  1.00  0.00     0.059 A 
ATOM     81  C   UNL A   1      36.390  32.400  33.010  1.00  0.00     0.059 A 
ATOM     82  F   UNL A   1      37.854  31.109  34.251  1.00  0.00    -0.206 F 
ATOM     83  C   UNL A   1      35.998  32.948  31.798  1.00  0.00     0.060 A 
BRANCH  83  84
ATOM     84  S   UNL A   1      34.370  33.716  31.645  1.00  0.00     0.124 S 
ATOM     85  O   UNL A   1      33.593  32.969  32.629  1.00  0.00    -0.237 OA
ATOM     86  O   UNL A   1      34.654  35.107  31.977  1.00  0.00    -0.237 OA
ATOM     87  O   UNL A   1      34.008  33.471  30.251  1.00  0.00    -0.744 OA
ENDBRANCH  83  84
ENDBRANCH  51  76
BRANCH  63  88
ATOM     88  C   UNL A   1      43.875  28.652  33.762  1.00  0.00     0.058 A 
ATOM     89  C   UNL A   1      43.246  27.403  33.612  1.00  0.00     0.135 A 
ATOM     90  C   UNL A   1      44.489  28.911  34.995  1.00  0.00     0.135 A 
ATOM     91  F   UNL A   1      42.740  27.028  32.431  1.00  0.00    -0.206 F 
ATOM     92  C   UNL A   1      43.192  26.472  34.648  1.00  0.00     0.059 A 
ATOM     93  C   UNL A   1      44.476  27.982  36.036  1.00  0.00     0.059 A 
ATOM     94  F   UNL A   1      45.171  30.054  35.179  1.00  0.00    -0.206 F 
ATOM     95  C   UNL A   1      43.816  26.768  35.858  1.00  0.00     0.060 A 
BRANCH  95  96
ATOM     96  S   UNL A   1      43.843  25.510  37.155  1.00  0.00     0.124 S 
ATOM     97  O   UNL A   1      45.204  24.993  37.054  1.00  0.00    -0.237 OA
ATOM     98  O   UNL A   1      43.548  26.284  38.359  1.00  0.00    -0.237 OA
ATOM     99  O   UNL A   1      42.789  24.582  36.751  1.00  0.00    -0.744 OA
ENDBRANCH  95  96
ENDBRANCH  63  88
ENDBRANCH  37  38
ENDBRANCH  30  32
ENDBRANCH  29  30
ENDBRANCH  28  29
ENDBRANCH   1  28
TORSDOF 19
ENDMDL
