MODEL 1
REMARK VINA RESULT:     -11.7      0.000      0.000
REMARK SMILES C[NH+]1CCC2(CC1)OC[C@H](C(=O)OCCOC(=O)c1ccc(-c3c4nc(c(-c5c(F)cc(S(=O)(=O)[O-])cc5F)c5ccc([nH]5)c(-c5c(F)cc(S(=O)(=O)[O-])cc5F)c5nc(c(-c6c(F)cc(S(=O)(=O)[O-])cc6F)c6ccc3[nH]6)C=C5)C=C4)cc1)N2C(=O)c1cc(C(F)(F)F)cc(C(F)(F)F)c1
REMARK SMILES IDX 14 1 13 2 11 3 12 4 10 5 1 6 2 7 3 8 7 9 4 11 6 12 5 13 8 14
REMARK SMILES IDX 85 15 9 16 86 17 87 18 88 19 89 20 101 21 90 22 96 23 95 24
REMARK SMILES IDX 91 25 92 26 93 27 94 28 97 29 98 30 99 31 100 32 15 33 16 34
REMARK SMILES IDX 17 35 18 36 19 37 20 38 84 39 21 40 83 41 22 42 23 43 24 44
REMARK SMILES IDX 77 45 25 46 82 47 76 48 78 49 26 50 81 51 75 52 74 53 27 55
REMARK SMILES IDX 61 56 40 57 60 58 41 59 44 60 59 61 79 62 42 63 43 64 58 66
REMARK SMILES IDX 80 67 45 68 28 69 29 70 38 71 30 72 31 73 37 74 39 75 32 76
REMARK SMILES IDX 33 77 34 78 35 79 36 80 62 81 63 82 72 83 64 84 65 85 71 86
REMARK SMILES IDX 73 87 66 88 67 89 68 90 69 91 70 92 46 93 47 94 56 95 48 96
REMARK SMILES IDX 49 97 55 98 57 99 50 100 51 101 52 102 53 103 54 104
REMARK H PARENT 2 10 78 54 44 65
REMARK Flexibility Score: inf
ROOT
ATOM      1  C   UNL A   1      33.507  29.691  27.039  1.00  0.00     0.274 C 
ENDROOT
BRANCH   1   2
ATOM      2  O   UNL A   1      33.547  28.259  27.202  1.00  0.00    -0.460 OA
BRANCH   2   3
ATOM      3  C   UNL A   1      32.334  27.637  27.294  1.00  0.00     0.331 C 
ATOM      4  O   UNL A   1      31.413  28.036  27.997  1.00  0.00    -0.250 OA
BRANCH   3   5
ATOM      5  C   UNL A   1      32.254  26.429  26.355  1.00  0.00     0.224 C 
ATOM      6  C   UNL A   1      29.927  30.046  21.609  1.00  0.00     0.332 C 
ATOM      7  N   UNL A   1      30.700  29.118  22.426  1.00  0.00    -0.337 N 
ATOM      8  C   UNL A   1      30.749  29.486  23.830  1.00  0.00     0.267 C 
ATOM      9  C   UNL A   1      30.561  27.728  22.012  1.00  0.00     0.267 C 
ATOM     10  H   UNL A   1      31.693  29.224  22.219  1.00  0.00     0.347 HD
ATOM     11  C   UNL A   1      30.296  28.406  24.775  1.00  0.00     0.120 C 
ATOM     12  C   UNL A   1      30.530  26.619  23.066  1.00  0.00     0.120 C 
ATOM     13  C   UNL A   1      30.914  27.034  24.484  1.00  0.00     0.155 C 
ATOM     14  O   UNL A   1      30.130  26.148  25.355  1.00  0.00    -0.352 OA
ATOM     15  N   UNL A   1      32.297  26.805  24.940  1.00  0.00    -0.293 N 
ATOM     16  C   UNL A   1      30.947  25.687  26.443  1.00  0.00     0.200 C 
BRANCH  15  17
ATOM     17  C   UNL A   1      33.402  26.327  24.228  1.00  0.00     0.256 C 
ATOM     18  O   UNL A   1      33.929  27.012  23.346  1.00  0.00    -0.269 OA
BRANCH  17  19
ATOM     19  C   UNL A   1      33.985  24.975  24.400  1.00  0.00     0.041 A 
ATOM     20  C   UNL A   1      33.229  23.864  23.988  1.00  0.00     0.027 A 
ATOM     21  C   UNL A   1      35.165  24.752  25.099  1.00  0.00     0.027 A 
ATOM     22  C   UNL A   1      33.679  22.551  24.206  1.00  0.00     0.057 A 
ATOM     23  C   UNL A   1      35.695  23.458  25.231  1.00  0.00     0.057 A 
ATOM     24  C   UNL A   1      34.933  22.360  24.800  1.00  0.00     0.026 A 
BRANCH  22  25
ATOM     25  C   UNL A   1      32.817  21.378  23.801  1.00  0.00     0.416 C 
ATOM     26  F   UNL A   1      31.689  21.274  24.553  1.00  0.00    -0.166 F 
ATOM     27  F   UNL A   1      32.394  21.484  22.508  1.00  0.00    -0.166 F 
ATOM     28  F   UNL A   1      33.449  20.178  23.885  1.00  0.00    -0.166 F 
ENDBRANCH  22  25
BRANCH  23  29
ATOM     29  C   UNL A   1      37.108  23.249  25.724  1.00  0.00     0.416 C 
ATOM     30  F   UNL A   1      37.365  23.915  26.876  1.00  0.00    -0.166 F 
ATOM     31  F   UNL A   1      37.350  21.936  26.002  1.00  0.00    -0.166 F 
ATOM     32  F   UNL A   1      38.064  23.627  24.833  1.00  0.00    -0.166 F 
ENDBRANCH  23  29
ENDBRANCH  17  19
ENDBRANCH  15  17
ENDBRANCH   3   5
ENDBRANCH   2   3
ENDBRANCH   1   2
BRANCH   1  33
ATOM     33  C   UNL A   1      34.644  30.413  27.773  1.00  0.00     0.275 C 
BRANCH  33  34
ATOM     34  O   UNL A   1      35.717  29.519  28.121  1.00  0.00    -0.458 OA
BRANCH  34  35
ATOM     35  C   UNL A   1      36.293  29.763  29.321  1.00  0.00     0.338 C 
ATOM     36  O   UNL A   1      35.708  29.920  30.386  1.00  0.00    -0.246 OA
BRANCH  35  37
ATOM     37  C   UNL A   1      37.754  29.596  29.231  1.00  0.00     0.060 A 
ATOM     38  C   UNL A   1      38.287  29.541  27.945  1.00  0.00     0.016 A 
ATOM     39  C   UNL A   1      38.588  29.440  30.342  1.00  0.00     0.016 A 
ATOM     40  C   UNL A   1      39.650  29.364  27.751  1.00  0.00     0.010 A 
ATOM     41  C   UNL A   1      39.964  29.229  30.146  1.00  0.00     0.010 A 
ATOM     42  C   UNL A   1      40.501  29.194  28.847  1.00  0.00    -0.014 A 
BRANCH  42  43
ATOM     43  C   UNL A   1      41.920  28.877  28.560  1.00  0.00     0.031 A 
ATOM     44  C   UNL A   1      42.273  27.501  28.071  1.00  0.00     0.074 A 
ATOM     45  C   UNL A   1      42.850  29.850  28.572  1.00  0.00     0.049 A 
ATOM     46  N   UNL A   1      43.434  27.030  27.700  1.00  0.00    -0.248 NA
ATOM     47  C   UNL A   1      41.168  26.535  27.971  1.00  0.00     0.031 C 
ATOM     48  C   UNL A   1      42.596  31.246  28.920  1.00  0.00     0.029 A 
ATOM     49  N   UNL A   1      44.181  29.824  28.233  1.00  0.00    -0.354 N 
ATOM     50  C   UNL A   1      43.210  25.704  27.355  1.00  0.00     0.074 A 
ATOM     51  C   UNL A   1      41.794  25.453  27.529  1.00  0.00     0.031 C 
ATOM     52  C   UNL A   1      43.726  31.952  28.736  1.00  0.00     0.029 A 
ATOM     53  C   UNL A   1      44.787  31.061  28.273  1.00  0.00     0.049 A 
ATOM     54  H   UNL A   1      44.657  29.000  27.985  1.00  0.00     0.167 HD
ATOM     55  C   UNL A   1      44.109  24.771  26.963  1.00  0.00     0.037 A 
ATOM     56  C   UNL A   1      46.045  31.429  27.952  1.00  0.00     0.037 A 
ATOM     57  C   UNL A   1      45.518  25.021  26.810  1.00  0.00     0.049 A 
ATOM     58  C   UNL A   1      47.025  30.369  27.513  1.00  0.00     0.074 A 
ATOM     59  C   UNL A   1      46.533  24.117  26.549  1.00  0.00     0.029 A 
ATOM     60  N   UNL A   1      46.109  26.272  26.896  1.00  0.00    -0.354 N 
ATOM     61  N   UNL A   1      46.817  29.093  27.286  1.00  0.00    -0.248 NA
ATOM     62  C   UNL A   1      48.420  30.793  27.318  1.00  0.00     0.031 C 
ATOM     63  C   UNL A   1      47.742  24.819  26.501  1.00  0.00     0.029 A 
ATOM     64  C   UNL A   1      47.475  26.165  26.695  1.00  0.00     0.049 A 
ATOM     65  H   UNL A   1      45.628  27.113  27.073  1.00  0.00     0.167 HD
ATOM     66  C   UNL A   1      48.056  28.562  26.942  1.00  0.00     0.074 A 
ATOM     67  C   UNL A   1      48.997  29.663  26.933  1.00  0.00     0.031 C 
ATOM     68  C   UNL A   1      48.395  27.274  26.689  1.00  0.00     0.037 A 
BRANCH  55  69
ATOM     69  C   UNL A   1      43.602  23.373  26.771  1.00  0.00     0.058 A 
ATOM     70  C   UNL A   1      43.214  22.566  27.850  1.00  0.00     0.135 A 
ATOM     71  C   UNL A   1      43.514  22.831  25.479  1.00  0.00     0.135 A 
ATOM     72  F   UNL A   1      43.305  23.028  29.107  1.00  0.00    -0.206 F 
ATOM     73  C   UNL A   1      42.774  21.260  27.656  1.00  0.00     0.059 A 
ATOM     74  C   UNL A   1      43.059  21.537  25.259  1.00  0.00     0.059 A 
ATOM     75  F   UNL A   1      43.884  23.562  24.414  1.00  0.00    -0.206 F 
ATOM     76  C   UNL A   1      42.706  20.753  26.355  1.00  0.00     0.060 A 
BRANCH  76  77
ATOM     77  S   UNL A   1      42.152  19.052  26.112  1.00  0.00     0.124 S 
ATOM     78  O   UNL A   1      43.027  18.612  25.031  1.00  0.00    -0.237 OA
ATOM     79  O   UNL A   1      42.403  18.448  27.416  1.00  0.00    -0.237 OA
ATOM     80  O   UNL A   1      40.744  19.201  25.756  1.00  0.00    -0.744 OA
ENDBRANCH  76  77
ENDBRANCH  55  69
BRANCH  56  81
ATOM     81  C   UNL A   1      46.471  32.857  28.018  1.00  0.00     0.058 A 
ATOM     82  C   UNL A   1      46.294  33.713  26.917  1.00  0.00     0.135 A 
ATOM     83  C   UNL A   1      47.093  33.389  29.156  1.00  0.00     0.135 A 
ATOM     84  F   UNL A   1      45.727  33.252  25.791  1.00  0.00    -0.206 F 
ATOM     85  C   UNL A   1      46.730  35.036  26.937  1.00  0.00     0.059 A 
ATOM     86  C   UNL A   1      47.518  34.714  29.208  1.00  0.00     0.059 A 
ATOM     87  F   UNL A   1      47.293  32.619  30.236  1.00  0.00    -0.206 F 
ATOM     88  C   UNL A   1      47.346  35.526  28.087  1.00  0.00     0.060 A 
BRANCH  88  89
ATOM     89  S   UNL A   1      47.898  37.245  28.125  1.00  0.00     0.124 S 
ATOM     90  O   UNL A   1      48.760  37.250  29.301  1.00  0.00    -0.237 OA
ATOM     91  O   UNL A   1      48.574  37.390  26.839  1.00  0.00    -0.237 OA
ATOM     92  O   UNL A   1      46.649  37.990  28.252  1.00  0.00    -0.744 OA
ENDBRANCH  88  89
ENDBRANCH  56  81
BRANCH  68  93
ATOM     93  C   UNL A   1      49.842  26.980  26.410  1.00  0.00     0.058 A 
ATOM     94  C   UNL A   1      50.738  26.698  27.454  1.00  0.00     0.135 A 
ATOM     95  C   UNL A   1      50.325  26.916  25.094  1.00  0.00     0.135 A 
ATOM     96  F   UNL A   1      50.326  26.748  28.731  1.00  0.00    -0.206 F 
ATOM     97  C   UNL A   1      52.069  26.381  27.203  1.00  0.00     0.059 A 
ATOM     98  C   UNL A   1      51.647  26.580  24.820  1.00  0.00     0.059 A 
ATOM     99  F   UNL A   1      49.506  27.167  24.061  1.00  0.00    -0.206 F 
ATOM    100  C   UNL A   1      52.514  26.323  25.882  1.00  0.00     0.060 A 
BRANCH 100 101
ATOM    101  S   UNL A   1      54.233  25.866  25.567  1.00  0.00     0.124 S 
ATOM    102  O   UNL A   1      54.138  25.252  24.247  1.00  0.00    -0.237 OA
ATOM    103  O   UNL A   1      54.915  27.157  25.618  1.00  0.00    -0.237 OA
ATOM    104  O   UNL A   1      54.548  24.956  26.664  1.00  0.00    -0.744 OA
ENDBRANCH 100 101
ENDBRANCH  68  93
ENDBRANCH  42  43
ENDBRANCH  35  37
ENDBRANCH  34  35
ENDBRANCH  33  34
ENDBRANCH   1  33
TORSDOF 18
ENDMDL
MODEL 2
REMARK VINA RESULT:     -11.7      4.974      8.975
REMARK SMILES C[NH+]1CCC2(CC1)OC[C@H](C(=O)OCCOC(=O)c1ccc(-c3c4nc(c(-c5c(F)cc(S(=O)(=O)[O-])cc5F)c5ccc([nH]5)c(-c5c(F)cc(S(=O)(=O)[O-])cc5F)c5nc(c(-c6c(F)cc(S(=O)(=O)[O-])cc6F)c6ccc3[nH]6)C=C5)C=C4)cc1)N2C(=O)c1cc(C(F)(F)F)cc(C(F)(F)F)c1
REMARK SMILES IDX 14 1 13 2 11 3 12 4 10 5 1 6 2 7 3 8 7 9 4 11 6 12 5 13 8 14
REMARK SMILES IDX 85 15 9 16 86 17 87 18 88 19 89 20 101 21 90 22 96 23 95 24
REMARK SMILES IDX 91 25 92 26 93 27 94 28 97 29 98 30 99 31 100 32 15 33 16 34
REMARK SMILES IDX 17 35 18 36 19 37 20 38 84 39 21 40 83 41 22 42 23 43 24 44
REMARK SMILES IDX 77 45 25 46 82 47 76 48 78 49 26 50 81 51 75 52 74 53 27 55
REMARK SMILES IDX 61 56 40 57 60 58 41 59 44 60 59 61 79 62 42 63 43 64 58 66
REMARK SMILES IDX 80 67 45 68 28 69 29 70 38 71 30 72 31 73 37 74 39 75 32 76
REMARK SMILES IDX 33 77 34 78 35 79 36 80 62 81 63 82 72 83 64 84 65 85 71 86
REMARK SMILES IDX 73 87 66 88 67 89 68 90 69 91 70 92 46 93 47 94 56 95 48 96
REMARK SMILES IDX 49 97 55 98 57 99 50 100 51 101 52 102 53 103 54 104
REMARK H PARENT 2 10 78 54 44 65
REMARK Flexibility Score: inf
ROOT
ATOM      1  C   UNL A   1      31.852  29.065  25.789  1.00  0.00     0.274 C 
ENDROOT
BRANCH   1   2
ATOM      2  O   UNL A   1      31.896  28.015  26.775  1.00  0.00    -0.460 OA
BRANCH   2   3
ATOM      3  C   UNL A   1      32.520  26.862  26.389  1.00  0.00     0.331 C 
ATOM      4  O   UNL A   1      33.697  26.801  26.052  1.00  0.00    -0.250 OA
BRANCH   3   5
ATOM      5  C   UNL A   1      31.583  25.656  26.503  1.00  0.00     0.224 C 
ATOM      6  C   UNL A   1      33.189  23.625  20.644  1.00  0.00     0.332 C 
ATOM      7  N   UNL A   1      32.909  23.736  22.071  1.00  0.00    -0.337 N 
ATOM      8  C   UNL A   1      33.149  25.064  22.605  1.00  0.00     0.267 C 
ATOM      9  C   UNL A   1      31.765  22.942  22.501  1.00  0.00     0.267 C 
ATOM     10  H   UNL A   1      33.627  23.241  22.601  1.00  0.00     0.347 HD
ATOM     11  C   UNL A   1      31.974  25.670  23.327  1.00  0.00     0.120 C 
ATOM     12  C   UNL A   1      30.827  23.482  23.583  1.00  0.00     0.120 C 
ATOM     13  C   UNL A   1      31.313  24.719  24.332  1.00  0.00     0.155 C 
ATOM     14  O   UNL A   1      30.085  25.446  24.685  1.00  0.00    -0.352 OA
ATOM     15  N   UNL A   1      31.979  24.544  25.635  1.00  0.00    -0.293 N 
ATOM     16  C   UNL A   1      30.181  25.938  26.030  1.00  0.00     0.200 C 
BRANCH  15  17
ATOM     17  C   UNL A   1      32.340  23.367  26.299  1.00  0.00     0.256 C 
ATOM     18  O   UNL A   1      31.944  23.143  27.448  1.00  0.00    -0.269 OA
BRANCH  17  19
ATOM     19  C   UNL A   1      33.258  22.344  25.745  1.00  0.00     0.041 A 
ATOM     20  C   UNL A   1      32.787  21.027  25.608  1.00  0.00     0.027 A 
ATOM     21  C   UNL A   1      34.606  22.594  25.516  1.00  0.00     0.027 A 
ATOM     22  C   UNL A   1      33.632  19.988  25.179  1.00  0.00     0.057 A 
ATOM     23  C   UNL A   1      35.445  21.603  24.978  1.00  0.00     0.057 A 
ATOM     24  C   UNL A   1      34.954  20.297  24.833  1.00  0.00     0.026 A 
BRANCH  22  25
ATOM     25  C   UNL A   1      33.109  18.574  25.095  1.00  0.00     0.416 C 
ATOM     26  F   UNL A   1      32.653  18.113  26.290  1.00  0.00    -0.166 F 
ATOM     27  F   UNL A   1      32.057  18.474  24.231  1.00  0.00    -0.166 F 
ATOM     28  F   UNL A   1      34.029  17.673  24.659  1.00  0.00    -0.166 F 
ENDBRANCH  22  25
BRANCH  23  29
ATOM     29  C   UNL A   1      36.820  21.955  24.457  1.00  0.00     0.416 C 
ATOM     30  F   UNL A   1      37.680  20.909  24.500  1.00  0.00    -0.166 F 
ATOM     31  F   UNL A   1      36.774  22.336  23.149  1.00  0.00    -0.166 F 
ATOM     32  F   UNL A   1      37.416  22.979  25.126  1.00  0.00    -0.166 F 
ENDBRANCH  23  29
ENDBRANCH  17  19
ENDBRANCH  15  17
ENDBRANCH   3   5
ENDBRANCH   2   3
ENDBRANCH   1   2
BRANCH   1  33
ATOM     33  C   UNL A   1      32.960  30.111  25.972  1.00  0.00     0.275 C 
BRANCH  33  34
ATOM     34  O   UNL A   1      33.526  30.071  27.295  1.00  0.00    -0.458 OA
BRANCH  34  35
ATOM     35  C   UNL A   1      34.109  31.225  27.697  1.00  0.00     0.338 C 
ATOM     36  O   UNL A   1      33.547  32.300  27.865  1.00  0.00    -0.246 OA
BRANCH  35  37
ATOM     37  C   UNL A   1      35.495  30.973  28.131  1.00  0.00     0.060 A 
ATOM     38  C   UNL A   1      35.763  29.698  28.623  1.00  0.00     0.016 A 
ATOM     39  C   UNL A   1      36.500  31.945  28.123  1.00  0.00     0.016 A 
ATOM     40  C   UNL A   1      37.032  29.366  29.077  1.00  0.00     0.010 A 
ATOM     41  C   UNL A   1      37.777  31.620  28.612  1.00  0.00     0.010 A 
ATOM     42  C   UNL A   1      38.048  30.325  29.088  1.00  0.00    -0.014 A 
BRANCH  42  43
ATOM     43  C   UNL A   1      39.337  29.939  29.710  1.00  0.00     0.031 A 
ATOM     44  C   UNL A   1      39.683  30.486  31.066  1.00  0.00     0.074 A 
ATOM     45  C   UNL A   1      40.104  28.985  29.150  1.00  0.00     0.049 A 
ATOM     46  N   UNL A   1      40.721  30.230  31.818  1.00  0.00    -0.248 NA
ATOM     47  C   UNL A   1      38.723  31.431  31.658  1.00  0.00     0.031 C 
ATOM     48  C   UNL A   1      39.805  28.304  27.892  1.00  0.00     0.029 A 
ATOM     49  N   UNL A   1      41.259  28.387  29.591  1.00  0.00    -0.354 N 
ATOM     50  C   UNL A   1      40.559  31.008  32.957  1.00  0.00     0.074 A 
ATOM     51  C   UNL A   1      39.306  31.719  32.813  1.00  0.00     0.031 C 
ATOM     52  C   UNL A   1      40.732  27.351  27.683  1.00  0.00     0.029 A 
ATOM     53  C   UNL A   1      41.697  27.362  28.781  1.00  0.00     0.049 A 
ATOM     54  H   UNL A   1      41.729  28.664  30.409  1.00  0.00     0.167 HD
ATOM     55  C   UNL A   1      41.398  31.142  34.012  1.00  0.00     0.037 A 
ATOM     56  C   UNL A   1      42.741  26.520  28.924  1.00  0.00     0.037 A 
ATOM     57  C   UNL A   1      42.651  30.447  34.141  1.00  0.00     0.049 A 
ATOM     58  C   UNL A   1      43.657  26.690  30.111  1.00  0.00     0.074 A 
ATOM     59  C   UNL A   1      43.636  30.611  35.100  1.00  0.00     0.029 A 
ATOM     60  N   UNL A   1      43.087  29.446  33.287  1.00  0.00    -0.354 N 
ATOM     61  N   UNL A   1      43.542  27.503  31.135  1.00  0.00    -0.248 NA
ATOM     62  C   UNL A   1      44.864  25.849  30.145  1.00  0.00     0.031 C 
ATOM     63  C   UNL A   1      44.680  29.725  34.810  1.00  0.00     0.029 A 
ATOM     64  C   UNL A   1      44.328  28.983  33.694  1.00  0.00     0.049 A 
ATOM     65  H   UNL A   1      42.589  29.112  32.506  1.00  0.00     0.167 HD
ATOM     66  C   UNL A   1      44.669  27.284  31.922  1.00  0.00     0.074 A 
ATOM     67  C   UNL A   1      45.424  26.223  31.288  1.00  0.00     0.031 C 
ATOM     68  C   UNL A   1      45.063  27.925  33.049  1.00  0.00     0.037 A 
BRANCH  55  69
ATOM     69  C   UNL A   1      41.026  32.153  35.055  1.00  0.00     0.058 A 
ATOM     70  C   UNL A   1      40.198  31.833  36.141  1.00  0.00     0.135 A 
ATOM     71  C   UNL A   1      41.503  33.469  34.956  1.00  0.00     0.135 A 
ATOM     72  F   UNL A   1      39.694  30.595  36.266  1.00  0.00    -0.206 F 
ATOM     73  C   UNL A   1      39.838  32.792  37.083  1.00  0.00     0.059 A 
ATOM     74  C   UNL A   1      41.173  34.438  35.896  1.00  0.00     0.059 A 
ATOM     75  F   UNL A   1      42.291  33.826  33.929  1.00  0.00    -0.206 F 
ATOM     76  C   UNL A   1      40.327  34.094  36.948  1.00  0.00     0.060 A 
BRANCH  76  77
ATOM     77  S   UNL A   1      39.841  35.337  38.165  1.00  0.00     0.124 S 
ATOM     78  O   UNL A   1      38.637  34.736  38.729  1.00  0.00    -0.237 OA
ATOM     79  O   UNL A   1      41.000  35.383  39.049  1.00  0.00    -0.237 OA
ATOM     80  O   UNL A   1      39.625  36.534  37.358  1.00  0.00    -0.744 OA
ENDBRANCH  76  77
ENDBRANCH  55  69
BRANCH  56  81
ATOM     81  C   UNL A   1      42.995  25.431  27.937  1.00  0.00     0.058 A 
ATOM     82  C   UNL A   1      42.552  24.120  28.181  1.00  0.00     0.135 A 
ATOM     83  C   UNL A   1      43.712  25.661  26.753  1.00  0.00     0.135 A 
ATOM     84  F   UNL A   1      41.883  23.835  29.309  1.00  0.00    -0.206 F 
ATOM     85  C   UNL A   1      42.821  23.077  27.298  1.00  0.00     0.059 A 
ATOM     86  C   UNL A   1      43.974  24.639  25.845  1.00  0.00     0.059 A 
ATOM     87  F   UNL A   1      44.164  26.891  26.468  1.00  0.00    -0.206 F 
ATOM     88  C   UNL A   1      43.538  23.347  26.133  1.00  0.00     0.060 A 
BRANCH  88  89
ATOM     89  S   UNL A   1      43.875  22.001  24.977  1.00  0.00     0.124 S 
ATOM     90  O   UNL A   1      45.247  21.652  25.326  1.00  0.00    -0.237 OA
ATOM     91  O   UNL A   1      42.858  21.016  25.330  1.00  0.00    -0.237 OA
ATOM     92  O   UNL A   1      43.695  22.633  23.673  1.00  0.00    -0.744 OA
ENDBRANCH  88  89
ENDBRANCH  56  81
BRANCH  68  93
ATOM     93  C   UNL A   1      46.378  27.520  33.653  1.00  0.00     0.058 A 
ATOM     94  C   UNL A   1      47.574  28.149  33.272  1.00  0.00     0.135 A 
ATOM     95  C   UNL A   1      46.439  26.545  34.661  1.00  0.00     0.135 A 
ATOM     96  F   UNL A   1      47.569  29.086  32.311  1.00  0.00    -0.206 F 
ATOM     97  C   UNL A   1      48.790  27.811  33.857  1.00  0.00     0.059 A 
ATOM     98  C   UNL A   1      47.642  26.208  35.275  1.00  0.00     0.059 A 
ATOM     99  F   UNL A   1      45.322  25.922  35.068  1.00  0.00    -0.206 F 
ATOM    100  C   UNL A   1      48.814  26.841  34.860  1.00  0.00     0.060 A 
BRANCH 100 101
ATOM    101  S   UNL A   1      50.393  26.444  35.643  1.00  0.00     0.124 S 
ATOM    102  O   UNL A   1      50.078  25.190  36.321  1.00  0.00    -0.237 OA
ATOM    103  O   UNL A   1      51.293  26.336  34.498  1.00  0.00    -0.237 OA
ATOM    104  O   UNL A   1      50.635  27.588  36.516  1.00  0.00    -0.744 OA
ENDBRANCH 100 101
ENDBRANCH  68  93
ENDBRANCH  42  43
ENDBRANCH  35  37
ENDBRANCH  34  35
ENDBRANCH  33  34
ENDBRANCH   1  33
TORSDOF 18
ENDMDL
MODEL 3
REMARK VINA RESULT:     -11.5      6.832     11.430
REMARK SMILES C[NH+]1CCC2(CC1)OC[C@H](C(=O)OCCOC(=O)c1ccc(-c3c4nc(c(-c5c(F)cc(S(=O)(=O)[O-])cc5F)c5ccc([nH]5)c(-c5c(F)cc(S(=O)(=O)[O-])cc5F)c5nc(c(-c6c(F)cc(S(=O)(=O)[O-])cc6F)c6ccc3[nH]6)C=C5)C=C4)cc1)N2C(=O)c1cc(C(F)(F)F)cc(C(F)(F)F)c1
REMARK SMILES IDX 14 1 13 2 11 3 12 4 10 5 1 6 2 7 3 8 7 9 4 11 6 12 5 13 8 14
REMARK SMILES IDX 85 15 9 16 86 17 87 18 88 19 89 20 101 21 90 22 96 23 95 24
REMARK SMILES IDX 91 25 92 26 93 27 94 28 97 29 98 30 99 31 100 32 15 33 16 34
REMARK SMILES IDX 17 35 18 36 19 37 20 38 84 39 21 40 83 41 22 42 23 43 24 44
REMARK SMILES IDX 77 45 25 46 82 47 76 48 78 49 26 50 81 51 75 52 74 53 27 55
REMARK SMILES IDX 61 56 40 57 60 58 41 59 44 60 59 61 79 62 42 63 43 64 58 66
REMARK SMILES IDX 80 67 45 68 28 69 29 70 38 71 30 72 31 73 37 74 39 75 32 76
REMARK SMILES IDX 33 77 34 78 35 79 36 80 62 81 63 82 72 83 64 84 65 85 71 86
REMARK SMILES IDX 73 87 66 88 67 89 68 90 69 91 70 92 46 93 47 94 56 95 48 96
REMARK SMILES IDX 49 97 55 98 57 99 50 100 51 101 52 102 53 103 54 104
REMARK H PARENT 2 10 78 54 44 65
REMARK Flexibility Score: inf
ROOT
ATOM      1  C   UNL A   1      38.012  22.432  25.460  1.00  0.00     0.274 C 
ENDROOT
BRANCH   1   2
ATOM      2  O   UNL A   1      37.497  23.696  24.995  1.00  0.00    -0.460 OA
BRANCH   2   3
ATOM      3  C   UNL A   1      36.162  23.904  25.197  1.00  0.00     0.331 C 
ATOM      4  O   UNL A   1      35.663  24.134  26.293  1.00  0.00    -0.250 OA
BRANCH   3   5
ATOM      5  C   UNL A   1      35.388  23.884  23.875  1.00  0.00     0.224 C 
ATOM      6  C   UNL A   1      29.799  23.285  26.944  1.00  0.00     0.332 C 
ATOM      7  N   UNL A   1      30.893  23.704  26.077  1.00  0.00    -0.337 N 
ATOM      8  C   UNL A   1      32.207  23.465  26.649  1.00  0.00     0.267 C 
ATOM      9  C   UNL A   1      30.631  23.478  24.662  1.00  0.00     0.267 C 
ATOM     10  H   UNL A   1      30.937  24.723  26.048  1.00  0.00     0.347 HD
ATOM     11  C   UNL A   1      33.129  22.654  25.778  1.00  0.00     0.120 C 
ATOM     12  C   UNL A   1      31.770  23.042  23.736  1.00  0.00     0.120 C 
ATOM     13  C   UNL A   1      33.176  23.129  24.321  1.00  0.00     0.155 C 
ATOM     14  O   UNL A   1      33.919  22.044  23.665  1.00  0.00    -0.352 OA
ATOM     15  N   UNL A   1      33.997  24.317  24.024  1.00  0.00    -0.293 N 
ATOM     16  C   UNL A   1      35.227  22.505  23.294  1.00  0.00     0.200 C 
BRANCH  15  17
ATOM     17  C   UNL A   1      33.656  25.483  23.331  1.00  0.00     0.256 C 
ATOM     18  O   UNL A   1      34.041  25.664  22.172  1.00  0.00    -0.269 OA
BRANCH  17  19
ATOM     19  C   UNL A   1      32.892  26.610  23.918  1.00  0.00     0.041 A 
ATOM     20  C   UNL A   1      33.285  27.101  25.175  1.00  0.00     0.027 A 
ATOM     21  C   UNL A   1      31.712  27.085  23.359  1.00  0.00     0.027 A 
ATOM     22  C   UNL A   1      32.550  28.103  25.832  1.00  0.00     0.057 A 
ATOM     23  C   UNL A   1      31.021  28.164  23.936  1.00  0.00     0.057 A 
ATOM     24  C   UNL A   1      31.436  28.652  25.185  1.00  0.00     0.026 A 
BRANCH  22  25
ATOM     25  C   UNL A   1      32.968  28.570  27.207  1.00  0.00     0.416 C 
ATOM     26  F   UNL A   1      34.317  28.570  27.371  1.00  0.00    -0.166 F 
ATOM     27  F   UNL A   1      32.562  29.850  27.451  1.00  0.00    -0.166 F 
ATOM     28  F   UNL A   1      32.455  27.822  28.219  1.00  0.00    -0.166 F 
ENDBRANCH  22  25
BRANCH  23  29
ATOM     29  C   UNL A   1      29.916  28.866  23.180  1.00  0.00     0.416 C 
ATOM     30  F   UNL A   1      30.128  28.884  21.841  1.00  0.00    -0.166 F 
ATOM     31  F   UNL A   1      28.718  28.238  23.351  1.00  0.00    -0.166 F 
ATOM     32  F   UNL A   1      29.722  30.157  23.562  1.00  0.00    -0.166 F 
ENDBRANCH  23  29
ENDBRANCH  17  19
ENDBRANCH  15  17
ENDBRANCH   3   5
ENDBRANCH   2   3
ENDBRANCH   1   2
BRANCH   1  33
ATOM     33  C   UNL A   1      39.312  22.570  26.264  1.00  0.00     0.275 C 
BRANCH  33  34
ATOM     34  O   UNL A   1      39.285  23.709  27.143  1.00  0.00    -0.458 OA
BRANCH  34  35
ATOM     35  C   UNL A   1      40.147  24.700  26.815  1.00  0.00     0.338 C 
ATOM     36  O   UNL A   1      40.633  24.900  25.709  1.00  0.00    -0.246 OA
BRANCH  35  37
ATOM     37  C   UNL A   1      40.263  25.664  27.923  1.00  0.00     0.060 A 
ATOM     38  C   UNL A   1      39.199  25.699  28.822  1.00  0.00     0.016 A 
ATOM     39  C   UNL A   1      41.333  26.552  28.071  1.00  0.00     0.016 A 
ATOM     40  C   UNL A   1      39.202  26.587  29.888  1.00  0.00     0.010 A 
ATOM     41  C   UNL A   1      41.322  27.474  29.133  1.00  0.00     0.010 A 
ATOM     42  C   UNL A   1      40.255  27.492  30.048  1.00  0.00    -0.014 A 
BRANCH  42  43
ATOM     43  C   UNL A   1      40.126  28.498  31.129  1.00  0.00     0.031 A 
ATOM     44  C   UNL A   1      41.188  28.566  32.189  1.00  0.00     0.074 A 
ATOM     45  C   UNL A   1      39.170  29.443  31.068  1.00  0.00     0.049 A 
ATOM     46  N   UNL A   1      41.309  29.405  33.184  1.00  0.00    -0.248 NA
ATOM     47  C   UNL A   1      42.266  27.567  32.106  1.00  0.00     0.031 C 
ATOM     48  C   UNL A   1      38.156  29.541  30.020  1.00  0.00     0.029 A 
ATOM     49  N   UNL A   1      38.929  30.530  31.872  1.00  0.00    -0.354 N 
ATOM     50  C   UNL A   1      42.454  29.017  33.867  1.00  0.00     0.074 A 
ATOM     51  C   UNL A   1      43.012  27.887  33.154  1.00  0.00     0.031 C 
ATOM     52  C   UNL A   1      37.427  30.654  30.223  1.00  0.00     0.029 A 
ATOM     53  C   UNL A   1      37.909  31.339  31.420  1.00  0.00     0.049 A 
ATOM     54  H   UNL A   1      39.437  30.714  32.695  1.00  0.00     0.167 HD
ATOM     55  C   UNL A   1      42.972  29.535  35.005  1.00  0.00     0.037 A 
ATOM     56  C   UNL A   1      37.439  32.506  31.907  1.00  0.00     0.037 A 
ATOM     57  C   UNL A   1      42.402  30.646  35.720  1.00  0.00     0.049 A 
ATOM     58  C   UNL A   1      38.039  33.063  33.174  1.00  0.00     0.074 A 
ATOM     59  C   UNL A   1      42.770  31.162  36.950  1.00  0.00     0.029 A 
ATOM     60  N   UNL A   1      41.348  31.420  35.260  1.00  0.00    -0.354 N 
ATOM     61  N   UNL A   1      39.065  32.625  33.866  1.00  0.00    -0.248 NA
ATOM     62  C   UNL A   1      37.394  34.255  33.747  1.00  0.00     0.031 C 
ATOM     63  C   UNL A   1      41.920  32.234  37.246  1.00  0.00     0.029 A 
ATOM     64  C   UNL A   1      41.049  32.409  36.183  1.00  0.00     0.049 A 
ATOM     65  H   UNL A   1      40.881  31.287  34.404  1.00  0.00     0.167 HD
ATOM     66  C   UNL A   1      39.175  33.476  34.961  1.00  0.00     0.074 A 
ATOM     67  C   UNL A   1      38.150  34.488  34.812  1.00  0.00     0.031 C 
ATOM     68  C   UNL A   1      40.025  33.408  36.015  1.00  0.00     0.037 A 
BRANCH  55  69
ATOM     69  C   UNL A   1      44.161  28.835  35.593  1.00  0.00     0.058 A 
ATOM     70  C   UNL A   1      45.466  29.321  35.434  1.00  0.00     0.135 A 
ATOM     71  C   UNL A   1      43.984  27.648  36.323  1.00  0.00     0.135 A 
ATOM     72  F   UNL A   1      45.691  30.437  34.723  1.00  0.00    -0.206 F 
ATOM     73  C   UNL A   1      46.560  28.642  35.962  1.00  0.00     0.059 A 
ATOM     74  C   UNL A   1      45.059  26.963  36.875  1.00  0.00     0.059 A 
ATOM     75  F   UNL A   1      42.754  27.138  36.494  1.00  0.00    -0.206 F 
ATOM     76  C   UNL A   1      46.346  27.460  36.676  1.00  0.00     0.060 A 
BRANCH  76  77
ATOM     77  S   UNL A   1      47.772  26.574  37.342  1.00  0.00     0.124 S 
ATOM     78  O   UNL A   1      47.940  27.225  38.636  1.00  0.00    -0.237 OA
ATOM     79  O   UNL A   1      47.296  25.195  37.383  1.00  0.00    -0.237 OA
ATOM     80  O   UNL A   1      48.824  26.841  36.365  1.00  0.00    -0.744 OA
ENDBRANCH  76  77
ENDBRANCH  55  69
BRANCH  56  81
ATOM     81  C   UNL A   1      36.349  33.249  31.209  1.00  0.00     0.058 A 
ATOM     82  C   UNL A   1      36.587  33.893  29.983  1.00  0.00     0.135 A 
ATOM     83  C   UNL A   1      35.065  33.365  31.761  1.00  0.00     0.135 A 
ATOM     84  F   UNL A   1      37.803  33.838  29.419  1.00  0.00    -0.206 F 
ATOM     85  C   UNL A   1      35.599  34.634  29.338  1.00  0.00     0.059 A 
ATOM     86  C   UNL A   1      34.055  34.081  31.125  1.00  0.00     0.059 A 
ATOM     87  F   UNL A   1      34.780  32.774  32.932  1.00  0.00    -0.206 F 
ATOM     88  C   UNL A   1      34.336  34.727  29.922  1.00  0.00     0.060 A 
BRANCH  88  89
ATOM     89  S   UNL A   1      33.047  35.673  29.082  1.00  0.00     0.124 S 
ATOM     90  O   UNL A   1      32.189  36.053  30.198  1.00  0.00    -0.237 OA
ATOM     91  O   UNL A   1      33.802  36.755  28.459  1.00  0.00    -0.237 OA
ATOM     92  O   UNL A   1      32.479  34.702  28.150  1.00  0.00    -0.744 OA
ENDBRANCH  88  89
ENDBRANCH  56  81
BRANCH  68  93
ATOM     93  C   UNL A   1      39.866  34.435  37.101  1.00  0.00     0.058 A 
ATOM     94  C   UNL A   1      39.164  34.139  38.280  1.00  0.00     0.135 A 
ATOM     95  C   UNL A   1      40.469  35.698  36.993  1.00  0.00     0.135 A 
ATOM     96  F   UNL A   1      38.567  32.946  38.431  1.00  0.00    -0.206 F 
ATOM     97  C   UNL A   1      39.049  35.068  39.309  1.00  0.00     0.059 A 
ATOM     98  C   UNL A   1      40.384  36.634  38.019  1.00  0.00     0.059 A 
ATOM     99  F   UNL A   1      41.159  36.025  35.889  1.00  0.00    -0.206 F 
ATOM    100  C   UNL A   1      39.665  36.313  39.171  1.00  0.00     0.060 A 
BRANCH 100 101
ATOM    101  S   UNL A   1      39.547  37.494  40.532  1.00  0.00     0.124 S 
ATOM    102  O   UNL A   1      38.679  36.782  41.465  1.00  0.00    -0.237 OA
ATOM    103  O   UNL A   1      40.940  37.637  40.946  1.00  0.00    -0.237 OA
ATOM    104  O   UNL A   1      38.962  38.675  39.906  1.00  0.00    -0.744 OA
ENDBRANCH 100 101
ENDBRANCH  68  93
ENDBRANCH  42  43
ENDBRANCH  35  37
ENDBRANCH  34  35
ENDBRANCH  33  34
ENDBRANCH   1  33
TORSDOF 18
ENDMDL
