MODEL 1
REMARK VINA RESULT:     -10.8      0.000      0.000
REMARK SMILES COc1cccc(OC)c1[C@@H](C(=O)OCCOC(=O)c1ccc(-c2c3nc(c(-c4c(F)cc(S(=O)(=O)[O-])cc4F)c4ccc([nH]4)c(-c4c(F)cc(S(=O)(=O)[O-])cc4F)c4nc(c(-c5c(F)cc(S(=O)(=O)[O-])cc5F)c5ccc2[nH]5)C=C4)C=C3)cc1)[N@@H+](C)Cc1c(C)n[nH]c1C
REMARK SMILES IDX 15 1 14 2 12 3 13 4 11 5 10 6 3 7 4 8 5 9 7 10 6 11 2 12
REMARK SMILES IDX 1 13 8 14 9 15 86 16 87 17 88 19 89 20 90 21 94 22 91 23
REMARK SMILES IDX 92 24 93 25 95 26 16 28 17 29 18 30 19 31 20 32 21 33 85 34
REMARK SMILES IDX 22 35 84 36 23 37 24 38 25 39 78 40 26 41 83 42 77 43 79 44
REMARK SMILES IDX 27 45 82 46 76 47 75 48 28 50 62 51 41 52 61 53 42 54 45 55
REMARK SMILES IDX 60 56 80 57 43 58 44 59 59 61 81 62 46 63 29 64 30 65 39 66
REMARK SMILES IDX 31 67 32 68 38 69 40 70 33 71 34 72 35 73 36 74 37 75 63 76
REMARK SMILES IDX 64 77 73 78 65 79 66 80 72 81 74 82 67 83 68 84 69 85 70 86
REMARK SMILES IDX 71 87 47 88 48 89 57 90 49 91 50 92 56 93 58 94 51 95 52 96
REMARK SMILES IDX 53 97 54 98 55 99
REMARK H PARENT 86 18 93 27 79 49 45 60
REMARK Flexibility Score: inf
ROOT
ATOM      1  C   UNL A   1      35.890  20.902  25.041  1.00  0.00     0.274 C 
ENDROOT
BRANCH   1   2
ATOM      2  O   UNL A   1      35.513  22.084  25.798  1.00  0.00    -0.457 OA
BRANCH   2   3
ATOM      3  C   UNL A   1      34.365  21.977  26.516  1.00  0.00     0.370 C 
ATOM      4  O   UNL A   1      34.352  21.665  27.711  1.00  0.00    -0.245 OA
BRANCH   3   5
ATOM      5  C   UNL A   1      33.049  22.272  25.775  1.00  0.00     0.334 C 
BRANCH   5   6
ATOM      6  C   UNL A   1      32.650  21.457  24.528  1.00  0.00     0.105 A 
ATOM      7  C   UNL A   1      32.615  20.041  24.573  1.00  0.00     0.132 A 
ATOM      8  C   UNL A   1      32.342  19.266  23.424  1.00  0.00     0.047 A 
ATOM      9  C   UNL A   1      32.075  19.859  22.198  1.00  0.00     0.008 A 
ATOM     10  C   UNL A   1      32.282  21.999  23.283  1.00  0.00     0.132 A 
ATOM     11  C   UNL A   1      32.022  21.231  22.136  1.00  0.00     0.047 A 
BRANCH   7  12
ATOM     12  O   UNL A   1      32.933  19.292  25.682  1.00  0.00    -0.496 OA
ATOM     13  C   UNL A   1      32.545  17.916  25.621  1.00  0.00     0.278 C 
ENDBRANCH   7  12
BRANCH  10  14
ATOM     14  O   UNL A   1      32.036  23.319  23.089  1.00  0.00    -0.496 OA
ATOM     15  C   UNL A   1      30.646  23.541  23.226  1.00  0.00     0.278 C 
ENDBRANCH  10  14
ENDBRANCH   5   6
BRANCH   5  16
ATOM     16  N   UNL A   1      32.519  23.641  25.980  1.00  0.00    -0.318 N 
ATOM     17  C   UNL A   1      31.534  23.756  27.060  1.00  0.00     0.334 C 
ATOM     18  H   UNL A   1      32.035  23.718  25.086  1.00  0.00     0.349 HD
BRANCH  16  19
ATOM     19  C   UNL A   1      33.381  24.802  25.864  1.00  0.00     0.303 C 
BRANCH  19  20
ATOM     20  C   UNL A   1      32.836  26.086  25.217  1.00  0.00     0.050 A 
ATOM     21  C   UNL A   1      32.244  27.673  26.267  1.00  0.00     0.068 A 
ATOM     22  C   UNL A   1      33.075  26.686  23.498  1.00  0.00     0.041 A 
ATOM     23  C   UNL A   1      31.938  27.936  27.694  1.00  0.00     0.069 C 
ATOM     24  N   UNL A   1      32.024  29.013  25.150  1.00  0.00    -0.180 NA
ATOM     25  N   UNL A   1      32.725  28.516  23.498  1.00  0.00    -0.282 N 
ATOM     26  C   UNL A   1      33.652  26.158  22.211  1.00  0.00     0.066 C 
ATOM     27  H   UNL A   1      32.885  29.126  22.742  1.00  0.00     0.190 HD
ENDBRANCH  19  20
ENDBRANCH  16  19
ENDBRANCH   5  16
ENDBRANCH   3   5
ENDBRANCH   2   3
ENDBRANCH   1   2
BRANCH   1  28
ATOM     28  C   UNL A   1      37.408  20.693  24.890  1.00  0.00     0.275 C 
BRANCH  28  29
ATOM     29  O   UNL A   1      38.152  21.935  25.009  1.00  0.00    -0.458 OA
BRANCH  29  30
ATOM     30  C   UNL A   1      39.265  21.900  26.042  1.00  0.00     0.338 C 
ATOM     31  O   UNL A   1      39.635  20.681  26.012  1.00  0.00    -0.246 OA
BRANCH  30  32
ATOM     32  C   UNL A   1      39.999  23.636  27.223  1.00  0.00     0.060 A 
ATOM     33  C   UNL A   1      39.783  25.096  26.954  1.00  0.00     0.016 A 
ATOM     34  C   UNL A   1      41.075  23.696  28.323  1.00  0.00     0.016 A 
ATOM     35  C   UNL A   1      40.745  26.075  27.020  1.00  0.00     0.010 A 
ATOM     36  C   UNL A   1      41.866  24.813  28.682  1.00  0.00     0.010 A 
ATOM     37  C   UNL A   1      41.709  25.988  27.982  1.00  0.00    -0.014 A 
BRANCH  37  38
ATOM     38  C   UNL A   1      42.328  27.267  28.298  1.00  0.00     0.031 A 
ATOM     39  C   UNL A   1      41.559  28.286  29.046  1.00  0.00     0.074 A 
ATOM     40  C   UNL A   1      43.645  27.356  28.016  1.00  0.00     0.049 A 
ATOM     41  N   UNL A   1      41.873  29.528  29.246  1.00  0.00    -0.248 NA
ATOM     42  C   UNL A   1      40.271  27.874  29.631  1.00  0.00     0.031 C 
ATOM     43  C   UNL A   1      44.466  26.271  27.433  1.00  0.00     0.029 A 
ATOM     44  N   UNL A   1      44.548  28.348  28.227  1.00  0.00    -0.354 N 
ATOM     45  C   UNL A   1      40.786  30.083  29.899  1.00  0.00     0.074 A 
ATOM     46  C   UNL A   1      39.816  29.029  30.099  1.00  0.00     0.031 C 
ATOM     47  C   UNL A   1      45.750  26.630  27.418  1.00  0.00     0.029 A 
ATOM     48  C   UNL A   1      45.800  28.032  27.754  1.00  0.00     0.049 A 
ATOM     49  H   UNL A   1      44.330  29.201  28.670  1.00  0.00     0.167 HD
ATOM     50  C   UNL A   1      40.643  31.382  30.236  1.00  0.00     0.037 A 
ATOM     51  C   UNL A   1      46.836  28.834  27.482  1.00  0.00     0.037 A 
ATOM     52  C   UNL A   1      41.685  32.345  29.973  1.00  0.00     0.049 A 
ATOM     53  C   UNL A   1      46.604  30.281  27.750  1.00  0.00     0.074 A 
ATOM     54  C   UNL A   1      41.691  33.705  30.198  1.00  0.00     0.029 A 
ATOM     55  N   UNL A   1      42.922  32.025  29.411  1.00  0.00    -0.354 N 
ATOM     56  N   UNL A   1      45.533  30.853  28.255  1.00  0.00    -0.248 NA
ATOM     57  C   UNL A   1      47.685  31.194  27.398  1.00  0.00     0.031 C 
ATOM     58  C   UNL A   1      42.900  34.214  29.711  1.00  0.00     0.029 A 
ATOM     59  C   UNL A   1      43.690  33.163  29.259  1.00  0.00     0.049 A 
ATOM     60  H   UNL A   1      43.207  31.117  29.158  1.00  0.00     0.167 HD
ATOM     61  C   UNL A   1      45.817  32.202  28.313  1.00  0.00     0.074 A 
ATOM     62  C   UNL A   1      47.175  32.347  27.805  1.00  0.00     0.031 C 
ATOM     63  C   UNL A   1      45.041  33.227  28.745  1.00  0.00     0.037 A 
BRANCH  50  64
ATOM     64  C   UNL A   1      39.317  31.816  30.793  1.00  0.00     0.058 A 
ATOM     65  C   UNL A   1      38.184  32.013  29.986  1.00  0.00     0.135 A 
ATOM     66  C   UNL A   1      39.186  32.075  32.168  1.00  0.00     0.135 A 
ATOM     67  F   UNL A   1      38.255  31.817  28.660  1.00  0.00    -0.206 F 
ATOM     68  C   UNL A   1      36.982  32.474  30.517  1.00  0.00     0.059 A 
ATOM     69  C   UNL A   1      37.985  32.502  32.726  1.00  0.00     0.059 A 
ATOM     70  F   UNL A   1      40.239  31.930  32.988  1.00  0.00    -0.206 F 
ATOM     71  C   UNL A   1      36.890  32.710  31.889  1.00  0.00     0.060 A 
BRANCH  71  72
ATOM     72  S   UNL A   1      35.318  33.288  32.561  1.00  0.00     0.124 S 
ATOM     73  O   UNL A   1      35.344  32.714  33.904  1.00  0.00    -0.237 OA
ATOM     74  O   UNL A   1      35.468  34.738  32.489  1.00  0.00    -0.237 OA
ATOM     75  O   UNL A   1      34.328  32.716  31.655  1.00  0.00    -0.744 OA
ENDBRANCH  71  72
ENDBRANCH  50  64
BRANCH  51  76
ATOM     76  C   UNL A   1      48.069  28.287  26.863  1.00  0.00     0.058 A 
ATOM     77  C   UNL A   1      48.118  28.042  25.486  1.00  0.00     0.135 A 
ATOM     78  C   UNL A   1      49.243  28.065  27.608  1.00  0.00     0.135 A 
ATOM     79  F   UNL A   1      47.031  28.257  24.729  1.00  0.00    -0.206 F 
ATOM     80  C   UNL A   1      49.275  27.577  24.872  1.00  0.00     0.059 A 
ATOM     81  C   UNL A   1      50.424  27.639  27.010  1.00  0.00     0.059 A 
ATOM     82  F   UNL A   1      49.268  28.318  28.927  1.00  0.00    -0.206 F 
ATOM     83  C   UNL A   1      50.424  27.382  25.642  1.00  0.00     0.060 A 
BRANCH  83  84
ATOM     84  S   UNL A   1      51.919  26.797  24.821  1.00  0.00     0.124 S 
ATOM     85  O   UNL A   1      51.531  26.878  23.417  1.00  0.00    -0.237 OA
ATOM     86  O   UNL A   1      52.910  27.770  25.269  1.00  0.00    -0.237 OA
ATOM     87  O   UNL A   1      52.091  25.448  25.351  1.00  0.00    -0.744 OA
ENDBRANCH  83  84
ENDBRANCH  51  76
BRANCH  63  88
ATOM     88  C   UNL A   1      45.696  34.570  28.735  1.00  0.00     0.058 A 
ATOM     89  C   UNL A   1      45.602  35.432  27.634  1.00  0.00     0.135 A 
ATOM     90  C   UNL A   1      46.412  34.997  29.863  1.00  0.00     0.135 A 
ATOM     91  F   UNL A   1      44.945  35.050  26.526  1.00  0.00    -0.206 F 
ATOM     92  C   UNL A   1      46.230  36.667  27.639  1.00  0.00     0.059 A 
ATOM     93  C   UNL A   1      47.006  36.247  29.908  1.00  0.00     0.059 A 
ATOM     94  F   UNL A   1      46.523  34.201  30.939  1.00  0.00    -0.206 F 
ATOM     95  C   UNL A   1      46.921  37.068  28.785  1.00  0.00     0.060 A 
BRANCH  95  96
ATOM     96  S   UNL A   1      47.691  38.695  28.791  1.00  0.00     0.124 S 
ATOM     97  O   UNL A   1      48.307  38.732  27.469  1.00  0.00    -0.237 OA
ATOM     98  O   UNL A   1      46.543  39.576  28.983  1.00  0.00    -0.237 OA
ATOM     99  O   UNL A   1      48.619  38.627  29.916  1.00  0.00    -0.744 OA
ENDBRANCH  95  96
ENDBRANCH  63  88
ENDBRANCH  37  38
ENDBRANCH  30  32
ENDBRANCH  29  30
ENDBRANCH  28  29
ENDBRANCH   1  28
TORSDOF 20
ENDMDL
MODEL 2
REMARK VINA RESULT:     -10.8      4.676      9.278
REMARK SMILES COc1cccc(OC)c1[C@@H](C(=O)OCCOC(=O)c1ccc(-c2c3nc(c(-c4c(F)cc(S(=O)(=O)[O-])cc4F)c4ccc([nH]4)c(-c4c(F)cc(S(=O)(=O)[O-])cc4F)c4nc(c(-c5c(F)cc(S(=O)(=O)[O-])cc5F)c5ccc2[nH]5)C=C4)C=C3)cc1)[N@@H+](C)Cc1c(C)n[nH]c1C
REMARK SMILES IDX 15 1 14 2 12 3 13 4 11 5 10 6 3 7 4 8 5 9 7 10 6 11 2 12
REMARK SMILES IDX 1 13 8 14 9 15 86 16 87 17 88 19 89 20 90 21 94 22 91 23
REMARK SMILES IDX 92 24 93 25 95 26 16 28 17 29 18 30 19 31 20 32 21 33 85 34
REMARK SMILES IDX 22 35 84 36 23 37 24 38 25 39 78 40 26 41 83 42 77 43 79 44
REMARK SMILES IDX 27 45 82 46 76 47 75 48 28 50 62 51 41 52 61 53 42 54 45 55
REMARK SMILES IDX 60 56 80 57 43 58 44 59 59 61 81 62 46 63 29 64 30 65 39 66
REMARK SMILES IDX 31 67 32 68 38 69 40 70 33 71 34 72 35 73 36 74 37 75 63 76
REMARK SMILES IDX 64 77 73 78 65 79 66 80 72 81 74 82 67 83 68 84 69 85 70 86
REMARK SMILES IDX 71 87 47 88 48 89 57 90 49 91 50 92 56 93 58 94 51 95 52 96
REMARK SMILES IDX 53 97 54 98 55 99
REMARK H PARENT 86 18 93 27 79 49 45 60
REMARK Flexibility Score: inf
ROOT
ATOM      1  C   UNL A   1      34.197  22.895  25.674  1.00  0.00     0.274 C 
ENDROOT
BRANCH   1   2
ATOM      2  O   UNL A   1      34.283  22.816  24.225  1.00  0.00    -0.457 OA
BRANCH   2   3
ATOM      3  C   UNL A   1      34.576  23.982  23.593  1.00  0.00     0.370 C 
ATOM      4  O   UNL A   1      35.712  24.256  23.192  1.00  0.00    -0.245 OA
BRANCH   3   5
ATOM      5  C   UNL A   1      33.416  24.971  23.380  1.00  0.00     0.334 C 
BRANCH   5   6
ATOM      6  C   UNL A   1      32.495  25.365  24.553  1.00  0.00     0.105 A 
ATOM      7  C   UNL A   1      31.240  24.730  24.729  1.00  0.00     0.132 A 
ATOM      8  C   UNL A   1      30.338  25.132  25.739  1.00  0.00     0.047 A 
ATOM      9  C   UNL A   1      30.649  26.158  26.620  1.00  0.00     0.008 A 
ATOM     10  C   UNL A   1      32.790  26.331  25.532  1.00  0.00     0.132 A 
ATOM     11  C   UNL A   1      31.890  26.742  26.529  1.00  0.00     0.047 A 
BRANCH   7  12
ATOM     12  O   UNL A   1      30.740  23.754  23.898  1.00  0.00    -0.496 OA
ATOM     13  C   UNL A   1      30.985  22.409  24.320  1.00  0.00     0.278 C 
ENDBRANCH   7  12
BRANCH  10  14
ATOM     14  O   UNL A   1      34.017  26.892  25.677  1.00  0.00    -0.496 OA
ATOM     15  C   UNL A   1      33.905  27.989  26.563  1.00  0.00     0.278 C 
ENDBRANCH  10  14
ENDBRANCH   5   6
BRANCH   5  16
ATOM     16  N   UNL A   1      32.936  25.066  21.981  1.00  0.00    -0.318 N 
ATOM     17  C   UNL A   1      32.981  23.805  21.236  1.00  0.00     0.334 C 
ATOM     18  H   UNL A   1      33.680  25.675  21.640  1.00  0.00     0.349 HD
BRANCH  16  19
ATOM     19  C   UNL A   1      31.797  25.896  21.636  1.00  0.00     0.303 C 
BRANCH  19  20
ATOM     20  C   UNL A   1      31.670  27.298  22.254  1.00  0.00     0.050 A 
ATOM     21  C   UNL A   1      30.051  27.916  23.239  1.00  0.00     0.068 A 
ATOM     22  C   UNL A   1      33.009  28.468  22.713  1.00  0.00     0.041 A 
ATOM     23  C   UNL A   1      28.660  27.424  23.392  1.00  0.00     0.069 C 
ATOM     24  N   UNL A   1      30.452  29.421  24.056  1.00  0.00    -0.180 NA
ATOM     25  N   UNL A   1      32.294  29.674  23.939  1.00  0.00    -0.282 N 
ATOM     26  C   UNL A   1      34.501  28.570  22.530  1.00  0.00     0.066 C 
ATOM     27  H   UNL A   1      32.809  30.342  24.447  1.00  0.00     0.190 HD
ENDBRANCH  19  20
ENDBRANCH  16  19
ENDBRANCH   5  16
ENDBRANCH   3   5
ENDBRANCH   2   3
ENDBRANCH   1   2
BRANCH   1  28
ATOM     28  C   UNL A   1      35.473  23.411  26.365  1.00  0.00     0.275 C 
BRANCH  28  29
ATOM     29  O   UNL A   1      36.557  22.445  26.319  1.00  0.00    -0.458 OA
BRANCH  29  30
ATOM     30  C   UNL A   1      37.873  23.006  25.808  1.00  0.00     0.338 C 
ATOM     31  O   UNL A   1      37.958  22.496  24.643  1.00  0.00    -0.246 OA
BRANCH  30  32
ATOM     32  C   UNL A   1      39.211  24.398  26.911  1.00  0.00     0.060 A 
ATOM     33  C   UNL A   1      39.270  24.648  28.390  1.00  0.00     0.016 A 
ATOM     34  C   UNL A   1      40.089  25.548  26.384  1.00  0.00     0.016 A 
ATOM     35  C   UNL A   1      39.347  25.880  28.994  1.00  0.00     0.010 A 
ATOM     36  C   UNL A   1      40.505  26.698  27.095  1.00  0.00     0.010 A 
ATOM     37  C   UNL A   1      40.083  26.861  28.396  1.00  0.00    -0.014 A 
BRANCH  37  38
ATOM     38  C   UNL A   1      40.521  27.898  29.318  1.00  0.00     0.031 A 
ATOM     39  C   UNL A   1      41.844  27.787  29.970  1.00  0.00     0.074 A 
ATOM     40  C   UNL A   1      39.729  28.990  29.378  1.00  0.00     0.049 A 
ATOM     41  N   UNL A   1      42.311  28.501  30.946  1.00  0.00    -0.248 NA
ATOM     42  C   UNL A   1      42.755  26.736  29.485  1.00  0.00     0.031 C 
ATOM     43  C   UNL A   1      38.493  29.189  28.587  1.00  0.00     0.029 A 
ATOM     44  N   UNL A   1      39.849  30.156  30.062  1.00  0.00    -0.354 N 
ATOM     45  C   UNL A   1      43.534  27.937  31.265  1.00  0.00     0.074 A 
ATOM     46  C   UNL A   1      43.758  26.840  30.348  1.00  0.00     0.031 C 
ATOM     47  C   UNL A   1      38.030  30.425  28.770  1.00  0.00     0.029 A 
ATOM     48  C   UNL A   1      38.785  31.003  29.856  1.00  0.00     0.049 A 
ATOM     49  H   UNL A   1      40.614  30.374  30.643  1.00  0.00     0.167 HD
ATOM     50  C   UNL A   1      44.340  28.313  32.280  1.00  0.00     0.037 A 
ATOM     51  C   UNL A   1      38.382  32.057  30.573  1.00  0.00     0.037 A 
ATOM     52  C   UNL A   1      44.000  29.423  33.136  1.00  0.00     0.049 A 
ATOM     53  C   UNL A   1      39.224  32.373  31.761  1.00  0.00     0.074 A 
ATOM     54  C   UNL A   1      44.668  29.909  34.240  1.00  0.00     0.029 A 
ATOM     55  N   UNL A   1      42.868  30.223  32.968  1.00  0.00    -0.354 N 
ATOM     56  N   UNL A   1      40.325  31.774  32.160  1.00  0.00    -0.248 NA
ATOM     57  C   UNL A   1      38.777  33.472  32.608  1.00  0.00     0.031 C 
ATOM     58  C   UNL A   1      43.907  30.954  34.776  1.00  0.00     0.029 A 
ATOM     59  C   UNL A   1      42.805  31.182  33.960  1.00  0.00     0.049 A 
ATOM     60  H   UNL A   1      42.207  30.118  32.245  1.00  0.00     0.167 HD
ATOM     61  C   UNL A   1      40.728  32.443  33.297  1.00  0.00     0.074 A 
ATOM     62  C   UNL A   1      39.753  33.505  33.504  1.00  0.00     0.031 C 
ATOM     63  C   UNL A   1      41.798  32.212  34.097  1.00  0.00     0.037 A 
BRANCH  50  64
ATOM     64  C   UNL A   1      45.548  27.466  32.562  1.00  0.00     0.058 A 
ATOM     65  C   UNL A   1      46.812  27.743  32.016  1.00  0.00     0.135 A 
ATOM     66  C   UNL A   1      45.430  26.326  33.374  1.00  0.00     0.135 A 
ATOM     67  F   UNL A   1      46.982  28.798  31.203  1.00  0.00    -0.206 F 
ATOM     68  C   UNL A   1      47.903  26.909  32.242  1.00  0.00     0.059 A 
ATOM     69  C   UNL A   1      46.515  25.497  33.643  1.00  0.00     0.059 A 
ATOM     70  F   UNL A   1      44.243  25.993  33.906  1.00  0.00    -0.206 F 
ATOM     71  C   UNL A   1      47.747  25.791  33.063  1.00  0.00     0.060 A 
BRANCH  71  72
ATOM     72  S   UNL A   1      49.178  24.733  33.361  1.00  0.00     0.124 S 
ATOM     73  O   UNL A   1      48.551  23.544  33.930  1.00  0.00    -0.237 OA
ATOM     74  O   UNL A   1      49.730  24.578  32.019  1.00  0.00    -0.237 OA
ATOM     75  O   UNL A   1      49.994  25.514  34.285  1.00  0.00    -0.744 OA
ENDBRANCH  71  72
ENDBRANCH  50  64
BRANCH  51  76
ATOM     76  C   UNL A   1      37.124  32.765  30.230  1.00  0.00     0.058 A 
ATOM     77  C   UNL A   1      37.088  33.659  29.154  1.00  0.00     0.135 A 
ATOM     78  C   UNL A   1      35.917  32.515  30.913  1.00  0.00     0.135 A 
ATOM     79  F   UNL A   1      38.207  33.915  28.460  1.00  0.00    -0.206 F 
ATOM     80  C   UNL A   1      35.912  34.298  28.780  1.00  0.00     0.059 A 
ATOM     81  C   UNL A   1      34.719  33.110  30.530  1.00  0.00     0.059 A 
ATOM     82  F   UNL A   1      35.881  31.638  31.929  1.00  0.00    -0.206 F 
ATOM     83  C   UNL A   1      34.732  34.014  29.472  1.00  0.00     0.060 A 
BRANCH  83  84
ATOM     84  S   UNL A   1      33.213  34.839  28.955  1.00  0.00     0.124 S 
ATOM     85  O   UNL A   1      32.697  33.903  27.962  1.00  0.00    -0.237 OA
ATOM     86  O   UNL A   1      32.470  34.917  30.209  1.00  0.00    -0.237 OA
ATOM     87  O   UNL A   1      33.684  36.118  28.432  1.00  0.00    -0.744 OA
ENDBRANCH  83  84
ENDBRANCH  51  76
BRANCH  63  88
ATOM     88  C   UNL A   1      41.976  33.183  35.220  1.00  0.00     0.058 A 
ATOM     89  C   UNL A   1      41.405  32.970  36.482  1.00  0.00     0.135 A 
ATOM     90  C   UNL A   1      42.750  34.336  35.019  1.00  0.00     0.135 A 
ATOM     91  F   UNL A   1      40.638  31.890  36.707  1.00  0.00    -0.206 F 
ATOM     92  C   UNL A   1      41.569  33.890  37.504  1.00  0.00     0.059 A 
ATOM     93  C   UNL A   1      42.968  35.244  36.042  1.00  0.00     0.059 A 
ATOM     94  F   UNL A   1      43.316  34.575  33.824  1.00  0.00    -0.206 F 
ATOM     95  C   UNL A   1      42.360  35.018  37.275  1.00  0.00     0.060 A 
BRANCH  95  96
ATOM     96  S   UNL A   1      42.602  36.180  38.630  1.00  0.00     0.124 S 
ATOM     97  O   UNL A   1      43.913  36.733  38.309  1.00  0.00    -0.237 OA
ATOM     98  O   UNL A   1      41.470  37.085  38.462  1.00  0.00    -0.237 OA
ATOM     99  O   UNL A   1      42.551  35.332  39.817  1.00  0.00    -0.744 OA
ENDBRANCH  95  96
ENDBRANCH  63  88
ENDBRANCH  37  38
ENDBRANCH  30  32
ENDBRANCH  29  30
ENDBRANCH  28  29
ENDBRANCH   1  28
TORSDOF 20
ENDMDL
MODEL 3
REMARK VINA RESULT:     -10.7      1.121      2.139
REMARK SMILES COc1cccc(OC)c1[C@@H](C(=O)OCCOC(=O)c1ccc(-c2c3nc(c(-c4c(F)cc(S(=O)(=O)[O-])cc4F)c4ccc([nH]4)c(-c4c(F)cc(S(=O)(=O)[O-])cc4F)c4nc(c(-c5c(F)cc(S(=O)(=O)[O-])cc5F)c5ccc2[nH]5)C=C4)C=C3)cc1)[N@@H+](C)Cc1c(C)n[nH]c1C
REMARK SMILES IDX 15 1 14 2 12 3 13 4 11 5 10 6 3 7 4 8 5 9 7 10 6 11 2 12
REMARK SMILES IDX 1 13 8 14 9 15 86 16 87 17 88 19 89 20 90 21 94 22 91 23
REMARK SMILES IDX 92 24 93 25 95 26 16 28 17 29 18 30 19 31 20 32 21 33 85 34
REMARK SMILES IDX 22 35 84 36 23 37 24 38 25 39 78 40 26 41 83 42 77 43 79 44
REMARK SMILES IDX 27 45 82 46 76 47 75 48 28 50 62 51 41 52 61 53 42 54 45 55
REMARK SMILES IDX 60 56 80 57 43 58 44 59 59 61 81 62 46 63 29 64 30 65 39 66
REMARK SMILES IDX 31 67 32 68 38 69 40 70 33 71 34 72 35 73 36 74 37 75 63 76
REMARK SMILES IDX 64 77 73 78 65 79 66 80 72 81 74 82 67 83 68 84 69 85 70 86
REMARK SMILES IDX 71 87 47 88 48 89 57 90 49 91 50 92 56 93 58 94 51 95 52 96
REMARK SMILES IDX 53 97 54 98 55 99
REMARK H PARENT 86 18 93 27 79 49 45 60
REMARK Flexibility Score: inf
ROOT
ATOM      1  C   UNL A   1      35.776  21.105  25.007  1.00  0.00     0.274 C 
ENDROOT
BRANCH   1   2
ATOM      2  O   UNL A   1      35.255  22.243  25.747  1.00  0.00    -0.457 OA
BRANCH   2   3
ATOM      3  C   UNL A   1      34.152  21.994  26.499  1.00  0.00     0.370 C 
ATOM      4  O   UNL A   1      34.208  21.769  27.712  1.00  0.00    -0.245 OA
BRANCH   3   5
ATOM      5  C   UNL A   1      32.794  22.014  25.774  1.00  0.00     0.334 C 
BRANCH   5   6
ATOM      6  C   UNL A   1      32.548  21.116  24.544  1.00  0.00     0.105 A 
ATOM      7  C   UNL A   1      32.424  21.683  23.251  1.00  0.00     0.132 A 
ATOM      8  C   UNL A   1      32.109  20.896  22.120  1.00  0.00     0.047 A 
ATOM      9  C   UNL A   1      31.926  19.524  22.222  1.00  0.00     0.008 A 
ATOM     10  C   UNL A   1      32.444  19.713  24.566  1.00  0.00     0.132 A 
ATOM     11  C   UNL A   1      32.119  18.930  23.446  1.00  0.00     0.047 A 
BRANCH   7  12
ATOM     12  O   UNL A   1      32.492  23.031  22.984  1.00  0.00    -0.496 OA
ATOM     13  C   UNL A   1      33.807  23.537  22.733  1.00  0.00     0.278 C 
ENDBRANCH   7  12
BRANCH  10  14
ATOM     14  O   UNL A   1      32.751  18.962  25.653  1.00  0.00    -0.496 OA
ATOM     15  C   UNL A   1      32.519  17.603  25.338  1.00  0.00     0.278 C 
ENDBRANCH  10  14
ENDBRANCH   5   6
BRANCH   5  16
ATOM     16  N   UNL A   1      32.008  23.255  25.969  1.00  0.00    -0.318 N 
ATOM     17  C   UNL A   1      30.701  23.054  26.599  1.00  0.00     0.334 C 
ATOM     18  H   UNL A   1      31.866  23.464  24.980  1.00  0.00     0.349 HD
BRANCH  16  19
ATOM     19  C   UNL A   1      32.652  24.493  26.365  1.00  0.00     0.303 C 
BRANCH  19  20
ATOM     20  C   UNL A   1      32.452  25.755  25.510  1.00  0.00     0.050 A 
ATOM     21  C   UNL A   1      30.951  25.974  24.218  1.00  0.00     0.068 A 
ATOM     22  C   UNL A   1      33.111  27.446  25.800  1.00  0.00     0.041 A 
ATOM     23  C   UNL A   1      29.951  25.068  23.603  1.00  0.00     0.069 C 
ATOM     24  N   UNL A   1      30.903  27.660  23.719  1.00  0.00    -0.180 NA
ATOM     25  N   UNL A   1      32.056  28.626  24.818  1.00  0.00    -0.282 N 
ATOM     26  C   UNL A   1      34.088  28.107  26.735  1.00  0.00     0.066 C 
ATOM     27  H   UNL A   1      32.099  29.608  24.872  1.00  0.00     0.190 HD
ENDBRANCH  19  20
ENDBRANCH  16  19
ENDBRANCH   5  16
ENDBRANCH   3   5
ENDBRANCH   2   3
ENDBRANCH   1   2
BRANCH   1  28
ATOM     28  C   UNL A   1      37.245  20.759  25.312  1.00  0.00     0.275 C 
BRANCH  28  29
ATOM     29  O   UNL A   1      38.149  21.848  24.987  1.00  0.00    -0.458 OA
BRANCH  29  30
ATOM     30  C   UNL A   1      39.102  22.225  26.109  1.00  0.00     0.338 C 
ATOM     31  O   UNL A   1      39.655  21.112  26.390  1.00  0.00    -0.246 OA
BRANCH  30  32
ATOM     32  C   UNL A   1      39.391  24.269  26.939  1.00  0.00     0.060 A 
ATOM     33  C   UNL A   1      40.069  25.442  26.294  1.00  0.00     0.016 A 
ATOM     34  C   UNL A   1      39.235  24.778  28.383  1.00  0.00     0.016 A 
ATOM     35  C   UNL A   1      40.969  26.283  26.902  1.00  0.00     0.010 A 
ATOM     36  C   UNL A   1      39.886  25.886  28.972  1.00  0.00     0.010 A 
ATOM     37  C   UNL A   1      40.787  26.603  28.216  1.00  0.00    -0.014 A 
BRANCH  37  38
ATOM     38  C   UNL A   1      41.441  27.844  28.605  1.00  0.00     0.031 A 
ATOM     39  C   UNL A   1      40.652  28.913  29.256  1.00  0.00     0.074 A 
ATOM     40  C   UNL A   1      42.785  27.852  28.483  1.00  0.00     0.049 A 
ATOM     41  N   UNL A   1      41.014  30.135  29.492  1.00  0.00    -0.248 NA
ATOM     42  C   UNL A   1      39.280  28.583  29.682  1.00  0.00     0.031 C 
ATOM     43  C   UNL A   1      43.603  26.715  28.002  1.00  0.00     0.029 A 
ATOM     44  N   UNL A   1      43.715  28.789  28.800  1.00  0.00    -0.354 N 
ATOM     45  C   UNL A   1      39.893  30.759  30.010  1.00  0.00     0.074 A 
ATOM     46  C   UNL A   1      38.843  29.767  30.093  1.00  0.00     0.031 C 
ATOM     47  C   UNL A   1      44.898  26.996  28.141  1.00  0.00     0.029 A 
ATOM     48  C   UNL A   1      44.993  28.395  28.482  1.00  0.00     0.049 A 
ATOM     49  H   UNL A   1      43.498  29.656  29.214  1.00  0.00     0.167 HD
ATOM     50  C   UNL A   1      39.790  32.067  30.329  1.00  0.00     0.037 A 
ATOM     51  C   UNL A   1      46.101  29.131  28.335  1.00  0.00     0.037 A 
ATOM     52  C   UNL A   1      40.912  32.963  30.193  1.00  0.00     0.049 A 
ATOM     53  C   UNL A   1      45.927  30.591  28.574  1.00  0.00     0.074 A 
ATOM     54  C   UNL A   1      40.973  34.322  30.417  1.00  0.00     0.029 A 
ATOM     55  N   UNL A   1      42.186  32.566  29.783  1.00  0.00    -0.354 N 
ATOM     56  N   UNL A   1      44.840  31.230  28.947  1.00  0.00    -0.248 NA
ATOM     57  C   UNL A   1      47.095  31.434  28.355  1.00  0.00     0.031 C 
ATOM     58  C   UNL A   1      42.261  34.754  30.078  1.00  0.00     0.029 A 
ATOM     59  C   UNL A   1      43.034  33.654  29.724  1.00  0.00     0.049 A 
ATOM     60  H   UNL A   1      42.443  31.640  29.566  1.00  0.00     0.167 HD
ATOM     61  C   UNL A   1      45.197  32.559  29.040  1.00  0.00     0.074 A 
ATOM     62  C   UNL A   1      46.611  32.619  28.698  1.00  0.00     0.031 C 
ATOM     63  C   UNL A   1      44.439  33.632  29.376  1.00  0.00     0.037 A 
BRANCH  50  64
ATOM     64  C   UNL A   1      38.435  32.584  30.722  1.00  0.00     0.058 A 
ATOM     65  C   UNL A   1      37.483  33.008  29.782  1.00  0.00     0.135 A 
ATOM     66  C   UNL A   1      38.094  32.690  32.082  1.00  0.00     0.135 A 
ATOM     67  F   UNL A   1      37.762  32.966  28.469  1.00  0.00    -0.206 F 
ATOM     68  C   UNL A   1      36.257  33.540  30.173  1.00  0.00     0.059 A 
ATOM     69  C   UNL A   1      36.862  33.186  32.496  1.00  0.00     0.059 A 
ATOM     70  F   UNL A   1      38.972  32.324  33.030  1.00  0.00    -0.206 F 
ATOM     71  C   UNL A   1      35.953  33.619  31.533  1.00  0.00     0.060 A 
BRANCH  71  72
ATOM     72  S   UNL A   1      34.352  34.293  32.021  1.00  0.00     0.124 S 
ATOM     73  O   UNL A   1      33.794  33.191  32.800  1.00  0.00    -0.237 OA
ATOM     74  O   UNL A   1      34.736  35.477  32.784  1.00  0.00    -0.237 OA
ATOM     75  O   UNL A   1      33.690  34.558  30.748  1.00  0.00    -0.744 OA
ENDBRANCH  71  72
ENDBRANCH  50  64
BRANCH  51  76
ATOM     76  C   UNL A   1      47.363  28.505  27.868  1.00  0.00     0.058 A 
ATOM     77  C   UNL A   1      48.282  27.994  28.791  1.00  0.00     0.135 A 
ATOM     78  C   UNL A   1      47.649  28.336  26.499  1.00  0.00     0.135 A 
ATOM     79  F   UNL A   1      48.044  28.113  30.106  1.00  0.00    -0.206 F 
ATOM     80  C   UNL A   1      49.448  27.360  28.380  1.00  0.00     0.059 A 
ATOM     81  C   UNL A   1      48.789  27.668  26.064  1.00  0.00     0.059 A 
ATOM     82  F   UNL A   1      46.787  28.771  25.567  1.00  0.00    -0.206 F 
ATOM     83  C   UNL A   1      49.691  27.198  27.015  1.00  0.00     0.060 A 
BRANCH  83  84
ATOM     84  S   UNL A   1      51.200  26.353  26.504  1.00  0.00     0.124 S 
ATOM     85  O   UNL A   1      51.136  26.492  25.054  1.00  0.00    -0.237 OA
ATOM     86  O   UNL A   1      52.229  27.139  27.178  1.00  0.00    -0.237 OA
ATOM     87  O   UNL A   1      51.019  24.999  27.017  1.00  0.00    -0.744 OA
ENDBRANCH  83  84
ENDBRANCH  51  76
BRANCH  63  88
ATOM     88  C   UNL A   1      45.170  34.934  29.445  1.00  0.00     0.058 A 
ATOM     89  C   UNL A   1      45.267  35.789  28.339  1.00  0.00     0.135 A 
ATOM     90  C   UNL A   1      45.765  35.328  30.653  1.00  0.00     0.135 A 
ATOM     91  F   UNL A   1      44.731  35.436  27.158  1.00  0.00    -0.206 F 
ATOM     92  C   UNL A   1      45.963  36.983  28.419  1.00  0.00     0.059 A 
ATOM     93  C   UNL A   1      46.424  36.540  30.768  1.00  0.00     0.059 A 
ATOM     94  F   UNL A   1      45.693  34.536  31.736  1.00  0.00    -0.206 F 
ATOM     95  C   UNL A   1      46.529  37.353  29.642  1.00  0.00     0.060 A 
BRANCH  95  96
ATOM     96  S   UNL A   1      47.390  38.931  29.741  1.00  0.00     0.124 S 
ATOM     97  O   UNL A   1      47.207  39.276  31.147  1.00  0.00    -0.237 OA
ATOM     98  O   UNL A   1      48.746  38.565  29.346  1.00  0.00    -0.237 OA
ATOM     99  O   UNL A   1      46.670  39.771  28.789  1.00  0.00    -0.744 OA
ENDBRANCH  95  96
ENDBRANCH  63  88
ENDBRANCH  37  38
ENDBRANCH  30  32
ENDBRANCH  29  30
ENDBRANCH  28  29
ENDBRANCH   1  28
TORSDOF 20
ENDMDL
