MODEL 1
REMARK VINA RESULT:     -10.6      0.000      0.000
REMARK SMILES C[C@@H](CCCO)Nc1ccc(Cl)cc1C(=O)OCCOC(=O)c1ccc(-c2c3nc(c(-c4c(F)cc(S(=O)(=O)[O-])cc4F)c4ccc([nH]4)c(-c4c(F)cc(S(=O)(=O)[O-])cc4F)c4nc(c(-c5c(F)cc(S(=O)(=O)[O-])cc5F)c5ccc2[nH]5)C=C4)C=C3)cc1
REMARK SMILES IDX 17 1 15 2 16 3 14 4 8 5 9 6 10 7 13 8 11 9 12 10 7 11 2 13
REMARK SMILES IDX 1 14 3 15 4 16 5 17 6 18 18 20 19 21 20 22 21 23 22 24 23 25
REMARK SMILES IDX 24 26 88 27 25 28 87 29 26 30 27 31 28 32 81 33 29 34 86 35
REMARK SMILES IDX 80 36 82 37 30 38 85 39 79 40 78 41 31 43 65 44 44 45 64 46
REMARK SMILES IDX 45 47 48 48 63 49 83 50 46 51 47 52 62 54 84 55 49 56 32 57
REMARK SMILES IDX 33 58 42 59 34 60 35 61 41 62 43 63 36 64 37 65 38 66 39 67
REMARK SMILES IDX 40 68 66 69 67 70 76 71 68 72 69 73 75 74 77 75 70 76 71 77
REMARK SMILES IDX 72 78 73 79 74 80 50 81 51 82 60 83 52 84 53 85 59 86 61 87
REMARK SMILES IDX 54 88 55 89 56 90 57 91 58 92
REMARK H PARENT 7 12 6 19 82 42 48 53
REMARK Flexibility Score: inf
ROOT
ATOM      1  O   UNL A   1      36.772  22.116  25.558  1.00  0.00    -0.458 OA
ENDROOT
BRANCH   1   2
ATOM      2  C   UNL A   1      35.951  21.104  25.157  1.00  0.00     0.340 C 
ATOM      3  O   UNL A   1      36.288  19.954  24.966  1.00  0.00    -0.246 OA
BRANCH   2   4
ATOM      4  C   UNL A   1      34.528  21.565  25.063  1.00  0.00     0.084 A 
ATOM      5  C   UNL A   1      33.430  20.689  24.873  1.00  0.00     0.049 A 
ATOM      6  C   UNL A   1      32.150  21.264  24.823  1.00  0.00     0.028 A 
ATOM      7  C   UNL A   1      31.962  22.650  24.876  1.00  0.00     0.022 A 
ATOM      8  C   UNL A   1      34.328  22.953  25.169  1.00  0.00     0.038 A 
ATOM      9  C   UNL A   1      33.054  23.489  25.039  1.00  0.00     0.042 A 
ATOM     10  Cl  UNL A   1      32.830  25.192  25.081  1.00  0.00    -0.084 Cl
BRANCH   5  11
ATOM     11  N   UNL A   1      33.616  19.313  24.843  1.00  0.00    -0.382 N 
ATOM     12  H   UNL A   1      34.502  18.978  25.115  1.00  0.00     0.160 HD
BRANCH  11  13
ATOM     13  C   UNL A   1      32.631  18.318  24.448  1.00  0.00     0.076 C 
ATOM     14  C   UNL A   1      33.010  17.780  23.066  1.00  0.00     0.031 C 
BRANCH  13  15
ATOM     15  C   UNL A   1      32.533  17.210  25.509  1.00  0.00     0.027 C 
BRANCH  15  16
ATOM     16  C   UNL A   1      33.480  16.006  25.371  1.00  0.00     0.030 C 
BRANCH  16  17
ATOM     17  C   UNL A   1      32.845  14.622  25.472  1.00  0.00     0.156 C 
BRANCH  17  18
ATOM     18  O   UNL A   1      31.430  14.700  25.462  1.00  0.00    -0.396 OA
ATOM     19  H   UNL A   1      31.106  14.814  26.369  1.00  0.00     0.210 HD
ENDBRANCH  17  18
ENDBRANCH  16  17
ENDBRANCH  15  16
ENDBRANCH  13  15
ENDBRANCH  11  13
ENDBRANCH   5  11
ENDBRANCH   2   4
ENDBRANCH   1   2
BRANCH   1  20
ATOM     20  C   UNL A   1      38.166  22.009  25.198  1.00  0.00     0.275 C 
BRANCH  20  21
ATOM     21  C   UNL A   1      39.062  22.389  26.376  1.00  0.00     0.275 C 
BRANCH  21  22
ATOM     22  O   UNL A   1      39.364  23.793  26.326  1.00  0.00    -0.458 OA
BRANCH  22  23
ATOM     23  C   UNL A   1      40.560  24.151  26.842  1.00  0.00     0.338 C 
ATOM     24  O   UNL A   1      41.658  23.697  26.566  1.00  0.00    -0.246 OA
BRANCH  23  25
ATOM     25  C   UNL A   1      40.363  25.298  27.737  1.00  0.00     0.060 A 
ATOM     26  C   UNL A   1      41.300  26.326  27.688  1.00  0.00     0.016 A 
ATOM     27  C   UNL A   1      39.343  25.319  28.685  1.00  0.00     0.016 A 
ATOM     28  C   UNL A   1      41.270  27.354  28.622  1.00  0.00     0.010 A 
ATOM     29  C   UNL A   1      39.271  26.391  29.583  1.00  0.00     0.010 A 
ATOM     30  C   UNL A   1      40.251  27.404  29.579  1.00  0.00    -0.014 A 
BRANCH  30  31
ATOM     31  C   UNL A   1      40.248  28.484  30.605  1.00  0.00     0.031 A 
ATOM     32  C   UNL A   1      41.223  28.432  31.751  1.00  0.00     0.074 A 
ATOM     33  C   UNL A   1      39.393  29.520  30.502  1.00  0.00     0.049 A 
ATOM     34  N   UNL A   1      41.279  29.176  32.826  1.00  0.00    -0.248 NA
ATOM     35  C   UNL A   1      42.264  27.394  31.686  1.00  0.00     0.031 C 
ATOM     36  C   UNL A   1      38.428  29.718  29.418  1.00  0.00     0.029 A 
ATOM     37  N   UNL A   1      39.197  30.607  31.320  1.00  0.00    -0.354 N 
ATOM     38  C   UNL A   1      42.317  28.658  33.593  1.00  0.00     0.074 A 
ATOM     39  C   UNL A   1      42.864  27.538  32.860  1.00  0.00     0.031 C 
ATOM     40  C   UNL A   1      37.763  30.865  29.625  1.00  0.00     0.029 A 
ATOM     41  C   UNL A   1      38.193  31.444  30.893  1.00  0.00     0.049 A 
ATOM     42  H   UNL A   1      39.726  30.770  32.134  1.00  0.00     0.167 HD
ATOM     43  C   UNL A   1      42.768  29.081  34.799  1.00  0.00     0.037 A 
ATOM     44  C   UNL A   1      37.649  32.531  31.473  1.00  0.00     0.037 A 
ATOM     45  C   UNL A   1      42.256  30.236  35.492  1.00  0.00     0.049 A 
ATOM     46  C   UNL A   1      38.161  32.981  32.812  1.00  0.00     0.074 A 
ATOM     47  C   UNL A   1      42.665  30.765  36.703  1.00  0.00     0.029 A 
ATOM     48  N   UNL A   1      41.234  31.052  35.026  1.00  0.00    -0.354 N 
ATOM     49  N   UNL A   1      39.112  32.455  33.547  1.00  0.00    -0.248 NA
ATOM     50  C   UNL A   1      37.518  34.159  33.409  1.00  0.00     0.031 C 
ATOM     51  C   UNL A   1      41.867  31.878  36.988  1.00  0.00     0.029 A 
ATOM     52  C   UNL A   1      40.988  32.070  35.933  1.00  0.00     0.049 A 
ATOM     53  H   UNL A   1      40.754  30.925  34.176  1.00  0.00     0.167 HD
ATOM     54  C   UNL A   1      39.187  33.242  34.691  1.00  0.00     0.074 A 
ATOM     55  C   UNL A   1      38.198  34.290  34.541  1.00  0.00     0.031 C 
ATOM     56  C   UNL A   1      39.999  33.105  35.768  1.00  0.00     0.037 A 
BRANCH  43  57
ATOM     57  C   UNL A   1      43.837  28.261  35.469  1.00  0.00     0.058 A 
ATOM     58  C   UNL A   1      45.203  28.477  35.237  1.00  0.00     0.135 A 
ATOM     59  C   UNL A   1      43.480  27.248  36.374  1.00  0.00     0.135 A 
ATOM     60  F   UNL A   1      45.601  29.420  34.369  1.00  0.00    -0.206 F 
ATOM     61  C   UNL A   1      46.177  27.695  35.852  1.00  0.00     0.059 A 
ATOM     62  C   UNL A   1      44.437  26.472  37.021  1.00  0.00     0.059 A 
ATOM     63  F   UNL A   1      42.187  26.999  36.634  1.00  0.00    -0.206 F 
ATOM     64  C   UNL A   1      45.784  26.691  36.739  1.00  0.00     0.060 A 
BRANCH  64  65
ATOM     65  S   UNL A   1      47.055  25.675  37.521  1.00  0.00     0.124 S 
ATOM     66  O   UNL A   1      47.977  25.457  36.409  1.00  0.00    -0.237 OA
ATOM     67  O   UNL A   1      47.544  26.544  38.585  1.00  0.00    -0.237 OA
ATOM     68  O   UNL A   1      46.321  24.495  37.967  1.00  0.00    -0.744 OA
ENDBRANCH  64  65
ENDBRANCH  43  57
BRANCH  44  69
ATOM     69  C   UNL A   1      36.524  33.235  30.800  1.00  0.00     0.058 A 
ATOM     70  C   UNL A   1      35.199  33.064  31.228  1.00  0.00     0.135 A 
ATOM     71  C   UNL A   1      36.759  34.131  29.745  1.00  0.00     0.135 A 
ATOM     72  F   UNL A   1      34.922  32.209  32.224  1.00  0.00    -0.206 F 
ATOM     73  C   UNL A   1      34.148  33.759  30.638  1.00  0.00     0.059 A 
ATOM     74  C   UNL A   1      35.730  34.857  29.156  1.00  0.00     0.059 A 
ATOM     75  F   UNL A   1      38.011  34.338  29.305  1.00  0.00    -0.206 F 
ATOM     76  C   UNL A   1      34.425  34.660  29.606  1.00  0.00     0.060 A 
BRANCH  76  77
ATOM     77  S   UNL A   1      33.068  35.620  28.900  1.00  0.00     0.124 S 
ATOM     78  O   UNL A   1      32.349  34.600  28.146  1.00  0.00    -0.237 OA
ATOM     79  O   UNL A   1      32.394  36.126  30.092  1.00  0.00    -0.237 OA
ATOM     80  O   UNL A   1      33.753  36.631  28.101  1.00  0.00    -0.744 OA
ENDBRANCH  76  77
ENDBRANCH  44  69
BRANCH  56  81
ATOM     81  C   UNL A   1      39.868  34.127  36.861  1.00  0.00     0.058 A 
ATOM     82  C   UNL A   1      40.461  35.395  36.757  1.00  0.00     0.135 A 
ATOM     83  C   UNL A   1      39.099  33.852  38.003  1.00  0.00     0.135 A 
ATOM     84  F   UNL A   1      41.212  35.704  35.688  1.00  0.00    -0.206 F 
ATOM     85  C   UNL A   1      40.313  36.349  37.759  1.00  0.00     0.059 A 
ATOM     86  C   UNL A   1      38.919  34.799  39.006  1.00  0.00     0.059 A 
ATOM     87  F   UNL A   1      38.504  32.657  38.146  1.00  0.00    -0.206 F 
ATOM     88  C   UNL A   1      39.539  36.041  38.880  1.00  0.00     0.060 A 
BRANCH  88  89
ATOM     89  S   UNL A   1      39.326  37.299  40.158  1.00  0.00     0.124 S 
ATOM     90  O   UNL A   1      40.711  37.634  40.473  1.00  0.00    -0.237 OA
ATOM     91  O   UNL A   1      38.568  38.332  39.459  1.00  0.00    -0.237 OA
ATOM     92  O   UNL A   1      38.594  36.595  41.207  1.00  0.00    -0.744 OA
ENDBRANCH  88  89
ENDBRANCH  56  81
ENDBRANCH  30  31
ENDBRANCH  23  25
ENDBRANCH  22  23
ENDBRANCH  21  22
ENDBRANCH  20  21
ENDBRANCH   1  20
TORSDOF 20
ENDMDL
MODEL 2
REMARK VINA RESULT:     -10.4      1.681      3.396
REMARK SMILES C[C@@H](CCCO)Nc1ccc(Cl)cc1C(=O)OCCOC(=O)c1ccc(-c2c3nc(c(-c4c(F)cc(S(=O)(=O)[O-])cc4F)c4ccc([nH]4)c(-c4c(F)cc(S(=O)(=O)[O-])cc4F)c4nc(c(-c5c(F)cc(S(=O)(=O)[O-])cc5F)c5ccc2[nH]5)C=C4)C=C3)cc1
REMARK SMILES IDX 17 1 15 2 16 3 14 4 8 5 9 6 10 7 13 8 11 9 12 10 7 11 2 13
REMARK SMILES IDX 1 14 3 15 4 16 5 17 6 18 18 20 19 21 20 22 21 23 22 24 23 25
REMARK SMILES IDX 24 26 88 27 25 28 87 29 26 30 27 31 28 32 81 33 29 34 86 35
REMARK SMILES IDX 80 36 82 37 30 38 85 39 79 40 78 41 31 43 65 44 44 45 64 46
REMARK SMILES IDX 45 47 48 48 63 49 83 50 46 51 47 52 62 54 84 55 49 56 32 57
REMARK SMILES IDX 33 58 42 59 34 60 35 61 41 62 43 63 36 64 37 65 38 66 39 67
REMARK SMILES IDX 40 68 66 69 67 70 76 71 68 72 69 73 75 74 77 75 70 76 71 77
REMARK SMILES IDX 72 78 73 79 74 80 50 81 51 82 60 83 52 84 53 85 59 86 61 87
REMARK SMILES IDX 54 88 55 89 56 90 57 91 58 92
REMARK H PARENT 7 12 6 19 82 42 48 53
REMARK Flexibility Score: inf
ROOT
ATOM      1  O   UNL A   1      36.994  22.048  25.713  1.00  0.00    -0.458 OA
ENDROOT
BRANCH   1   2
ATOM      2  C   UNL A   1      36.352  22.728  24.721  1.00  0.00     0.340 C 
ATOM      3  O   UNL A   1      36.799  23.677  24.110  1.00  0.00    -0.246 OA
BRANCH   2   4
ATOM      4  C   UNL A   1      35.031  22.098  24.398  1.00  0.00     0.084 A 
ATOM      5  C   UNL A   1      33.976  22.779  23.739  1.00  0.00     0.049 A 
ATOM      6  C   UNL A   1      32.801  22.054  23.486  1.00  0.00     0.028 A 
ATOM      7  C   UNL A   1      32.637  20.737  23.934  1.00  0.00     0.022 A 
ATOM      8  C   UNL A   1      34.879  20.758  24.797  1.00  0.00     0.038 A 
ATOM      9  C   UNL A   1      33.675  20.099  24.596  1.00  0.00     0.042 A 
ATOM     10  Cl  UNL A   1      33.469  18.491  25.168  1.00  0.00    -0.084 Cl
BRANCH   5  11
ATOM     11  N   UNL A   1      34.149  24.078  23.277  1.00  0.00    -0.382 N 
ATOM     12  H   UNL A   1      34.791  24.206  22.542  1.00  0.00     0.160 HD
BRANCH  11  13
ATOM     13  C   UNL A   1      33.472  25.267  23.773  1.00  0.00     0.076 C 
ATOM     14  C   UNL A   1      33.978  25.560  25.187  1.00  0.00     0.031 C 
BRANCH  13  15
ATOM     15  C   UNL A   1      33.686  26.445  22.810  1.00  0.00     0.027 C 
BRANCH  15  16
ATOM     16  C   UNL A   1      32.746  27.655  22.946  1.00  0.00     0.030 C 
BRANCH  16  17
ATOM     17  C   UNL A   1      31.249  27.372  22.851  1.00  0.00     0.156 C 
BRANCH  17  18
ATOM     18  O   UNL A   1      30.677  27.991  21.711  1.00  0.00    -0.396 OA
ATOM     19  H   UNL A   1      31.383  28.267  21.105  1.00  0.00     0.210 HD
ENDBRANCH  17  18
ENDBRANCH  16  17
ENDBRANCH  15  16
ENDBRANCH  13  15
ENDBRANCH  11  13
ENDBRANCH   5  11
ENDBRANCH   2   4
ENDBRANCH   1   2
BRANCH   1  20
ATOM     20  C   UNL A   1      38.373  21.695  25.476  1.00  0.00     0.275 C 
BRANCH  20  21
ATOM     21  C   UNL A   1      39.273  22.254  26.578  1.00  0.00     0.275 C 
BRANCH  21  22
ATOM     22  O   UNL A   1      39.322  23.688  26.486  1.00  0.00    -0.458 OA
BRANCH  22  23
ATOM     23  C   UNL A   1      40.520  24.248  26.765  1.00  0.00     0.338 C 
ATOM     24  O   UNL A   1      41.606  23.961  26.292  1.00  0.00    -0.246 OA
BRANCH  23  25
ATOM     25  C   UNL A   1      40.308  25.384  27.671  1.00  0.00     0.060 A 
ATOM     26  C   UNL A   1      41.193  26.455  27.584  1.00  0.00     0.016 A 
ATOM     27  C   UNL A   1      39.330  25.357  28.662  1.00  0.00     0.016 A 
ATOM     28  C   UNL A   1      41.155  27.480  28.522  1.00  0.00     0.010 A 
ATOM     29  C   UNL A   1      39.247  26.423  29.566  1.00  0.00     0.010 A 
ATOM     30  C   UNL A   1      40.177  27.481  29.522  1.00  0.00    -0.014 A 
BRANCH  30  31
ATOM     31  C   UNL A   1      40.168  28.558  30.550  1.00  0.00     0.031 A 
ATOM     32  C   UNL A   1      41.139  28.507  31.700  1.00  0.00     0.074 A 
ATOM     33  C   UNL A   1      39.310  29.593  30.447  1.00  0.00     0.049 A 
ATOM     34  N   UNL A   1      41.189  29.249  32.776  1.00  0.00    -0.248 NA
ATOM     35  C   UNL A   1      42.182  27.472  31.637  1.00  0.00     0.031 C 
ATOM     36  C   UNL A   1      38.349  29.791  29.359  1.00  0.00     0.029 A 
ATOM     37  N   UNL A   1      39.109  30.678  31.266  1.00  0.00    -0.354 N 
ATOM     38  C   UNL A   1      42.226  28.732  33.545  1.00  0.00     0.074 A 
ATOM     39  C   UNL A   1      42.778  27.615  32.812  1.00  0.00     0.031 C 
ATOM     40  C   UNL A   1      37.680  30.936  29.566  1.00  0.00     0.029 A 
ATOM     41  C   UNL A   1      38.104  31.513  30.837  1.00  0.00     0.049 A 
ATOM     42  H   UNL A   1      39.635  30.840  32.082  1.00  0.00     0.167 HD
ATOM     43  C   UNL A   1      42.672  29.153  34.754  1.00  0.00     0.037 A 
ATOM     44  C   UNL A   1      37.555  32.598  31.418  1.00  0.00     0.037 A 
ATOM     45  C   UNL A   1      42.155  30.306  35.447  1.00  0.00     0.049 A 
ATOM     46  C   UNL A   1      38.062  33.046  32.760  1.00  0.00     0.074 A 
ATOM     47  C   UNL A   1      42.559  30.833  36.661  1.00  0.00     0.029 A 
ATOM     48  N   UNL A   1      41.132  31.120  34.980  1.00  0.00    -0.354 N 
ATOM     49  N   UNL A   1      39.012  32.521  33.497  1.00  0.00    -0.248 NA
ATOM     50  C   UNL A   1      37.414  34.221  33.357  1.00  0.00     0.031 C 
ATOM     51  C   UNL A   1      41.757  31.944  36.946  1.00  0.00     0.029 A 
ATOM     52  C   UNL A   1      40.881  32.135  35.888  1.00  0.00     0.049 A 
ATOM     53  H   UNL A   1      40.655  30.994  34.128  1.00  0.00     0.167 HD
ATOM     54  C   UNL A   1      39.081  33.306  34.642  1.00  0.00     0.074 A 
ATOM     55  C   UNL A   1      38.090  34.352  34.491  1.00  0.00     0.031 C 
ATOM     56  C   UNL A   1      39.890  33.168  35.722  1.00  0.00     0.037 A 
BRANCH  43  57
ATOM     57  C   UNL A   1      43.741  28.335  35.426  1.00  0.00     0.058 A 
ATOM     58  C   UNL A   1      43.441  27.292  36.314  1.00  0.00     0.135 A 
ATOM     59  C   UNL A   1      45.096  28.597  35.159  1.00  0.00     0.135 A 
ATOM     60  F   UNL A   1      42.164  27.010  36.619  1.00  0.00    -0.206 F 
ATOM     61  C   UNL A   1      44.445  26.560  36.941  1.00  0.00     0.059 A 
ATOM     62  C   UNL A   1      46.116  27.860  35.753  1.00  0.00     0.059 A 
ATOM     63  F   UNL A   1      45.440  29.583  34.316  1.00  0.00    -0.206 F 
ATOM     64  C   UNL A   1      45.780  26.855  36.658  1.00  0.00     0.060 A 
BRANCH  64  65
ATOM     65  S   UNL A   1      47.074  25.907  37.487  1.00  0.00     0.124 S 
ATOM     66  O   UNL A   1      46.314  25.234  38.536  1.00  0.00    -0.237 OA
ATOM     67  O   UNL A   1      47.571  25.048  36.417  1.00  0.00    -0.237 OA
ATOM     68  O   UNL A   1      48.006  26.932  37.947  1.00  0.00    -0.744 OA
ENDBRANCH  64  65
ENDBRANCH  43  57
BRANCH  44  69
ATOM     69  C   UNL A   1      36.431  33.300  30.743  1.00  0.00     0.058 A 
ATOM     70  C   UNL A   1      35.116  33.192  31.217  1.00  0.00     0.135 A 
ATOM     71  C   UNL A   1      36.659  34.133  29.636  1.00  0.00     0.135 A 
ATOM     72  F   UNL A   1      34.845  32.398  32.264  1.00  0.00    -0.206 F 
ATOM     73  C   UNL A   1      34.068  33.887  30.623  1.00  0.00     0.059 A 
ATOM     74  C   UNL A   1      35.634  34.859  29.040  1.00  0.00     0.059 A 
ATOM     75  F   UNL A   1      37.902  34.279  29.149  1.00  0.00    -0.206 F 
ATOM     76  C   UNL A   1      34.339  34.726  29.538  1.00  0.00     0.060 A 
BRANCH  76  77
ATOM     77  S   UNL A   1      32.988  35.688  28.823  1.00  0.00     0.124 S 
ATOM     78  O   UNL A   1      32.252  36.091  30.015  1.00  0.00    -0.237 OA
ATOM     79  O   UNL A   1      33.703  36.752  28.123  1.00  0.00    -0.237 OA
ATOM     80  O   UNL A   1      32.312  34.726  27.958  1.00  0.00    -0.744 OA
ENDBRANCH  76  77
ENDBRANCH  44  69
BRANCH  56  81
ATOM     81  C   UNL A   1      39.752  34.188  36.817  1.00  0.00     0.058 A 
ATOM     82  C   UNL A   1      39.007  33.926  37.977  1.00  0.00     0.135 A 
ATOM     83  C   UNL A   1      40.415  35.422  36.726  1.00  0.00     0.135 A 
ATOM     84  F   UNL A   1      38.349  32.764  38.108  1.00  0.00    -0.206 F 
ATOM     85  C   UNL A   1      38.906  34.862  39.001  1.00  0.00     0.059 A 
ATOM     86  C   UNL A   1      40.347  36.363  37.748  1.00  0.00     0.059 A 
ATOM     87  F   UNL A   1      41.149  35.718  35.641  1.00  0.00    -0.206 F 
ATOM     88  C   UNL A   1      39.580  36.079  38.877  1.00  0.00     0.060 A 
BRANCH  88  89
ATOM     89  S   UNL A   1      39.470  37.273  40.226  1.00  0.00     0.124 S 
ATOM     90  O   UNL A   1      40.879  37.505  40.528  1.00  0.00    -0.237 OA
ATOM     91  O   UNL A   1      38.764  38.388  39.603  1.00  0.00    -0.237 OA
ATOM     92  O   UNL A   1      38.716  36.558  41.252  1.00  0.00    -0.744 OA
ENDBRANCH  88  89
ENDBRANCH  56  81
ENDBRANCH  30  31
ENDBRANCH  23  25
ENDBRANCH  22  23
ENDBRANCH  21  22
ENDBRANCH  20  21
ENDBRANCH   1  20
TORSDOF 20
ENDMDL
MODEL 3
REMARK VINA RESULT:     -10.4      5.723     11.363
REMARK SMILES C[C@@H](CCCO)Nc1ccc(Cl)cc1C(=O)OCCOC(=O)c1ccc(-c2c3nc(c(-c4c(F)cc(S(=O)(=O)[O-])cc4F)c4ccc([nH]4)c(-c4c(F)cc(S(=O)(=O)[O-])cc4F)c4nc(c(-c5c(F)cc(S(=O)(=O)[O-])cc5F)c5ccc2[nH]5)C=C4)C=C3)cc1
REMARK SMILES IDX 17 1 15 2 16 3 14 4 8 5 9 6 10 7 13 8 11 9 12 10 7 11 2 13
REMARK SMILES IDX 1 14 3 15 4 16 5 17 6 18 18 20 19 21 20 22 21 23 22 24 23 25
REMARK SMILES IDX 24 26 88 27 25 28 87 29 26 30 27 31 28 32 81 33 29 34 86 35
REMARK SMILES IDX 80 36 82 37 30 38 85 39 79 40 78 41 31 43 65 44 44 45 64 46
REMARK SMILES IDX 45 47 48 48 63 49 83 50 46 51 47 52 62 54 84 55 49 56 32 57
REMARK SMILES IDX 33 58 42 59 34 60 35 61 41 62 43 63 36 64 37 65 38 66 39 67
REMARK SMILES IDX 40 68 66 69 67 70 76 71 68 72 69 73 75 74 77 75 70 76 71 77
REMARK SMILES IDX 72 78 73 79 74 80 50 81 51 82 60 83 52 84 53 85 59 86 61 87
REMARK SMILES IDX 54 88 55 89 56 90 57 91 58 92
REMARK H PARENT 7 12 6 19 82 42 48 53
REMARK Flexibility Score: inf
ROOT
ATOM      1  O   UNL A   1      33.018  28.853  23.994  1.00  0.00    -0.458 OA
ENDROOT
BRANCH   1   2
ATOM      2  C   UNL A   1      33.103  28.043  22.901  1.00  0.00     0.340 C 
ATOM      3  O   UNL A   1      33.846  28.209  21.955  1.00  0.00    -0.246 OA
BRANCH   2   4
ATOM      4  C   UNL A   1      32.218  26.843  23.043  1.00  0.00     0.084 A 
ATOM      5  C   UNL A   1      30.893  26.899  23.543  1.00  0.00     0.049 A 
ATOM      6  C   UNL A   1      30.175  25.694  23.602  1.00  0.00     0.028 A 
ATOM      7  C   UNL A   1      30.762  24.469  23.260  1.00  0.00     0.022 A 
ATOM      8  C   UNL A   1      32.784  25.616  22.651  1.00  0.00     0.038 A 
ATOM      9  C   UNL A   1      32.068  24.436  22.795  1.00  0.00     0.042 A 
ATOM     10  Cl  UNL A   1      32.800  22.933  22.397  1.00  0.00    -0.084 Cl
BRANCH   5  11
ATOM     11  N   UNL A   1      30.305  28.117  23.861  1.00  0.00    -0.382 N 
ATOM     12  H   UNL A   1      30.443  28.451  24.777  1.00  0.00     0.160 HD
BRANCH  11  13
ATOM     13  C   UNL A   1      29.506  28.947  22.972  1.00  0.00     0.076 C 
ATOM     14  C   UNL A   1      28.047  28.495  23.065  1.00  0.00     0.031 C 
BRANCH  13  15
ATOM     15  C   UNL A   1      29.689  30.433  23.318  1.00  0.00     0.027 C 
BRANCH  15  16
ATOM     16  C   UNL A   1      28.452  31.343  23.230  1.00  0.00     0.030 C 
BRANCH  16  17
ATOM     17  C   UNL A   1      28.710  32.824  22.969  1.00  0.00     0.156 C 
BRANCH  17  18
ATOM     18  O   UNL A   1      27.998  33.280  21.831  1.00  0.00    -0.396 OA
ATOM     19  H   UNL A   1      28.626  33.590  21.159  1.00  0.00     0.210 HD
ENDBRANCH  17  18
ENDBRANCH  16  17
ENDBRANCH  15  16
ENDBRANCH  13  15
ENDBRANCH  11  13
ENDBRANCH   5  11
ENDBRANCH   2   4
ENDBRANCH   1   2
BRANCH   1  20
ATOM     20  C   UNL A   1      33.751  28.444  25.169  1.00  0.00     0.275 C 
BRANCH  20  21
ATOM     21  C   UNL A   1      32.933  28.699  26.435  1.00  0.00     0.275 C 
BRANCH  21  22
ATOM     22  O   UNL A   1      33.810  28.794  27.570  1.00  0.00    -0.458 OA
BRANCH  22  23
ATOM     23  C   UNL A   1      34.314  30.023  27.816  1.00  0.00     0.338 C 
ATOM     24  O   UNL A   1      33.716  31.085  27.831  1.00  0.00    -0.246 OA
BRANCH  23  25
ATOM     25  C   UNL A   1      35.726  29.885  28.196  1.00  0.00     0.060 A 
ATOM     26  C   UNL A   1      36.685  30.088  27.207  1.00  0.00     0.016 A 
ATOM     27  C   UNL A   1      36.103  29.459  29.466  1.00  0.00     0.016 A 
ATOM     28  C   UNL A   1      38.023  29.807  27.453  1.00  0.00     0.010 A 
ATOM     29  C   UNL A   1      37.460  29.241  29.736  1.00  0.00     0.010 A 
ATOM     30  C   UNL A   1      38.430  29.386  28.724  1.00  0.00    -0.014 A 
BRANCH  30  31
ATOM     31  C   UNL A   1      39.858  29.044  28.971  1.00  0.00     0.031 A 
ATOM     32  C   UNL A   1      40.784  30.073  29.564  1.00  0.00     0.074 A 
ATOM     33  C   UNL A   1      40.324  27.812  28.687  1.00  0.00     0.049 A 
ATOM     34  N   UNL A   1      42.084  30.033  29.708  1.00  0.00    -0.248 NA
ATOM     35  C   UNL A   1      40.166  31.318  30.046  1.00  0.00     0.031 C 
ATOM     36  C   UNL A   1      39.525  26.707  28.152  1.00  0.00     0.029 A 
ATOM     37  N   UNL A   1      41.584  27.278  28.810  1.00  0.00    -0.354 N 
ATOM     38  C   UNL A   1      42.445  31.268  30.236  1.00  0.00     0.074 A 
ATOM     39  C   UNL A   1      41.228  32.034  30.389  1.00  0.00     0.031 C 
ATOM     40  C   UNL A   1      40.306  25.624  28.017  1.00  0.00     0.029 A 
ATOM     41  C   UNL A   1      41.675  25.976  28.377  1.00  0.00     0.049 A 
ATOM     42  H   UNL A   1      42.348  27.780  29.174  1.00  0.00     0.167 HD
ATOM     43  C   UNL A   1      43.681  31.718  30.560  1.00  0.00     0.037 A 
ATOM     44  C   UNL A   1      42.744  25.166  28.245  1.00  0.00     0.037 A 
ATOM     45  C   UNL A   1      44.881  30.925  30.462  1.00  0.00     0.049 A 
ATOM     46  C   UNL A   1      44.107  25.687  28.607  1.00  0.00     0.074 A 
ATOM     47  C   UNL A   1      46.177  31.278  30.794  1.00  0.00     0.029 A 
ATOM     48  N   UNL A   1      44.928  29.612  30.012  1.00  0.00    -0.354 N 
ATOM     49  N   UNL A   1      44.440  26.871  29.062  1.00  0.00    -0.248 NA
ATOM     50  C   UNL A   1      45.239  24.770  28.423  1.00  0.00     0.031 C 
ATOM     51  C   UNL A   1      47.013  30.193  30.512  1.00  0.00     0.029 A 
ATOM     52  C   UNL A   1      46.233  29.148  30.044  1.00  0.00     0.049 A 
ATOM     53  H   UNL A   1      44.149  29.089  29.715  1.00  0.00     0.167 HD
ATOM     54  C   UNL A   1      45.820  26.840  29.227  1.00  0.00     0.074 A 
ATOM     55  C   UNL A   1      46.256  25.514  28.840  1.00  0.00     0.031 C 
ATOM     56  C   UNL A   1      46.649  27.824  29.655  1.00  0.00     0.037 A 
BRANCH  43  57
ATOM     57  C   UNL A   1      43.807  33.150  31.007  1.00  0.00     0.058 A 
ATOM     58  C   UNL A   1      43.964  34.208  30.100  1.00  0.00     0.135 A 
ATOM     59  C   UNL A   1      43.752  33.465  32.375  1.00  0.00     0.135 A 
ATOM     60  F   UNL A   1      44.039  33.964  28.782  1.00  0.00    -0.206 F 
ATOM     61  C   UNL A   1      44.097  35.524  30.535  1.00  0.00     0.059 A 
ATOM     62  C   UNL A   1      43.857  34.775  32.831  1.00  0.00     0.059 A 
ATOM     63  F   UNL A   1      43.602  32.492  33.287  1.00  0.00    -0.206 F 
ATOM     64  C   UNL A   1      44.048  35.797  31.903  1.00  0.00     0.060 A 
BRANCH  64  65
ATOM     65  S   UNL A   1      44.235  37.506  32.455  1.00  0.00     0.124 S 
ATOM     66  O   UNL A   1      43.919  38.242  31.234  1.00  0.00    -0.237 OA
ATOM     67  O   UNL A   1      43.247  37.602  33.524  1.00  0.00    -0.237 OA
ATOM     68  O   UNL A   1      45.628  37.574  32.886  1.00  0.00    -0.744 OA
ENDBRANCH  64  65
ENDBRANCH  43  57
BRANCH  44  69
ATOM     69  C   UNL A   1      42.561  23.794  27.701  1.00  0.00     0.058 A 
ATOM     70  C   UNL A   1      42.547  23.555  26.319  1.00  0.00     0.135 A 
ATOM     71  C   UNL A   1      42.443  22.686  28.556  1.00  0.00     0.135 A 
ATOM     72  F   UNL A   1      42.643  24.582  25.461  1.00  0.00    -0.206 F 
ATOM     73  C   UNL A   1      42.428  22.269  25.803  1.00  0.00     0.059 A 
ATOM     74  C   UNL A   1      42.350  21.388  28.066  1.00  0.00     0.059 A 
ATOM     75  F   UNL A   1      42.461  22.860  29.887  1.00  0.00    -0.206 F 
ATOM     76  C   UNL A   1      42.338  21.189  26.687  1.00  0.00     0.060 A 
BRANCH  76  77
ATOM     77  S   UNL A   1      42.268  19.516  26.012  1.00  0.00     0.124 S 
ATOM     78  O   UNL A   1      40.860  19.404  25.650  1.00  0.00    -0.237 OA
ATOM     79  O   UNL A   1      43.210  19.590  24.900  1.00  0.00    -0.237 OA
ATOM     80  O   UNL A   1      42.700  18.685  27.133  1.00  0.00    -0.744 OA
ENDBRANCH  76  77
ENDBRANCH  44  69
BRANCH  56  81
ATOM     81  C   UNL A   1      48.113  27.495  29.749  1.00  0.00     0.058 A 
ATOM     82  C   UNL A   1      48.996  27.757  28.690  1.00  0.00     0.135 A 
ATOM     83  C   UNL A   1      48.645  26.957  30.931  1.00  0.00     0.135 A 
ATOM     84  F   UNL A   1      48.534  28.265  27.536  1.00  0.00    -0.206 F 
ATOM     85  C   UNL A   1      50.354  27.478  28.793  1.00  0.00     0.059 A 
ATOM     86  C   UNL A   1      50.004  26.692  31.064  1.00  0.00     0.059 A 
ATOM     87  F   UNL A   1      47.844  26.697  31.977  1.00  0.00    -0.206 F 
ATOM     88  C   UNL A   1      50.849  26.945  29.985  1.00  0.00     0.060 A 
BRANCH  88  89
ATOM     89  S   UNL A   1      52.620  26.617  30.119  1.00  0.00     0.124 S 
ATOM     90  O   UNL A   1      53.130  27.926  30.517  1.00  0.00    -0.237 OA
ATOM     91  O   UNL A   1      52.670  25.580  31.145  1.00  0.00    -0.237 OA
ATOM     92  O   UNL A   1      52.987  26.180  28.776  1.00  0.00    -0.744 OA
ENDBRANCH  88  89
ENDBRANCH  56  81
ENDBRANCH  30  31
ENDBRANCH  23  25
ENDBRANCH  22  23
ENDBRANCH  21  22
ENDBRANCH  20  21
ENDBRANCH   1  20
TORSDOF 20
ENDMDL
