MODEL 1
REMARK VINA RESULT:     -14.0      0.000      0.000
REMARK SMILES O=C(OCCOC(=O)[C@@H]1CC=CC[C@H]1C(=O)N1CC[NH+](Cc2ccc3c(c2)OCO3)CC1)c1ccc(-c2c3nc(c(-c4c(F)cc(S(=O)(=O)[O-])cc4F)c4ccc([nH]4)c(-c4c(F)cc(S(=O)(=O)[O-])cc4F)c4nc(c(-c5c(F)cc(S(=O)(=O)[O-])cc5F)c5ccc2[nH]5)C=C4)C=C3)cc1
REMARK SMILES IDX 4 1 3 2 2 3 1 4 33 5 34 6 98 7 35 8 97 9 36 10 37 11 38 12
REMARK SMILES IDX 91 13 39 14 96 15 90 16 92 17 40 18 95 19 89 20 88 21 41 23
REMARK SMILES IDX 75 24 54 25 74 26 55 27 58 28 73 29 93 30 56 31 57 32 72 34
REMARK SMILES IDX 94 35 59 36 42 37 43 38 52 39 44 40 45 41 51 42 53 43 46 44
REMARK SMILES IDX 47 45 48 46 49 47 50 48 76 49 77 50 86 51 78 52 79 53 85 54
REMARK SMILES IDX 87 55 80 56 81 57 82 58 83 59 84 60 60 61 61 62 70 63 62 64
REMARK SMILES IDX 63 65 69 66 71 67 64 68 65 69 66 70 67 71 68 72 5 73 6 74
REMARK SMILES IDX 7 75 8 76 9 77 10 78 14 79 11 80 13 81 12 82 15 83 16 84
REMARK SMILES IDX 17 85 18 86 32 87 19 88 31 89 20 90 21 92 22 93 23 94 27 95
REMARK SMILES IDX 24 96 26 97 25 98 28 99 30 100 29 101
REMARK H PARENT 92 22 58 33 20 91
REMARK Flexibility Score: inf
ROOT
ATOM      1  C   UNL A   1      37.684  23.597  25.973  1.00  0.00     0.275 C 
ENDROOT
BRANCH   1   2
ATOM      2  O   UNL A   1      39.043  23.131  26.087  1.00  0.00    -0.458 OA
BRANCH   2   3
ATOM      3  C   UNL A   1      39.896  23.280  27.126  1.00  0.00     0.338 C 
ATOM      4  O   UNL A   1      40.375  22.279  27.652  1.00  0.00    -0.246 OA
BRANCH   3   5
ATOM      5  C   UNL A   1      40.206  24.603  27.746  1.00  0.00     0.060 A 
ATOM      6  C   UNL A   1      39.084  25.461  28.744  1.00  0.00     0.016 A 
ATOM      7  C   UNL A   1      41.849  25.117  27.568  1.00  0.00     0.016 A 
ATOM      8  C   UNL A   1      39.498  26.750  29.789  1.00  0.00     0.010 A 
ATOM      9  C   UNL A   1      42.378  26.499  28.502  1.00  0.00     0.010 A 
ATOM     10  C   UNL A   1      41.120  27.389  29.729  1.00  0.00    -0.014 A 
BRANCH  10  11
ATOM     11  C   UNL A   1      41.094  28.574  30.839  1.00  0.00     0.031 A 
ATOM     12  C   UNL A   1      41.953  28.545  32.095  1.00  0.00     0.074 A 
ATOM     13  C   UNL A   1      40.473  29.771  30.668  1.00  0.00     0.049 A 
ATOM     14  N   UNL A   1      41.785  29.169  33.239  1.00  0.00    -0.248 NA
ATOM     15  C   UNL A   1      43.194  27.765  32.037  1.00  0.00     0.031 C 
ATOM     16  C   UNL A   1      39.935  30.288  29.430  1.00  0.00     0.029 A 
ATOM     17  N   UNL A   1      40.079  30.736  31.577  1.00  0.00    -0.354 N 
ATOM     18  C   UNL A   1      42.853  28.795  34.051  1.00  0.00     0.074 A 
ATOM     19  C   UNL A   1      43.641  27.856  33.282  1.00  0.00     0.031 C 
ATOM     20  C   UNL A   1      39.055  31.266  29.660  1.00  0.00     0.029 A 
ATOM     21  C   UNL A   1      39.063  31.537  31.080  1.00  0.00     0.049 A 
ATOM     22  H   UNL A   1      40.475  30.843  32.472  1.00  0.00     0.167 HD
ATOM     23  C   UNL A   1      43.185  29.232  35.294  1.00  0.00     0.037 A 
ATOM     24  C   UNL A   1      38.202  32.382  31.673  1.00  0.00     0.037 A 
ATOM     25  C   UNL A   1      42.520  30.314  35.983  1.00  0.00     0.049 A 
ATOM     26  C   UNL A   1      38.473  32.785  33.081  1.00  0.00     0.074 A 
ATOM     27  C   UNL A   1      42.813  30.853  37.227  1.00  0.00     0.029 A 
ATOM     28  N   UNL A   1      41.479  31.069  35.464  1.00  0.00    -0.354 N 
ATOM     29  N   UNL A   1      39.370  32.301  33.903  1.00  0.00    -0.248 NA
ATOM     30  C   UNL A   1      37.700  33.913  33.610  1.00  0.00     0.031 C 
ATOM     31  C   UNL A   1      41.947  31.930  37.460  1.00  0.00     0.029 A 
ATOM     32  C   UNL A   1      41.131  32.077  36.353  1.00  0.00     0.049 A 
ATOM     33  H   UNL A   1      41.050  30.914  34.591  1.00  0.00     0.167 HD
ATOM     34  C   UNL A   1      39.330  33.121  35.017  1.00  0.00     0.074 A 
ATOM     35  C   UNL A   1      38.298  34.110  34.777  1.00  0.00     0.031 C 
ATOM     36  C   UNL A   1      40.114  33.071  36.119  1.00  0.00     0.037 A 
BRANCH  23  37
ATOM     37  C   UNL A   1      44.335  28.557  36.002  1.00  0.00     0.058 A 
ATOM     38  C   UNL A   1      45.659  29.011  35.894  1.00  0.00     0.135 A 
ATOM     39  C   UNL A   1      44.095  27.459  36.848  1.00  0.00     0.135 A 
ATOM     40  F   UNL A   1      45.955  30.052  35.099  1.00  0.00    -0.206 F 
ATOM     41  C   UNL A   1      46.706  28.377  36.560  1.00  0.00     0.059 A 
ATOM     42  C   UNL A   1      45.121  26.833  37.552  1.00  0.00     0.059 A 
ATOM     43  F   UNL A   1      42.847  26.990  37.008  1.00  0.00    -0.206 F 
ATOM     44  C   UNL A   1      46.427  27.286  37.384  1.00  0.00     0.060 A 
BRANCH  44  45
ATOM     45  S   UNL A   1      47.793  26.473  38.241  1.00  0.00     0.124 S 
ATOM     46  O   UNL A   1      47.134  26.001  39.455  1.00  0.00    -0.237 OA
ATOM     47  O   UNL A   1      48.189  25.437  37.293  1.00  0.00    -0.237 OA
ATOM     48  O   UNL A   1      48.764  27.548  38.430  1.00  0.00    -0.744 OA
ENDBRANCH  44  45
ENDBRANCH  23  37
BRANCH  24  49
ATOM     49  C   UNL A   1      37.039  32.922  30.921  1.00  0.00     0.058 A 
ATOM     50  C   UNL A   1      37.163  34.005  30.040  1.00  0.00     0.135 A 
ATOM     51  C   UNL A   1      35.767  32.345  31.072  1.00  0.00     0.135 A 
ATOM     52  F   UNL A   1      38.360  34.582  29.854  1.00  0.00    -0.206 F 
ATOM     53  C   UNL A   1      36.063  34.520  29.361  1.00  0.00     0.059 A 
ATOM     54  C   UNL A   1      34.653  32.834  30.394  1.00  0.00     0.059 A 
ATOM     55  F   UNL A   1      35.600  31.290  31.885  1.00  0.00    -0.206 F 
ATOM     56  C   UNL A   1      34.809  33.933  29.551  1.00  0.00     0.060 A 
BRANCH  56  57
ATOM     57  S   UNL A   1      33.392  34.614  28.660  1.00  0.00     0.124 S 
ATOM     58  O   UNL A   1      32.505  34.984  29.758  1.00  0.00    -0.237 OA
ATOM     59  O   UNL A   1      33.995  35.721  27.926  1.00  0.00    -0.237 OA
ATOM     60  O   UNL A   1      32.942  33.495  27.836  1.00  0.00    -0.744 OA
ENDBRANCH  56  57
ENDBRANCH  24  49
BRANCH  36  61
ATOM     61  C   UNL A   1      39.925  34.161  37.129  1.00  0.00     0.058 A 
ATOM     62  C   UNL A   1      40.481  35.436  36.949  1.00  0.00     0.135 A 
ATOM     63  C   UNL A   1      39.184  33.923  38.298  1.00  0.00     0.135 A 
ATOM     64  F   UNL A   1      41.212  35.705  35.855  1.00  0.00    -0.206 F 
ATOM     65  C   UNL A   1      40.334  36.432  37.907  1.00  0.00     0.059 A 
ATOM     66  C   UNL A   1      39.004  34.913  39.258  1.00  0.00     0.059 A 
ATOM     67  F   UNL A   1      38.634  32.719  38.518  1.00  0.00    -0.206 F 
ATOM     68  C   UNL A   1      39.595  36.159  39.060  1.00  0.00     0.060 A 
BRANCH  68  69
ATOM     69  S   UNL A   1      39.398  37.466  40.288  1.00  0.00     0.124 S 
ATOM     70  O   UNL A   1      40.787  37.804  40.582  1.00  0.00    -0.237 OA
ATOM     71  O   UNL A   1      38.642  38.475  39.555  1.00  0.00    -0.237 OA
ATOM     72  O   UNL A   1      38.670  36.808  41.369  1.00  0.00    -0.744 OA
ENDBRANCH  68  69
ENDBRANCH  36  61
ENDBRANCH  10  11
ENDBRANCH   3   5
ENDBRANCH   2   3
ENDBRANCH   1   2
BRANCH   1  73
ATOM     73  C   UNL A   1      36.697  22.632  25.286  1.00  0.00     0.274 C 
BRANCH  73  74
ATOM     74  O   UNL A   1      37.384  21.650  24.491  1.00  0.00    -0.462 OA
BRANCH  74  75
ATOM     75  C   UNL A   1      37.287  20.337  24.905  1.00  0.00     0.310 C 
ATOM     76  O   UNL A   1      38.278  19.669  25.143  1.00  0.00    -0.252 OA
BRANCH  75  77
ATOM     77  C   UNL A   1      35.664  19.875  24.875  1.00  0.00     0.115 C 
ATOM     78  C   UNL A   1      35.537  17.930  24.506  1.00  0.00     0.043 C 
ATOM     79  C   UNL A   1      33.781  20.931  24.352  1.00  0.00     0.097 C 
ATOM     80  C   UNL A   1      34.023  17.263  23.668  1.00  0.00    -0.030 C 
ATOM     81  C   UNL A   1      32.396  19.718  23.649  1.00  0.00     0.041 C 
ATOM     82  C   UNL A   1      32.812  17.968  23.331  1.00  0.00    -0.030 C 
BRANCH  79  83
ATOM     83  C   UNL A   1      32.799  22.154  25.063  1.00  0.00     0.227 C 
ATOM     84  O   UNL A   1      32.384  21.970  26.220  1.00  0.00    -0.275 OA
ATOM     85  N   UNL A   1      32.547  23.380  24.442  1.00  0.00    -0.331 N 
ATOM     86  C   UNL A   1      32.589  24.570  25.312  1.00  0.00     0.181 C 
ATOM     87  C   UNL A   1      31.372  23.504  23.593  1.00  0.00     0.181 C 
ATOM     88  C   UNL A   1      32.361  25.922  24.559  1.00  0.00     0.284 C 
ATOM     89  C   UNL A   1      31.472  24.713  22.670  1.00  0.00     0.284 C 
ATOM     90  N   UNL A   1      31.415  25.963  23.424  1.00  0.00    -0.328 N 
ATOM     91  H   UNL A   1      31.759  26.728  22.843  1.00  0.00     0.348 HD
BRANCH  90  92
ATOM     92  C   UNL A   1      30.046  26.453  23.671  1.00  0.00     0.299 C 
BRANCH  92  93
ATOM     93  C   UNL A   1      29.660  27.801  23.088  1.00  0.00     0.010 A 
ATOM     94  C   UNL A   1      30.593  28.535  22.320  1.00  0.00     0.013 A 
ATOM     95  C   UNL A   1      28.424  28.402  23.424  1.00  0.00     0.060 A 
ATOM     96  C   UNL A   1      30.348  29.868  21.969  1.00  0.00     0.051 A 
ATOM     97  C   UNL A   1      28.222  29.723  23.081  1.00  0.00     0.166 A 
ATOM     98  C   UNL A   1      29.167  30.442  22.389  1.00  0.00     0.165 A 
ATOM     99  O   UNL A   1      27.142  30.481  23.420  1.00  0.00    -0.454 OA
ATOM    100  O   UNL A   1      28.806  31.743  22.217  1.00  0.00    -0.454 OA
ATOM    101  C   UNL A   1      27.594  31.786  23.000  1.00  0.00     0.468 C 
ENDBRANCH  92  93
ENDBRANCH  90  92
ENDBRANCH  79  83
ENDBRANCH  75  77
ENDBRANCH  74  75
ENDBRANCH  73  74
ENDBRANCH   1  73
TORSDOF 17
ENDMDL
MODEL 2
REMARK VINA RESULT:     -12.3      6.934     12.990
REMARK SMILES O=C(OCCOC(=O)[C@@H]1CC=CC[C@H]1C(=O)N1CC[NH+](Cc2ccc3c(c2)OCO3)CC1)c1ccc(-c2c3nc(c(-c4c(F)cc(S(=O)(=O)[O-])cc4F)c4ccc([nH]4)c(-c4c(F)cc(S(=O)(=O)[O-])cc4F)c4nc(c(-c5c(F)cc(S(=O)(=O)[O-])cc5F)c5ccc2[nH]5)C=C4)C=C3)cc1
REMARK SMILES IDX 4 1 3 2 2 3 1 4 33 5 34 6 98 7 35 8 97 9 36 10 37 11 38 12
REMARK SMILES IDX 91 13 39 14 96 15 90 16 92 17 40 18 95 19 89 20 88 21 41 23
REMARK SMILES IDX 75 24 54 25 74 26 55 27 58 28 73 29 93 30 56 31 57 32 72 34
REMARK SMILES IDX 94 35 59 36 42 37 43 38 52 39 44 40 45 41 51 42 53 43 46 44
REMARK SMILES IDX 47 45 48 46 49 47 50 48 76 49 77 50 86 51 78 52 79 53 85 54
REMARK SMILES IDX 87 55 80 56 81 57 82 58 83 59 84 60 60 61 61 62 70 63 62 64
REMARK SMILES IDX 63 65 69 66 71 67 64 68 65 69 66 70 67 71 68 72 5 73 6 74
REMARK SMILES IDX 7 75 8 76 9 77 10 78 14 79 11 80 13 81 12 82 15 83 16 84
REMARK SMILES IDX 17 85 18 86 32 87 19 88 31 89 20 90 21 92 22 93 23 94 27 95
REMARK SMILES IDX 24 96 26 97 25 98 28 99 30 100 29 101
REMARK H PARENT 92 22 58 33 20 91
REMARK Flexibility Score: inf
ROOT
ATOM      1  C   UNL A   1      38.625  30.890  35.747  1.00  0.00     0.275 C 
ENDROOT
BRANCH   1   2
ATOM      2  O   UNL A   1      38.061  30.130  34.660  1.00  0.00    -0.458 OA
BRANCH   2   3
ATOM      3  C   UNL A   1      37.803  30.537  33.397  1.00  0.00     0.338 C 
ATOM      4  O   UNL A   1      36.648  30.813  33.083  1.00  0.00    -0.246 OA
BRANCH   3   5
ATOM      5  C   UNL A   1      38.837  30.565  32.319  1.00  0.00     0.060 A 
ATOM      6  C   UNL A   1      40.507  30.216  32.608  1.00  0.00     0.016 A 
ATOM      7  C   UNL A   1      38.208  30.761  30.719  1.00  0.00     0.016 A 
ATOM      8  C   UNL A   1      41.648  29.842  31.390  1.00  0.00     0.010 A 
ATOM      9  C   UNL A   1      39.302  30.514  29.376  1.00  0.00     0.010 A 
ATOM     10  C   UNL A   1      41.171  29.996  29.720  1.00  0.00    -0.014 A 
BRANCH  10  11
ATOM     11  C   UNL A   1      42.512  29.570  28.910  1.00  0.00     0.031 A 
ATOM     12  C   UNL A   1      42.755  28.154  28.406  1.00  0.00     0.074 A 
ATOM     13  C   UNL A   1      43.435  30.449  28.438  1.00  0.00     0.049 A 
ATOM     14  N   UNL A   1      43.885  27.554  28.107  1.00  0.00    -0.248 NA
ATOM     15  C   UNL A   1      41.573  27.327  28.143  1.00  0.00     0.031 C 
ATOM     16  C   UNL A   1      43.292  31.886  28.366  1.00  0.00     0.029 A 
ATOM     17  N   UNL A   1      44.744  30.271  28.028  1.00  0.00    -0.354 N 
ATOM     18  C   UNL A   1      43.550  26.266  27.698  1.00  0.00     0.074 A 
ATOM     19  C   UNL A   1      42.113  26.158  27.828  1.00  0.00     0.031 C 
ATOM     20  C   UNL A   1      44.481  32.482  28.246  1.00  0.00     0.029 A 
ATOM     21  C   UNL A   1      45.477  31.445  28.101  1.00  0.00     0.049 A 
ATOM     22  H   UNL A   1      45.113  29.412  27.721  1.00  0.00     0.167 HD
ATOM     23  C   UNL A   1      44.347  25.283  27.205  1.00  0.00     0.037 A 
ATOM     24  C   UNL A   1      46.798  31.692  28.082  1.00  0.00     0.037 A 
ATOM     25  C   UNL A   1      45.746  25.451  26.883  1.00  0.00     0.049 A 
ATOM     26  C   UNL A   1      47.711  30.593  27.662  1.00  0.00     0.074 A 
ATOM     27  C   UNL A   1      46.624  24.525  26.341  1.00  0.00     0.029 A 
ATOM     28  N   UNL A   1      46.454  26.637  27.005  1.00  0.00    -0.354 N 
ATOM     29  N   UNL A   1      47.418  29.335  27.450  1.00  0.00    -0.248 NA
ATOM     30  C   UNL A   1      49.101  30.957  27.372  1.00  0.00     0.031 C 
ATOM     31  C   UNL A   1      47.861  25.149  26.139  1.00  0.00     0.029 A 
ATOM     32  C   UNL A   1      47.749  26.471  26.533  1.00  0.00     0.049 A 
ATOM     33  H   UNL A   1      46.092  27.476  27.372  1.00  0.00     0.167 HD
ATOM     34  C   UNL A   1      48.566  28.773  26.919  1.00  0.00     0.074 A 
ATOM     35  C   UNL A   1      49.567  29.820  26.874  1.00  0.00     0.031 C 
ATOM     36  C   UNL A   1      48.747  27.508  26.474  1.00  0.00     0.037 A 
BRANCH  23  37
ATOM     37  C   UNL A   1      43.734  23.925  26.959  1.00  0.00     0.058 A 
ATOM     38  C   UNL A   1      43.401  23.469  25.673  1.00  0.00     0.135 A 
ATOM     39  C   UNL A   1      43.522  23.042  28.033  1.00  0.00     0.135 A 
ATOM     40  F   UNL A   1      43.576  24.265  24.606  1.00  0.00    -0.206 F 
ATOM     41  C   UNL A   1      42.841  22.210  25.467  1.00  0.00     0.059 A 
ATOM     42  C   UNL A   1      42.997  21.766  27.846  1.00  0.00     0.059 A 
ATOM     43  F   UNL A   1      43.837  23.413  29.284  1.00  0.00    -0.206 F 
ATOM     44  C   UNL A   1      42.639  21.367  26.560  1.00  0.00     0.060 A 
BRANCH  44  45
ATOM     45  S   UNL A   1      41.912  19.738  26.278  1.00  0.00     0.124 S 
ATOM     46  O   UNL A   1      42.592  19.324  25.055  1.00  0.00    -0.237 OA
ATOM     47  O   UNL A   1      42.286  19.012  27.487  1.00  0.00    -0.237 OA
ATOM     48  O   UNL A   1      40.486  20.022  26.139  1.00  0.00    -0.744 OA
ENDBRANCH  44  45
ENDBRANCH  23  37
BRANCH  24  49
ATOM     49  C   UNL A   1      47.317  33.041  28.435  1.00  0.00     0.058 A 
ATOM     50  C   UNL A   1      47.433  34.063  27.484  1.00  0.00     0.135 A 
ATOM     51  C   UNL A   1      47.704  33.328  29.755  1.00  0.00     0.135 A 
ATOM     52  F   UNL A   1      47.066  33.839  26.214  1.00  0.00    -0.206 F 
ATOM     53  C   UNL A   1      47.945  35.313  27.819  1.00  0.00     0.059 A 
ATOM     54  C   UNL A   1      48.207  34.575  30.117  1.00  0.00     0.059 A 
ATOM     55  F   UNL A   1      47.589  32.390  30.709  1.00  0.00    -0.206 F 
ATOM     56  C   UNL A   1      48.338  35.557  29.137  1.00  0.00     0.060 A 
BRANCH  56  57
ATOM     57  S   UNL A   1      48.999  37.186  29.555  1.00  0.00     0.124 S 
ATOM     58  O   UNL A   1      49.621  37.583  28.296  1.00  0.00    -0.237 OA
ATOM     59  O   UNL A   1      47.794  37.919  29.930  1.00  0.00    -0.237 OA
ATOM     60  O   UNL A   1      49.921  36.906  30.652  1.00  0.00    -0.744 OA
ENDBRANCH  56  57
ENDBRANCH  24  49
BRANCH  36  61
ATOM     61  C   UNL A   1      50.070  27.201  25.840  1.00  0.00     0.058 A 
ATOM     62  C   UNL A   1      50.284  27.376  24.465  1.00  0.00     0.135 A 
ATOM     63  C   UNL A   1      51.134  26.717  26.619  1.00  0.00     0.135 A 
ATOM     64  F   UNL A   1      49.291  27.819  23.677  1.00  0.00    -0.206 F 
ATOM     65  C   UNL A   1      51.501  27.053  23.876  1.00  0.00     0.059 A 
ATOM     66  C   UNL A   1      52.368  26.413  26.054  1.00  0.00     0.059 A 
ATOM     67  F   UNL A   1      50.978  26.532  27.938  1.00  0.00    -0.206 F 
ATOM     68  C   UNL A   1      52.536  26.570  24.679  1.00  0.00     0.060 A 
BRANCH  68  69
ATOM     69  S   UNL A   1      54.116  26.171  23.904  1.00  0.00     0.124 S 
ATOM     70  O   UNL A   1      54.890  27.378  24.177  1.00  0.00    -0.237 OA
ATOM     71  O   UNL A   1      54.529  24.976  24.631  1.00  0.00    -0.237 OA
ATOM     72  O   UNL A   1      53.762  25.955  22.504  1.00  0.00    -0.744 OA
ENDBRANCH  68  69
ENDBRANCH  36  61
ENDBRANCH  10  11
ENDBRANCH   3   5
ENDBRANCH   2   3
ENDBRANCH   1   2
BRANCH   1  73
ATOM     73  C   UNL A   1      38.328  32.403  35.735  1.00  0.00     0.274 C 
BRANCH  73  74
ATOM     74  O   UNL A   1      39.423  33.153  35.183  1.00  0.00    -0.462 OA
BRANCH  74  75
ATOM     75  C   UNL A   1      39.102  34.306  34.494  1.00  0.00     0.310 C 
ATOM     76  O   UNL A   1      38.898  35.358  35.074  1.00  0.00    -0.252 OA
BRANCH  75  77
ATOM     77  C   UNL A   1      38.936  33.932  32.856  1.00  0.00     0.115 C 
ATOM     78  C   UNL A   1      40.730  33.838  32.015  1.00  0.00     0.043 C 
ATOM     79  C   UNL A   1      37.346  34.314  31.352  1.00  0.00     0.097 C 
ATOM     80  C   UNL A   1      40.904  34.213  30.208  1.00  0.00    -0.030 C 
ATOM     81  C   UNL A   1      38.052  34.465  29.519  1.00  0.00     0.041 C 
ATOM     82  C   UNL A   1      39.858  34.465  29.248  1.00  0.00    -0.030 C 
BRANCH  79  83
ATOM     83  C   UNL A   1      35.763  33.717  31.034  1.00  0.00     0.227 C 
ATOM     84  O   UNL A   1      34.900  33.849  31.919  1.00  0.00    -0.275 OA
ATOM     85  N   UNL A   1      35.383  33.198  29.794  1.00  0.00    -0.331 N 
ATOM     86  C   UNL A   1      34.049  33.591  29.306  1.00  0.00     0.181 C 
ATOM     87  C   UNL A   1      35.526  31.768  29.562  1.00  0.00     0.181 C 
ATOM     88  C   UNL A   1      33.697  33.034  27.887  1.00  0.00     0.284 C 
ATOM     89  C   UNL A   1      35.494  31.436  28.075  1.00  0.00     0.284 C 
ATOM     90  N   UNL A   1      34.173  31.688  27.503  1.00  0.00    -0.328 N 
ATOM     91  H   UNL A   1      34.245  31.732  26.487  1.00  0.00     0.348 HD
BRANCH  90  92
ATOM     92  C   UNL A   1      33.239  30.554  27.625  1.00  0.00     0.299 C 
BRANCH  92  93
ATOM     93  C   UNL A   1      32.904  29.773  26.366  1.00  0.00     0.010 A 
ATOM     94  C   UNL A   1      33.913  29.051  25.689  1.00  0.00     0.013 A 
ATOM     95  C   UNL A   1      31.622  29.875  25.778  1.00  0.00     0.060 A 
ATOM     96  C   UNL A   1      33.687  28.518  24.414  1.00  0.00     0.051 A 
ATOM     97  C   UNL A   1      31.437  29.358  24.512  1.00  0.00     0.166 A 
ATOM     98  C   UNL A   1      32.449  28.714  23.841  1.00  0.00     0.165 A 
ATOM     99  O   UNL A   1      30.305  29.465  23.762  1.00  0.00    -0.454 OA
ATOM    100  O   UNL A   1      32.085  28.346  22.582  1.00  0.00    -0.454 OA
ATOM    101  C   UNL A   1      30.779  28.957  22.496  1.00  0.00     0.468 C 
ENDBRANCH  92  93
ENDBRANCH  90  92
ENDBRANCH  79  83
ENDBRANCH  75  77
ENDBRANCH  74  75
ENDBRANCH  73  74
ENDBRANCH   1  73
TORSDOF 17
ENDMDL
MODEL 3
REMARK VINA RESULT:     -12.1      6.543     10.568
REMARK SMILES O=C(OCCOC(=O)[C@@H]1CC=CC[C@H]1C(=O)N1CC[NH+](Cc2ccc3c(c2)OCO3)CC1)c1ccc(-c2c3nc(c(-c4c(F)cc(S(=O)(=O)[O-])cc4F)c4ccc([nH]4)c(-c4c(F)cc(S(=O)(=O)[O-])cc4F)c4nc(c(-c5c(F)cc(S(=O)(=O)[O-])cc5F)c5ccc2[nH]5)C=C4)C=C3)cc1
REMARK SMILES IDX 4 1 3 2 2 3 1 4 33 5 34 6 98 7 35 8 97 9 36 10 37 11 38 12
REMARK SMILES IDX 91 13 39 14 96 15 90 16 92 17 40 18 95 19 89 20 88 21 41 23
REMARK SMILES IDX 75 24 54 25 74 26 55 27 58 28 73 29 93 30 56 31 57 32 72 34
REMARK SMILES IDX 94 35 59 36 42 37 43 38 52 39 44 40 45 41 51 42 53 43 46 44
REMARK SMILES IDX 47 45 48 46 49 47 50 48 76 49 77 50 86 51 78 52 79 53 85 54
REMARK SMILES IDX 87 55 80 56 81 57 82 58 83 59 84 60 60 61 61 62 70 63 62 64
REMARK SMILES IDX 63 65 69 66 71 67 64 68 65 69 66 70 67 71 68 72 5 73 6 74
REMARK SMILES IDX 7 75 8 76 9 77 10 78 14 79 11 80 13 81 12 82 15 83 16 84
REMARK SMILES IDX 17 85 18 86 32 87 19 88 31 89 20 90 21 92 22 93 23 94 27 95
REMARK SMILES IDX 24 96 26 97 25 98 28 99 30 100 29 101
REMARK H PARENT 92 22 58 33 20 91
REMARK Flexibility Score: inf
ROOT
ATOM      1  C   UNL A   1      39.029  22.050  26.117  1.00  0.00     0.275 C 
ENDROOT
BRANCH   1   2
ATOM      2  O   UNL A   1      39.833  20.856  26.041  1.00  0.00    -0.458 OA
BRANCH   2   3
ATOM      3  C   UNL A   1      41.180  20.754  25.987  1.00  0.00     0.338 C 
ATOM      4  O   UNL A   1      41.684  19.741  25.510  1.00  0.00    -0.246 OA
BRANCH   3   5
ATOM      5  C   UNL A   1      42.102  21.769  26.582  1.00  0.00     0.060 A 
ATOM      6  C   UNL A   1      42.629  23.178  25.727  1.00  0.00     0.016 A 
ATOM      7  C   UNL A   1      42.432  21.545  28.266  1.00  0.00     0.016 A 
ATOM      8  C   UNL A   1      43.338  24.552  26.458  1.00  0.00     0.010 A 
ATOM      9  C   UNL A   1      43.255  22.834  29.115  1.00  0.00     0.010 A 
ATOM     10  C   UNL A   1      43.739  24.484  28.154  1.00  0.00    -0.014 A 
BRANCH  10  11
ATOM     11  C   UNL A   1      44.383  25.947  28.442  1.00  0.00     0.031 A 
ATOM     12  C   UNL A   1      43.595  27.083  29.078  1.00  0.00     0.074 A 
ATOM     13  C   UNL A   1      45.707  26.237  28.332  1.00  0.00     0.049 A 
ATOM     14  N   UNL A   1      43.802  28.379  29.023  1.00  0.00    -0.248 NA
ATOM     15  C   UNL A   1      42.468  26.713  29.939  1.00  0.00     0.031 C 
ATOM     16  C   UNL A   1      46.782  25.285  28.170  1.00  0.00     0.029 A 
ATOM     17  N   UNL A   1      46.374  27.444  28.223  1.00  0.00    -0.354 N 
ATOM     18  C   UNL A   1      42.791  28.972  29.775  1.00  0.00     0.074 A 
ATOM     19  C   UNL A   1      41.946  27.894  30.242  1.00  0.00     0.031 C 
ATOM     20  C   UNL A   1      47.881  25.877  27.695  1.00  0.00     0.029 A 
ATOM     21  C   UNL A   1      47.623  27.298  27.640  1.00  0.00     0.049 A 
ATOM     22  H   UNL A   1      46.006  28.306  28.524  1.00  0.00     0.167 HD
ATOM     23  C   UNL A   1      42.610  30.278  30.100  1.00  0.00     0.037 A 
ATOM     24  C   UNL A   1      48.476  28.181  27.091  1.00  0.00     0.037 A 
ATOM     25  C   UNL A   1      43.557  31.329  29.809  1.00  0.00     0.049 A 
ATOM     26  C   UNL A   1      48.233  29.631  27.328  1.00  0.00     0.074 A 
ATOM     27  C   UNL A   1      43.480  32.675  30.136  1.00  0.00     0.029 A 
ATOM     28  N   UNL A   1      44.785  31.148  29.189  1.00  0.00    -0.354 N 
ATOM     29  N   UNL A   1      47.190  30.196  27.881  1.00  0.00    -0.248 NA
ATOM     30  C   UNL A   1      49.317  30.552  26.973  1.00  0.00     0.031 C 
ATOM     31  C   UNL A   1      44.656  33.306  29.710  1.00  0.00     0.029 A 
ATOM     32  C   UNL A   1      45.477  32.350  29.140  1.00  0.00     0.049 A 
ATOM     33  H   UNL A   1      45.117  30.291  28.836  1.00  0.00     0.167 HD
ATOM     34  C   UNL A   1      47.525  31.532  28.020  1.00  0.00     0.074 A 
ATOM     35  C   UNL A   1      48.854  31.695  27.463  1.00  0.00     0.031 C 
ATOM     36  C   UNL A   1      46.801  32.519  28.598  1.00  0.00     0.037 A 
BRANCH  23  37
ATOM     37  C   UNL A   1      41.345  30.662  30.829  1.00  0.00     0.058 A 
ATOM     38  C   UNL A   1      40.104  30.774  30.180  1.00  0.00     0.135 A 
ATOM     39  C   UNL A   1      41.368  30.870  32.220  1.00  0.00     0.135 A 
ATOM     40  F   UNL A   1      40.016  30.590  28.853  1.00  0.00    -0.206 F 
ATOM     41  C   UNL A   1      38.947  31.123  30.871  1.00  0.00     0.059 A 
ATOM     42  C   UNL A   1      40.216  31.185  32.937  1.00  0.00     0.059 A 
ATOM     43  F   UNL A   1      42.520  30.759  32.901  1.00  0.00    -0.206 F 
ATOM     44  C   UNL A   1      39.013  31.331  32.250  1.00  0.00     0.060 A 
BRANCH  44  45
ATOM     45  S   UNL A   1      37.505  31.784  33.134  1.00  0.00     0.124 S 
ATOM     46  O   UNL A   1      37.444  33.221  32.886  1.00  0.00    -0.237 OA
ATOM     47  O   UNL A   1      36.490  30.982  32.460  1.00  0.00    -0.237 OA
ATOM     48  O   UNL A   1      37.790  31.395  34.513  1.00  0.00    -0.744 OA
ENDBRANCH  44  45
ENDBRANCH  23  37
BRANCH  24  49
ATOM     49  C   UNL A   1      49.646  27.707  26.305  1.00  0.00     0.058 A 
ATOM     50  C   UNL A   1      49.540  27.363  24.951  1.00  0.00     0.135 A 
ATOM     51  C   UNL A   1      50.909  27.598  26.911  1.00  0.00     0.135 A 
ATOM     52  F   UNL A   1      48.357  27.462  24.327  1.00  0.00    -0.206 F 
ATOM     53  C   UNL A   1      50.636  26.895  24.232  1.00  0.00     0.059 A 
ATOM     54  C   UNL A   1      52.023  27.144  26.209  1.00  0.00     0.059 A 
ATOM     55  F   UNL A   1      51.069  27.939  28.200  1.00  0.00    -0.206 F 
ATOM     56  C   UNL A   1      51.872  26.781  24.872  1.00  0.00     0.060 A 
BRANCH  56  57
ATOM     57  S   UNL A   1      53.284  26.173  23.923  1.00  0.00     0.124 S 
ATOM     58  O   UNL A   1      54.354  27.044  24.396  1.00  0.00    -0.237 OA
ATOM     59  O   UNL A   1      53.362  24.779  24.347  1.00  0.00    -0.237 OA
ATOM     60  O   UNL A   1      52.873  26.377  22.536  1.00  0.00    -0.744 OA
ENDBRANCH  56  57
ENDBRANCH  24  49
BRANCH  36  61
ATOM     61  C   UNL A   1      47.461  33.859  28.711  1.00  0.00     0.058 A 
ATOM     62  C   UNL A   1      48.237  34.205  29.827  1.00  0.00     0.135 A 
ATOM     63  C   UNL A   1      47.307  34.813  27.692  1.00  0.00     0.135 A 
ATOM     64  F   UNL A   1      48.399  33.333  30.834  1.00  0.00    -0.206 F 
ATOM     65  C   UNL A   1      48.816  35.464  29.944  1.00  0.00     0.059 A 
ATOM     66  C   UNL A   1      47.898  36.070  27.777  1.00  0.00     0.059 A 
ATOM     67  F   UNL A   1      46.573  34.531  26.605  1.00  0.00    -0.206 F 
ATOM     68  C   UNL A   1      48.638  36.389  28.914  1.00  0.00     0.060 A 
BRANCH  68  69
ATOM     69  S   UNL A   1      49.408  38.014  29.071  1.00  0.00     0.124 S 
ATOM     70  O   UNL A   1      50.569  37.874  28.198  1.00  0.00    -0.237 OA
ATOM     71  O   UNL A   1      48.359  38.907  28.592  1.00  0.00    -0.237 OA
ATOM     72  O   UNL A   1      49.703  38.112  30.498  1.00  0.00    -0.744 OA
ENDBRANCH  68  69
ENDBRANCH  36  61
ENDBRANCH  10  11
ENDBRANCH   3   5
ENDBRANCH   2   3
ENDBRANCH   1   2
BRANCH   1  73
ATOM     73  C   UNL A   1      37.778  22.077  25.216  1.00  0.00     0.274 C 
BRANCH  73  74
ATOM     74  O   UNL A   1      37.274  23.414  25.051  1.00  0.00    -0.462 OA
BRANCH  74  75
ATOM     75  C   UNL A   1      36.134  23.557  24.285  1.00  0.00     0.310 C 
ATOM     76  O   UNL A   1      36.148  23.375  23.081  1.00  0.00    -0.252 OA
BRANCH  75  77
ATOM     77  C   UNL A   1      34.884  24.120  25.272  1.00  0.00     0.115 C 
ATOM     78  C   UNL A   1      34.412  22.724  26.601  1.00  0.00     0.043 C 
ATOM     79  C   UNL A   1      33.214  25.551  24.961  1.00  0.00     0.097 C 
ATOM     80  C   UNL A   1      32.689  22.666  27.279  1.00  0.00    -0.030 C 
ATOM     81  C   UNL A   1      31.640  25.137  26.071  1.00  0.00     0.041 C 
ATOM     82  C   UNL A   1      31.615  23.602  27.060  1.00  0.00    -0.030 C 
BRANCH  79  83
ATOM     83  C   UNL A   1      33.050  27.258  24.801  1.00  0.00     0.227 C 
ATOM     84  O   UNL A   1      32.745  27.713  23.685  1.00  0.00    -0.275 OA
ATOM     85  N   UNL A   1      33.134  28.133  25.887  1.00  0.00    -0.331 N 
ATOM     86  C   UNL A   1      32.152  29.232  25.913  1.00  0.00     0.181 C 
ATOM     87  C   UNL A   1      34.430  28.700  26.228  1.00  0.00     0.181 C 
ATOM     88  C   UNL A   1      32.248  30.146  27.179  1.00  0.00     0.284 C 
ATOM     89  C   UNL A   1      34.442  29.258  27.646  1.00  0.00     0.284 C 
ATOM     90  N   UNL A   1      33.576  30.429  27.764  1.00  0.00    -0.328 N 
ATOM     91  H   UNL A   1      33.380  30.610  28.748  1.00  0.00     0.348 HD
BRANCH  90  92
ATOM     92  C   UNL A   1      34.237  31.701  27.417  1.00  0.00     0.299 C 
BRANCH  92  93
ATOM     93  C   UNL A   1      34.239  32.805  28.460  1.00  0.00     0.010 A 
ATOM     94  C   UNL A   1      34.859  32.596  29.713  1.00  0.00     0.013 A 
ATOM     95  C   UNL A   1      33.503  33.994  28.249  1.00  0.00     0.060 A 
ATOM     96  C   UNL A   1      34.679  33.500  30.767  1.00  0.00     0.051 A 
ATOM     97  C   UNL A   1      33.327  34.855  29.314  1.00  0.00     0.166 A 
ATOM     98  C   UNL A   1      33.884  34.604  30.544  1.00  0.00     0.165 A 
ATOM     99  O   UNL A   1      32.560  35.981  29.312  1.00  0.00    -0.454 OA
ATOM    100  O   UNL A   1      33.528  35.533  31.474  1.00  0.00    -0.454 OA
ATOM    101  C   UNL A   1      32.577  36.312  30.718  1.00  0.00     0.468 C 
ENDBRANCH  92  93
ENDBRANCH  90  92
ENDBRANCH  79  83
ENDBRANCH  75  77
ENDBRANCH  74  75
ENDBRANCH  73  74
ENDBRANCH   1  73
TORSDOF 17
ENDMDL
