MODEL 1
REMARK VINA RESULT:     -13.0      0.000      0.000
REMARK SMILES Cc1ccc(NC(=O)C[C@@H]2C[NH2+]CCO2)c(C(=O)OCCOC(=O)c2ccc(-c3c4nc(c(-c5c(F)cc(S(=O)(=O)[O-])cc5F)c5ccc([nH]5)c(-c5c(F)cc(S(=O)(=O)[O-])cc5F)c5nc(c(-c6c(F)cc(S(=O)(=O)[O-])cc6F)c6ccc3[nH]6)C=C5)C=C4)cc2)c1
REMARK SMILES IDX 20 1 19 2 17 3 18 4 16 5 1 6 2 7 3 8 91 9 4 10 5 11 6 12
REMARK SMILES IDX 7 13 8 15 9 16 10 17 11 18 15 19 12 20 14 21 13 22 21 25
REMARK SMILES IDX 22 26 23 27 24 28 25 29 26 30 90 31 27 32 89 33 28 34 29 35
REMARK SMILES IDX 30 36 83 37 31 38 88 39 82 40 84 41 32 42 87 43 81 44 80 45
REMARK SMILES IDX 33 47 67 48 46 49 66 50 47 51 50 52 65 53 85 54 48 55 49 56
REMARK SMILES IDX 64 58 86 59 51 60 34 61 35 62 44 63 36 64 37 65 43 66 45 67
REMARK SMILES IDX 38 68 39 69 40 70 41 71 42 72 68 73 69 74 78 75 70 76 71 77
REMARK SMILES IDX 77 78 79 79 72 80 73 81 74 82 75 83 76 84 52 85 53 86 62 87
REMARK SMILES IDX 54 88 55 89 61 90 63 91 56 92 57 93 58 94 59 95 60 96
REMARK H PARENT 6 14 12 23 12 24 84 46 50 57
REMARK Flexibility Score: inf
ROOT
ATOM      1  C   UNL A   1      33.204  28.392  26.292  1.00  0.00     0.275 C 
ENDROOT
BRANCH   1   2
ATOM      2  O   UNL A   1      32.936  26.963  26.206  1.00  0.00    -0.458 OA
BRANCH   2   3
ATOM      3  C   UNL A   1      33.775  26.326  25.341  1.00  0.00     0.340 C 
ATOM      4  O   UNL A   1      34.025  26.732  24.214  1.00  0.00    -0.246 OA
BRANCH   3   5
ATOM      5  C   UNL A   1      34.074  24.908  25.608  1.00  0.00     0.083 A 
ATOM      6  C   UNL A   1      37.527  23.260  25.533  1.00  0.00     0.044 C 
ATOM      7  C   UNL A   1      36.084  23.516  25.830  1.00  0.00    -0.050 A 
ATOM      8  C   UNL A   1      35.394  22.692  26.710  1.00  0.00     0.005 A 
ATOM      9  C   UNL A   1      35.417  24.611  25.276  1.00  0.00     0.021 A 
ATOM     10  C   UNL A   1      34.065  22.967  27.028  1.00  0.00     0.027 A 
ATOM     11  C   UNL A   1      33.356  24.041  26.459  1.00  0.00     0.055 A 
BRANCH  11  12
ATOM     12  N   UNL A   1      31.994  24.197  26.821  1.00  0.00    -0.325 N 
ATOM     13  C   UNL A   1      30.929  23.362  26.567  1.00  0.00     0.227 C 
ATOM     14  H   UNL A   1      31.781  25.015  27.323  1.00  0.00     0.169 HD
ATOM     15  O   UNL A   1      30.023  23.262  27.400  1.00  0.00    -0.275 OA
BRANCH  13  16
ATOM     16  C   UNL A   1      30.852  22.441  25.358  1.00  0.00     0.138 C 
BRANCH  16  17
ATOM     17  C   UNL A   1      30.948  23.021  23.941  1.00  0.00     0.182 C 
ATOM     18  C   UNL A   1      32.193  22.387  23.252  1.00  0.00     0.293 C 
ATOM     19  O   UNL A   1      31.042  24.444  23.965  1.00  0.00    -0.366 OA
ATOM     20  N   UNL A   1      32.570  23.009  21.967  1.00  0.00    -0.342 N 
ATOM     21  C   UNL A   1      31.355  25.025  22.707  1.00  0.00     0.222 C 
ATOM     22  C   UNL A   1      32.680  24.464  22.193  1.00  0.00     0.289 C 
ATOM     23  H   UNL A   1      31.854  22.820  21.265  1.00  0.00     0.346 HD
ATOM     24  H   UNL A   1      33.455  22.630  21.629  1.00  0.00     0.346 HD
ENDBRANCH  16  17
ENDBRANCH  13  16
ENDBRANCH  11  12
ENDBRANCH   3   5
ENDBRANCH   2   3
ENDBRANCH   1   2
BRANCH   1  25
ATOM     25  C   UNL A   1      34.679  28.745  26.572  1.00  0.00     0.275 C 
BRANCH  25  26
ATOM     26  O   UNL A   1      34.889  29.357  27.856  1.00  0.00    -0.458 OA
BRANCH  26  27
ATOM     27  C   UNL A   1      35.664  30.473  27.809  1.00  0.00     0.338 C 
ATOM     28  O   UNL A   1      35.217  31.609  27.716  1.00  0.00    -0.246 OA
BRANCH  27  29
ATOM     29  C   UNL A   1      37.001  30.057  28.308  1.00  0.00     0.060 A 
ATOM     30  C   UNL A   1      37.051  29.314  29.487  1.00  0.00     0.016 A 
ATOM     31  C   UNL A   1      38.105  30.096  27.458  1.00  0.00     0.016 A 
ATOM     32  C   UNL A   1      38.147  28.491  29.767  1.00  0.00     0.010 A 
ATOM     33  C   UNL A   1      39.180  29.265  27.715  1.00  0.00     0.010 A 
ATOM     34  C   UNL A   1      39.193  28.430  28.849  1.00  0.00    -0.014 A 
BRANCH  34  35
ATOM     35  C   UNL A   1      40.450  27.713  29.068  1.00  0.00     0.031 A 
ATOM     36  C   UNL A   1      40.707  26.293  28.708  1.00  0.00     0.074 A 
ATOM     37  C   UNL A   1      41.433  28.509  29.540  1.00  0.00     0.049 A 
ATOM     38  N   UNL A   1      41.839  25.694  28.892  1.00  0.00    -0.248 NA
ATOM     39  C   UNL A   1      39.706  25.384  28.167  1.00  0.00     0.031 C 
ATOM     40  C   UNL A   1      42.867  28.287  29.560  1.00  0.00     0.029 A 
ATOM     41  N   UNL A   1      41.247  29.632  30.358  1.00  0.00    -0.354 N 
ATOM     42  C   UNL A   1      41.786  24.439  28.315  1.00  0.00     0.074 A 
ATOM     43  C   UNL A   1      40.413  24.271  27.937  1.00  0.00     0.031 C 
ATOM     44  C   UNL A   1      43.387  29.011  30.566  1.00  0.00     0.029 A 
ATOM     45  C   UNL A   1      42.261  29.556  31.314  1.00  0.00     0.049 A 
ATOM     46  H   UNL A   1      40.553  30.325  30.275  1.00  0.00     0.167 HD
ATOM     47  C   UNL A   1      42.949  23.742  28.154  1.00  0.00     0.037 A 
ATOM     48  C   UNL A   1      42.015  29.324  32.637  1.00  0.00     0.037 A 
ATOM     49  C   UNL A   1      43.966  24.303  29.038  1.00  0.00     0.049 A 
ATOM     50  C   UNL A   1      42.782  28.121  33.124  1.00  0.00     0.074 A 
ATOM     51  C   UNL A   1      44.972  25.232  28.846  1.00  0.00     0.029 A 
ATOM     52  N   UNL A   1      43.801  24.167  30.415  1.00  0.00    -0.354 N 
ATOM     53  N   UNL A   1      43.059  27.074  32.391  1.00  0.00    -0.248 NA
ATOM     54  C   UNL A   1      43.372  28.060  34.455  1.00  0.00     0.031 C 
ATOM     55  C   UNL A   1      45.312  25.761  30.119  1.00  0.00     0.029 A 
ATOM     56  C   UNL A   1      44.560  25.106  31.083  1.00  0.00     0.049 A 
ATOM     57  H   UNL A   1      43.225  23.497  30.849  1.00  0.00     0.167 HD
ATOM     58  C   UNL A   1      43.934  26.273  33.080  1.00  0.00     0.074 A 
ATOM     59  C   UNL A   1      44.068  26.913  34.380  1.00  0.00     0.031 C 
ATOM     60  C   UNL A   1      44.553  25.184  32.534  1.00  0.00     0.037 A 
BRANCH  47  61
ATOM     61  C   UNL A   1      43.253  22.740  27.042  1.00  0.00     0.058 A 
ATOM     62  C   UNL A   1      42.648  21.457  27.065  1.00  0.00     0.135 A 
ATOM     63  C   UNL A   1      44.223  22.892  26.028  1.00  0.00     0.135 A 
ATOM     64  F   UNL A   1      41.669  21.164  27.933  1.00  0.00    -0.206 F 
ATOM     65  C   UNL A   1      43.038  20.402  26.229  1.00  0.00     0.059 A 
ATOM     66  C   UNL A   1      44.627  21.854  25.178  1.00  0.00     0.059 A 
ATOM     67  F   UNL A   1      44.843  24.052  25.803  1.00  0.00    -0.206 F 
ATOM     68  C   UNL A   1      44.055  20.600  25.307  1.00  0.00     0.060 A 
BRANCH  68  69
ATOM     69  S   UNL A   1      44.624  19.216  24.299  1.00  0.00     0.124 S 
ATOM     70  O   UNL A   1      43.708  18.153  24.699  1.00  0.00    -0.237 OA
ATOM     71  O   UNL A   1      44.454  19.725  22.942  1.00  0.00    -0.237 OA
ATOM     72  O   UNL A   1      46.010  19.032  24.723  1.00  0.00    -0.744 OA
ENDBRANCH  68  69
ENDBRANCH  47  61
BRANCH  48  73
ATOM     73  C   UNL A   1      40.671  29.753  33.121  1.00  0.00     0.058 A 
ATOM     74  C   UNL A   1      40.462  31.123  33.376  1.00  0.00     0.135 A 
ATOM     75  C   UNL A   1      39.531  28.954  32.953  1.00  0.00     0.135 A 
ATOM     76  F   UNL A   1      41.513  31.938  33.553  1.00  0.00    -0.206 F 
ATOM     77  C   UNL A   1      39.195  31.699  33.316  1.00  0.00     0.059 A 
ATOM     78  C   UNL A   1      38.249  29.515  32.899  1.00  0.00     0.059 A 
ATOM     79  F   UNL A   1      39.656  27.645  32.693  1.00  0.00    -0.206 F 
ATOM     80  C   UNL A   1      38.096  30.896  33.025  1.00  0.00     0.060 A 
BRANCH  80  81
ATOM     81  S   UNL A   1      36.537  31.727  32.602  1.00  0.00     0.124 S 
ATOM     82  O   UNL A   1      35.698  30.609  32.190  1.00  0.00    -0.237 OA
ATOM     83  O   UNL A   1      36.184  32.347  33.877  1.00  0.00    -0.237 OA
ATOM     84  O   UNL A   1      36.909  32.670  31.555  1.00  0.00    -0.744 OA
ENDBRANCH  80  81
ENDBRANCH  48  73
BRANCH  60  85
ATOM     85  C   UNL A   1      45.351  24.170  33.317  1.00  0.00     0.058 A 
ATOM     86  C   UNL A   1      46.658  24.408  33.775  1.00  0.00     0.135 A 
ATOM     87  C   UNL A   1      44.759  22.961  33.754  1.00  0.00     0.135 A 
ATOM     88  F   UNL A   1      47.278  25.573  33.538  1.00  0.00    -0.206 F 
ATOM     89  C   UNL A   1      47.366  23.474  34.531  1.00  0.00     0.059 A 
ATOM     90  C   UNL A   1      45.428  22.040  34.554  1.00  0.00     0.059 A 
ATOM     91  F   UNL A   1      43.501  22.636  33.427  1.00  0.00    -0.206 F 
ATOM     92  C   UNL A   1      46.745  22.288  34.911  1.00  0.00     0.060 A 
BRANCH  92  93
ATOM     93  S   UNL A   1      47.632  21.091  35.920  1.00  0.00     0.124 S 
ATOM     94  O   UNL A   1      47.808  21.833  37.164  1.00  0.00    -0.237 OA
ATOM     95  O   UNL A   1      46.703  19.965  35.985  1.00  0.00    -0.237 OA
ATOM     96  O   UNL A   1      48.847  20.845  35.151  1.00  0.00    -0.744 OA
ENDBRANCH  92  93
ENDBRANCH  60  85
ENDBRANCH  34  35
ENDBRANCH  27  29
ENDBRANCH  26  27
ENDBRANCH  25  26
ENDBRANCH   1  25
TORSDOF 17
ENDMDL
MODEL 2
REMARK VINA RESULT:     -12.9      4.587     10.888
REMARK SMILES Cc1ccc(NC(=O)C[C@@H]2C[NH2+]CCO2)c(C(=O)OCCOC(=O)c2ccc(-c3c4nc(c(-c5c(F)cc(S(=O)(=O)[O-])cc5F)c5ccc([nH]5)c(-c5c(F)cc(S(=O)(=O)[O-])cc5F)c5nc(c(-c6c(F)cc(S(=O)(=O)[O-])cc6F)c6ccc3[nH]6)C=C5)C=C4)cc2)c1
REMARK SMILES IDX 20 1 19 2 17 3 18 4 16 5 1 6 2 7 3 8 91 9 4 10 5 11 6 12
REMARK SMILES IDX 7 13 8 15 9 16 10 17 11 18 15 19 12 20 14 21 13 22 21 25
REMARK SMILES IDX 22 26 23 27 24 28 25 29 26 30 90 31 27 32 89 33 28 34 29 35
REMARK SMILES IDX 30 36 83 37 31 38 88 39 82 40 84 41 32 42 87 43 81 44 80 45
REMARK SMILES IDX 33 47 67 48 46 49 66 50 47 51 50 52 65 53 85 54 48 55 49 56
REMARK SMILES IDX 64 58 86 59 51 60 34 61 35 62 44 63 36 64 37 65 43 66 45 67
REMARK SMILES IDX 38 68 39 69 40 70 41 71 42 72 68 73 69 74 78 75 70 76 71 77
REMARK SMILES IDX 77 78 79 79 72 80 73 81 74 82 75 83 76 84 52 85 53 86 62 87
REMARK SMILES IDX 54 88 55 89 61 90 63 91 56 92 57 93 58 94 59 95 60 96
REMARK H PARENT 6 14 12 23 12 24 84 46 50 57
REMARK Flexibility Score: inf
ROOT
ATOM      1  C   UNL A   1      35.878  23.132  25.316  1.00  0.00     0.275 C 
ENDROOT
BRANCH   1   2
ATOM      2  O   UNL A   1      35.410  24.416  24.812  1.00  0.00    -0.458 OA
BRANCH   2   3
ATOM      3  C   UNL A   1      34.453  24.971  25.610  1.00  0.00     0.340 C 
ATOM      4  O   UNL A   1      33.837  24.351  26.465  1.00  0.00    -0.246 OA
BRANCH   3   5
ATOM      5  C   UNL A   1      33.856  26.243  25.165  1.00  0.00     0.083 A 
ATOM      6  C   UNL A   1      33.692  29.501  27.166  1.00  0.00     0.044 C 
ATOM      7  C   UNL A   1      33.691  28.538  26.022  1.00  0.00    -0.050 A 
ATOM      8  C   UNL A   1      33.655  29.004  24.715  1.00  0.00     0.005 A 
ATOM      9  C   UNL A   1      33.780  27.161  26.239  1.00  0.00     0.021 A 
ATOM     10  C   UNL A   1      33.710  28.105  23.651  1.00  0.00     0.027 A 
ATOM     11  C   UNL A   1      33.764  26.713  23.837  1.00  0.00     0.055 A 
BRANCH  11  12
ATOM     12  N   UNL A   1      33.771  25.892  22.681  1.00  0.00    -0.325 N 
ATOM     13  C   UNL A   1      32.809  25.764  21.703  1.00  0.00     0.227 C 
ATOM     14  H   UNL A   1      34.574  25.338  22.559  1.00  0.00     0.169 HD
ATOM     15  O   UNL A   1      33.152  25.562  20.535  1.00  0.00    -0.275 OA
BRANCH  13  16
ATOM     16  C   UNL A   1      31.323  25.983  21.952  1.00  0.00     0.138 C 
BRANCH  16  17
ATOM     17  C   UNL A   1      30.589  25.147  23.010  1.00  0.00     0.182 C 
ATOM     18  C   UNL A   1      30.046  26.126  24.094  1.00  0.00     0.293 C 
ATOM     19  O   UNL A   1      31.448  24.166  23.587  1.00  0.00    -0.366 OA
ATOM     20  N   UNL A   1      29.518  25.471  25.307  1.00  0.00    -0.342 N 
ATOM     21  C   UNL A   1      30.898  23.511  24.722  1.00  0.00     0.222 C 
ATOM     22  C   UNL A   1      30.554  24.541  25.797  1.00  0.00     0.289 C 
ATOM     23  H   UNL A   1      28.667  24.955  25.081  1.00  0.00     0.346 HD
ATOM     24  H   UNL A   1      29.290  26.164  26.020  1.00  0.00     0.346 HD
ENDBRANCH  16  17
ENDBRANCH  13  16
ENDBRANCH  11  12
ENDBRANCH   3   5
ENDBRANCH   2   3
ENDBRANCH   1   2
BRANCH   1  25
ATOM     25  C   UNL A   1      37.411  23.013  25.422  1.00  0.00     0.275 C 
BRANCH  25  26
ATOM     26  O   UNL A   1      38.012  24.037  26.233  1.00  0.00    -0.458 OA
BRANCH  26  27
ATOM     27  C   UNL A   1      39.200  23.673  26.783  1.00  0.00     0.338 C 
ATOM     28  O   UNL A   1      39.818  22.665  26.464  1.00  0.00    -0.246 OA
BRANCH  27  29
ATOM     29  C   UNL A   1      39.727  24.891  27.451  1.00  0.00     0.060 A 
ATOM     30  C   UNL A   1      40.332  25.859  26.650  1.00  0.00     0.016 A 
ATOM     31  C   UNL A   1      39.316  25.210  28.745  1.00  0.00     0.016 A 
ATOM     32  C   UNL A   1      40.412  27.190  27.075  1.00  0.00     0.010 A 
ATOM     33  C   UNL A   1      39.367  26.529  29.159  1.00  0.00     0.010 A 
ATOM     34  C   UNL A   1      39.880  27.533  28.316  1.00  0.00    -0.014 A 
BRANCH  34  35
ATOM     35  C   UNL A   1      40.003  28.852  28.937  1.00  0.00     0.031 A 
ATOM     36  C   UNL A   1      39.000  29.947  28.843  1.00  0.00     0.074 A 
ATOM     37  C   UNL A   1      41.092  28.961  29.727  1.00  0.00     0.049 A 
ATOM     38  N   UNL A   1      39.127  31.095  29.424  1.00  0.00    -0.248 NA
ATOM     39  C   UNL A   1      37.789  29.890  28.036  1.00  0.00     0.031 C 
ATOM     40  C   UNL A   1      41.386  29.937  30.760  1.00  0.00     0.029 A 
ATOM     41  N   UNL A   1      42.306  28.286  29.536  1.00  0.00    -0.354 N 
ATOM     42  C   UNL A   1      37.960  31.818  29.259  1.00  0.00     0.074 A 
ATOM     43  C   UNL A   1      37.186  31.048  28.329  1.00  0.00     0.031 C 
ATOM     44  C   UNL A   1      42.722  30.024  30.884  1.00  0.00     0.029 A 
ATOM     45  C   UNL A   1      43.293  29.236  29.799  1.00  0.00     0.049 A 
ATOM     46  H   UNL A   1      42.434  27.346  29.274  1.00  0.00     0.167 HD
ATOM     47  C   UNL A   1      37.771  32.940  30.012  1.00  0.00     0.037 A 
ATOM     48  C   UNL A   1      44.127  29.725  28.834  1.00  0.00     0.037 A 
ATOM     49  C   UNL A   1      39.060  33.386  30.533  1.00  0.00     0.049 A 
ATOM     50  C   UNL A   1      44.050  31.229  28.766  1.00  0.00     0.074 A 
ATOM     51  C   UNL A   1      39.712  33.181  31.735  1.00  0.00     0.029 A 
ATOM     52  N   UNL A   1      40.012  33.865  29.636  1.00  0.00    -0.354 N 
ATOM     53  N   UNL A   1      42.971  31.925  29.010  1.00  0.00    -0.248 NA
ATOM     54  C   UNL A   1      45.220  32.058  28.507  1.00  0.00     0.031 C 
ATOM     55  C   UNL A   1      41.096  33.405  31.513  1.00  0.00     0.029 A 
ATOM     56  C   UNL A   1      41.271  33.807  30.197  1.00  0.00     0.049 A 
ATOM     57  H   UNL A   1      39.815  34.197  28.730  1.00  0.00     0.167 HD
ATOM     58  C   UNL A   1      43.306  33.255  29.058  1.00  0.00     0.074 A 
ATOM     59  C   UNL A   1      44.715  33.288  28.698  1.00  0.00     0.031 C 
ATOM     60  C   UNL A   1      42.444  34.238  29.456  1.00  0.00     0.037 A 
BRANCH  47  61
ATOM     61  C   UNL A   1      36.429  33.489  30.492  1.00  0.00     0.058 A 
ATOM     62  C   UNL A   1      35.555  34.118  29.569  1.00  0.00     0.135 A 
ATOM     63  C   UNL A   1      35.999  33.581  31.833  1.00  0.00     0.135 A 
ATOM     64  F   UNL A   1      35.789  34.077  28.249  1.00  0.00    -0.206 F 
ATOM     65  C   UNL A   1      34.421  34.849  29.949  1.00  0.00     0.059 A 
ATOM     66  C   UNL A   1      34.868  34.303  32.238  1.00  0.00     0.059 A 
ATOM     67  F   UNL A   1      36.652  32.985  32.833  1.00  0.00    -0.206 F 
ATOM     68  C   UNL A   1      34.102  34.964  31.294  1.00  0.00     0.060 A 
BRANCH  68  69
ATOM     69  S   UNL A   1      32.700  35.985  31.792  1.00  0.00     0.124 S 
ATOM     70  O   UNL A   1      33.331  36.954  32.680  1.00  0.00    -0.237 OA
ATOM     71  O   UNL A   1      32.223  36.507  30.516  1.00  0.00    -0.237 OA
ATOM     72  O   UNL A   1      31.802  35.036  32.447  1.00  0.00    -0.744 OA
ENDBRANCH  68  69
ENDBRANCH  47  61
BRANCH  48  73
ATOM     73  C   UNL A   1      44.367  28.814  27.677  1.00  0.00     0.058 A 
ATOM     74  C   UNL A   1      45.246  27.727  27.858  1.00  0.00     0.135 A 
ATOM     75  C   UNL A   1      43.487  28.748  26.588  1.00  0.00     0.135 A 
ATOM     76  F   UNL A   1      46.118  27.735  28.878  1.00  0.00    -0.206 F 
ATOM     77  C   UNL A   1      45.153  26.568  27.091  1.00  0.00     0.059 A 
ATOM     78  C   UNL A   1      43.387  27.594  25.800  1.00  0.00     0.059 A 
ATOM     79  F   UNL A   1      42.613  29.740  26.365  1.00  0.00    -0.206 F 
ATOM     80  C   UNL A   1      44.184  26.488  26.095  1.00  0.00     0.060 A 
BRANCH  80  81
ATOM     81  S   UNL A   1      43.858  24.854  25.371  1.00  0.00     0.124 S 
ATOM     82  O   UNL A   1      42.675  25.112  24.559  1.00  0.00    -0.237 OA
ATOM     83  O   UNL A   1      45.093  24.613  24.630  1.00  0.00    -0.237 OA
ATOM     84  O   UNL A   1      43.666  23.985  26.525  1.00  0.00    -0.744 OA
ENDBRANCH  80  81
ENDBRANCH  48  73
BRANCH  60  85
ATOM     85  C   UNL A   1      42.713  35.718  29.323  1.00  0.00     0.058 A 
ATOM     86  C   UNL A   1      42.120  36.521  28.334  1.00  0.00     0.135 A 
ATOM     87  C   UNL A   1      43.483  36.405  30.291  1.00  0.00     0.135 A 
ATOM     88  F   UNL A   1      41.264  36.006  27.439  1.00  0.00    -0.206 F 
ATOM     89  C   UNL A   1      42.351  37.894  28.251  1.00  0.00     0.059 A 
ATOM     90  C   UNL A   1      43.681  37.782  30.258  1.00  0.00     0.059 A 
ATOM     91  F   UNL A   1      44.064  35.763  31.314  1.00  0.00    -0.206 F 
ATOM     92  C   UNL A   1      43.139  38.516  29.214  1.00  0.00     0.060 A 
BRANCH  92  93
ATOM     93  S   UNL A   1      43.412  40.294  29.143  1.00  0.00     0.124 S 
ATOM     94  O   UNL A   1      44.858  40.357  28.954  1.00  0.00    -0.237 OA
ATOM     95  O   UNL A   1      42.609  40.703  27.994  1.00  0.00    -0.237 OA
ATOM     96  O   UNL A   1      42.921  40.757  30.437  1.00  0.00    -0.744 OA
ENDBRANCH  92  93
ENDBRANCH  60  85
ENDBRANCH  34  35
ENDBRANCH  27  29
ENDBRANCH  26  27
ENDBRANCH  25  26
ENDBRANCH   1  25
TORSDOF 17
ENDMDL
MODEL 3
REMARK VINA RESULT:     -12.8      1.828      2.466
REMARK SMILES Cc1ccc(NC(=O)C[C@@H]2C[NH2+]CCO2)c(C(=O)OCCOC(=O)c2ccc(-c3c4nc(c(-c5c(F)cc(S(=O)(=O)[O-])cc5F)c5ccc([nH]5)c(-c5c(F)cc(S(=O)(=O)[O-])cc5F)c5nc(c(-c6c(F)cc(S(=O)(=O)[O-])cc6F)c6ccc3[nH]6)C=C5)C=C4)cc2)c1
REMARK SMILES IDX 20 1 19 2 17 3 18 4 16 5 1 6 2 7 3 8 91 9 4 10 5 11 6 12
REMARK SMILES IDX 7 13 8 15 9 16 10 17 11 18 15 19 12 20 14 21 13 22 21 25
REMARK SMILES IDX 22 26 23 27 24 28 25 29 26 30 90 31 27 32 89 33 28 34 29 35
REMARK SMILES IDX 30 36 83 37 31 38 88 39 82 40 84 41 32 42 87 43 81 44 80 45
REMARK SMILES IDX 33 47 67 48 46 49 66 50 47 51 50 52 65 53 85 54 48 55 49 56
REMARK SMILES IDX 64 58 86 59 51 60 34 61 35 62 44 63 36 64 37 65 43 66 45 67
REMARK SMILES IDX 38 68 39 69 40 70 41 71 42 72 68 73 69 74 78 75 70 76 71 77
REMARK SMILES IDX 77 78 79 79 72 80 73 81 74 82 75 83 76 84 52 85 53 86 62 87
REMARK SMILES IDX 54 88 55 89 61 90 63 91 56 92 57 93 58 94 59 95 60 96
REMARK H PARENT 6 14 12 23 12 24 84 46 50 57
REMARK Flexibility Score: inf
ROOT
ATOM      1  C   UNL A   1      32.610  30.047  26.996  1.00  0.00     0.275 C 
ENDROOT
BRANCH   1   2
ATOM      2  O   UNL A   1      32.960  28.639  26.857  1.00  0.00    -0.458 OA
BRANCH   2   3
ATOM      3  C   UNL A   1      33.175  28.281  25.559  1.00  0.00     0.340 C 
ATOM      4  O   UNL A   1      33.153  29.069  24.624  1.00  0.00    -0.246 OA
BRANCH   3   5
ATOM      5  C   UNL A   1      33.030  26.856  25.217  1.00  0.00     0.083 A 
ATOM      6  C   UNL A   1      35.712  24.148  25.569  1.00  0.00     0.044 C 
ATOM      7  C   UNL A   1      34.381  24.817  25.437  1.00  0.00    -0.050 A 
ATOM      8  C   UNL A   1      33.212  24.074  25.534  1.00  0.00     0.005 A 
ATOM      9  C   UNL A   1      34.283  26.200  25.268  1.00  0.00     0.021 A 
ATOM     10  C   UNL A   1      31.973  24.709  25.466  1.00  0.00     0.027 A 
ATOM     11  C   UNL A   1      31.841  26.094  25.261  1.00  0.00     0.055 A 
BRANCH  11  12
ATOM     12  N   UNL A   1      30.531  26.625  25.163  1.00  0.00    -0.325 N 
ATOM     13  C   UNL A   1      29.871  27.105  24.053  1.00  0.00     0.227 C 
ATOM     14  H   UNL A   1      30.021  26.654  26.004  1.00  0.00     0.169 HD
ATOM     15  O   UNL A   1      28.652  26.937  23.951  1.00  0.00    -0.275 OA
BRANCH  13  16
ATOM     16  C   UNL A   1      30.578  27.732  22.861  1.00  0.00     0.138 C 
BRANCH  16  17
ATOM     17  C   UNL A   1      30.288  29.189  22.473  1.00  0.00     0.182 C 
ATOM     18  C   UNL A   1      30.021  29.984  23.786  1.00  0.00     0.293 C 
ATOM     19  O   UNL A   1      29.178  29.280  21.582  1.00  0.00    -0.366 OA
ATOM     20  N   UNL A   1      29.495  31.349  23.584  1.00  0.00    -0.342 N 
ATOM     21  C   UNL A   1      28.720  30.607  21.362  1.00  0.00     0.222 C 
ATOM     22  C   UNL A   1      28.323  31.245  22.692  1.00  0.00     0.289 C 
ATOM     23  H   UNL A   1      30.208  31.937  23.153  1.00  0.00     0.346 HD
ATOM     24  H   UNL A   1      29.232  31.769  24.475  1.00  0.00     0.346 HD
ENDBRANCH  16  17
ENDBRANCH  13  16
ENDBRANCH  11  12
ENDBRANCH   3   5
ENDBRANCH   2   3
ENDBRANCH   1   2
BRANCH   1  25
ATOM     25  C   UNL A   1      33.718  30.917  27.621  1.00  0.00     0.275 C 
BRANCH  25  26
ATOM     26  O   UNL A   1      34.851  30.160  28.081  1.00  0.00    -0.458 OA
BRANCH  26  27
ATOM     27  C   UNL A   1      36.021  30.851  28.046  1.00  0.00     0.338 C 
ATOM     28  O   UNL A   1      36.117  32.042  28.315  1.00  0.00    -0.246 OA
BRANCH  27  29
ATOM     29  C   UNL A   1      37.096  29.825  28.053  1.00  0.00     0.060 A 
ATOM     30  C   UNL A   1      38.136  29.970  27.135  1.00  0.00     0.016 A 
ATOM     31  C   UNL A   1      37.243  28.978  29.150  1.00  0.00     0.016 A 
ATOM     32  C   UNL A   1      39.383  29.381  27.370  1.00  0.00     0.010 A 
ATOM     33  C   UNL A   1      38.481  28.415  29.402  1.00  0.00     0.010 A 
ATOM     34  C   UNL A   1      39.568  28.641  28.536  1.00  0.00    -0.014 A 
BRANCH  34  35
ATOM     35  C   UNL A   1      40.772  27.871  28.849  1.00  0.00     0.031 A 
ATOM     36  C   UNL A   1      41.009  26.450  28.475  1.00  0.00     0.074 A 
ATOM     37  C   UNL A   1      41.736  28.616  29.430  1.00  0.00     0.049 A 
ATOM     38  N   UNL A   1      42.096  25.804  28.746  1.00  0.00    -0.248 NA
ATOM     39  C   UNL A   1      40.030  25.593  27.822  1.00  0.00     0.031 C 
ATOM     40  C   UNL A   1      43.153  28.339  29.574  1.00  0.00     0.029 A 
ATOM     41  N   UNL A   1      41.517  29.726  30.257  1.00  0.00    -0.354 N 
ATOM     42  C   UNL A   1      42.052  24.566  28.133  1.00  0.00     0.074 A 
ATOM     43  C   UNL A   1      40.714  24.460  27.626  1.00  0.00     0.031 C 
ATOM     44  C   UNL A   1      43.605  29.017  30.642  1.00  0.00     0.029 A 
ATOM     45  C   UNL A   1      42.435  29.588  31.299  1.00  0.00     0.049 A 
ATOM     46  H   UNL A   1      40.859  30.448  30.131  1.00  0.00     0.167 HD
ATOM     47  C   UNL A   1      43.198  23.828  28.059  1.00  0.00     0.037 A 
ATOM     48  C   UNL A   1      42.061  29.335  32.588  1.00  0.00     0.037 A 
ATOM     49  C   UNL A   1      44.150  24.328  29.047  1.00  0.00     0.049 A 
ATOM     50  C   UNL A   1      42.735  28.092  33.110  1.00  0.00     0.074 A 
ATOM     51  C   UNL A   1      45.201  25.222  28.972  1.00  0.00     0.029 A 
ATOM     52  N   UNL A   1      43.854  24.167  30.399  1.00  0.00    -0.354 N 
ATOM     53  N   UNL A   1      43.040  27.053  32.377  1.00  0.00    -0.248 NA
ATOM     54  C   UNL A   1      43.198  27.976  34.487  1.00  0.00     0.031 C 
ATOM     55  C   UNL A   1      45.443  25.707  30.284  1.00  0.00     0.029 A 
ATOM     56  C   UNL A   1      44.582  25.059  31.158  1.00  0.00     0.049 A 
ATOM     57  H   UNL A   1      43.216  23.509  30.761  1.00  0.00     0.167 HD
ATOM     58  C   UNL A   1      43.818  26.202  33.121  1.00  0.00     0.074 A 
ATOM     59  C   UNL A   1      43.855  26.806  34.444  1.00  0.00     0.031 C 
ATOM     60  C   UNL A   1      44.444  25.103  32.604  1.00  0.00     0.037 A 
BRANCH  47  61
ATOM     61  C   UNL A   1      43.566  22.841  26.953  1.00  0.00     0.058 A 
ATOM     62  C   UNL A   1      42.837  21.632  26.816  1.00  0.00     0.135 A 
ATOM     63  C   UNL A   1      44.691  22.925  26.105  1.00  0.00     0.135 A 
ATOM     64  F   UNL A   1      41.710  21.416  27.510  1.00  0.00    -0.206 F 
ATOM     65  C   UNL A   1      43.241  20.573  25.992  1.00  0.00     0.059 A 
ATOM     66  C   UNL A   1      45.114  21.881  25.270  1.00  0.00     0.059 A 
ATOM     67  F   UNL A   1      45.455  24.017  26.039  1.00  0.00    -0.206 F 
ATOM     68  C   UNL A   1      44.403  20.693  25.244  1.00  0.00     0.060 A 
BRANCH  68  69
ATOM     69  S   UNL A   1      44.976  19.295  24.259  1.00  0.00     0.124 S 
ATOM     70  O   UNL A   1      44.444  19.615  22.939  1.00  0.00    -0.237 OA
ATOM     71  O   UNL A   1      46.426  19.384  24.400  1.00  0.00    -0.237 OA
ATOM     72  O   UNL A   1      44.361  18.142  24.913  1.00  0.00    -0.744 OA
ENDBRANCH  68  69
ENDBRANCH  47  61
BRANCH  48  73
ATOM     73  C   UNL A   1      40.694  29.804  32.959  1.00  0.00     0.058 A 
ATOM     74  C   UNL A   1      40.499  31.183  33.171  1.00  0.00     0.135 A 
ATOM     75  C   UNL A   1      39.551  29.028  32.719  1.00  0.00     0.135 A 
ATOM     76  F   UNL A   1      41.554  31.978  33.414  1.00  0.00    -0.206 F 
ATOM     77  C   UNL A   1      39.256  31.787  33.003  1.00  0.00     0.059 A 
ATOM     78  C   UNL A   1      38.291  29.617  32.556  1.00  0.00     0.059 A 
ATOM     79  F   UNL A   1      39.664  27.711  32.493  1.00  0.00    -0.206 F 
ATOM     80  C   UNL A   1      38.162  31.003  32.644  1.00  0.00     0.060 A 
BRANCH  80  81
ATOM     81  S   UNL A   1      36.661  31.861  32.087  1.00  0.00     0.124 S 
ATOM     82  O   UNL A   1      36.122  32.374  33.341  1.00  0.00    -0.237 OA
ATOM     83  O   UNL A   1      37.218  32.863  31.182  1.00  0.00    -0.237 OA
ATOM     84  O   UNL A   1      35.879  30.821  31.430  1.00  0.00    -0.744 OA
ENDBRANCH  80  81
ENDBRANCH  48  73
BRANCH  60  85
ATOM     85  C   UNL A   1      45.130  24.041  33.429  1.00  0.00     0.058 A 
ATOM     86  C   UNL A   1      46.438  24.177  33.925  1.00  0.00     0.135 A 
ATOM     87  C   UNL A   1      44.425  22.894  33.866  1.00  0.00     0.135 A 
ATOM     88  F   UNL A   1      47.161  25.282  33.688  1.00  0.00    -0.206 F 
ATOM     89  C   UNL A   1      47.040  23.201  34.718  1.00  0.00     0.059 A 
ATOM     90  C   UNL A   1      44.989  21.935  34.702  1.00  0.00     0.059 A 
ATOM     91  F   UNL A   1      43.154  22.669  33.504  1.00  0.00    -0.206 F 
ATOM     92  C   UNL A   1      46.310  22.079  35.097  1.00  0.00     0.060 A 
BRANCH  92  93
ATOM     93  S   UNL A   1      47.061  20.831  36.154  1.00  0.00     0.124 S 
ATOM     94  O   UNL A   1      46.570  21.230  37.469  1.00  0.00    -0.237 OA
ATOM     95  O   UNL A   1      46.513  19.584  35.629  1.00  0.00    -0.237 OA
ATOM     96  O   UNL A   1      48.490  21.021  35.927  1.00  0.00    -0.744 OA
ENDBRANCH  92  93
ENDBRANCH  60  85
ENDBRANCH  34  35
ENDBRANCH  27  29
ENDBRANCH  26  27
ENDBRANCH  25  26
ENDBRANCH   1  25
TORSDOF 17
ENDMDL
