MODEL 1
REMARK VINA RESULT:     -14.3      0.000      0.000
REMARK SMILES Cc1ccc(S(=O)(=O)N2c3ccc(C(=O)OCCOC(=O)c4ccc(-c5c6nc(c(-c7c(F)cc(S(=O)(=O)[O-])cc7F)c7ccc([nH]7)c(-c7c(F)cc(S(=O)(=O)[O-])cc7F)c7nc(c(-c8c(F)cc(S(=O)(=O)[O-])cc8F)c8ccc5[nH]8)C=C7)C=C6)cc4)cc3C[C@H]2C)cc1
REMARK SMILES IDX 18 1 17 2 16 3 14 4 15 5 13 6 9 7 10 8 91 9 11 10 89 11
REMARK SMILES IDX 90 12 92 13 12 14 88 15 6 16 7 17 8 18 5 19 1 20 2 21 3 22
REMARK SMILES IDX 94 23 4 24 93 25 19 26 20 27 21 28 22 29 23 30 87 31 24 32
REMARK SMILES IDX 86 33 25 34 26 35 27 36 80 37 28 38 85 39 79 40 81 41 29 42
REMARK SMILES IDX 84 43 78 44 77 45 30 47 64 48 43 49 63 50 44 51 47 52 62 53
REMARK SMILES IDX 82 54 45 55 46 56 61 58 83 59 48 60 31 61 32 62 41 63 33 64
REMARK SMILES IDX 34 65 40 66 42 67 35 68 36 69 37 70 38 71 39 72 65 73 66 74
REMARK SMILES IDX 75 75 67 76 68 77 74 78 76 79 69 80 70 81 71 82 72 83 73 84
REMARK SMILES IDX 49 85 50 86 59 87 51 88 52 89 58 90 60 91 53 92 54 93 55 94
REMARK SMILES IDX 56 95 57 96
REMARK H PARENT 81 46 47 57
REMARK Flexibility Score: inf
ROOT
ATOM      1  C   UNL A   1      33.833  30.692  27.662  1.00  0.00     0.275 C 
ENDROOT
BRANCH   1   2
ATOM      2  C   UNL A   1      32.932  30.134  26.545  1.00  0.00     0.275 C 
BRANCH   2   3
ATOM      3  O   UNL A   1      33.678  29.471  25.507  1.00  0.00    -0.458 OA
BRANCH   3   4
ATOM      4  C   UNL A   1      32.890  28.717  24.699  1.00  0.00     0.338 C 
ATOM      5  O   UNL A   1      31.894  29.118  24.114  1.00  0.00    -0.246 OA
BRANCH   4   6
ATOM      6  C   UNL A   1      33.268  27.283  24.700  1.00  0.00     0.060 A 
ATOM      7  N   UNL A   1      34.108  23.156  24.803  1.00  0.00    -0.263 N 
ATOM      8  C   UNL A   1      33.771  24.559  24.902  1.00  0.00     0.055 A 
ATOM      9  C   UNL A   1      34.578  22.990  23.361  1.00  0.00     0.101 C 
ATOM     10  C   UNL A   1      33.486  25.265  26.055  1.00  0.00     0.028 A 
ATOM     11  C   UNL A   1      33.805  25.191  23.661  1.00  0.00    -0.021 A 
ATOM     12  C   UNL A   1      33.986  24.180  22.571  1.00  0.00     0.063 C 
ATOM     13  C   UNL A   1      36.112  23.051  23.351  1.00  0.00     0.032 C 
ATOM     14  C   UNL A   1      33.200  26.626  25.944  1.00  0.00     0.018 A 
ATOM     15  C   UNL A   1      33.594  26.562  23.545  1.00  0.00     0.021 A 
BRANCH   7  16
ATOM     16  S   UNL A   1      32.815  22.126  25.305  1.00  0.00     0.264 S 
ATOM     17  O   UNL A   1      31.586  22.603  24.681  1.00  0.00    -0.201 OA
ATOM     18  O   UNL A   1      32.907  21.931  26.728  1.00  0.00    -0.201 OA
BRANCH  16  19
ATOM     19  C   UNL A   1      33.118  20.506  24.607  1.00  0.00     0.088 A 
ATOM     20  C   UNL A   1      34.002  16.528  23.204  1.00  0.00     0.044 C 
ATOM     21  C   UNL A   1      33.704  17.921  23.671  1.00  0.00    -0.051 A 
ATOM     22  C   UNL A   1      34.568  18.560  24.566  1.00  0.00     0.005 A 
ATOM     23  C   UNL A   1      32.569  18.605  23.219  1.00  0.00     0.005 A 
ATOM     24  C   UNL A   1      34.278  19.843  25.034  1.00  0.00     0.022 A 
ATOM     25  C   UNL A   1      32.278  19.894  23.681  1.00  0.00     0.022 A 
ENDBRANCH  16  19
ENDBRANCH   7  16
ENDBRANCH   4   6
ENDBRANCH   3   4
ENDBRANCH   2   3
ENDBRANCH   1   2
BRANCH   1  26
ATOM     26  O   UNL A   1      34.990  29.922  28.059  1.00  0.00    -0.458 OA
BRANCH  26  27
ATOM     27  C   UNL A   1      36.136  30.617  28.296  1.00  0.00     0.338 C 
ATOM     28  O   UNL A   1      36.163  31.752  28.742  1.00  0.00    -0.246 OA
BRANCH  27  29
ATOM     29  C   UNL A   1      37.278  29.662  28.230  1.00  0.00     0.060 A 
ATOM     30  C   UNL A   1      38.338  29.902  27.345  1.00  0.00     0.016 A 
ATOM     31  C   UNL A   1      37.426  28.742  29.271  1.00  0.00     0.016 A 
ATOM     32  C   UNL A   1      39.593  29.341  27.583  1.00  0.00     0.010 A 
ATOM     33  C   UNL A   1      38.682  28.295  29.582  1.00  0.00     0.010 A 
ATOM     34  C   UNL A   1      39.764  28.574  28.732  1.00  0.00    -0.014 A 
BRANCH  34  35
ATOM     35  C   UNL A   1      40.923  27.745  29.015  1.00  0.00     0.031 A 
ATOM     36  C   UNL A   1      41.114  26.370  28.519  1.00  0.00     0.074 A 
ATOM     37  C   UNL A   1      41.909  28.470  29.586  1.00  0.00     0.049 A 
ATOM     38  N   UNL A   1      42.123  25.648  28.861  1.00  0.00    -0.248 NA
ATOM     39  C   UNL A   1      40.208  25.662  27.622  1.00  0.00     0.031 C 
ATOM     40  C   UNL A   1      43.337  28.233  29.666  1.00  0.00     0.029 A 
ATOM     41  N   UNL A   1      41.715  29.624  30.351  1.00  0.00    -0.354 N 
ATOM     42  C   UNL A   1      42.153  24.518  28.071  1.00  0.00     0.074 A 
ATOM     43  C   UNL A   1      40.904  24.545  27.350  1.00  0.00     0.031 C 
ATOM     44  C   UNL A   1      43.848  29.027  30.628  1.00  0.00     0.029 A 
ATOM     45  C   UNL A   1      42.723  29.663  31.305  1.00  0.00     0.049 A 
ATOM     46  H   UNL A   1      40.996  30.287  30.234  1.00  0.00     0.167 HD
ATOM     47  C   UNL A   1      43.302  23.779  28.067  1.00  0.00     0.037 A 
ATOM     48  C   UNL A   1      42.368  29.452  32.608  1.00  0.00     0.037 A 
ATOM     49  C   UNL A   1      44.213  24.295  29.088  1.00  0.00     0.049 A 
ATOM     50  C   UNL A   1      42.997  28.185  33.133  1.00  0.00     0.074 A 
ATOM     51  C   UNL A   1      45.252  25.208  29.031  1.00  0.00     0.029 A 
ATOM     52  N   UNL A   1      43.867  24.163  30.428  1.00  0.00    -0.354 N 
ATOM     53  N   UNL A   1      43.216  27.112  32.420  1.00  0.00    -0.248 NA
ATOM     54  C   UNL A   1      43.545  28.098  34.479  1.00  0.00     0.031 C 
ATOM     55  C   UNL A   1      45.493  25.673  30.347  1.00  0.00     0.029 A 
ATOM     56  C   UNL A   1      44.609  25.034  31.201  1.00  0.00     0.049 A 
ATOM     57  H   UNL A   1      43.190  23.540  30.775  1.00  0.00     0.167 HD
ATOM     58  C   UNL A   1      43.976  26.235  33.157  1.00  0.00     0.074 A 
ATOM     59  C   UNL A   1      44.143  26.896  34.438  1.00  0.00     0.031 C 
ATOM     60  C   UNL A   1      44.465  25.062  32.648  1.00  0.00     0.037 A 
BRANCH  47  61
ATOM     61  C   UNL A   1      43.740  22.761  27.031  1.00  0.00     0.058 A 
ATOM     62  C   UNL A   1      42.985  21.574  26.847  1.00  0.00     0.135 A 
ATOM     63  C   UNL A   1      44.882  22.854  26.212  1.00  0.00     0.135 A 
ATOM     64  F   UNL A   1      41.855  21.344  27.529  1.00  0.00    -0.206 F 
ATOM     65  C   UNL A   1      43.353  20.550  25.975  1.00  0.00     0.059 A 
ATOM     66  C   UNL A   1      45.286  21.825  25.342  1.00  0.00     0.059 A 
ATOM     67  F   UNL A   1      45.637  23.960  26.200  1.00  0.00    -0.206 F 
ATOM     68  C   UNL A   1      44.517  20.671  25.236  1.00  0.00     0.060 A 
BRANCH  68  69
ATOM     69  S   UNL A   1      44.983  19.305  24.155  1.00  0.00     0.124 S 
ATOM     70  O   UNL A   1      46.440  19.318  24.255  1.00  0.00    -0.237 OA
ATOM     71  O   UNL A   1      44.318  18.170  24.786  1.00  0.00    -0.237 OA
ATOM     72  O   UNL A   1      44.448  19.699  22.855  1.00  0.00    -0.744 OA
ENDBRANCH  68  69
ENDBRANCH  47  61
BRANCH  48  73
ATOM     73  C   UNL A   1      40.999  29.969  32.950  1.00  0.00     0.058 A 
ATOM     74  C   UNL A   1      40.839  31.362  33.126  1.00  0.00     0.135 A 
ATOM     75  C   UNL A   1      39.826  29.221  32.764  1.00  0.00     0.135 A 
ATOM     76  F   UNL A   1      41.919  32.143  33.304  1.00  0.00    -0.206 F 
ATOM     77  C   UNL A   1      39.603  31.995  33.003  1.00  0.00     0.059 A 
ATOM     78  C   UNL A   1      38.568  29.836  32.654  1.00  0.00     0.059 A 
ATOM     79  F   UNL A   1      39.889  27.893  32.592  1.00  0.00    -0.206 F 
ATOM     80  C   UNL A   1      38.475  31.227  32.733  1.00  0.00     0.060 A 
BRANCH  80  81
ATOM     81  S   UNL A   1      36.935  32.091  32.326  1.00  0.00     0.124 S 
ATOM     82  O   UNL A   1      37.376  33.031  31.301  1.00  0.00    -0.237 OA
ATOM     83  O   UNL A   1      36.090  30.996  31.856  1.00  0.00    -0.237 OA
ATOM     84  O   UNL A   1      36.531  32.687  33.597  1.00  0.00    -0.744 OA
ENDBRANCH  80  81
ENDBRANCH  48  73
BRANCH  60  85
ATOM     85  C   UNL A   1      44.998  23.884  33.444  1.00  0.00     0.058 A 
ATOM     86  C   UNL A   1      46.295  23.815  33.977  1.00  0.00     0.135 A 
ATOM     87  C   UNL A   1      44.138  22.819  33.830  1.00  0.00     0.135 A 
ATOM     88  F   UNL A   1      47.177  24.811  33.828  1.00  0.00    -0.206 F 
ATOM     89  C   UNL A   1      46.737  22.735  34.743  1.00  0.00     0.059 A 
ATOM     90  C   UNL A   1      44.537  21.771  34.652  1.00  0.00     0.059 A 
ATOM     91  F   UNL A   1      42.857  22.761  33.441  1.00  0.00    -0.206 F 
ATOM     92  C   UNL A   1      45.853  21.717  35.075  1.00  0.00     0.060 A 
BRANCH  92  93
ATOM     93  S   UNL A   1      46.418  20.355  36.102  1.00  0.00     0.124 S 
ATOM     94  O   UNL A   1      45.656  19.241  35.547  1.00  0.00    -0.237 OA
ATOM     95  O   UNL A   1      47.854  20.331  35.838  1.00  0.00    -0.237 OA
ATOM     96  O   UNL A   1      46.044  20.768  37.450  1.00  0.00    -0.744 OA
ENDBRANCH  92  93
ENDBRANCH  60  85
ENDBRANCH  34  35
ENDBRANCH  27  29
ENDBRANCH  26  27
ENDBRANCH   1  26
TORSDOF 16
ENDMDL
MODEL 2
REMARK VINA RESULT:     -14.3      1.137      1.888
REMARK SMILES Cc1ccc(S(=O)(=O)N2c3ccc(C(=O)OCCOC(=O)c4ccc(-c5c6nc(c(-c7c(F)cc(S(=O)(=O)[O-])cc7F)c7ccc([nH]7)c(-c7c(F)cc(S(=O)(=O)[O-])cc7F)c7nc(c(-c8c(F)cc(S(=O)(=O)[O-])cc8F)c8ccc5[nH]8)C=C7)C=C6)cc4)cc3C[C@H]2C)cc1
REMARK SMILES IDX 18 1 17 2 16 3 14 4 15 5 13 6 9 7 10 8 91 9 11 10 89 11
REMARK SMILES IDX 90 12 92 13 12 14 88 15 6 16 7 17 8 18 5 19 1 20 2 21 3 22
REMARK SMILES IDX 94 23 4 24 93 25 19 26 20 27 21 28 22 29 23 30 87 31 24 32
REMARK SMILES IDX 86 33 25 34 26 35 27 36 80 37 28 38 85 39 79 40 81 41 29 42
REMARK SMILES IDX 84 43 78 44 77 45 30 47 64 48 43 49 63 50 44 51 47 52 62 53
REMARK SMILES IDX 82 54 45 55 46 56 61 58 83 59 48 60 31 61 32 62 41 63 33 64
REMARK SMILES IDX 34 65 40 66 42 67 35 68 36 69 37 70 38 71 39 72 65 73 66 74
REMARK SMILES IDX 75 75 67 76 68 77 74 78 76 79 69 80 70 81 71 82 72 83 73 84
REMARK SMILES IDX 49 85 50 86 59 87 51 88 52 89 58 90 60 91 53 92 54 93 55 94
REMARK SMILES IDX 56 95 57 96
REMARK H PARENT 81 46 47 57
REMARK Flexibility Score: inf
ROOT
ATOM      1  C   UNL A   1      33.908  30.558  27.630  1.00  0.00     0.275 C 
ENDROOT
BRANCH   1   2
ATOM      2  C   UNL A   1      33.348  29.938  26.336  1.00  0.00     0.275 C 
BRANCH   2   3
ATOM      3  O   UNL A   1      34.004  28.707  25.979  1.00  0.00    -0.458 OA
BRANCH   3   4
ATOM      4  C   UNL A   1      33.660  28.273  24.741  1.00  0.00     0.338 C 
ATOM      5  O   UNL A   1      33.669  28.956  23.727  1.00  0.00    -0.246 OA
BRANCH   4   6
ATOM      6  C   UNL A   1      33.114  26.894  24.744  1.00  0.00     0.060 A 
ATOM      7  N   UNL A   1      31.752  22.910  24.585  1.00  0.00    -0.263 N 
ATOM      8  C   UNL A   1      32.228  24.273  24.496  1.00  0.00     0.055 A 
ATOM      9  C   UNL A   1      31.676  22.643  26.086  1.00  0.00     0.101 C 
ATOM     10  C   UNL A   1      32.277  25.062  23.364  1.00  0.00     0.028 A 
ATOM     11  C   UNL A   1      32.615  24.771  25.739  1.00  0.00    -0.021 A 
ATOM     12  C   UNL A   1      32.609  23.675  26.760  1.00  0.00     0.063 C 
ATOM     13  C   UNL A   1      30.223  22.861  26.533  1.00  0.00     0.032 C 
ATOM     14  C   UNL A   1      32.755  26.368  23.487  1.00  0.00     0.018 A 
ATOM     15  C   UNL A   1      33.025  26.093  25.889  1.00  0.00     0.021 A 
BRANCH   7  16
ATOM     16  S   UNL A   1      32.716  21.809  23.665  1.00  0.00     0.264 S 
ATOM     17  O   UNL A   1      32.690  22.238  22.272  1.00  0.00    -0.201 OA
ATOM     18  O   UNL A   1      32.367  20.465  24.044  1.00  0.00    -0.201 OA
BRANCH  16  19
ATOM     19  C   UNL A   1      34.412  22.004  24.202  1.00  0.00     0.088 A 
ATOM     20  C   UNL A   1      38.496  22.155  25.572  1.00  0.00     0.044 C 
ATOM     21  C   UNL A   1      37.070  22.122  25.110  1.00  0.00    -0.051 A 
ATOM     22  C   UNL A   1      36.170  21.215  25.680  1.00  0.00     0.005 A 
ATOM     23  C   UNL A   1      36.615  22.995  24.115  1.00  0.00     0.005 A 
ATOM     24  C   UNL A   1      34.850  21.153  25.229  1.00  0.00     0.022 A 
ATOM     25  C   UNL A   1      35.291  22.940  23.665  1.00  0.00     0.022 A 
ENDBRANCH  16  19
ENDBRANCH   7  16
ENDBRANCH   4   6
ENDBRANCH   3   4
ENDBRANCH   2   3
ENDBRANCH   1   2
BRANCH   1  26
ATOM     26  O   UNL A   1      35.024  29.905  28.276  1.00  0.00    -0.458 OA
BRANCH  26  27
ATOM     27  C   UNL A   1      36.185  30.612  28.355  1.00  0.00     0.338 C 
ATOM     28  O   UNL A   1      36.245  31.784  28.689  1.00  0.00    -0.246 OA
BRANCH  27  29
ATOM     29  C   UNL A   1      37.319  29.648  28.287  1.00  0.00     0.060 A 
ATOM     30  C   UNL A   1      38.373  29.873  27.390  1.00  0.00     0.016 A 
ATOM     31  C   UNL A   1      37.470  28.738  29.335  1.00  0.00     0.016 A 
ATOM     32  C   UNL A   1      39.625  29.305  27.621  1.00  0.00     0.010 A 
ATOM     33  C   UNL A   1      38.726  28.284  29.638  1.00  0.00     0.010 A 
ATOM     34  C   UNL A   1      39.801  28.548  28.775  1.00  0.00    -0.014 A 
BRANCH  34  35
ATOM     35  C   UNL A   1      40.958  27.713  29.055  1.00  0.00     0.031 A 
ATOM     36  C   UNL A   1      41.140  26.337  28.560  1.00  0.00     0.074 A 
ATOM     37  C   UNL A   1      41.950  28.434  29.620  1.00  0.00     0.049 A 
ATOM     38  N   UNL A   1      42.146  25.609  28.899  1.00  0.00    -0.248 NA
ATOM     39  C   UNL A   1      40.226  25.632  27.668  1.00  0.00     0.031 C 
ATOM     40  C   UNL A   1      43.377  28.190  29.695  1.00  0.00     0.029 A 
ATOM     41  N   UNL A   1      41.765  29.590  30.384  1.00  0.00    -0.354 N 
ATOM     42  C   UNL A   1      42.167  24.478  28.111  1.00  0.00     0.074 A 
ATOM     43  C   UNL A   1      40.916  24.511  27.395  1.00  0.00     0.031 C 
ATOM     44  C   UNL A   1      43.896  28.982  30.654  1.00  0.00     0.029 A 
ATOM     45  C   UNL A   1      42.777  29.625  31.334  1.00  0.00     0.049 A 
ATOM     46  H   UNL A   1      41.049  30.257  30.269  1.00  0.00     0.167 HD
ATOM     47  C   UNL A   1      43.312  23.733  28.104  1.00  0.00     0.037 A 
ATOM     48  C   UNL A   1      42.426  29.418  32.639  1.00  0.00     0.037 A 
ATOM     49  C   UNL A   1      44.229  24.246  29.120  1.00  0.00     0.049 A 
ATOM     50  C   UNL A   1      43.051  28.149  33.163  1.00  0.00     0.074 A 
ATOM     51  C   UNL A   1      45.273  25.153  29.058  1.00  0.00     0.029 A 
ATOM     52  N   UNL A   1      43.888  24.119  30.462  1.00  0.00    -0.354 N 
ATOM     53  N   UNL A   1      43.261  27.073  32.452  1.00  0.00    -0.248 NA
ATOM     54  C   UNL A   1      43.603  28.061  34.507  1.00  0.00     0.031 C 
ATOM     55  C   UNL A   1      45.522  25.620  30.371  1.00  0.00     0.029 A 
ATOM     56  C   UNL A   1      44.638  24.987  31.230  1.00  0.00     0.049 A 
ATOM     57  H   UNL A   1      43.210  23.499  30.813  1.00  0.00     0.167 HD
ATOM     58  C   UNL A   1      44.020  26.194  33.186  1.00  0.00     0.074 A 
ATOM     59  C   UNL A   1      44.195  26.856  34.466  1.00  0.00     0.031 C 
ATOM     60  C   UNL A   1      44.501  25.017  32.678  1.00  0.00     0.037 A 
BRANCH  47  61
ATOM     61  C   UNL A   1      43.741  22.711  27.067  1.00  0.00     0.058 A 
ATOM     62  C   UNL A   1      42.972  21.534  26.880  1.00  0.00     0.135 A 
ATOM     63  C   UNL A   1      44.885  22.792  26.251  1.00  0.00     0.135 A 
ATOM     64  F   UNL A   1      41.838  21.315  27.561  1.00  0.00    -0.206 F 
ATOM     65  C   UNL A   1      43.331  20.506  26.008  1.00  0.00     0.059 A 
ATOM     66  C   UNL A   1      45.279  21.759  25.381  1.00  0.00     0.059 A 
ATOM     67  F   UNL A   1      45.653  23.889  26.242  1.00  0.00    -0.206 F 
ATOM     68  C   UNL A   1      44.497  20.615  25.272  1.00  0.00     0.060 A 
BRANCH  68  69
ATOM     69  S   UNL A   1      44.949  19.244  24.191  1.00  0.00     0.124 S 
ATOM     70  O   UNL A   1      46.393  19.155  24.396  1.00  0.00    -0.237 OA
ATOM     71  O   UNL A   1      44.166  18.143  24.741  1.00  0.00    -0.237 OA
ATOM     72  O   UNL A   1      44.540  19.702  22.867  1.00  0.00    -0.744 OA
ENDBRANCH  68  69
ENDBRANCH  47  61
BRANCH  48  73
ATOM     73  C   UNL A   1      41.061  29.943  32.986  1.00  0.00     0.058 A 
ATOM     74  C   UNL A   1      40.890  31.343  33.076  1.00  0.00     0.135 A 
ATOM     75  C   UNL A   1      39.892  29.173  32.882  1.00  0.00     0.135 A 
ATOM     76  F   UNL A   1      41.965  32.144  33.173  1.00  0.00    -0.206 F 
ATOM     77  C   UNL A   1      39.644  31.955  32.948  1.00  0.00     0.059 A 
ATOM     78  C   UNL A   1      38.625  29.767  32.768  1.00  0.00     0.059 A 
ATOM     79  F   UNL A   1      39.965  27.838  32.793  1.00  0.00    -0.206 F 
ATOM     80  C   UNL A   1      38.518  31.160  32.759  1.00  0.00     0.060 A 
BRANCH  80  81
ATOM     81  S   UNL A   1      36.957  31.981  32.341  1.00  0.00     0.124 S 
ATOM     82  O   UNL A   1      36.134  30.861  31.899  1.00  0.00    -0.237 OA
ATOM     83  O   UNL A   1      36.579  32.576  33.621  1.00  0.00    -0.237 OA
ATOM     84  O   UNL A   1      37.340  32.934  31.302  1.00  0.00    -0.744 OA
ENDBRANCH  80  81
ENDBRANCH  48  73
BRANCH  60  85
ATOM     85  C   UNL A   1      45.030  23.838  33.474  1.00  0.00     0.058 A 
ATOM     86  C   UNL A   1      46.369  23.693  33.872  1.00  0.00     0.135 A 
ATOM     87  C   UNL A   1      44.143  22.860  34.001  1.00  0.00     0.135 A 
ATOM     88  F   UNL A   1      47.298  24.612  33.581  1.00  0.00    -0.206 F 
ATOM     89  C   UNL A   1      46.812  22.617  34.642  1.00  0.00     0.059 A 
ATOM     90  C   UNL A   1      44.553  21.821  34.830  1.00  0.00     0.059 A 
ATOM     91  F   UNL A   1      42.827  22.883  33.751  1.00  0.00    -0.206 F 
ATOM     92  C   UNL A   1      45.899  21.685  35.116  1.00  0.00     0.060 A 
BRANCH  92  93
ATOM     93  S   UNL A   1      46.472  20.330  36.147  1.00  0.00     0.124 S 
ATOM     94  O   UNL A   1      45.693  20.545  37.363  1.00  0.00    -0.237 OA
ATOM     95  O   UNL A   1      46.105  19.155  35.363  1.00  0.00    -0.237 OA
ATOM     96  O   UNL A   1      47.906  20.573  36.263  1.00  0.00    -0.744 OA
ENDBRANCH  92  93
ENDBRANCH  60  85
ENDBRANCH  34  35
ENDBRANCH  27  29
ENDBRANCH  26  27
ENDBRANCH   1  26
TORSDOF 16
ENDMDL
MODEL 3
REMARK VINA RESULT:     -13.9      4.814     11.394
REMARK SMILES Cc1ccc(S(=O)(=O)N2c3ccc(C(=O)OCCOC(=O)c4ccc(-c5c6nc(c(-c7c(F)cc(S(=O)(=O)[O-])cc7F)c7ccc([nH]7)c(-c7c(F)cc(S(=O)(=O)[O-])cc7F)c7nc(c(-c8c(F)cc(S(=O)(=O)[O-])cc8F)c8ccc5[nH]8)C=C7)C=C6)cc4)cc3C[C@H]2C)cc1
REMARK SMILES IDX 18 1 17 2 16 3 14 4 15 5 13 6 9 7 10 8 91 9 11 10 89 11
REMARK SMILES IDX 90 12 92 13 12 14 88 15 6 16 7 17 8 18 5 19 1 20 2 21 3 22
REMARK SMILES IDX 94 23 4 24 93 25 19 26 20 27 21 28 22 29 23 30 87 31 24 32
REMARK SMILES IDX 86 33 25 34 26 35 27 36 80 37 28 38 85 39 79 40 81 41 29 42
REMARK SMILES IDX 84 43 78 44 77 45 30 47 64 48 43 49 63 50 44 51 47 52 62 53
REMARK SMILES IDX 82 54 45 55 46 56 61 58 83 59 48 60 31 61 32 62 41 63 33 64
REMARK SMILES IDX 34 65 40 66 42 67 35 68 36 69 37 70 38 71 39 72 65 73 66 74
REMARK SMILES IDX 75 75 67 76 68 77 74 78 76 79 69 80 70 81 71 82 72 83 73 84
REMARK SMILES IDX 49 85 50 86 59 87 51 88 52 89 58 90 60 91 53 92 54 93 55 94
REMARK SMILES IDX 56 95 57 96
REMARK H PARENT 81 46 47 57
REMARK Flexibility Score: inf
ROOT
ATOM      1  C   UNL A   1      39.060  22.031  26.004  1.00  0.00     0.275 C 
ENDROOT
BRANCH   1   2
ATOM      2  C   UNL A   1      37.832  21.507  25.236  1.00  0.00     0.275 C 
BRANCH   2   3
ATOM      3  O   UNL A   1      36.622  21.563  26.015  1.00  0.00    -0.458 OA
BRANCH   3   4
ATOM      4  C   UNL A   1      35.509  21.374  25.263  1.00  0.00     0.338 C 
ATOM      5  O   UNL A   1      35.140  20.300  24.808  1.00  0.00    -0.246 OA
BRANCH   4   6
ATOM      6  C   UNL A   1      34.832  22.644  24.906  1.00  0.00     0.060 A 
ATOM      7  N   UNL A   1      32.762  26.118  23.723  1.00  0.00    -0.263 N 
ATOM      8  C   UNL A   1      33.484  24.894  23.989  1.00  0.00     0.055 A 
ATOM      9  C   UNL A   1      32.393  26.638  25.109  1.00  0.00     0.101 C 
ATOM     10  C   UNL A   1      34.208  24.143  23.082  1.00  0.00     0.028 A 
ATOM     11  C   UNL A   1      33.424  24.536  25.335  1.00  0.00    -0.021 A 
ATOM     12  C   UNL A   1      32.461  25.422  26.062  1.00  0.00     0.063 C 
ATOM     13  C   UNL A   1      33.433  27.694  25.512  1.00  0.00     0.032 C 
ATOM     14  C   UNL A   1      34.855  22.994  23.541  1.00  0.00     0.018 A 
ATOM     15  C   UNL A   1      34.125  23.435  25.819  1.00  0.00     0.021 A 
BRANCH   7  16
ATOM     16  S   UNL A   1      31.448  25.887  22.623  1.00  0.00     0.264 S 
ATOM     17  O   UNL A   1      30.702  24.709  23.049  1.00  0.00    -0.201 OA
ATOM     18  O   UNL A   1      31.946  26.015  21.278  1.00  0.00    -0.201 OA
BRANCH  16  19
ATOM     19  C   UNL A   1      30.331  27.270  22.825  1.00  0.00     0.088 A 
ATOM     20  C   UNL A   1      27.780  30.736  23.047  1.00  0.00     0.044 C 
ATOM     21  C   UNL A   1      28.673  29.534  22.994  1.00  0.00    -0.051 A 
ATOM     22  C   UNL A   1      29.967  29.645  22.474  1.00  0.00     0.005 A 
ATOM     23  C   UNL A   1      28.236  28.290  23.465  1.00  0.00     0.005 A 
ATOM     24  C   UNL A   1      30.791  28.521  22.387  1.00  0.00     0.022 A 
ATOM     25  C   UNL A   1      29.062  27.163  23.386  1.00  0.00     0.022 A 
ENDBRANCH  16  19
ENDBRANCH   7  16
ENDBRANCH   4   6
ENDBRANCH   3   4
ENDBRANCH   2   3
ENDBRANCH   1   2
BRANCH   1  26
ATOM     26  O   UNL A   1      38.955  23.306  26.677  1.00  0.00    -0.458 OA
BRANCH  26  27
ATOM     27  C   UNL A   1      40.121  23.954  26.946  1.00  0.00     0.338 C 
ATOM     28  O   UNL A   1      41.215  23.572  26.563  1.00  0.00    -0.246 OA
BRANCH  27  29
ATOM     29  C   UNL A   1      39.787  25.308  27.471  1.00  0.00     0.060 A 
ATOM     30  C   UNL A   1      39.229  25.442  28.750  1.00  0.00     0.016 A 
ATOM     31  C   UNL A   1      40.337  26.417  26.824  1.00  0.00     0.016 A 
ATOM     32  C   UNL A   1      39.351  26.643  29.447  1.00  0.00     0.010 A 
ATOM     33  C   UNL A   1      40.574  27.553  27.551  1.00  0.00     0.010 A 
ATOM     34  C   UNL A   1      40.066  27.679  28.854  1.00  0.00    -0.014 A 
BRANCH  34  35
ATOM     35  C   UNL A   1      40.101  29.050  29.335  1.00  0.00     0.031 A 
ATOM     36  C   UNL A   1      39.018  30.033  29.150  1.00  0.00     0.074 A 
ATOM     37  C   UNL A   1      41.139  29.241  30.178  1.00  0.00     0.049 A 
ATOM     38  N   UNL A   1      39.128  31.259  29.527  1.00  0.00    -0.248 NA
ATOM     39  C   UNL A   1      37.731  29.764  28.519  1.00  0.00     0.031 C 
ATOM     40  C   UNL A   1      41.358  30.244  31.202  1.00  0.00     0.029 A 
ATOM     41  N   UNL A   1      42.333  28.515  30.156  1.00  0.00    -0.354 N 
ATOM     42  C   UNL A   1      37.894  31.868  29.437  1.00  0.00     0.074 A 
ATOM     43  C   UNL A   1      37.065  30.908  28.749  1.00  0.00     0.031 C 
ATOM     44  C   UNL A   1      42.668  30.250  31.519  1.00  0.00     0.029 A 
ATOM     45  C   UNL A   1      43.344  29.368  30.575  1.00  0.00     0.049 A 
ATOM     46  H   UNL A   1      42.437  27.571  29.892  1.00  0.00     0.167 HD
ATOM     47  C   UNL A   1      37.733  33.068  30.069  1.00  0.00     0.037 A 
ATOM     48  C   UNL A   1      44.260  29.769  29.643  1.00  0.00     0.037 A 
ATOM     49  C   UNL A   1      39.026  33.527  30.573  1.00  0.00     0.049 A 
ATOM     50  C   UNL A   1      44.172  31.257  29.415  1.00  0.00     0.074 A 
ATOM     51  C   UNL A   1      39.644  33.394  31.805  1.00  0.00     0.029 A 
ATOM     52  N   UNL A   1      40.015  33.885  29.664  1.00  0.00    -0.354 N 
ATOM     53  N   UNL A   1      43.068  31.954  29.467  1.00  0.00    -0.248 NA
ATOM     54  C   UNL A   1      45.359  32.082  29.243  1.00  0.00     0.031 C 
ATOM     55  C   UNL A   1      41.031  33.618  31.620  1.00  0.00     0.029 A 
ATOM     56  C   UNL A   1      41.250  33.897  30.281  1.00  0.00     0.049 A 
ATOM     57  H   UNL A   1      39.857  34.098  28.717  1.00  0.00     0.167 HD
ATOM     58  C   UNL A   1      43.381  33.291  29.411  1.00  0.00     0.074 A 
ATOM     59  C   UNL A   1      44.824  33.313  29.260  1.00  0.00     0.031 C 
ATOM     60  C   UNL A   1      42.449  34.284  29.553  1.00  0.00     0.037 A 
BRANCH  47  61
ATOM     61  C   UNL A   1      36.427  33.736  30.460  1.00  0.00     0.058 A 
ATOM     62  C   UNL A   1      35.539  34.189  29.450  1.00  0.00     0.135 A 
ATOM     63  C   UNL A   1      35.991  33.993  31.773  1.00  0.00     0.135 A 
ATOM     64  F   UNL A   1      35.794  33.998  28.149  1.00  0.00    -0.206 F 
ATOM     65  C   UNL A   1      34.357  34.881  29.714  1.00  0.00     0.059 A 
ATOM     66  C   UNL A   1      34.815  34.708  32.064  1.00  0.00     0.059 A 
ATOM     67  F   UNL A   1      36.673  33.535  32.832  1.00  0.00    -0.206 F 
ATOM     68  C   UNL A   1      34.007  35.156  31.024  1.00  0.00     0.060 A 
BRANCH  68  69
ATOM     69  S   UNL A   1      32.495  36.093  31.320  1.00  0.00     0.124 S 
ATOM     70  O   UNL A   1      33.011  37.330  31.901  1.00  0.00    -0.237 OA
ATOM     71  O   UNL A   1      31.936  36.212  29.978  1.00  0.00    -0.237 OA
ATOM     72  O   UNL A   1      31.741  35.245  32.239  1.00  0.00    -0.744 OA
ENDBRANCH  68  69
ENDBRANCH  47  61
BRANCH  48  73
ATOM     73  C   UNL A   1      44.549  28.728  28.597  1.00  0.00     0.058 A 
ATOM     74  C   UNL A   1      44.042  28.937  27.294  1.00  0.00     0.135 A 
ATOM     75  C   UNL A   1      45.559  27.763  28.730  1.00  0.00     0.135 A 
ATOM     76  F   UNL A   1      43.076  29.849  27.090  1.00  0.00    -0.206 F 
ATOM     77  C   UNL A   1      44.586  28.316  26.171  1.00  0.00     0.059 A 
ATOM     78  C   UNL A   1      46.111  27.113  27.615  1.00  0.00     0.059 A 
ATOM     79  F   UNL A   1      46.093  27.503  29.932  1.00  0.00    -0.206 F 
ATOM     80  C   UNL A   1      45.645  27.429  26.337  1.00  0.00     0.060 A 
BRANCH  80  81
ATOM     81  S   UNL A   1      46.498  26.836  24.851  1.00  0.00     0.124 S 
ATOM     82  O   UNL A   1      46.190  27.885  23.885  1.00  0.00    -0.237 OA
ATOM     83  O   UNL A   1      47.886  26.782  25.303  1.00  0.00    -0.237 OA
ATOM     84  O   UNL A   1      45.876  25.540  24.595  1.00  0.00    -0.744 OA
ENDBRANCH  80  81
ENDBRANCH  48  73
BRANCH  60  85
ATOM     85  C   UNL A   1      42.614  35.742  29.167  1.00  0.00     0.058 A 
ATOM     86  C   UNL A   1      43.382  36.667  29.892  1.00  0.00     0.135 A 
ATOM     87  C   UNL A   1      42.105  36.229  27.932  1.00  0.00     0.135 A 
ATOM     88  F   UNL A   1      44.049  36.321  31.000  1.00  0.00    -0.206 F 
ATOM     89  C   UNL A   1      43.549  37.991  29.483  1.00  0.00     0.059 A 
ATOM     90  C   UNL A   1      42.322  37.524  27.470  1.00  0.00     0.059 A 
ATOM     91  F   UNL A   1      41.389  35.458  27.102  1.00  0.00    -0.206 F 
ATOM     92  C   UNL A   1      43.015  38.412  28.272  1.00  0.00     0.060 A 
BRANCH  92  93
ATOM     93  S   UNL A   1      43.277  40.104  27.730  1.00  0.00     0.124 S 
ATOM     94  O   UNL A   1      44.281  40.560  28.686  1.00  0.00    -0.237 OA
ATOM     95  O   UNL A   1      43.745  39.931  26.358  1.00  0.00    -0.237 OA
ATOM     96  O   UNL A   1      41.957  40.712  27.861  1.00  0.00    -0.744 OA
ENDBRANCH  92  93
ENDBRANCH  60  85
ENDBRANCH  34  35
ENDBRANCH  27  29
ENDBRANCH  26  27
ENDBRANCH   1  26
TORSDOF 16
ENDMDL
