MODEL 1
REMARK VINA RESULT:     -11.3      0.000      0.000
REMARK SMILES CCOC(=O)CS[C@H]1CC(=O)N(c2ccc(C(=O)OCCOC(=O)c3ccc(-c4c5nc(c(-c6c(F)cc(S(=O)(=O)[O-])cc6F)c6ccc([nH]6)c(-c6c(F)cc(S(=O)(=O)[O-])cc6F)c6nc(c(-c7c(F)cc(S(=O)(=O)[O-])cc7F)c7ccc4[nH]7)C=C6)C=C5)cc3)c(O)c2)C1=O
REMARK SMILES IDX 19 1 17 2 18 3 16 4 13 5 14 6 93 7 15 8 91 9 12 10 8 11 9 12
REMARK SMILES IDX 94 13 10 14 95 15 11 16 7 17 6 18 4 19 5 20 3 21 2 22 1 23
REMARK SMILES IDX 92 24 20 26 21 27 22 28 23 29 24 30 25 31 26 32 90 33 27 34
REMARK SMILES IDX 89 35 28 36 29 37 30 38 83 39 31 40 88 41 82 42 84 43 32 44
REMARK SMILES IDX 87 45 81 46 80 47 33 49 67 50 46 51 66 52 47 53 50 54 65 55
REMARK SMILES IDX 85 56 48 57 49 58 64 60 86 61 51 62 34 63 35 64 44 65 36 66
REMARK SMILES IDX 37 67 43 68 45 69 38 70 39 71 40 72 41 73 42 74 68 75 69 76
REMARK SMILES IDX 78 77 70 78 71 79 77 80 79 81 72 82 73 83 74 84 75 85 76 86
REMARK SMILES IDX 52 87 53 88 62 89 54 90 55 91 61 92 63 93 56 94 57 95 58 96
REMARK SMILES IDX 59 97 60 98
REMARK H PARENT 92 25 84 48 50 59
REMARK Flexibility Score: inf
ROOT
ATOM      1  O   UNL A   1      38.599  21.689  25.584  1.00  0.00    -0.458 OA
ENDROOT
BRANCH   1   2
ATOM      2  C   UNL A   1      37.746  20.786  25.041  1.00  0.00     0.342 C 
ATOM      3  O   UNL A   1      37.911  19.574  24.995  1.00  0.00    -0.246 OA
BRANCH   2   4
ATOM      4  C   UNL A   1      36.520  21.439  24.537  1.00  0.00     0.101 A 
ATOM      5  C   UNL A   1      34.251  22.970  23.837  1.00  0.00     0.055 A 
ATOM      6  C   UNL A   1      35.537  23.445  23.583  1.00  0.00     0.028 A 
ATOM      7  C   UNL A   1      34.112  21.689  24.395  1.00  0.00     0.074 A 
ATOM      8  C   UNL A   1      36.648  22.715  23.989  1.00  0.00     0.022 A 
ATOM      9  C   UNL A   1      35.241  20.906  24.691  1.00  0.00     0.132 A 
BRANCH   5  10
ATOM     10  N   UNL A   1      33.155  23.836  23.608  1.00  0.00    -0.249 N 
ATOM     11  C   UNL A   1      31.594  25.540  23.974  1.00  0.00     0.146 C 
ATOM     12  C   UNL A   1      31.522  25.100  22.521  1.00  0.00     0.125 C 
ATOM     13  C   UNL A   1      32.435  24.454  24.604  1.00  0.00     0.247 C 
ATOM     14  C   UNL A   1      32.743  24.245  22.359  1.00  0.00     0.235 C 
ATOM     15  O   UNL A   1      32.467  24.243  25.810  1.00  0.00    -0.273 OA
ATOM     16  O   UNL A   1      33.172  23.905  21.267  1.00  0.00    -0.274 OA
BRANCH  11  17
ATOM     17  S   UNL A   1      32.331  27.220  24.023  1.00  0.00    -0.136 SA
BRANCH  17  18
ATOM     18  C   UNL A   1      30.904  28.311  24.338  1.00  0.00     0.192 C 
BRANCH  18  19
ATOM     19  C   UNL A   1      30.358  28.867  23.040  1.00  0.00     0.315 C 
ATOM     20  O   UNL A   1      30.413  28.279  21.967  1.00  0.00    -0.251 OA
BRANCH  19  21
ATOM     21  O   UNL A   1      29.794  30.089  23.236  1.00  0.00    -0.465 OA
BRANCH  21  22
ATOM     22  C   UNL A   1      28.361  30.128  23.296  1.00  0.00     0.229 C 
ATOM     23  C   UNL A   1      27.880  31.552  23.095  1.00  0.00     0.049 C 
ENDBRANCH  21  22
ENDBRANCH  19  21
ENDBRANCH  18  19
ENDBRANCH  17  18
ENDBRANCH  11  17
ENDBRANCH   5  10
BRANCH   9  24
ATOM     24  O   UNL A   1      35.018  19.640  25.156  1.00  0.00    -0.507 OA
ATOM     25  H   UNL A   1      34.685  19.511  26.022  1.00  0.00     0.293 HD
ENDBRANCH   9  24
ENDBRANCH   2   4
ENDBRANCH   1   2
BRANCH   1  26
ATOM     26  C   UNL A   1      39.736  21.123  26.279  1.00  0.00     0.275 C 
BRANCH  26  27
ATOM     27  C   UNL A   1      40.768  22.189  26.663  1.00  0.00     0.275 C 
BRANCH  27  28
ATOM     28  O   UNL A   1      40.223  23.518  26.540  1.00  0.00    -0.458 OA
BRANCH  28  29
ATOM     29  C   UNL A   1      41.130  24.511  26.659  1.00  0.00     0.338 C 
ATOM     30  O   UNL A   1      42.240  24.552  26.153  1.00  0.00    -0.246 OA
BRANCH  29  31
ATOM     31  C   UNL A   1      40.577  25.654  27.402  1.00  0.00     0.060 A 
ATOM     32  C   UNL A   1      41.218  26.874  27.254  1.00  0.00     0.016 A 
ATOM     33  C   UNL A   1      39.661  25.477  28.435  1.00  0.00     0.016 A 
ATOM     34  C   UNL A   1      41.136  27.833  28.256  1.00  0.00     0.010 A 
ATOM     35  C   UNL A   1      39.442  26.523  29.347  1.00  0.00     0.010 A 
ATOM     36  C   UNL A   1      40.240  27.683  29.323  1.00  0.00    -0.014 A 
BRANCH  36  37
ATOM     37  C   UNL A   1      40.200  28.702  30.424  1.00  0.00     0.031 A 
ATOM     38  C   UNL A   1      41.186  28.631  31.574  1.00  0.00     0.074 A 
ATOM     39  C   UNL A   1      39.316  29.724  30.387  1.00  0.00     0.049 A 
ATOM     40  N   UNL A   1      41.212  29.319  32.689  1.00  0.00    -0.248 NA
ATOM     41  C   UNL A   1      42.270  27.641  31.466  1.00  0.00     0.031 C 
ATOM     42  C   UNL A   1      38.325  29.957  29.333  1.00  0.00     0.029 A 
ATOM     43  N   UNL A   1      39.114  30.772  31.255  1.00  0.00    -0.354 N 
ATOM     44  C   UNL A   1      42.268  28.803  33.437  1.00  0.00     0.074 A 
ATOM     45  C   UNL A   1      42.845  27.730  32.658  1.00  0.00     0.031 C 
ATOM     46  C   UNL A   1      37.669  31.099  29.582  1.00  0.00     0.029 A 
ATOM     47  C   UNL A   1      38.106  31.626  30.867  1.00  0.00     0.049 A 
ATOM     48  H   UNL A   1      39.642  30.900  32.076  1.00  0.00     0.167 HD
ATOM     49  C   UNL A   1      42.720  29.188  34.657  1.00  0.00     0.037 A 
ATOM     50  C   UNL A   1      37.556  32.688  31.486  1.00  0.00     0.037 A 
ATOM     51  C   UNL A   1      42.190  30.306  35.400  1.00  0.00     0.049 A 
ATOM     52  C   UNL A   1      38.067  33.092  32.841  1.00  0.00     0.074 A 
ATOM     53  C   UNL A   1      42.593  30.787  36.634  1.00  0.00     0.029 A 
ATOM     54  N   UNL A   1      41.163  31.132  34.967  1.00  0.00    -0.354 N 
ATOM     55  N   UNL A   1      39.023  32.550  33.557  1.00  0.00    -0.248 NA
ATOM     56  C   UNL A   1      37.419  34.246  33.476  1.00  0.00     0.031 C 
ATOM     57  C   UNL A   1      41.782  31.877  36.968  1.00  0.00     0.029 A 
ATOM     58  C   UNL A   1      40.913  32.113  35.915  1.00  0.00     0.049 A 
ATOM     59  H   UNL A   1      40.682  31.036  34.114  1.00  0.00     0.167 HD
ATOM     60  C   UNL A   1      39.110  33.317  34.714  1.00  0.00     0.074 A 
ATOM     61  C   UNL A   1      38.121  34.368  34.592  1.00  0.00     0.031 C 
ATOM     62  C   UNL A   1      39.935  33.163  35.780  1.00  0.00     0.037 A 
BRANCH  49  63
ATOM     63  C   UNL A   1      43.827  28.381  35.288  1.00  0.00     0.058 A 
ATOM     64  C   UNL A   1      45.182  28.703  35.122  1.00  0.00     0.135 A 
ATOM     65  C   UNL A   1      43.517  27.285  36.113  1.00  0.00     0.135 A 
ATOM     66  F   UNL A   1      45.541  29.730  34.334  1.00  0.00    -0.206 F 
ATOM     67  C   UNL A   1      46.190  27.953  35.722  1.00  0.00     0.059 A 
ATOM     68  C   UNL A   1      44.505  26.541  36.750  1.00  0.00     0.059 A 
ATOM     69  F   UNL A   1      42.237  26.931  36.313  1.00  0.00    -0.206 F 
ATOM     70  C   UNL A   1      45.842  26.873  36.536  1.00  0.00     0.060 A 
BRANCH  70  71
ATOM     71  S   UNL A   1      47.159  25.914  37.315  1.00  0.00     0.124 S 
ATOM     72  O   UNL A   1      48.350  26.558  36.770  1.00  0.00    -0.237 OA
ATOM     73  O   UNL A   1      46.911  26.139  38.735  1.00  0.00    -0.237 OA
ATOM     74  O   UNL A   1      46.914  24.553  36.847  1.00  0.00    -0.744 OA
ENDBRANCH  70  71
ENDBRANCH  49  63
BRANCH  50  75
ATOM     75  C   UNL A   1      36.426  33.422  30.848  1.00  0.00     0.058 A 
ATOM     76  C   UNL A   1      36.634  34.248  29.733  1.00  0.00     0.135 A 
ATOM     77  C   UNL A   1      35.117  33.311  31.342  1.00  0.00     0.135 A 
ATOM     78  F   UNL A   1      37.868  34.397  29.228  1.00  0.00    -0.206 F 
ATOM     79  C   UNL A   1      35.589  34.954  29.143  1.00  0.00     0.059 A 
ATOM     80  C   UNL A   1      34.050  33.978  30.748  1.00  0.00     0.059 A 
ATOM     81  F   UNL A   1      34.859  32.524  32.397  1.00  0.00    -0.206 F 
ATOM     82  C   UNL A   1      34.299  34.809  29.658  1.00  0.00     0.060 A 
BRANCH  82  83
ATOM     83  S   UNL A   1      32.942  35.697  28.866  1.00  0.00     0.124 S 
ATOM     84  O   UNL A   1      32.153  36.117  30.018  1.00  0.00    -0.237 OA
ATOM     85  O   UNL A   1      33.644  36.759  28.151  1.00  0.00    -0.237 OA
ATOM     86  O   UNL A   1      32.326  34.683  28.016  1.00  0.00    -0.744 OA
ENDBRANCH  82  83
ENDBRANCH  50  75
BRANCH  62  87
ATOM     87  C   UNL A   1      39.844  34.197  36.870  1.00  0.00     0.058 A 
ATOM     88  C   UNL A   1      40.603  35.377  36.845  1.00  0.00     0.135 A 
ATOM     89  C   UNL A   1      38.980  33.997  37.959  1.00  0.00     0.135 A 
ATOM     90  F   UNL A   1      41.448  35.617  35.829  1.00  0.00    -0.206 F 
ATOM     91  C   UNL A   1      40.548  36.299  37.886  1.00  0.00     0.059 A 
ATOM     92  C   UNL A   1      38.883  34.921  38.995  1.00  0.00     0.059 A 
ATOM     93  F   UNL A   1      38.220  32.893  38.027  1.00  0.00    -0.206 F 
ATOM     94  C   UNL A   1      39.689  36.058  38.961  1.00  0.00     0.060 A 
BRANCH  94  95
ATOM     95  S   UNL A   1      39.635  37.253  40.312  1.00  0.00     0.124 S 
ATOM     96  O   UNL A   1      41.054  37.462  40.576  1.00  0.00    -0.237 OA
ATOM     97  O   UNL A   1      38.928  38.378  39.709  1.00  0.00    -0.237 OA
ATOM     98  O   UNL A   1      38.900  36.548  41.359  1.00  0.00    -0.744 OA
ENDBRANCH  94  95
ENDBRANCH  62  87
ENDBRANCH  36  37
ENDBRANCH  29  31
ENDBRANCH  28  29
ENDBRANCH  27  28
ENDBRANCH  26  27
ENDBRANCH   1  26
TORSDOF 21
ENDMDL
MODEL 2
REMARK VINA RESULT:     -10.9      5.110     13.004
REMARK SMILES CCOC(=O)CS[C@H]1CC(=O)N(c2ccc(C(=O)OCCOC(=O)c3ccc(-c4c5nc(c(-c6c(F)cc(S(=O)(=O)[O-])cc6F)c6ccc([nH]6)c(-c6c(F)cc(S(=O)(=O)[O-])cc6F)c6nc(c(-c7c(F)cc(S(=O)(=O)[O-])cc7F)c7ccc4[nH]7)C=C6)C=C5)cc3)c(O)c2)C1=O
REMARK SMILES IDX 19 1 17 2 18 3 16 4 13 5 14 6 93 7 15 8 91 9 12 10 8 11 9 12
REMARK SMILES IDX 94 13 10 14 95 15 11 16 7 17 6 18 4 19 5 20 3 21 2 22 1 23
REMARK SMILES IDX 92 24 20 26 21 27 22 28 23 29 24 30 25 31 26 32 90 33 27 34
REMARK SMILES IDX 89 35 28 36 29 37 30 38 83 39 31 40 88 41 82 42 84 43 32 44
REMARK SMILES IDX 87 45 81 46 80 47 33 49 67 50 46 51 66 52 47 53 50 54 65 55
REMARK SMILES IDX 85 56 48 57 49 58 64 60 86 61 51 62 34 63 35 64 44 65 36 66
REMARK SMILES IDX 37 67 43 68 45 69 38 70 39 71 40 72 41 73 42 74 68 75 69 76
REMARK SMILES IDX 78 77 70 78 71 79 77 80 79 81 72 82 73 83 74 84 75 85 76 86
REMARK SMILES IDX 52 87 53 88 62 89 54 90 55 91 61 92 63 93 56 94 57 95 58 96
REMARK SMILES IDX 59 97 60 98
REMARK H PARENT 92 25 84 48 50 59
REMARK Flexibility Score: inf
ROOT
ATOM      1  O   UNL A   1      35.036  34.268  31.049  1.00  0.00    -0.458 OA
ENDROOT
BRANCH   1   2
ATOM      2  C   UNL A   1      34.801  33.507  32.146  1.00  0.00     0.342 C 
ATOM      3  O   UNL A   1      33.754  32.934  32.416  1.00  0.00    -0.246 OA
BRANCH   2   4
ATOM      4  C   UNL A   1      36.009  33.392  32.990  1.00  0.00     0.101 A 
ATOM      5  C   UNL A   1      38.299  32.786  34.530  1.00  0.00     0.055 A 
ATOM      6  C   UNL A   1      38.305  32.616  33.147  1.00  0.00     0.028 A 
ATOM      7  C   UNL A   1      37.146  33.321  35.130  1.00  0.00     0.074 A 
ATOM      8  C   UNL A   1      37.155  32.854  32.404  1.00  0.00     0.022 A 
ATOM      9  C   UNL A   1      36.029  33.673  34.354  1.00  0.00     0.132 A 
BRANCH   5  10
ATOM     10  N   UNL A   1      39.413  32.326  35.272  1.00  0.00    -0.249 N 
ATOM     11  C   UNL A   1      40.908  30.841  36.290  1.00  0.00     0.146 C 
ATOM     12  C   UNL A   1      41.518  32.233  36.275  1.00  0.00     0.125 C 
ATOM     13  C   UNL A   1      39.469  31.111  35.913  1.00  0.00     0.247 C 
ATOM     14  C   UNL A   1      40.613  32.996  35.355  1.00  0.00     0.235 C 
ATOM     15  O   UNL A   1      38.559  30.318  36.124  1.00  0.00    -0.273 OA
ATOM     16  O   UNL A   1      40.910  34.087  34.890  1.00  0.00    -0.274 OA
BRANCH  11  17
ATOM     17  S   UNL A   1      41.839  29.799  35.101  1.00  0.00    -0.136 SA
BRANCH  17  18
ATOM     18  C   UNL A   1      41.837  28.149  35.877  1.00  0.00     0.192 C 
BRANCH  18  19
ATOM     19  C   UNL A   1      41.876  27.062  34.823  1.00  0.00     0.315 C 
ATOM     20  O   UNL A   1      42.594  27.096  33.831  1.00  0.00    -0.251 OA
BRANCH  19  21
ATOM     21  O   UNL A   1      41.024  26.050  35.140  1.00  0.00    -0.465 OA
BRANCH  21  22
ATOM     22  C   UNL A   1      41.514  25.070  36.066  1.00  0.00     0.229 C 
ATOM     23  C   UNL A   1      42.188  23.943  35.307  1.00  0.00     0.049 C 
ENDBRANCH  21  22
ENDBRANCH  19  21
ENDBRANCH  18  19
ENDBRANCH  17  18
ENDBRANCH  11  17
ENDBRANCH   5  10
BRANCH   9  24
ATOM     24  O   UNL A   1      34.980  34.262  35.004  1.00  0.00    -0.507 OA
ATOM     25  H   UNL A   1      34.377  33.737  35.492  1.00  0.00     0.293 HD
ENDBRANCH   9  24
ENDBRANCH   2   4
ENDBRANCH   1   2
BRANCH   1  26
ATOM     26  C   UNL A   1      33.967  34.289  30.073  1.00  0.00     0.275 C 
BRANCH  26  27
ATOM     27  C   UNL A   1      34.242  33.347  28.895  1.00  0.00     0.275 C 
BRANCH  27  28
ATOM     28  O   UNL A   1      34.615  32.031  29.348  1.00  0.00    -0.458 OA
BRANCH  28  29
ATOM     29  C   UNL A   1      34.526  31.066  28.408  1.00  0.00     0.338 C 
ATOM     30  O   UNL A   1      33.645  30.937  27.573  1.00  0.00    -0.246 OA
BRANCH  29  31
ATOM     31  C   UNL A   1      35.718  30.204  28.412  1.00  0.00     0.060 A 
ATOM     32  C   UNL A   1      36.161  29.744  29.643  1.00  0.00     0.016 A 
ATOM     33  C   UNL A   1      36.547  30.100  27.299  1.00  0.00     0.016 A 
ATOM     34  C   UNL A   1      37.496  29.404  29.823  1.00  0.00     0.010 A 
ATOM     35  C   UNL A   1      37.842  29.580  27.451  1.00  0.00     0.010 A 
ATOM     36  C   UNL A   1      38.367  29.306  28.730  1.00  0.00    -0.014 A 
BRANCH  36  37
ATOM     37  C   UNL A   1      39.817  28.989  28.946  1.00  0.00     0.031 A 
ATOM     38  C   UNL A   1      40.747  30.017  29.558  1.00  0.00     0.074 A 
ATOM     39  C   UNL A   1      40.309  27.767  28.641  1.00  0.00     0.049 A 
ATOM     40  N   UNL A   1      42.052  29.988  29.680  1.00  0.00    -0.248 NA
ATOM     41  C   UNL A   1      40.134  31.249  30.079  1.00  0.00     0.031 C 
ATOM     42  C   UNL A   1      39.539  26.653  28.079  1.00  0.00     0.029 A 
ATOM     43  N   UNL A   1      41.576  27.247  28.772  1.00  0.00    -0.354 N 
ATOM     44  C   UNL A   1      42.416  31.216  30.228  1.00  0.00     0.074 A 
ATOM     45  C   UNL A   1      41.197  31.975  30.397  1.00  0.00     0.031 C 
ATOM     46  C   UNL A   1      40.327  25.575  27.972  1.00  0.00     0.029 A 
ATOM     47  C   UNL A   1      41.686  25.941  28.350  1.00  0.00     0.049 A 
ATOM     48  H   UNL A   1      42.333  27.760  29.136  1.00  0.00     0.167 HD
ATOM     49  C   UNL A   1      43.649  31.670  30.567  1.00  0.00     0.037 A 
ATOM     50  C   UNL A   1      42.757  25.134  28.230  1.00  0.00     0.037 A 
ATOM     51  C   UNL A   1      44.855  30.884  30.467  1.00  0.00     0.049 A 
ATOM     52  C   UNL A   1      44.115  25.660  28.603  1.00  0.00     0.074 A 
ATOM     53  C   UNL A   1      46.148  31.247  30.803  1.00  0.00     0.029 A 
ATOM     54  N   UNL A   1      44.914  29.571  30.023  1.00  0.00    -0.354 N 
ATOM     55  N   UNL A   1      44.444  26.845  29.059  1.00  0.00    -0.248 NA
ATOM     56  C   UNL A   1      45.249  24.743  28.436  1.00  0.00     0.031 C 
ATOM     57  C   UNL A   1      46.996  30.169  30.522  1.00  0.00     0.029 A 
ATOM     58  C   UNL A   1      46.222  29.113  30.068  1.00  0.00     0.049 A 
ATOM     59  H   UNL A   1      44.141  29.042  29.721  1.00  0.00     0.167 HD
ATOM     60  C   UNL A   1      45.819  26.805  29.262  1.00  0.00     0.074 A 
ATOM     61  C   UNL A   1      46.255  25.473  28.894  1.00  0.00     0.031 C 
ATOM     62  C   UNL A   1      46.645  27.782  29.712  1.00  0.00     0.037 A 
BRANCH  49  63
ATOM     63  C   UNL A   1      43.771  33.093  31.051  1.00  0.00     0.058 A 
ATOM     64  C   UNL A   1      43.973  34.171  30.175  1.00  0.00     0.135 A 
ATOM     65  C   UNL A   1      43.638  33.386  32.419  1.00  0.00     0.135 A 
ATOM     66  F   UNL A   1      44.122  33.953  28.858  1.00  0.00    -0.206 F 
ATOM     67  C   UNL A   1      44.071  35.480  30.638  1.00  0.00     0.059 A 
ATOM     68  C   UNL A   1      43.700  34.690  32.902  1.00  0.00     0.059 A 
ATOM     69  F   UNL A   1      43.439  32.397  33.305  1.00  0.00    -0.206 F 
ATOM     70  C   UNL A   1      43.933  35.730  32.005  1.00  0.00     0.060 A 
BRANCH  70  71
ATOM     71  S   UNL A   1      44.054  37.434  32.591  1.00  0.00     0.124 S 
ATOM     72  O   UNL A   1      45.426  37.477  33.084  1.00  0.00    -0.237 OA
ATOM     73  O   UNL A   1      43.792  38.201  31.377  1.00  0.00    -0.237 OA
ATOM     74  O   UNL A   1      43.017  37.517  33.616  1.00  0.00    -0.744 OA
ENDBRANCH  70  71
ENDBRANCH  49  63
BRANCH  50  75
ATOM     75  C   UNL A   1      42.596  23.752  27.695  1.00  0.00     0.058 A 
ATOM     76  C   UNL A   1      42.536  23.510  26.315  1.00  0.00     0.135 A 
ATOM     77  C   UNL A   1      42.500  22.647  28.555  1.00  0.00     0.135 A 
ATOM     78  F   UNL A   1      42.613  24.532  25.449  1.00  0.00    -0.206 F 
ATOM     79  C   UNL A   1      42.366  22.224  25.806  1.00  0.00     0.059 A 
ATOM     80  C   UNL A   1      42.366  21.350  28.071  1.00  0.00     0.059 A 
ATOM     81  F   UNL A   1      42.567  22.820  29.884  1.00  0.00    -0.206 F 
ATOM     82  C   UNL A   1      42.284  21.150  26.695  1.00  0.00     0.060 A 
BRANCH  82  83
ATOM     83  S   UNL A   1      42.101  19.483  26.028  1.00  0.00     0.124 S 
ATOM     84  O   UNL A   1      42.921  19.556  24.825  1.00  0.00    -0.237 OA
ATOM     85  O   UNL A   1      42.628  18.658  27.112  1.00  0.00    -0.237 OA
ATOM     86  O   UNL A   1      40.663  19.366  25.806  1.00  0.00    -0.744 OA
ENDBRANCH  82  83
ENDBRANCH  50  75
BRANCH  62  87
ATOM     87  C   UNL A   1      48.095  27.423  29.892  1.00  0.00     0.058 A 
ATOM     88  C   UNL A   1      48.575  26.816  31.063  1.00  0.00     0.135 A 
ATOM     89  C   UNL A   1      49.020  27.695  28.871  1.00  0.00     0.135 A 
ATOM     90  F   UNL A   1      47.735  26.538  32.073  1.00  0.00    -0.206 F 
ATOM     91  C   UNL A   1      49.927  26.538  31.237  1.00  0.00     0.059 A 
ATOM     92  C   UNL A   1      50.371  27.395  29.009  1.00  0.00     0.059 A 
ATOM     93  F   UNL A   1      48.615  28.262  27.723  1.00  0.00    -0.206 F 
ATOM     94  C   UNL A   1      50.820  26.838  30.205  1.00  0.00     0.060 A 
BRANCH  94  95
ATOM     95  S   UNL A   1      52.573  26.486  30.446  1.00  0.00     0.124 S 
ATOM     96  O   UNL A   1      52.523  25.377  31.392  1.00  0.00    -0.237 OA
ATOM     97  O   UNL A   1      53.014  26.150  29.095  1.00  0.00    -0.237 OA
ATOM     98  O   UNL A   1      53.101  27.740  30.976  1.00  0.00    -0.744 OA
ENDBRANCH  94  95
ENDBRANCH  62  87
ENDBRANCH  36  37
ENDBRANCH  29  31
ENDBRANCH  28  29
ENDBRANCH  27  28
ENDBRANCH  26  27
ENDBRANCH   1  26
TORSDOF 21
ENDMDL
MODEL 3
REMARK VINA RESULT:     -10.8      6.414     12.374
REMARK SMILES CCOC(=O)CS[C@H]1CC(=O)N(c2ccc(C(=O)OCCOC(=O)c3ccc(-c4c5nc(c(-c6c(F)cc(S(=O)(=O)[O-])cc6F)c6ccc([nH]6)c(-c6c(F)cc(S(=O)(=O)[O-])cc6F)c6nc(c(-c7c(F)cc(S(=O)(=O)[O-])cc7F)c7ccc4[nH]7)C=C6)C=C5)cc3)c(O)c2)C1=O
REMARK SMILES IDX 19 1 17 2 18 3 16 4 13 5 14 6 93 7 15 8 91 9 12 10 8 11 9 12
REMARK SMILES IDX 94 13 10 14 95 15 11 16 7 17 6 18 4 19 5 20 3 21 2 22 1 23
REMARK SMILES IDX 92 24 20 26 21 27 22 28 23 29 24 30 25 31 26 32 90 33 27 34
REMARK SMILES IDX 89 35 28 36 29 37 30 38 83 39 31 40 88 41 82 42 84 43 32 44
REMARK SMILES IDX 87 45 81 46 80 47 33 49 67 50 46 51 66 52 47 53 50 54 65 55
REMARK SMILES IDX 85 56 48 57 49 58 64 60 86 61 51 62 34 63 35 64 44 65 36 66
REMARK SMILES IDX 37 67 43 68 45 69 38 70 39 71 40 72 41 73 42 74 68 75 69 76
REMARK SMILES IDX 78 77 70 78 71 79 77 80 79 81 72 82 73 83 74 84 75 85 76 86
REMARK SMILES IDX 52 87 53 88 62 89 54 90 55 91 61 92 63 93 56 94 57 95 58 96
REMARK SMILES IDX 59 97 60 98
REMARK H PARENT 92 25 84 48 50 59
REMARK Flexibility Score: inf
ROOT
ATOM      1  O   UNL A   1      33.551  31.581  27.253  1.00  0.00    -0.458 OA
ENDROOT
BRANCH   1   2
ATOM      2  C   UNL A   1      32.254  31.472  26.871  1.00  0.00     0.342 C 
ATOM      3  O   UNL A   1      31.446  32.387  26.787  1.00  0.00    -0.246 OA
BRANCH   2   4
ATOM      4  C   UNL A   1      31.919  30.082  26.498  1.00  0.00     0.101 A 
ATOM      5  C   UNL A   1      31.666  27.362  25.773  1.00  0.00     0.055 A 
ATOM      6  C   UNL A   1      32.185  27.723  27.015  1.00  0.00     0.028 A 
ATOM      7  C   UNL A   1      31.218  28.382  24.917  1.00  0.00     0.074 A 
ATOM      8  C   UNL A   1      32.367  29.062  27.339  1.00  0.00     0.022 A 
ATOM      9  C   UNL A   1      31.294  29.731  25.302  1.00  0.00     0.132 A 
BRANCH   5  10
ATOM     10  N   UNL A   1      31.701  25.998  25.397  1.00  0.00    -0.249 N 
ATOM     11  C   UNL A   1      32.359  23.753  25.349  1.00  0.00     0.146 C 
ATOM     12  C   UNL A   1      31.048  23.906  24.596  1.00  0.00     0.125 C 
ATOM     13  C   UNL A   1      32.804  25.187  25.525  1.00  0.00     0.247 C 
ATOM     14  C   UNL A   1      30.605  25.292  24.953  1.00  0.00     0.235 C 
ATOM     15  O   UNL A   1      33.958  25.505  25.789  1.00  0.00    -0.273 OA
ATOM     16  O   UNL A   1      29.471  25.700  24.743  1.00  0.00    -0.274 OA
BRANCH  11  17
ATOM     17  S   UNL A   1      32.016  22.850  26.909  1.00  0.00    -0.136 SA
BRANCH  17  18
ATOM     18  C   UNL A   1      33.661  22.269  27.443  1.00  0.00     0.192 C 
BRANCH  18  19
ATOM     19  C   UNL A   1      34.225  21.272  26.451  1.00  0.00     0.315 C 
ATOM     20  O   UNL A   1      33.579  20.354  25.963  1.00  0.00    -0.251 OA
BRANCH  19  21
ATOM     21  O   UNL A   1      35.527  21.550  26.175  1.00  0.00    -0.465 OA
BRANCH  21  22
ATOM     22  C   UNL A   1      35.875  21.663  24.788  1.00  0.00     0.229 C 
ATOM     23  C   UNL A   1      37.294  21.169  24.576  1.00  0.00     0.049 C 
ENDBRANCH  21  22
ENDBRANCH  19  21
ENDBRANCH  18  19
ENDBRANCH  17  18
ENDBRANCH  11  17
ENDBRANCH   5  10
BRANCH   9  24
ATOM     24  O   UNL A   1      30.763  30.655  24.446  1.00  0.00    -0.507 OA
ATOM     25  H   UNL A   1      31.307  31.063  23.802  1.00  0.00     0.293 HD
ENDBRANCH   9  24
ENDBRANCH   2   4
ENDBRANCH   1   2
BRANCH   1  26
ATOM     26  C   UNL A   1      33.823  32.627  28.217  1.00  0.00     0.275 C 
BRANCH  26  27
ATOM     27  C   UNL A   1      35.203  32.471  28.864  1.00  0.00     0.275 C 
BRANCH  27  28
ATOM     28  O   UNL A   1      35.485  31.093  29.179  1.00  0.00    -0.458 OA
BRANCH  28  29
ATOM     29  C   UNL A   1      36.454  30.913  30.102  1.00  0.00     0.338 C 
ATOM     30  O   UNL A   1      36.455  31.323  31.251  1.00  0.00    -0.246 OA
BRANCH  29  31
ATOM     31  C   UNL A   1      37.516  30.029  29.596  1.00  0.00     0.060 A 
ATOM     32  C   UNL A   1      38.314  29.399  30.538  1.00  0.00     0.016 A 
ATOM     33  C   UNL A   1      37.911  30.054  28.262  1.00  0.00     0.016 A 
ATOM     34  C   UNL A   1      39.606  29.004  30.207  1.00  0.00     0.010 A 
ATOM     35  C   UNL A   1      39.144  29.486  27.899  1.00  0.00     0.010 A 
ATOM     36  C   UNL A   1      40.048  29.031  28.878  1.00  0.00    -0.014 A 
BRANCH  36  37
ATOM     37  C   UNL A   1      41.461  28.652  28.545  1.00  0.00     0.031 A 
ATOM     38  C   UNL A   1      42.572  29.681  28.618  1.00  0.00     0.074 A 
ATOM     39  C   UNL A   1      41.775  27.378  28.218  1.00  0.00     0.049 A 
ATOM     40  N   UNL A   1      43.818  29.587  28.222  1.00  0.00    -0.248 NA
ATOM     41  C   UNL A   1      42.232  30.994  29.189  1.00  0.00     0.031 C 
ATOM     42  C   UNL A   1      40.829  26.260  28.138  1.00  0.00     0.029 A 
ATOM     43  N   UNL A   1      42.982  26.800  27.903  1.00  0.00    -0.354 N 
ATOM     44  C   UNL A   1      44.386  30.840  28.435  1.00  0.00     0.074 A 
ATOM     45  C   UNL A   1      43.344  31.684  28.977  1.00  0.00     0.031 C 
ATOM     46  C   UNL A   1      41.495  25.131  27.859  1.00  0.00     0.029 A 
ATOM     47  C   UNL A   1      42.897  25.453  27.629  1.00  0.00     0.049 A 
ATOM     48  H   UNL A   1      43.829  27.302  27.878  1.00  0.00     0.167 HD
ATOM     49  C   UNL A   1      45.659  31.252  28.208  1.00  0.00     0.037 A 
ATOM     50  C   UNL A   1      43.822  24.576  27.195  1.00  0.00     0.037 A 
ATOM     51  C   UNL A   1      46.716  30.390  27.737  1.00  0.00     0.049 A 
ATOM     52  C   UNL A   1      45.224  25.056  26.941  1.00  0.00     0.074 A 
ATOM     53  C   UNL A   1      48.041  30.707  27.494  1.00  0.00     0.029 A 
ATOM     54  N   UNL A   1      46.575  29.037  27.464  1.00  0.00    -0.354 N 
ATOM     55  N   UNL A   1      45.723  26.259  27.089  1.00  0.00    -0.248 NA
ATOM     56  C   UNL A   1      46.186  24.060  26.453  1.00  0.00     0.031 C 
ATOM     57  C   UNL A   1      48.692  29.558  27.033  1.00  0.00     0.029 A 
ATOM     58  C   UNL A   1      47.787  28.509  27.046  1.00  0.00     0.049 A 
ATOM     59  H   UNL A   1      45.739  28.526  27.553  1.00  0.00     0.167 HD
ATOM     60  C   UNL A   1      47.066  26.158  26.741  1.00  0.00     0.074 A 
ATOM     61  C   UNL A   1      47.301  24.772  26.391  1.00  0.00     0.031 C 
ATOM     62  C   UNL A   1      48.016  27.126  26.712  1.00  0.00     0.037 A 
BRANCH  49  63
ATOM     63  C   UNL A   1      45.982  32.708  28.434  1.00  0.00     0.058 A 
ATOM     64  C   UNL A   1      46.472  33.188  29.658  1.00  0.00     0.135 A 
ATOM     65  C   UNL A   1      45.839  33.632  27.385  1.00  0.00     0.135 A 
ATOM     66  F   UNL A   1      46.617  32.356  30.702  1.00  0.00    -0.206 F 
ATOM     67  C   UNL A   1      46.776  34.534  29.845  1.00  0.00     0.059 A 
ATOM     68  C   UNL A   1      46.168  34.976  27.538  1.00  0.00     0.059 A 
ATOM     69  F   UNL A   1      45.379  33.231  26.189  1.00  0.00    -0.206 F 
ATOM     70  C   UNL A   1      46.622  35.421  28.778  1.00  0.00     0.060 A 
BRANCH  70  71
ATOM     71  S   UNL A   1      47.029  37.162  29.032  1.00  0.00     0.124 S 
ATOM     72  O   UNL A   1      47.659  37.504  27.762  1.00  0.00    -0.237 OA
ATOM     73  O   UNL A   1      45.718  37.758  29.270  1.00  0.00    -0.237 OA
ATOM     74  O   UNL A   1      47.921  37.139  30.188  1.00  0.00    -0.744 OA
ENDBRANCH  70  71
ENDBRANCH  49  63
BRANCH  50  75
ATOM     75  C   UNL A   1      43.443  23.158  26.932  1.00  0.00     0.058 A 
ATOM     76  C   UNL A   1      43.331  22.666  25.624  1.00  0.00     0.135 A 
ATOM     77  C   UNL A   1      43.187  22.268  27.987  1.00  0.00     0.135 A 
ATOM     78  F   UNL A   1      43.555  23.478  24.579  1.00  0.00    -0.206 F 
ATOM     79  C   UNL A   1      42.957  21.349  25.368  1.00  0.00     0.059 A 
ATOM     80  C   UNL A   1      42.847  20.938  27.759  1.00  0.00     0.059 A 
ATOM     81  F   UNL A   1      43.294  22.682  29.259  1.00  0.00    -0.206 F 
ATOM     82  C   UNL A   1      42.720  20.492  26.445  1.00  0.00     0.060 A 
BRANCH  82  83
ATOM     83  S   UNL A   1      42.273  18.776  26.108  1.00  0.00     0.124 S 
ATOM     84  O   UNL A   1      43.210  18.431  25.046  1.00  0.00    -0.237 OA
ATOM     85  O   UNL A   1      42.508  18.138  27.400  1.00  0.00    -0.237 OA
ATOM     86  O   UNL A   1      40.872  18.866  25.709  1.00  0.00    -0.744 OA
ENDBRANCH  82  83
ENDBRANCH  50  75
BRANCH  62  87
ATOM     87  C   UNL A   1      49.414  26.701  26.352  1.00  0.00     0.058 A 
ATOM     88  C   UNL A   1      50.326  26.238  27.313  1.00  0.00     0.135 A 
ATOM     89  C   UNL A   1      49.845  26.763  25.016  1.00  0.00     0.135 A 
ATOM     90  F   UNL A   1      49.967  26.163  28.605  1.00  0.00    -0.206 F 
ATOM     91  C   UNL A   1      51.632  25.899  26.972  1.00  0.00     0.059 A 
ATOM     92  C   UNL A   1      51.136  26.397  24.647  1.00  0.00     0.059 A 
ATOM     93  F   UNL A   1      49.011  27.184  24.053  1.00  0.00    -0.206 F 
ATOM     94  C   UNL A   1      52.030  25.988  25.636  1.00  0.00     0.060 A 
BRANCH  94  95
ATOM     95  S   UNL A   1      53.729  25.560  25.207  1.00  0.00     0.124 S 
ATOM     96  O   UNL A   1      53.767  24.141  25.541  1.00  0.00    -0.237 OA
ATOM     97  O   UNL A   1      53.784  25.880  23.783  1.00  0.00    -0.237 OA
ATOM     98  O   UNL A   1      54.526  26.429  26.068  1.00  0.00    -0.744 OA
ENDBRANCH  94  95
ENDBRANCH  62  87
ENDBRANCH  36  37
ENDBRANCH  29  31
ENDBRANCH  28  29
ENDBRANCH  27  28
ENDBRANCH  26  27
ENDBRANCH   1  26
TORSDOF 21
ENDMDL
