MODEL 1
REMARK VINA RESULT:     -10.4      0.000      0.000
REMARK SMILES C=CCN(CC(=O)OCCOC(=O)c1ccc(-c2c3nc(c(-c4c(F)cc(S(=O)(=O)[O-])cc4F)c4ccc([nH]4)c(-c4c(F)cc(S(=O)(=O)[O-])cc4F)c4nc(c(-c5c(F)cc(S(=O)(=O)[O-])cc5F)c5ccc2[nH]5)C=C4)C=C3)cc1)c1ccc([N+](=O)[O-])cc1Br
REMARK SMILES IDX 9 1 8 2 6 3 7 4 5 5 4 6 3 7 2 8 1 9 80 10 81 11 88 12 82 13
REMARK SMILES IDX 87 14 89 15 83 16 84 17 85 18 86 19 10 20 11 21 12 22 13 23
REMARK SMILES IDX 14 24 15 25 79 26 16 27 78 28 17 29 18 30 19 31 72 32 20 33
REMARK SMILES IDX 77 34 71 35 73 36 21 37 76 38 70 39 69 40 22 42 56 43 35 44
REMARK SMILES IDX 55 45 36 46 39 47 54 48 74 49 37 50 38 51 53 53 75 54 40 55
REMARK SMILES IDX 23 56 24 57 33 58 25 59 26 60 32 61 34 62 27 63 28 64 29 65
REMARK SMILES IDX 30 66 31 67 57 68 58 69 67 70 59 71 60 72 66 73 68 74 61 75
REMARK SMILES IDX 62 76 63 77 64 78 65 79 41 80 42 81 51 82 43 83 44 84 50 85
REMARK SMILES IDX 52 86 45 87 46 88 47 89 48 90 49 91
REMARK H PARENT 73 41 39 52
REMARK Flexibility Score: inf
ROOT
ATOM      1  C   UNL A   1      37.844  21.961  25.825  1.00  0.00     0.274 C 
ENDROOT
BRANCH   1   2
ATOM      2  O   UNL A   1      37.584  22.063  24.411  1.00  0.00    -0.461 OA
BRANCH   2   3
ATOM      3  C   UNL A   1      36.658  22.992  24.046  1.00  0.00     0.325 C 
ATOM      4  O   UNL A   1      36.403  23.290  22.882  1.00  0.00    -0.250 OA
BRANCH   3   5
ATOM      5  C   UNL A   1      35.917  23.637  25.216  1.00  0.00     0.239 C 
BRANCH   5   6
ATOM      6  N   UNL A   1      34.461  23.444  25.226  1.00  0.00    -0.356 N 
BRANCH   6   7
ATOM      7  C   UNL A   1      33.589  24.567  25.527  1.00  0.00     0.144 C 
BRANCH   7   8
ATOM      8  C   UNL A   1      34.264  25.825  25.067  1.00  0.00    -0.014 C 
ATOM      9  C   UNL A   1      33.644  26.870  24.501  1.00  0.00     0.006 C 
ENDBRANCH   7   8
ENDBRANCH   6   7
BRANCH   6  10
ATOM     10  C   UNL A   1      33.933  22.192  24.950  1.00  0.00     0.052 A 
ATOM     11  C   UNL A   1      34.309  21.108  25.761  1.00  0.00     0.034 A 
ATOM     12  C   UNL A   1      33.058  21.930  23.871  1.00  0.00     0.048 A 
ATOM     13  C   UNL A   1      33.880  19.806  25.490  1.00  0.00     0.088 A 
ATOM     14  C   UNL A   1      32.605  20.634  23.596  1.00  0.00     0.103 A 
ATOM     15  Br  UNL A   1      32.396  23.317  22.743  1.00  0.00    -0.048 Br
ATOM     16  C   UNL A   1      33.038  19.579  24.401  1.00  0.00     0.270 A 
BRANCH  16  17
ATOM     17  N   UNL A   1      32.603  18.218  24.099  1.00  0.00     0.062 N 
ATOM     18  O   UNL A   1      31.840  17.669  24.906  1.00  0.00    -0.258 OA
ATOM     19  O   UNL A   1      33.021  17.708  23.051  1.00  0.00    -0.258 OA
ENDBRANCH  16  17
ENDBRANCH   6  10
ENDBRANCH   5   6
ENDBRANCH   3   5
ENDBRANCH   2   3
ENDBRANCH   1   2
BRANCH   1  20
ATOM     20  C   UNL A   1      39.269  22.406  26.141  1.00  0.00     0.275 C 
BRANCH  20  21
ATOM     21  O   UNL A   1      39.272  23.786  26.542  1.00  0.00    -0.458 OA
BRANCH  21  22
ATOM     22  C   UNL A   1      40.496  24.304  26.798  1.00  0.00     0.338 C 
ATOM     23  O   UNL A   1      41.572  23.866  26.427  1.00  0.00    -0.246 OA
BRANCH  22  24
ATOM     24  C   UNL A   1      40.381  25.501  27.647  1.00  0.00     0.060 A 
ATOM     25  C   UNL A   1      41.302  26.545  27.548  1.00  0.00     0.016 A 
ATOM     26  C   UNL A   1      39.402  25.513  28.641  1.00  0.00     0.016 A 
ATOM     27  C   UNL A   1      41.294  27.567  28.500  1.00  0.00     0.010 A 
ATOM     28  C   UNL A   1      39.355  26.569  29.552  1.00  0.00     0.010 A 
ATOM     29  C   UNL A   1      40.324  27.583  29.515  1.00  0.00    -0.014 A 
BRANCH  29  30
ATOM     30  C   UNL A   1      40.329  28.638  30.560  1.00  0.00     0.031 A 
ATOM     31  C   UNL A   1      41.296  28.556  31.712  1.00  0.00     0.074 A 
ATOM     32  C   UNL A   1      39.445  29.651  30.489  1.00  0.00     0.049 A 
ATOM     33  N   UNL A   1      41.376  29.310  32.779  1.00  0.00    -0.248 NA
ATOM     34  C   UNL A   1      42.298  27.480  31.663  1.00  0.00     0.031 C 
ATOM     35  C   UNL A   1      38.462  29.839  29.420  1.00  0.00     0.029 A 
ATOM     36  N   UNL A   1      39.224  30.707  31.336  1.00  0.00    -0.354 N 
ATOM     37  C   UNL A   1      42.412  28.782  33.542  1.00  0.00     0.074 A 
ATOM     38  C   UNL A   1      42.928  27.639  32.819  1.00  0.00     0.031 C 
ATOM     39  C   UNL A   1      37.751  30.950  29.670  1.00  0.00     0.029 A 
ATOM     40  C   UNL A   1      38.193  31.523  30.937  1.00  0.00     0.049 A 
ATOM     41  H   UNL A   1      39.753  30.865  32.150  1.00  0.00     0.167 HD
ATOM     42  C   UNL A   1      42.884  29.212  34.737  1.00  0.00     0.037 A 
ATOM     43  C   UNL A   1      37.646  32.598  31.536  1.00  0.00     0.037 A 
ATOM     44  C   UNL A   1      42.379  30.363  35.442  1.00  0.00     0.049 A 
ATOM     45  C   UNL A   1      38.194  33.061  32.855  1.00  0.00     0.074 A 
ATOM     46  C   UNL A   1      42.799  30.887  36.653  1.00  0.00     0.029 A 
ATOM     47  N   UNL A   1      41.346  31.174  34.994  1.00  0.00    -0.354 N 
ATOM     48  N   UNL A   1      39.163  32.542  33.569  1.00  0.00    -0.248 NA
ATOM     49  C   UNL A   1      37.573  34.251  33.451  1.00  0.00     0.031 C 
ATOM     50  C   UNL A   1      42.003  32.001  36.948  1.00  0.00     0.029 A 
ATOM     51  C   UNL A   1      41.109  32.189  35.906  1.00  0.00     0.049 A 
ATOM     52  H   UNL A   1      40.853  31.045  34.151  1.00  0.00     0.167 HD
ATOM     53  C   UNL A   1      39.275  33.344  34.698  1.00  0.00     0.074 A 
ATOM     54  C   UNL A   1      38.284  34.395  34.561  1.00  0.00     0.031 C 
ATOM     55  C   UNL A   1      40.117  33.222  35.754  1.00  0.00     0.037 A 
BRANCH  42  56
ATOM     56  C   UNL A   1      43.992  28.419  35.375  1.00  0.00     0.058 A 
ATOM     57  C   UNL A   1      43.729  27.355  36.253  1.00  0.00     0.135 A 
ATOM     58  C   UNL A   1      45.333  28.702  35.072  1.00  0.00     0.135 A 
ATOM     59  F   UNL A   1      42.464  27.055  36.588  1.00  0.00    -0.206 F 
ATOM     60  C   UNL A   1      44.759  26.608  36.819  1.00  0.00     0.059 A 
ATOM     61  C   UNL A   1      46.377  27.955  35.611  1.00  0.00     0.059 A 
ATOM     62  F   UNL A   1      45.640  29.709  34.240  1.00  0.00    -0.206 F 
ATOM     63  C   UNL A   1      46.080  26.916  36.493  1.00  0.00     0.060 A 
BRANCH  63  64
ATOM     64  S   UNL A   1      47.410  25.924  37.209  1.00  0.00     0.124 S 
ATOM     65  O   UNL A   1      47.872  26.789  38.288  1.00  0.00    -0.237 OA
ATOM     66  O   UNL A   1      46.713  24.711  37.623  1.00  0.00    -0.237 OA
ATOM     67  O   UNL A   1      48.341  25.755  36.096  1.00  0.00    -0.744 OA
ENDBRANCH  63  64
ENDBRANCH  42  56
BRANCH  43  68
ATOM     68  C   UNL A   1      36.512  33.299  30.884  1.00  0.00     0.058 A 
ATOM     69  C   UNL A   1      35.209  33.188  31.389  1.00  0.00     0.135 A 
ATOM     70  C   UNL A   1      36.718  34.137  29.776  1.00  0.00     0.135 A 
ATOM     71  F   UNL A   1      34.964  32.393  32.441  1.00  0.00    -0.206 F 
ATOM     72  C   UNL A   1      34.148  33.887  30.823  1.00  0.00     0.059 A 
ATOM     73  C   UNL A   1      35.677  34.861  29.206  1.00  0.00     0.059 A 
ATOM     74  F   UNL A   1      37.951  34.286  29.267  1.00  0.00    -0.206 F 
ATOM     75  C   UNL A   1      34.394  34.727  29.736  1.00  0.00     0.060 A 
BRANCH  75  76
ATOM     76  S   UNL A   1      33.033  35.705  29.060  1.00  0.00     0.124 S 
ATOM     77  O   UNL A   1      33.750  36.786  28.396  1.00  0.00    -0.237 OA
ATOM     78  O   UNL A   1      32.365  34.748  28.184  1.00  0.00    -0.237 OA
ATOM     79  O   UNL A   1      32.275  36.084  30.250  1.00  0.00    -0.744 OA
ENDBRANCH  75  76
ENDBRANCH  43  68
BRANCH  55  80
ATOM     80  C   UNL A   1      40.010  34.263  36.829  1.00  0.00     0.058 A 
ATOM     81  C   UNL A   1      39.084  34.139  37.877  1.00  0.00     0.135 A 
ATOM     82  C   UNL A   1      40.848  35.387  36.818  1.00  0.00     0.135 A 
ATOM     83  F   UNL A   1      38.256  33.084  37.926  1.00  0.00    -0.206 F 
ATOM     84  C   UNL A   1      38.973  35.112  38.864  1.00  0.00     0.059 A 
ATOM     85  C   UNL A   1      40.766  36.365  37.804  1.00  0.00     0.059 A 
ATOM     86  F   UNL A   1      41.754  35.546  35.840  1.00  0.00    -0.206 F 
ATOM     87  C   UNL A   1      39.815  36.226  38.815  1.00  0.00     0.060 A 
BRANCH  87  88
ATOM     88  S   UNL A   1      39.669  37.487  40.099  1.00  0.00     0.124 S 
ATOM     89  O   UNL A   1      40.652  38.470  39.655  1.00  0.00    -0.237 OA
ATOM     90  O   UNL A   1      38.271  37.895  39.988  1.00  0.00    -0.237 OA
ATOM     91  O   UNL A   1      40.008  36.764  41.320  1.00  0.00    -0.744 OA
ENDBRANCH  87  88
ENDBRANCH  55  80
ENDBRANCH  29  30
ENDBRANCH  22  24
ENDBRANCH  21  22
ENDBRANCH  20  21
ENDBRANCH   1  20
TORSDOF 19
ENDMDL
MODEL 2
REMARK VINA RESULT:     -10.2      4.623     10.236
REMARK SMILES C=CCN(CC(=O)OCCOC(=O)c1ccc(-c2c3nc(c(-c4c(F)cc(S(=O)(=O)[O-])cc4F)c4ccc([nH]4)c(-c4c(F)cc(S(=O)(=O)[O-])cc4F)c4nc(c(-c5c(F)cc(S(=O)(=O)[O-])cc5F)c5ccc2[nH]5)C=C4)C=C3)cc1)c1ccc([N+](=O)[O-])cc1Br
REMARK SMILES IDX 9 1 8 2 6 3 7 4 5 5 4 6 3 7 2 8 1 9 80 10 81 11 88 12 82 13
REMARK SMILES IDX 87 14 89 15 83 16 84 17 85 18 86 19 10 20 11 21 12 22 13 23
REMARK SMILES IDX 14 24 15 25 79 26 16 27 78 28 17 29 18 30 19 31 72 32 20 33
REMARK SMILES IDX 77 34 71 35 73 36 21 37 76 38 70 39 69 40 22 42 56 43 35 44
REMARK SMILES IDX 55 45 36 46 39 47 54 48 74 49 37 50 38 51 53 53 75 54 40 55
REMARK SMILES IDX 23 56 24 57 33 58 25 59 26 60 32 61 34 62 27 63 28 64 29 65
REMARK SMILES IDX 30 66 31 67 57 68 58 69 67 70 59 71 60 72 66 73 68 74 61 75
REMARK SMILES IDX 62 76 63 77 64 78 65 79 41 80 42 81 51 82 43 83 44 84 50 85
REMARK SMILES IDX 52 86 45 87 46 88 47 89 48 90 49 91
REMARK H PARENT 73 41 39 52
REMARK Flexibility Score: inf
ROOT
ATOM      1  C   UNL A   1      33.171  27.268  25.730  1.00  0.00     0.274 C 
ENDROOT
BRANCH   1   2
ATOM      2  O   UNL A   1      31.909  26.598  25.538  1.00  0.00    -0.461 OA
BRANCH   2   3
ATOM      3  C   UNL A   1      31.942  25.239  25.631  1.00  0.00     0.325 C 
ATOM      4  O   UNL A   1      31.029  24.502  25.267  1.00  0.00    -0.250 OA
BRANCH   3   5
ATOM      5  C   UNL A   1      33.239  24.678  26.210  1.00  0.00     0.239 C 
BRANCH   5   6
ATOM      6  N   UNL A   1      34.010  23.809  25.310  1.00  0.00    -0.356 N 
BRANCH   6   7
ATOM      7  C   UNL A   1      35.267  24.281  24.756  1.00  0.00     0.144 C 
BRANCH   7   8
ATOM      8  C   UNL A   1      36.374  23.429  25.304  1.00  0.00    -0.014 C 
ATOM      9  C   UNL A   1      37.367  23.867  26.089  1.00  0.00     0.006 C 
ENDBRANCH   7   8
ENDBRANCH   6   7
BRANCH   6  10
ATOM     10  C   UNL A   1      33.528  22.548  24.998  1.00  0.00     0.052 A 
ATOM     11  C   UNL A   1      33.480  21.573  26.009  1.00  0.00     0.034 A 
ATOM     12  C   UNL A   1      33.109  22.167  23.702  1.00  0.00     0.048 A 
ATOM     13  C   UNL A   1      33.083  20.260  25.744  1.00  0.00     0.088 A 
ATOM     14  C   UNL A   1      32.692  20.860  23.424  1.00  0.00     0.103 A 
ATOM     15  Br  UNL A   1      33.039  23.405  22.255  1.00  0.00    -0.048 Br
ATOM     16  C   UNL A   1      32.702  19.912  24.449  1.00  0.00     0.270 A 
BRANCH  16  17
ATOM     17  N   UNL A   1      32.307  18.536  24.160  1.00  0.00     0.062 N 
ATOM     18  O   UNL A   1      31.988  17.819  25.120  1.00  0.00    -0.258 OA
ATOM     19  O   UNL A   1      32.308  18.181  22.974  1.00  0.00    -0.258 OA
ENDBRANCH  16  17
ENDBRANCH   6  10
ENDBRANCH   5   6
ENDBRANCH   3   5
ENDBRANCH   2   3
ENDBRANCH   1   2
BRANCH   1  20
ATOM     20  C   UNL A   1      32.964  28.606  26.433  1.00  0.00     0.275 C 
BRANCH  20  21
ATOM     21  O   UNL A   1      33.847  28.707  27.563  1.00  0.00    -0.458 OA
BRANCH  21  22
ATOM     22  C   UNL A   1      34.348  29.944  27.788  1.00  0.00     0.338 C 
ATOM     23  O   UNL A   1      33.753  31.005  27.701  1.00  0.00    -0.246 OA
BRANCH  22  24
ATOM     24  C   UNL A   1      35.775  29.865  28.138  1.00  0.00     0.060 A 
ATOM     25  C   UNL A   1      36.765  30.102  27.182  1.00  0.00     0.016 A 
ATOM     26  C   UNL A   1      36.118  29.424  29.416  1.00  0.00     0.016 A 
ATOM     27  C   UNL A   1      38.099  29.819  27.483  1.00  0.00     0.010 A 
ATOM     28  C   UNL A   1      37.458  29.204  29.736  1.00  0.00     0.010 A 
ATOM     29  C   UNL A   1      38.456  29.360  28.761  1.00  0.00    -0.014 A 
BRANCH  29  30
ATOM     30  C   UNL A   1      39.863  29.012  29.084  1.00  0.00     0.031 A 
ATOM     31  C   UNL A   1      40.763  30.029  29.736  1.00  0.00     0.074 A 
ATOM     32  C   UNL A   1      40.339  27.794  28.763  1.00  0.00     0.049 A 
ATOM     33  N   UNL A   1      42.045  29.956  29.988  1.00  0.00    -0.248 NA
ATOM     34  C   UNL A   1      40.141  31.297  30.151  1.00  0.00     0.031 C 
ATOM     35  C   UNL A   1      39.563  26.725  28.132  1.00  0.00     0.029 A 
ATOM     36  N   UNL A   1      41.590  27.253  28.915  1.00  0.00    -0.354 N 
ATOM     37  C   UNL A   1      42.390  31.176  30.559  1.00  0.00     0.074 A 
ATOM     38  C   UNL A   1      41.183  31.975  30.612  1.00  0.00     0.031 C 
ATOM     39  C   UNL A   1      40.353  25.653  27.961  1.00  0.00     0.029 A 
ATOM     40  C   UNL A   1      41.699  25.975  28.423  1.00  0.00     0.049 A 
ATOM     41  H   UNL A   1      42.338  27.735  29.335  1.00  0.00     0.167 HD
ATOM     42  C   UNL A   1      43.604  31.592  30.996  1.00  0.00     0.037 A 
ATOM     43  C   UNL A   1      42.767  25.161  28.332  1.00  0.00     0.037 A 
ATOM     44  C   UNL A   1      44.798  30.784  30.959  1.00  0.00     0.049 A 
ATOM     45  C   UNL A   1      44.099  25.639  28.832  1.00  0.00     0.074 A 
ATOM     46  C   UNL A   1      46.073  31.109  31.389  1.00  0.00     0.029 A 
ATOM     47  N   UNL A   1      44.860  29.487  30.471  1.00  0.00    -0.354 N 
ATOM     48  N   UNL A   1      44.412  26.801  29.355  1.00  0.00    -0.248 NA
ATOM     49  C   UNL A   1      45.225  24.701  28.726  1.00  0.00     0.031 C 
ATOM     50  C   UNL A   1      46.912  30.016  31.138  1.00  0.00     0.029 A 
ATOM     51  C   UNL A   1      46.152  28.999  30.582  1.00  0.00     0.049 A 
ATOM     52  H   UNL A   1      44.098  28.987  30.099  1.00  0.00     0.167 HD
ATOM     53  C   UNL A   1      45.768  26.733  29.648  1.00  0.00     0.074 A 
ATOM     54  C   UNL A   1      46.212  25.408  29.259  1.00  0.00     0.031 C 
ATOM     55  C   UNL A   1      46.574  27.680  30.186  1.00  0.00     0.037 A 
BRANCH  42  56
ATOM     56  C   UNL A   1      43.711  32.993  31.531  1.00  0.00     0.058 A 
ATOM     57  C   UNL A   1      43.911  34.094  30.683  1.00  0.00     0.135 A 
ATOM     58  C   UNL A   1      43.572  33.242  32.906  1.00  0.00     0.135 A 
ATOM     59  F   UNL A   1      44.066  33.910  29.363  1.00  0.00    -0.206 F 
ATOM     60  C   UNL A   1      43.982  35.393  31.182  1.00  0.00     0.059 A 
ATOM     61  C   UNL A   1      43.621  34.533  33.424  1.00  0.00     0.059 A 
ATOM     62  F   UNL A   1      43.382  32.224  33.760  1.00  0.00    -0.206 F 
ATOM     63  C   UNL A   1      43.837  35.602  32.555  1.00  0.00     0.060 A 
BRANCH  63  64
ATOM     64  S   UNL A   1      43.902  37.292  33.192  1.00  0.00     0.124 S 
ATOM     65  O   UNL A   1      45.167  37.282  33.919  1.00  0.00    -0.237 OA
ATOM     66  O   UNL A   1      43.878  38.092  31.972  1.00  0.00    -0.237 OA
ATOM     67  O   UNL A   1      42.703  37.386  34.020  1.00  0.00    -0.744 OA
ENDBRANCH  63  64
ENDBRANCH  42  56
BRANCH  43  68
ATOM     68  C   UNL A   1      42.608  23.811  27.735  1.00  0.00     0.058 A 
ATOM     69  C   UNL A   1      42.681  23.623  26.347  1.00  0.00     0.135 A 
ATOM     70  C   UNL A   1      42.433  22.677  28.544  1.00  0.00     0.135 A 
ATOM     71  F   UNL A   1      42.839  24.679  25.536  1.00  0.00    -0.206 F 
ATOM     72  C   UNL A   1      42.593  22.356  25.780  1.00  0.00     0.059 A 
ATOM     73  C   UNL A   1      42.363  21.399  28.001  1.00  0.00     0.059 A 
ATOM     74  F   UNL A   1      42.373  22.807  29.878  1.00  0.00    -0.206 F 
ATOM     75  C   UNL A   1      42.441  21.249  26.617  1.00  0.00     0.060 A 
BRANCH  75  76
ATOM     76  S   UNL A   1      42.419  19.597  25.885  1.00  0.00     0.124 S 
ATOM     77  O   UNL A   1      41.036  19.494  25.437  1.00  0.00    -0.237 OA
ATOM     78  O   UNL A   1      43.425  19.707  24.834  1.00  0.00    -0.237 OA
ATOM     79  O   UNL A   1      42.788  18.734  27.004  1.00  0.00    -0.744 OA
ENDBRANCH  75  76
ENDBRANCH  43  68
BRANCH  55  80
ATOM     80  C   UNL A   1      48.011  27.305  30.399  1.00  0.00     0.058 A 
ATOM     81  C   UNL A   1      48.430  26.648  31.567  1.00  0.00     0.135 A 
ATOM     82  C   UNL A   1      48.975  27.593  29.423  1.00  0.00     0.135 A 
ATOM     83  F   UNL A   1      47.544  26.358  32.533  1.00  0.00    -0.206 F 
ATOM     84  C   UNL A   1      49.764  26.316  31.772  1.00  0.00     0.059 A 
ATOM     85  C   UNL A   1      50.314  27.255  29.599  1.00  0.00     0.059 A 
ATOM     86  F   UNL A   1      48.622  28.214  28.285  1.00  0.00    -0.206 F 
ATOM     87  C   UNL A   1      50.701  26.630  30.784  1.00  0.00     0.060 A 
BRANCH  87  88
ATOM     88  S   UNL A   1      52.432  26.196  31.054  1.00  0.00     0.124 S 
ATOM     89  O   UNL A   1      52.939  26.155  29.686  1.00  0.00    -0.237 OA
ATOM     90  O   UNL A   1      52.914  27.302  31.875  1.00  0.00    -0.237 OA
ATOM     91  O   UNL A   1      52.353  24.907  31.734  1.00  0.00    -0.744 OA
ENDBRANCH  87  88
ENDBRANCH  55  80
ENDBRANCH  29  30
ENDBRANCH  22  24
ENDBRANCH  21  22
ENDBRANCH  20  21
ENDBRANCH   1  20
TORSDOF 19
ENDMDL
MODEL 3
REMARK VINA RESULT:     -10.2      1.324      2.678
REMARK SMILES C=CCN(CC(=O)OCCOC(=O)c1ccc(-c2c3nc(c(-c4c(F)cc(S(=O)(=O)[O-])cc4F)c4ccc([nH]4)c(-c4c(F)cc(S(=O)(=O)[O-])cc4F)c4nc(c(-c5c(F)cc(S(=O)(=O)[O-])cc5F)c5ccc2[nH]5)C=C4)C=C3)cc1)c1ccc([N+](=O)[O-])cc1Br
REMARK SMILES IDX 9 1 8 2 6 3 7 4 5 5 4 6 3 7 2 8 1 9 80 10 81 11 88 12 82 13
REMARK SMILES IDX 87 14 89 15 83 16 84 17 85 18 86 19 10 20 11 21 12 22 13 23
REMARK SMILES IDX 14 24 15 25 79 26 16 27 78 28 17 29 18 30 19 31 72 32 20 33
REMARK SMILES IDX 77 34 71 35 73 36 21 37 76 38 70 39 69 40 22 42 56 43 35 44
REMARK SMILES IDX 55 45 36 46 39 47 54 48 74 49 37 50 38 51 53 53 75 54 40 55
REMARK SMILES IDX 23 56 24 57 33 58 25 59 26 60 32 61 34 62 27 63 28 64 29 65
REMARK SMILES IDX 30 66 31 67 57 68 58 69 67 70 59 71 60 72 66 73 68 74 61 75
REMARK SMILES IDX 62 76 63 77 64 78 65 79 41 80 42 81 51 82 43 83 44 84 50 85
REMARK SMILES IDX 52 86 45 87 46 88 47 89 48 90 49 91
REMARK H PARENT 73 41 39 52
REMARK Flexibility Score: inf
ROOT
ATOM      1  C   UNL A   1      39.307  21.398  25.937  1.00  0.00     0.274 C 
ENDROOT
BRANCH   1   2
ATOM      2  O   UNL A   1      37.982  21.940  25.763  1.00  0.00    -0.461 OA
BRANCH   2   3
ATOM      3  C   UNL A   1      37.213  21.330  24.820  1.00  0.00     0.325 C 
ATOM      4  O   UNL A   1      37.151  20.113  24.663  1.00  0.00    -0.250 OA
BRANCH   3   5
ATOM      5  C   UNL A   1      36.385  22.288  23.965  1.00  0.00     0.239 C 
BRANCH   5   6
ATOM      6  N   UNL A   1      34.984  22.454  24.375  1.00  0.00    -0.356 N 
BRANCH   6   7
ATOM      7  C   UNL A   1      34.211  21.292  24.781  1.00  0.00     0.144 C 
BRANCH   7   8
ATOM      8  C   UNL A   1      33.498  21.625  26.059  1.00  0.00    -0.014 C 
ATOM      9  C   UNL A   1      34.025  21.517  27.286  1.00  0.00     0.006 C 
ENDBRANCH   7   8
ENDBRANCH   6   7
BRANCH   6  10
ATOM     10  C   UNL A   1      34.413  23.717  24.368  1.00  0.00     0.052 A 
ATOM     11  C   UNL A   1      34.791  24.634  25.364  1.00  0.00     0.034 A 
ATOM     12  C   UNL A   1      33.438  24.132  23.432  1.00  0.00     0.048 A 
ATOM     13  C   UNL A   1      34.195  25.894  25.465  1.00  0.00     0.088 A 
ATOM     14  C   UNL A   1      32.844  25.397  23.509  1.00  0.00     0.103 A 
ATOM     15  Br  UNL A   1      32.894  23.026  21.978  1.00  0.00    -0.048 Br
ATOM     16  C   UNL A   1      33.218  26.260  24.540  1.00  0.00     0.270 A 
BRANCH  16  17
ATOM     17  N   UNL A   1      32.575  27.567  24.653  1.00  0.00     0.062 N 
ATOM     18  O   UNL A   1      31.395  27.658  24.284  1.00  0.00    -0.258 OA
ATOM     19  O   UNL A   1      33.250  28.494  25.119  1.00  0.00    -0.258 OA
ENDBRANCH  16  17
ENDBRANCH   6  10
ENDBRANCH   5   6
ENDBRANCH   3   5
ENDBRANCH   2   3
ENDBRANCH   1   2
BRANCH   1  20
ATOM     20  C   UNL A   1      40.096  22.225  26.947  1.00  0.00     0.275 C 
BRANCH  20  21
ATOM     21  O   UNL A   1      39.826  23.623  26.751  1.00  0.00    -0.458 OA
BRANCH  21  22
ATOM     22  C   UNL A   1      40.924  24.412  26.681  1.00  0.00     0.338 C 
ATOM     23  O   UNL A   1      41.936  24.208  26.032  1.00  0.00    -0.246 OA
BRANCH  22  24
ATOM     24  C   UNL A   1      40.765  25.591  27.548  1.00  0.00     0.060 A 
ATOM     25  C   UNL A   1      41.726  26.604  27.569  1.00  0.00     0.016 A 
ATOM     26  C   UNL A   1      39.694  25.614  28.442  1.00  0.00     0.016 A 
ATOM     27  C   UNL A   1      41.658  27.602  28.544  1.00  0.00     0.010 A 
ATOM     28  C   UNL A   1      39.593  26.648  29.373  1.00  0.00     0.010 A 
ATOM     29  C   UNL A   1      40.594  27.627  29.459  1.00  0.00    -0.014 A 
BRANCH  29  30
ATOM     30  C   UNL A   1      40.530  28.655  30.529  1.00  0.00     0.031 A 
ATOM     31  C   UNL A   1      41.461  28.575  31.711  1.00  0.00     0.074 A 
ATOM     32  C   UNL A   1      39.617  29.642  30.452  1.00  0.00     0.049 A 
ATOM     33  N   UNL A   1      41.481  29.304  32.797  1.00  0.00    -0.248 NA
ATOM     34  C   UNL A   1      42.499  27.532  31.669  1.00  0.00     0.031 C 
ATOM     35  C   UNL A   1      38.665  29.826  29.356  1.00  0.00     0.029 A 
ATOM     36  N   UNL A   1      39.334  30.669  31.316  1.00  0.00    -0.354 N 
ATOM     37  C   UNL A   1      42.508  28.790  33.582  1.00  0.00     0.074 A 
ATOM     38  C   UNL A   1      43.085  27.682  32.849  1.00  0.00     0.031 C 
ATOM     39  C   UNL A   1      37.910  30.907  29.608  1.00  0.00     0.029 A 
ATOM     40  C   UNL A   1      38.292  31.461  30.903  1.00  0.00     0.049 A 
ATOM     41  H   UNL A   1      39.831  30.823  32.152  1.00  0.00     0.167 HD
ATOM     42  C   UNL A   1      42.927  29.203  34.803  1.00  0.00     0.037 A 
ATOM     43  C   UNL A   1      37.691  32.503  31.509  1.00  0.00     0.037 A 
ATOM     44  C   UNL A   1      42.362  30.320  35.517  1.00  0.00     0.049 A 
ATOM     45  C   UNL A   1      38.180  32.950  32.856  1.00  0.00     0.074 A 
ATOM     46  C   UNL A   1      42.725  30.827  36.754  1.00  0.00     0.029 A 
ATOM     47  N   UNL A   1      41.319  31.109  35.054  1.00  0.00    -0.354 N 
ATOM     48  N   UNL A   1      39.142  32.444  33.590  1.00  0.00    -0.248 NA
ATOM     49  C   UNL A   1      37.502  34.105  33.460  1.00  0.00     0.031 C 
ATOM     50  C   UNL A   1      41.885  31.907  37.049  1.00  0.00     0.029 A 
ATOM     51  C   UNL A   1      41.020  32.094  35.982  1.00  0.00     0.049 A 
ATOM     52  H   UNL A   1      40.858  30.987  34.193  1.00  0.00     0.167 HD
ATOM     53  C   UNL A   1      39.191  33.221  34.741  1.00  0.00     0.074 A 
ATOM     54  C   UNL A   1      38.172  34.243  34.596  1.00  0.00     0.031 C 
ATOM     55  C   UNL A   1      40.001  33.099  35.821  1.00  0.00     0.037 A 
BRANCH  42  56
ATOM     56  C   UNL A   1      44.038  28.430  35.458  1.00  0.00     0.058 A 
ATOM     57  C   UNL A   1      45.388  28.745  35.237  1.00  0.00     0.135 A 
ATOM     58  C   UNL A   1      43.747  27.385  36.349  1.00  0.00     0.135 A 
ATOM     59  F   UNL A   1      45.721  29.725  34.382  1.00  0.00    -0.206 F 
ATOM     60  C   UNL A   1      46.412  28.042  35.868  1.00  0.00     0.059 A 
ATOM     61  C   UNL A   1      44.753  26.682  37.005  1.00  0.00     0.059 A 
ATOM     62  F   UNL A   1      42.473  27.042  36.593  1.00  0.00    -0.206 F 
ATOM     63  C   UNL A   1      46.084  27.011  36.750  1.00  0.00     0.060 A 
BRANCH  63  64
ATOM     64  S   UNL A   1      47.417  26.121  37.586  1.00  0.00     0.124 S 
ATOM     65  O   UNL A   1      48.482  27.118  37.582  1.00  0.00    -0.237 OA
ATOM     66  O   UNL A   1      46.831  25.826  38.890  1.00  0.00    -0.237 OA
ATOM     67  O   UNL A   1      47.638  24.961  36.729  1.00  0.00    -0.744 OA
ENDBRANCH  63  64
ENDBRANCH  42  56
BRANCH  43  68
ATOM     68  C   UNL A   1      36.557  33.185  30.836  1.00  0.00     0.058 A 
ATOM     69  C   UNL A   1      35.243  33.023  31.296  1.00  0.00     0.135 A 
ATOM     70  C   UNL A   1      36.773  34.054  29.755  1.00  0.00     0.135 A 
ATOM     71  F   UNL A   1      34.989  32.196  32.322  1.00  0.00    -0.206 F 
ATOM     72  C   UNL A   1      34.180  33.703  30.711  1.00  0.00     0.059 A 
ATOM     73  C   UNL A   1      35.729  34.760  29.168  1.00  0.00     0.059 A 
ATOM     74  F   UNL A   1      38.016  34.253  29.290  1.00  0.00    -0.206 F 
ATOM     75  C   UNL A   1      34.434  34.575  29.652  1.00  0.00     0.060 A 
BRANCH  75  76
ATOM     76  S   UNL A   1      33.065  35.526  28.955  1.00  0.00     0.124 S 
ATOM     77  O   UNL A   1      32.292  35.844  30.149  1.00  0.00    -0.237 OA
ATOM     78  O   UNL A   1      33.753  36.647  28.322  1.00  0.00    -0.237 OA
ATOM     79  O   UNL A   1      32.443  34.583  28.030  1.00  0.00    -0.744 OA
ENDBRANCH  75  76
ENDBRANCH  43  68
BRANCH  55  80
ATOM     80  C   UNL A   1      39.825  34.108  36.917  1.00  0.00     0.058 A 
ATOM     81  C   UNL A   1      39.163  33.784  38.111  1.00  0.00     0.135 A 
ATOM     82  C   UNL A   1      40.334  35.407  36.776  1.00  0.00     0.135 A 
ATOM     83  F   UNL A   1      38.654  32.554  38.288  1.00  0.00    -0.206 F 
ATOM     84  C   UNL A   1      38.985  34.724  39.120  1.00  0.00     0.059 A 
ATOM     85  C   UNL A   1      40.183  36.360  37.779  1.00  0.00     0.059 A 
ATOM     86  F   UNL A   1      40.981  35.763  35.655  1.00  0.00    -0.206 F 
ATOM     87  C   UNL A   1      39.493  36.013  38.941  1.00  0.00     0.060 A 
BRANCH  87  88
ATOM     88  S   UNL A   1      39.261  37.232  40.253  1.00  0.00     0.124 S 
ATOM     89  O   UNL A   1      38.691  38.352  39.512  1.00  0.00    -0.237 OA
ATOM     90  O   UNL A   1      38.352  36.547  41.167  1.00  0.00    -0.237 OA
ATOM     91  O   UNL A   1      40.614  37.438  40.763  1.00  0.00    -0.744 OA
ENDBRANCH  87  88
ENDBRANCH  55  80
ENDBRANCH  29  30
ENDBRANCH  22  24
ENDBRANCH  21  22
ENDBRANCH  20  21
ENDBRANCH   1  20
TORSDOF 19
ENDMDL
