MODEL 1
REMARK VINA RESULT:     -11.9      0.000      0.000
REMARK SMILES O=C(Cc1cccn1-c1ccc2c(c1)OCCO2)OCCOC(=O)c1ccc(-c2c3nc(c(-c4c(F)cc(S(=O)(=O)[O-])cc4F)c4ccc([nH]4)c(-c4c(F)cc(S(=O)(=O)[O-])cc4F)c4nc(c(-c5c(F)cc(S(=O)(=O)[O-])cc5F)c5ccc2[nH]5)C=C4)C=C3)cc1
REMARK SMILES IDX 21 1 20 2 19 3 2 4 1 5 3 6 4 7 5 8 8 9 6 10 7 11 9 12 10 13
REMARK SMILES IDX 14 14 11 15 13 16 12 17 15 18 18 19 16 20 17 21 22 22 23 23
REMARK SMILES IDX 24 24 25 25 26 26 90 27 27 28 89 29 28 30 29 31 30 32 83 33
REMARK SMILES IDX 31 34 88 35 82 36 84 37 32 38 87 39 81 40 80 41 33 43 67 44
REMARK SMILES IDX 46 45 66 46 47 47 50 48 65 49 85 50 48 51 49 52 64 54 86 55
REMARK SMILES IDX 51 56 34 57 35 58 44 59 36 60 37 61 43 62 45 63 38 64 39 65
REMARK SMILES IDX 40 66 41 67 42 68 68 69 69 70 78 71 70 72 71 73 77 74 79 75
REMARK SMILES IDX 72 76 73 77 74 78 75 79 76 80 52 81 53 82 62 83 54 84 55 85
REMARK SMILES IDX 61 86 63 87 56 88 57 89 58 90 59 91 60 92
REMARK H PARENT 84 42 50 53
REMARK Flexibility Score: inf
ROOT
ATOM      1  C   UNL A   1      39.386  20.733  25.574  1.00  0.00     0.275 C 
ENDROOT
BRANCH   1   2
ATOM      2  C   UNL A   1      38.852  22.055  26.066  1.00  0.00     0.274 C 
BRANCH   2   3
ATOM      3  O   UNL A   1      37.838  22.582  25.174  1.00  0.00    -0.462 OA
BRANCH   3   4
ATOM      4  C   UNL A   1      36.496  22.396  25.236  1.00  0.00     0.311 C 
ATOM      5  O   UNL A   1      36.022  21.616  26.064  1.00  0.00    -0.252 OA
BRANCH   4   6
ATOM      6  C   UNL A   1      35.582  23.104  24.267  1.00  0.00     0.177 C 
BRANCH   6   7
ATOM      7  C   UNL A   1      34.385  23.832  24.808  1.00  0.00     0.034 A 
ATOM      8  C   UNL A   1      34.412  25.077  25.425  1.00  0.00     0.024 A 
ATOM      9  N   UNL A   1      33.057  23.428  24.754  1.00  0.00    -0.320 N 
ATOM     10  C   UNL A   1      33.090  25.427  25.760  1.00  0.00     0.020 A 
ATOM     11  C   UNL A   1      32.280  24.394  25.350  1.00  0.00     0.091 A 
BRANCH   9  12
ATOM     12  C   UNL A   1      32.562  22.196  24.285  1.00  0.00     0.049 A 
ATOM     13  C   UNL A   1      32.187  22.074  22.946  1.00  0.00     0.031 A 
ATOM     14  C   UNL A   1      32.720  21.071  25.099  1.00  0.00     0.077 A 
ATOM     15  C   UNL A   1      32.025  20.798  22.401  1.00  0.00     0.052 A 
ATOM     16  C   UNL A   1      32.704  19.813  24.503  1.00  0.00     0.163 A 
ATOM     17  C   UNL A   1      32.325  19.668  23.165  1.00  0.00     0.161 A 
ATOM     18  O   UNL A   1      33.206  18.769  25.248  1.00  0.00    -0.486 OA
ATOM     19  O   UNL A   1      32.301  18.458  22.517  1.00  0.00    -0.486 OA
ATOM     20  C   UNL A   1      33.757  17.783  24.359  1.00  0.00     0.271 C 
ATOM     21  C   UNL A   1      32.675  17.370  23.376  1.00  0.00     0.271 C 
ENDBRANCH   9  12
ENDBRANCH   6   7
ENDBRANCH   4   6
ENDBRANCH   3   4
ENDBRANCH   2   3
ENDBRANCH   1   2
BRANCH   1  22
ATOM     22  O   UNL A   1      40.203  20.213  26.605  1.00  0.00    -0.458 OA
BRANCH  22  23
ATOM     23  C   UNL A   1      41.345  19.648  26.158  1.00  0.00     0.338 C 
ATOM     24  O   UNL A   1      41.499  18.554  25.658  1.00  0.00    -0.246 OA
BRANCH  23  25
ATOM     25  C   UNL A   1      42.442  20.531  26.533  1.00  0.00     0.060 A 
ATOM     26  C   UNL A   1      42.407  20.949  27.862  1.00  0.00     0.016 A 
ATOM     27  C   UNL A   1      42.958  21.300  25.483  1.00  0.00     0.016 A 
ATOM     28  C   UNL A   1      42.619  22.280  28.093  1.00  0.00     0.010 A 
ATOM     29  C   UNL A   1      43.048  22.644  25.688  1.00  0.00     0.010 A 
ATOM     30  C   UNL A   1      42.858  23.111  26.989  1.00  0.00    -0.014 A 
BRANCH  30  31
ATOM     31  C   UNL A   1      43.209  24.490  27.267  1.00  0.00     0.031 A 
ATOM     32  C   UNL A   1      41.871  25.275  27.365  1.00  0.00     0.074 A 
ATOM     33  C   UNL A   1      44.561  24.731  27.300  1.00  0.00     0.049 A 
ATOM     34  N   UNL A   1      41.600  26.491  27.023  1.00  0.00    -0.248 NA
ATOM     35  C   UNL A   1      40.604  24.575  27.775  1.00  0.00     0.031 C 
ATOM     36  C   UNL A   1      45.641  23.706  27.207  1.00  0.00     0.029 A 
ATOM     37  N   UNL A   1      45.317  25.871  27.415  1.00  0.00    -0.354 N 
ATOM     38  C   UNL A   1      40.284  26.770  27.459  1.00  0.00     0.074 A 
ATOM     39  C   UNL A   1      39.665  25.519  27.728  1.00  0.00     0.031 C 
ATOM     40  C   UNL A   1      46.868  24.283  27.154  1.00  0.00     0.029 A 
ATOM     41  C   UNL A   1      46.727  25.723  27.238  1.00  0.00     0.049 A 
ATOM     42  H   UNL A   1      44.909  26.746  27.608  1.00  0.00     0.167 HD
ATOM     43  C   UNL A   1      39.873  28.033  27.767  1.00  0.00     0.037 A 
ATOM     44  C   UNL A   1      47.671  26.718  27.122  1.00  0.00     0.037 A 
ATOM     45  C   UNL A   1      40.947  28.933  27.505  1.00  0.00     0.049 A 
ATOM     46  C   UNL A   1      46.909  27.935  27.432  1.00  0.00     0.074 A 
ATOM     47  C   UNL A   1      41.532  29.308  26.322  1.00  0.00     0.029 A 
ATOM     48  N   UNL A   1      41.825  29.145  28.545  1.00  0.00    -0.354 N 
ATOM     49  N   UNL A   1      46.469  28.250  28.613  1.00  0.00    -0.248 NA
ATOM     50  C   UNL A   1      46.472  28.783  26.317  1.00  0.00     0.031 C 
ATOM     51  C   UNL A   1      42.904  29.213  26.625  1.00  0.00     0.029 A 
ATOM     52  C   UNL A   1      43.089  29.142  28.013  1.00  0.00     0.049 A 
ATOM     53  H   UNL A   1      41.590  29.273  29.493  1.00  0.00     0.167 HD
ATOM     54  C   UNL A   1      45.437  29.103  28.319  1.00  0.00     0.074 A 
ATOM     55  C   UNL A   1      45.700  29.629  26.992  1.00  0.00     0.031 C 
ATOM     56  C   UNL A   1      44.216  28.904  28.883  1.00  0.00     0.037 A 
BRANCH  43  57
ATOM     57  C   UNL A   1      38.718  28.562  28.567  1.00  0.00     0.058 A 
ATOM     58  C   UNL A   1      38.018  29.665  28.017  1.00  0.00     0.135 A 
ATOM     59  C   UNL A   1      38.513  28.316  29.932  1.00  0.00     0.135 A 
ATOM     60  F   UNL A   1      38.078  29.932  26.701  1.00  0.00    -0.206 F 
ATOM     61  C   UNL A   1      37.322  30.572  28.800  1.00  0.00     0.059 A 
ATOM     62  C   UNL A   1      37.767  29.188  30.731  1.00  0.00     0.059 A 
ATOM     63  F   UNL A   1      39.089  27.277  30.550  1.00  0.00    -0.206 F 
ATOM     64  C   UNL A   1      37.234  30.345  30.167  1.00  0.00     0.060 A 
BRANCH  64  65
ATOM     65  S   UNL A   1      36.442  31.607  31.181  1.00  0.00     0.124 S 
ATOM     66  O   UNL A   1      36.259  30.901  32.443  1.00  0.00    -0.237 OA
ATOM     67  O   UNL A   1      37.448  32.667  31.189  1.00  0.00    -0.237 OA
ATOM     68  O   UNL A   1      35.224  31.916  30.439  1.00  0.00    -0.744 OA
ENDBRANCH  64  65
ENDBRANCH  43  57
BRANCH  44  69
ATOM     69  C   UNL A   1      49.110  26.949  26.679  1.00  0.00     0.058 A 
ATOM     70  C   UNL A   1      50.146  27.520  27.429  1.00  0.00     0.135 A 
ATOM     71  C   UNL A   1      49.545  26.407  25.429  1.00  0.00     0.135 A 
ATOM     72  F   UNL A   1      49.880  28.205  28.550  1.00  0.00    -0.206 F 
ATOM     73  C   UNL A   1      51.507  27.395  27.055  1.00  0.00     0.059 A 
ATOM     74  C   UNL A   1      50.875  26.211  25.070  1.00  0.00     0.059 A 
ATOM     75  F   UNL A   1      48.675  25.997  24.495  1.00  0.00    -0.206 F 
ATOM     76  C   UNL A   1      51.863  26.673  25.911  1.00  0.00     0.060 A 
BRANCH  76  77
ATOM     77  S   UNL A   1      53.581  26.207  25.581  1.00  0.00     0.124 S 
ATOM     78  O   UNL A   1      53.777  25.084  26.490  1.00  0.00    -0.237 OA
ATOM     79  O   UNL A   1      53.548  25.879  24.159  1.00  0.00    -0.237 OA
ATOM     80  O   UNL A   1      54.328  27.419  25.911  1.00  0.00    -0.744 OA
ENDBRANCH  76  77
ENDBRANCH  44  69
BRANCH  56  81
ATOM     81  C   UNL A   1      44.211  28.152  30.211  1.00  0.00     0.058 A 
ATOM     82  C   UNL A   1      44.901  28.684  31.314  1.00  0.00     0.135 A 
ATOM     83  C   UNL A   1      43.614  26.895  30.428  1.00  0.00     0.135 A 
ATOM     84  F   UNL A   1      45.485  29.889  31.214  1.00  0.00    -0.206 F 
ATOM     85  C   UNL A   1      44.998  28.017  32.540  1.00  0.00     0.059 A 
ATOM     86  C   UNL A   1      43.698  26.200  31.642  1.00  0.00     0.059 A 
ATOM     87  F   UNL A   1      42.914  26.302  29.461  1.00  0.00    -0.206 F 
ATOM     88  C   UNL A   1      44.391  26.773  32.701  1.00  0.00     0.060 A 
BRANCH  88  89
ATOM     89  S   UNL A   1      44.484  25.952  34.310  1.00  0.00     0.124 S 
ATOM     90  O   UNL A   1      45.922  25.801  34.505  1.00  0.00    -0.237 OA
ATOM     91  O   UNL A   1      43.828  26.920  35.184  1.00  0.00    -0.237 OA
ATOM     92  O   UNL A   1      43.753  24.703  34.106  1.00  0.00    -0.744 OA
ENDBRANCH  88  89
ENDBRANCH  56  81
ENDBRANCH  30  31
ENDBRANCH  23  25
ENDBRANCH  22  23
ENDBRANCH   1  22
TORSDOF 16
ENDMDL
MODEL 2
REMARK VINA RESULT:     -11.8      1.382      3.121
REMARK SMILES O=C(Cc1cccn1-c1ccc2c(c1)OCCO2)OCCOC(=O)c1ccc(-c2c3nc(c(-c4c(F)cc(S(=O)(=O)[O-])cc4F)c4ccc([nH]4)c(-c4c(F)cc(S(=O)(=O)[O-])cc4F)c4nc(c(-c5c(F)cc(S(=O)(=O)[O-])cc5F)c5ccc2[nH]5)C=C4)C=C3)cc1
REMARK SMILES IDX 21 1 20 2 19 3 2 4 1 5 3 6 4 7 5 8 8 9 6 10 7 11 9 12 10 13
REMARK SMILES IDX 14 14 11 15 13 16 12 17 15 18 18 19 16 20 17 21 22 22 23 23
REMARK SMILES IDX 24 24 25 25 26 26 90 27 27 28 89 29 28 30 29 31 30 32 83 33
REMARK SMILES IDX 31 34 88 35 82 36 84 37 32 38 87 39 81 40 80 41 33 43 67 44
REMARK SMILES IDX 46 45 66 46 47 47 50 48 65 49 85 50 48 51 49 52 64 54 86 55
REMARK SMILES IDX 51 56 34 57 35 58 44 59 36 60 37 61 43 62 45 63 38 64 39 65
REMARK SMILES IDX 40 66 41 67 42 68 68 69 69 70 78 71 70 72 71 73 77 74 79 75
REMARK SMILES IDX 72 76 73 77 74 78 75 79 76 80 52 81 53 82 62 83 54 84 55 85
REMARK SMILES IDX 61 86 63 87 56 88 57 89 58 90 59 91 60 92
REMARK H PARENT 84 42 50 53
REMARK Flexibility Score: inf
ROOT
ATOM      1  C   UNL A   1      39.006  20.204  25.393  1.00  0.00     0.275 C 
ENDROOT
BRANCH   1   2
ATOM      2  C   UNL A   1      38.255  21.512  25.379  1.00  0.00     0.274 C 
BRANCH   2   3
ATOM      3  O   UNL A   1      37.187  21.501  24.400  1.00  0.00    -0.462 OA
BRANCH   3   4
ATOM      4  C   UNL A   1      36.542  22.563  23.858  1.00  0.00     0.311 C 
ATOM      5  O   UNL A   1      36.822  22.933  22.716  1.00  0.00    -0.252 OA
BRANCH   4   6
ATOM      6  C   UNL A   1      35.514  23.323  24.659  1.00  0.00     0.177 C 
BRANCH   6   7
ATOM      7  C   UNL A   1      34.093  23.343  24.174  1.00  0.00     0.034 A 
ATOM      8  C   UNL A   1      33.394  22.244  23.689  1.00  0.00     0.024 A 
ATOM      9  N   UNL A   1      33.221  24.424  24.162  1.00  0.00    -0.320 N 
ATOM     10  C   UNL A   1      32.089  22.664  23.367  1.00  0.00     0.020 A 
ATOM     11  C   UNL A   1      32.012  24.006  23.655  1.00  0.00     0.091 A 
BRANCH   9  12
ATOM     12  C   UNL A   1      33.518  25.760  24.493  1.00  0.00     0.049 A 
ATOM     13  C   UNL A   1      33.709  26.691  23.470  1.00  0.00     0.031 A 
ATOM     14  C   UNL A   1      33.341  26.165  25.818  1.00  0.00     0.077 A 
ATOM     15  C   UNL A   1      33.664  28.053  23.777  1.00  0.00     0.052 A 
ATOM     16  C   UNL A   1      33.147  27.518  26.079  1.00  0.00     0.163 A 
ATOM     17  C   UNL A   1      33.340  28.468  25.070  1.00  0.00     0.161 A 
ATOM     18  O   UNL A   1      32.631  27.843  27.313  1.00  0.00    -0.486 OA
ATOM     19  O   UNL A   1      33.153  29.815  25.261  1.00  0.00    -0.486 OA
ATOM     20  C   UNL A   1      31.871  29.058  27.198  1.00  0.00     0.271 C 
ATOM     21  C   UNL A   1      32.772  30.130  26.609  1.00  0.00     0.271 C 
ENDBRANCH   9  12
ENDBRANCH   6   7
ENDBRANCH   4   6
ENDBRANCH   3   4
ENDBRANCH   2   3
ENDBRANCH   1   2
BRANCH   1  22
ATOM     22  O   UNL A   1      39.973  20.299  26.419  1.00  0.00    -0.458 OA
BRANCH  22  23
ATOM     23  C   UNL A   1      41.113  19.624  26.154  1.00  0.00     0.338 C 
ATOM     24  O   UNL A   1      41.242  18.468  25.810  1.00  0.00    -0.246 OA
BRANCH  23  25
ATOM     25  C   UNL A   1      42.226  20.493  26.515  1.00  0.00     0.060 A 
ATOM     26  C   UNL A   1      42.210  20.915  27.843  1.00  0.00     0.016 A 
ATOM     27  C   UNL A   1      42.743  21.252  25.457  1.00  0.00     0.016 A 
ATOM     28  C   UNL A   1      42.443  22.244  28.068  1.00  0.00     0.010 A 
ATOM     29  C   UNL A   1      42.854  22.594  25.658  1.00  0.00     0.010 A 
ATOM     30  C   UNL A   1      42.683  23.068  26.960  1.00  0.00    -0.014 A 
BRANCH  30  31
ATOM     31  C   UNL A   1      43.056  24.442  27.231  1.00  0.00     0.031 A 
ATOM     32  C   UNL A   1      41.730  25.240  27.373  1.00  0.00     0.074 A 
ATOM     33  C   UNL A   1      44.411  24.669  27.221  1.00  0.00     0.049 A 
ATOM     34  N   UNL A   1      41.460  26.459  27.044  1.00  0.00    -0.248 NA
ATOM     35  C   UNL A   1      40.470  24.551  27.822  1.00  0.00     0.031 C 
ATOM     36  C   UNL A   1      45.478  23.634  27.090  1.00  0.00     0.029 A 
ATOM     37  N   UNL A   1      45.181  25.802  27.315  1.00  0.00    -0.354 N 
ATOM     38  C   UNL A   1      40.161  26.750  27.522  1.00  0.00     0.074 A 
ATOM     39  C   UNL A   1      39.539  25.504  27.807  1.00  0.00     0.031 C 
ATOM     40  C   UNL A   1      46.707  24.200  27.000  1.00  0.00     0.029 A 
ATOM     41  C   UNL A   1      46.583  25.641  27.093  1.00  0.00     0.049 A 
ATOM     42  H   UNL A   1      44.788  26.680  27.523  1.00  0.00     0.167 HD
ATOM     43  C   UNL A   1      39.774  28.016  27.846  1.00  0.00     0.037 A 
ATOM     44  C   UNL A   1      47.534  26.626  26.950  1.00  0.00     0.037 A 
ATOM     45  C   UNL A   1      40.848  28.907  27.552  1.00  0.00     0.049 A 
ATOM     46  C   UNL A   1      46.793  27.850  27.287  1.00  0.00     0.074 A 
ATOM     47  C   UNL A   1      41.398  29.279  26.353  1.00  0.00     0.029 A 
ATOM     48  N   UNL A   1      41.760  29.106  28.565  1.00  0.00    -0.354 N 
ATOM     49  N   UNL A   1      46.395  28.166  28.483  1.00  0.00    -0.248 NA
ATOM     50  C   UNL A   1      46.330  28.706  26.189  1.00  0.00     0.031 C 
ATOM     51  C   UNL A   1      42.778  29.170  26.612  1.00  0.00     0.029 A 
ATOM     52  C   UNL A   1      43.006  29.092  27.993  1.00  0.00     0.049 A 
ATOM     53  H   UNL A   1      41.556  29.234  29.520  1.00  0.00     0.167 HD
ATOM     54  C   UNL A   1      45.363  29.029  28.223  1.00  0.00     0.074 A 
ATOM     55  C   UNL A   1      45.588  29.557  26.891  1.00  0.00     0.031 C 
ATOM     56  C   UNL A   1      44.158  28.841  28.826  1.00  0.00     0.037 A 
BRANCH  43  57
ATOM     57  C   UNL A   1      38.650  28.554  28.684  1.00  0.00     0.058 A 
ATOM     58  C   UNL A   1      37.940  29.663  28.157  1.00  0.00     0.135 A 
ATOM     59  C   UNL A   1      38.488  28.309  30.055  1.00  0.00     0.135 A 
ATOM     60  F   UNL A   1      37.960  29.930  26.840  1.00  0.00    -0.206 F 
ATOM     61  C   UNL A   1      37.279  30.575  28.963  1.00  0.00     0.059 A 
ATOM     62  C   UNL A   1      37.776  29.187  30.878  1.00  0.00     0.059 A 
ATOM     63  F   UNL A   1      39.076  27.265  30.653  1.00  0.00    -0.206 F 
ATOM     64  C   UNL A   1      37.234  30.348  30.333  1.00  0.00     0.060 A 
BRANCH  64  65
ATOM     65  S   UNL A   1      36.486  31.616  31.372  1.00  0.00     0.124 S 
ATOM     66  O   UNL A   1      36.324  30.906  32.635  1.00  0.00    -0.237 OA
ATOM     67  O   UNL A   1      37.506  32.661  31.361  1.00  0.00    -0.237 OA
ATOM     68  O   UNL A   1      35.254  31.947  30.663  1.00  0.00    -0.744 OA
ENDBRANCH  64  65
ENDBRANCH  43  57
BRANCH  44  69
ATOM     69  C   UNL A   1      48.960  26.845  26.462  1.00  0.00     0.058 A 
ATOM     70  C   UNL A   1      50.090  27.122  27.242  1.00  0.00     0.135 A 
ATOM     71  C   UNL A   1      49.265  26.604  25.085  1.00  0.00     0.135 A 
ATOM     72  F   UNL A   1      49.959  27.520  28.515  1.00  0.00    -0.206 F 
ATOM     73  C   UNL A   1      51.407  26.986  26.739  1.00  0.00     0.059 A 
ATOM     74  C   UNL A   1      50.546  26.398  24.582  1.00  0.00     0.059 A 
ATOM     75  F   UNL A   1      48.306  26.516  24.153  1.00  0.00    -0.206 F 
ATOM     76  C   UNL A   1      51.622  26.551  25.428  1.00  0.00     0.060 A 
BRANCH  76  77
ATOM     77  S   UNL A   1      53.264  26.046  24.853  1.00  0.00     0.124 S 
ATOM     78  O   UNL A   1      53.236  24.604  25.066  1.00  0.00    -0.237 OA
ATOM     79  O   UNL A   1      53.257  26.486  23.462  1.00  0.00    -0.237 OA
ATOM     80  O   UNL A   1      54.169  26.792  25.725  1.00  0.00    -0.744 OA
ENDBRANCH  76  77
ENDBRANCH  44  69
BRANCH  56  81
ATOM     81  C   UNL A   1      44.188  28.085  30.151  1.00  0.00     0.058 A 
ATOM     82  C   UNL A   1      44.906  28.615  31.238  1.00  0.00     0.135 A 
ATOM     83  C   UNL A   1      43.598  26.827  30.379  1.00  0.00     0.135 A 
ATOM     84  F   UNL A   1      45.485  29.821  31.127  1.00  0.00    -0.206 F 
ATOM     85  C   UNL A   1      45.034  27.943  32.459  1.00  0.00     0.059 A 
ATOM     86  C   UNL A   1      43.714  26.128  31.589  1.00  0.00     0.059 A 
ATOM     87  F   UNL A   1      42.874  26.236  29.429  1.00  0.00    -0.206 F 
ATOM     88  C   UNL A   1      44.433  26.699  32.631  1.00  0.00     0.060 A 
BRANCH  88  89
ATOM     89  S   UNL A   1      44.568  25.873  34.235  1.00  0.00     0.124 S 
ATOM     90  O   UNL A   1      44.239  24.489  33.907  1.00  0.00    -0.237 OA
ATOM     91  O   UNL A   1      45.961  26.122  34.589  1.00  0.00    -0.237 OA
ATOM     92  O   UNL A   1      43.582  26.563  35.066  1.00  0.00    -0.744 OA
ENDBRANCH  88  89
ENDBRANCH  56  81
ENDBRANCH  30  31
ENDBRANCH  23  25
ENDBRANCH  22  23
ENDBRANCH   1  22
TORSDOF 16
ENDMDL
MODEL 3
REMARK VINA RESULT:     -11.8      1.556      2.711
REMARK SMILES O=C(Cc1cccn1-c1ccc2c(c1)OCCO2)OCCOC(=O)c1ccc(-c2c3nc(c(-c4c(F)cc(S(=O)(=O)[O-])cc4F)c4ccc([nH]4)c(-c4c(F)cc(S(=O)(=O)[O-])cc4F)c4nc(c(-c5c(F)cc(S(=O)(=O)[O-])cc5F)c5ccc2[nH]5)C=C4)C=C3)cc1
REMARK SMILES IDX 21 1 20 2 19 3 2 4 1 5 3 6 4 7 5 8 8 9 6 10 7 11 9 12 10 13
REMARK SMILES IDX 14 14 11 15 13 16 12 17 15 18 18 19 16 20 17 21 22 22 23 23
REMARK SMILES IDX 24 24 25 25 26 26 90 27 27 28 89 29 28 30 29 31 30 32 83 33
REMARK SMILES IDX 31 34 88 35 82 36 84 37 32 38 87 39 81 40 80 41 33 43 67 44
REMARK SMILES IDX 46 45 66 46 47 47 50 48 65 49 85 50 48 51 49 52 64 54 86 55
REMARK SMILES IDX 51 56 34 57 35 58 44 59 36 60 37 61 43 62 45 63 38 64 39 65
REMARK SMILES IDX 40 66 41 67 42 68 68 69 69 70 78 71 70 72 71 73 77 74 79 75
REMARK SMILES IDX 72 76 73 77 74 78 75 79 76 80 52 81 53 82 62 83 54 84 55 85
REMARK SMILES IDX 61 86 63 87 56 88 57 89 58 90 59 91 60 92
REMARK H PARENT 84 42 50 53
REMARK Flexibility Score: inf
ROOT
ATOM      1  C   UNL A   1      39.014  20.781  25.590  1.00  0.00     0.275 C 
ENDROOT
BRANCH   1   2
ATOM      2  C   UNL A   1      38.450  22.107  26.038  1.00  0.00     0.274 C 
BRANCH   2   3
ATOM      3  O   UNL A   1      37.881  22.843  24.927  1.00  0.00    -0.462 OA
BRANCH   3   4
ATOM      4  C   UNL A   1      36.716  22.602  24.277  1.00  0.00     0.311 C 
ATOM      5  O   UNL A   1      36.684  22.630  23.045  1.00  0.00    -0.252 OA
BRANCH   4   6
ATOM      6  C   UNL A   1      35.448  22.342  25.052  1.00  0.00     0.177 C 
BRANCH   6   7
ATOM      7  C   UNL A   1      34.652  21.108  24.737  1.00  0.00     0.034 A 
ATOM      8  C   UNL A   1      35.068  19.803  24.967  1.00  0.00     0.024 A 
ATOM      9  N   UNL A   1      33.367  21.044  24.213  1.00  0.00    -0.320 N 
ATOM     10  C   UNL A   1      34.032  18.936  24.568  1.00  0.00     0.020 A 
ATOM     11  C   UNL A   1      33.006  19.722  24.098  1.00  0.00     0.091 A 
BRANCH   9  12
ATOM     12  C   UNL A   1      32.581  22.119  23.754  1.00  0.00     0.049 A 
ATOM     13  C   UNL A   1      31.581  22.636  24.581  1.00  0.00     0.031 A 
ATOM     14  C   UNL A   1      33.007  22.806  22.615  1.00  0.00     0.077 A 
ATOM     15  C   UNL A   1      31.040  23.890  24.286  1.00  0.00     0.052 A 
ATOM     16  C   UNL A   1      32.569  24.113  22.424  1.00  0.00     0.163 A 
ATOM     17  C   UNL A   1      31.563  24.648  23.235  1.00  0.00     0.161 A 
ATOM     18  O   UNL A   1      33.264  24.872  21.510  1.00  0.00    -0.486 OA
ATOM     19  O   UNL A   1      31.097  25.933  23.106  1.00  0.00    -0.486 OA
ATOM     20  C   UNL A   1      33.197  26.254  21.901  1.00  0.00     0.271 C 
ATOM     21  C   UNL A   1      31.734  26.641  22.033  1.00  0.00     0.271 C 
ENDBRANCH   9  12
ENDBRANCH   6   7
ENDBRANCH   4   6
ENDBRANCH   3   4
ENDBRANCH   2   3
ENDBRANCH   1   2
BRANCH   1  22
ATOM     22  O   UNL A   1      39.822  20.303  26.647  1.00  0.00    -0.458 OA
BRANCH  22  23
ATOM     23  C   UNL A   1      40.952  19.690  26.231  1.00  0.00     0.338 C 
ATOM     24  O   UNL A   1      41.078  18.572  25.778  1.00  0.00    -0.246 OA
BRANCH  23  25
ATOM     25  C   UNL A   1      42.070  20.559  26.573  1.00  0.00     0.060 A 
ATOM     26  C   UNL A   1      42.058  21.008  27.893  1.00  0.00     0.016 A 
ATOM     27  C   UNL A   1      42.590  21.294  25.501  1.00  0.00     0.016 A 
ATOM     28  C   UNL A   1      42.299  22.339  28.092  1.00  0.00     0.010 A 
ATOM     29  C   UNL A   1      42.709  22.639  25.675  1.00  0.00     0.010 A 
ATOM     30  C   UNL A   1      42.542  23.140  26.967  1.00  0.00    -0.014 A 
BRANCH  30  31
ATOM     31  C   UNL A   1      42.924  24.517  27.210  1.00  0.00     0.031 A 
ATOM     32  C   UNL A   1      41.603  25.311  27.415  1.00  0.00     0.074 A 
ATOM     33  C   UNL A   1      44.275  24.748  27.130  1.00  0.00     0.049 A 
ATOM     34  N   UNL A   1      41.313  26.527  27.092  1.00  0.00    -0.248 NA
ATOM     35  C   UNL A   1      40.370  24.621  27.931  1.00  0.00     0.031 C 
ATOM     36  C   UNL A   1      45.338  23.716  26.952  1.00  0.00     0.029 A 
ATOM     37  N   UNL A   1      45.045  25.884  27.178  1.00  0.00    -0.354 N 
ATOM     38  C   UNL A   1      40.039  26.817  27.634  1.00  0.00     0.074 A 
ATOM     39  C   UNL A   1      39.436  25.571  27.958  1.00  0.00     0.031 C 
ATOM     40  C   UNL A   1      46.559  24.285  26.796  1.00  0.00     0.029 A 
ATOM     41  C   UNL A   1      46.435  25.726  26.886  1.00  0.00     0.049 A 
ATOM     42  H   UNL A   1      44.660  26.762  27.401  1.00  0.00     0.167 HD
ATOM     43  C   UNL A   1      39.664  28.084  27.971  1.00  0.00     0.037 A 
ATOM     44  C   UNL A   1      47.373  26.714  26.688  1.00  0.00     0.037 A 
ATOM     45  C   UNL A   1      40.718  28.976  27.617  1.00  0.00     0.049 A 
ATOM     46  C   UNL A   1      46.647  27.938  27.056  1.00  0.00     0.074 A 
ATOM     47  C   UNL A   1      41.206  29.343  26.389  1.00  0.00     0.029 A 
ATOM     48  N   UNL A   1      41.680  29.185  28.580  1.00  0.00    -0.354 N 
ATOM     49  N   UNL A   1      46.308  28.259  28.268  1.00  0.00    -0.248 NA
ATOM     50  C   UNL A   1      46.124  28.785  25.978  1.00  0.00     0.031 C 
ATOM     51  C   UNL A   1      42.597  29.239  26.578  1.00  0.00     0.029 A 
ATOM     52  C   UNL A   1      42.896  29.172  27.945  1.00  0.00     0.049 A 
ATOM     53  H   UNL A   1      41.525  29.318  29.544  1.00  0.00     0.167 HD
ATOM     54  C   UNL A   1      45.261  29.118  28.057  1.00  0.00     0.074 A 
ATOM     55  C   UNL A   1      45.416  29.638  26.711  1.00  0.00     0.031 C 
ATOM     56  C   UNL A   1      44.089  28.929  28.720  1.00  0.00     0.037 A 
BRANCH  43  57
ATOM     57  C   UNL A   1      38.582  28.623  28.861  1.00  0.00     0.058 A 
ATOM     58  C   UNL A   1      37.799  29.682  28.337  1.00  0.00     0.135 A 
ATOM     59  C   UNL A   1      38.524  28.437  30.249  1.00  0.00     0.135 A 
ATOM     60  F   UNL A   1      37.718  29.889  27.012  1.00  0.00    -0.206 F 
ATOM     61  C   UNL A   1      37.162  30.609  29.147  1.00  0.00     0.059 A 
ATOM     62  C   UNL A   1      37.840  29.328  31.081  1.00  0.00     0.059 A 
ATOM     63  F   UNL A   1      39.189  27.441  30.850  1.00  0.00    -0.206 F 
ATOM     64  C   UNL A   1      37.220  30.445  30.525  1.00  0.00     0.060 A 
BRANCH  64  65
ATOM     65  S   UNL A   1      36.501  31.734  31.558  1.00  0.00     0.124 S 
ATOM     66  O   UNL A   1      35.222  31.964  30.897  1.00  0.00    -0.237 OA
ATOM     67  O   UNL A   1      36.431  31.077  32.861  1.00  0.00    -0.237 OA
ATOM     68  O   UNL A   1      37.472  32.819  31.464  1.00  0.00    -0.744 OA
ENDBRANCH  64  65
ENDBRANCH  43  57
BRANCH  44  69
ATOM     69  C   UNL A   1      48.772  26.935  26.128  1.00  0.00     0.058 A 
ATOM     70  C   UNL A   1      49.244  26.573  24.860  1.00  0.00     0.135 A 
ATOM     71  C   UNL A   1      49.700  27.728  26.875  1.00  0.00     0.135 A 
ATOM     72  F   UNL A   1      48.561  25.705  24.100  1.00  0.00    -0.206 F 
ATOM     73  C   UNL A   1      50.440  27.105  24.319  1.00  0.00     0.059 A 
ATOM     74  C   UNL A   1      50.843  28.318  26.346  1.00  0.00     0.059 A 
ATOM     75  F   UNL A   1      49.509  28.005  28.173  1.00  0.00    -0.206 F 
ATOM     76  C   UNL A   1      51.193  28.034  25.044  1.00  0.00     0.060 A 
BRANCH  76  77
ATOM     77  S   UNL A   1      52.528  28.983  24.271  1.00  0.00     0.124 S 
ATOM     78  O   UNL A   1      51.832  30.176  23.808  1.00  0.00    -0.237 OA
ATOM     79  O   UNL A   1      53.456  29.175  25.381  1.00  0.00    -0.237 OA
ATOM     80  O   UNL A   1      53.011  28.089  23.220  1.00  0.00    -0.744 OA
ENDBRANCH  76  77
ENDBRANCH  44  69
BRANCH  56  81
ATOM     81  C   UNL A   1      44.189  28.181  30.047  1.00  0.00     0.058 A 
ATOM     82  C   UNL A   1      44.969  28.715  31.088  1.00  0.00     0.135 A 
ATOM     83  C   UNL A   1      43.607  26.928  30.316  1.00  0.00     0.135 A 
ATOM     84  F   UNL A   1      45.546  29.917  30.937  1.00  0.00    -0.206 F 
ATOM     85  C   UNL A   1      45.162  28.050  32.306  1.00  0.00     0.059 A 
ATOM     86  C   UNL A   1      43.786  26.236  31.522  1.00  0.00     0.059 A 
ATOM     87  F   UNL A   1      42.829  26.334  29.412  1.00  0.00    -0.206 F 
ATOM     88  C   UNL A   1      44.565  26.810  32.519  1.00  0.00     0.060 A 
BRANCH  88  89
ATOM     89  S   UNL A   1      44.785  25.994  34.119  1.00  0.00     0.124 S 
ATOM     90  O   UNL A   1      44.287  26.995  35.056  1.00  0.00    -0.237 OA
ATOM     91  O   UNL A   1      43.955  24.803  33.969  1.00  0.00    -0.237 OA
ATOM     92  O   UNL A   1      46.224  25.744  34.186  1.00  0.00    -0.744 OA
ENDBRANCH  88  89
ENDBRANCH  56  81
ENDBRANCH  30  31
ENDBRANCH  23  25
ENDBRANCH  22  23
ENDBRANCH   1  22
TORSDOF 16
ENDMDL
