MODEL 1
REMARK VINA RESULT:     -10.6      0.000      0.000
REMARK SMILES Cc1nc(C[N@H+](C)[C@H](C)c2ccc(C(=O)OCCOC(=O)c3ccc(-c4c5nc(c(-c6c(F)cc(S(=O)(=O)[O-])cc6F)c6ccc([nH]6)c(-c6c(F)cc(S(=O)(=O)[O-])cc6F)c6nc(c(-c7c(F)cc(S(=O)(=O)[O-])cc7F)c7ccc4[nH]7)C=C6)C=C5)cc3)o2)cs1
REMARK SMILES IDX 17 1 16 2 14 3 15 4 13 5 10 6 11 7 88 8 12 9 8 10 9 11 6 12
REMARK SMILES IDX 7 13 5 15 4 16 1 17 2 18 3 19 90 20 89 21 18 22 19 23 20 24
REMARK SMILES IDX 21 25 22 26 23 27 87 28 24 29 86 30 25 31 26 32 27 33 80 34
REMARK SMILES IDX 28 35 85 36 79 37 81 38 29 39 84 40 78 41 77 42 30 44 64 45
REMARK SMILES IDX 43 46 63 47 44 48 47 49 62 50 82 51 45 52 46 53 61 55 83 56
REMARK SMILES IDX 48 57 31 58 32 59 41 60 33 61 34 62 40 63 42 64 35 65 36 66
REMARK SMILES IDX 37 67 38 68 39 69 65 70 66 71 75 72 67 73 68 74 74 75 76 76
REMARK SMILES IDX 69 77 70 78 71 79 72 80 73 81 49 82 50 83 59 84 51 85 52 86
REMARK SMILES IDX 58 87 60 88 53 89 54 90 55 91 56 92 57 93
REMARK H PARENT 6 14 81 43 47 54
REMARK Flexibility Score: inf
ROOT
ATOM      1  C   UNL A   1      41.629  21.605  26.276  1.00  0.00     0.275 C 
ENDROOT
BRANCH   1   2
ATOM      2  O   UNL A   1      40.300  21.847  26.781  1.00  0.00    -0.456 OA
BRANCH   2   3
ATOM      3  C   UNL A   1      39.280  21.336  26.025  1.00  0.00     0.374 C 
ATOM      4  O   UNL A   1      39.281  20.213  25.540  1.00  0.00    -0.242 OA
BRANCH   3   5
ATOM      5  C   UNL A   1      38.204  22.294  25.918  1.00  0.00     0.212 A 
ATOM      6  C   UNL A   1      36.104  22.899  25.537  1.00  0.00     0.162 A 
ATOM      7  C   UNL A   1      36.810  24.048  25.847  1.00  0.00     0.053 A 
ATOM      8  O   UNL A   1      36.977  21.853  25.489  1.00  0.00    -0.448 OA
ATOM      9  C   UNL A   1      38.132  23.650  26.164  1.00  0.00     0.059 A 
BRANCH   6  10
ATOM     10  C   UNL A   1      34.651  22.634  25.201  1.00  0.00     0.248 C 
ATOM     11  C   UNL A   1      34.320  22.638  23.700  1.00  0.00     0.084 C 
BRANCH  10  12
ATOM     12  N   UNL A   1      34.128  21.448  25.929  1.00  0.00    -0.324 N 
ATOM     13  C   UNL A   1      34.169  21.692  27.377  1.00  0.00     0.333 C 
ATOM     14  H   UNL A   1      34.751  20.696  25.635  1.00  0.00     0.348 HD
BRANCH  12  15
ATOM     15  C   UNL A   1      32.764  20.982  25.569  1.00  0.00     0.320 C 
BRANCH  15  16
ATOM     16  C   UNL A   1      32.691  19.602  24.964  1.00  0.00     0.106 A 
ATOM     17  C   UNL A   1      32.678  16.008  25.637  1.00  0.00     0.079 C 
ATOM     18  C   UNL A   1      32.628  17.382  25.074  1.00  0.00     0.090 A 
ATOM     19  N   UNL A   1      32.612  18.484  25.797  1.00  0.00    -0.241 NA
ATOM     20  S   UNL A   1      32.637  17.606  23.373  1.00  0.00    -0.127 S 
ATOM     21  C   UNL A   1      32.661  19.298  23.613  1.00  0.00     0.096 A 
ENDBRANCH  15  16
ENDBRANCH  12  15
ENDBRANCH  10  12
ENDBRANCH   6  10
ENDBRANCH   3   5
ENDBRANCH   2   3
ENDBRANCH   1   2
BRANCH   1  22
ATOM     22  C   UNL A   1      42.264  22.832  25.608  1.00  0.00     0.275 C 
BRANCH  22  23
ATOM     23  O   UNL A   1      42.545  23.886  26.546  1.00  0.00    -0.458 OA
BRANCH  23  24
ATOM     24  C   UNL A   1      41.980  25.080  26.245  1.00  0.00     0.338 C 
ATOM     25  O   UNL A   1      41.422  25.383  25.203  1.00  0.00    -0.246 OA
BRANCH  24  26
ATOM     26  C   UNL A   1      41.982  25.955  27.427  1.00  0.00     0.060 A 
ATOM     27  C   UNL A   1      40.963  25.759  28.352  1.00  0.00     0.016 A 
ATOM     28  C   UNL A   1      42.875  27.011  27.589  1.00  0.00     0.016 A 
ATOM     29  C   UNL A   1      40.790  26.626  29.420  1.00  0.00     0.010 A 
ATOM     30  C   UNL A   1      42.722  27.874  28.686  1.00  0.00     0.010 A 
ATOM     31  C   UNL A   1      41.664  27.698  29.598  1.00  0.00    -0.014 A 
BRANCH  31  32
ATOM     32  C   UNL A   1      41.411  28.644  30.714  1.00  0.00     0.031 A 
ATOM     33  C   UNL A   1      42.283  28.610  31.937  1.00  0.00     0.074 A 
ATOM     34  C   UNL A   1      40.445  29.576  30.594  1.00  0.00     0.049 A 
ATOM     35  N   UNL A   1      42.178  29.294  33.046  1.00  0.00    -0.248 NA
ATOM     36  C   UNL A   1      43.425  27.682  31.908  1.00  0.00     0.031 C 
ATOM     37  C   UNL A   1      39.585  29.754  29.421  1.00  0.00     0.029 A 
ATOM     38  N   UNL A   1      40.024  30.550  31.464  1.00  0.00    -0.354 N 
ATOM     39  C   UNL A   1      43.216  28.857  33.861  1.00  0.00     0.074 A 
ATOM     40  C   UNL A   1      43.929  27.835  33.124  1.00  0.00     0.031 C 
ATOM     41  C   UNL A   1      38.746  30.777  29.642  1.00  0.00     0.029 A 
ATOM     42  C   UNL A   1      38.959  31.281  30.995  1.00  0.00     0.049 A 
ATOM     43  H   UNL A   1      40.446  30.710  32.338  1.00  0.00     0.167 HD
ATOM     44  C   UNL A   1      43.543  29.276  35.108  1.00  0.00     0.037 A 
ATOM     45  C   UNL A   1      38.208  32.221  31.600  1.00  0.00     0.037 A 
ATOM     46  C   UNL A   1      42.828  30.306  35.820  1.00  0.00     0.049 A 
ATOM     47  C   UNL A   1      38.541  32.615  33.012  1.00  0.00     0.074 A 
ATOM     48  C   UNL A   1      43.075  30.806  37.086  1.00  0.00     0.029 A 
ATOM     49  N   UNL A   1      41.726  30.993  35.328  1.00  0.00    -0.354 N 
ATOM     50  N   UNL A   1      39.509  32.178  33.783  1.00  0.00    -0.248 NA
ATOM     51  C   UNL A   1      37.680  33.625  33.641  1.00  0.00     0.031 C 
ATOM     52  C   UNL A   1      42.089  31.753  37.382  1.00  0.00     0.029 A 
ATOM     53  C   UNL A   1      41.266  31.893  36.276  1.00  0.00     0.049 A 
ATOM     54  H   UNL A   1      41.330  30.859  34.437  1.00  0.00     0.167 HD
ATOM     55  C   UNL A   1      39.389  32.877  34.979  1.00  0.00     0.074 A 
ATOM     56  C   UNL A   1      38.262  33.775  34.822  1.00  0.00     0.031 C 
ATOM     57  C   UNL A   1      40.143  32.784  36.102  1.00  0.00     0.037 A 
BRANCH  44  58
ATOM     58  C   UNL A   1      44.692  28.588  35.797  1.00  0.00     0.058 A 
ATOM     59  C   UNL A   1      46.015  29.044  35.682  1.00  0.00     0.135 A 
ATOM     60  C   UNL A   1      44.460  27.458  36.599  1.00  0.00     0.135 A 
ATOM     61  F   UNL A   1      46.299  30.109  34.916  1.00  0.00    -0.206 F 
ATOM     62  C   UNL A   1      47.069  28.386  36.308  1.00  0.00     0.059 A 
ATOM     63  C   UNL A   1      45.496  26.801  37.259  1.00  0.00     0.059 A 
ATOM     64  F   UNL A   1      43.216  26.975  36.745  1.00  0.00    -0.206 F 
ATOM     65  C   UNL A   1      46.799  27.263  37.092  1.00  0.00     0.060 A 
BRANCH  65  66
ATOM     66  S   UNL A   1      48.180  26.412  37.886  1.00  0.00     0.124 S 
ATOM     67  O   UNL A   1      48.531  27.353  38.946  1.00  0.00    -0.237 OA
ATOM     68  O   UNL A   1      47.566  25.164  38.326  1.00  0.00    -0.237 OA
ATOM     69  O   UNL A   1      49.163  26.281  36.815  1.00  0.00    -0.744 OA
ENDBRANCH  65  66
ENDBRANCH  44  58
BRANCH  45  70
ATOM     70  C   UNL A   1      37.049  32.817  30.882  1.00  0.00     0.058 A 
ATOM     71  C   UNL A   1      35.738  32.389  31.130  1.00  0.00     0.135 A 
ATOM     72  C   UNL A   1      37.230  33.850  29.947  1.00  0.00     0.135 A 
ATOM     73  F   UNL A   1      35.511  31.397  32.006  1.00  0.00    -0.206 F 
ATOM     74  C   UNL A   1      34.649  32.955  30.476  1.00  0.00     0.059 A 
ATOM     75  C   UNL A   1      36.156  34.454  29.303  1.00  0.00     0.059 A 
ATOM     76  F   UNL A   1      38.464  34.306  29.679  1.00  0.00    -0.206 F 
ATOM     77  C   UNL A   1      34.868  33.994  29.567  1.00  0.00     0.060 A 
BRANCH  77  78
ATOM     78  S   UNL A   1      33.443  34.758  28.764  1.00  0.00     0.124 S 
ATOM     79  O   UNL A   1      32.553  34.984  29.896  1.00  0.00    -0.237 OA
ATOM     80  O   UNL A   1      34.034  35.953  28.169  1.00  0.00    -0.237 OA
ATOM     81  O   UNL A   1      33.007  33.742  27.811  1.00  0.00    -0.744 OA
ENDBRANCH  77  78
ENDBRANCH  45  70
BRANCH  57  82
ATOM     82  C   UNL A   1      39.802  33.706  37.241  1.00  0.00     0.058 A 
ATOM     83  C   UNL A   1      38.915  33.330  38.262  1.00  0.00     0.135 A 
ATOM     84  C   UNL A   1      40.411  34.968  37.336  1.00  0.00     0.135 A 
ATOM     85  F   UNL A   1      38.298  32.138  38.216  1.00  0.00    -0.206 F 
ATOM     86  C   UNL A   1      38.626  34.181  39.324  1.00  0.00     0.059 A 
ATOM     87  C   UNL A   1      40.162  35.822  38.406  1.00  0.00     0.059 A 
ATOM     88  F   UNL A   1      41.275  35.375  36.392  1.00  0.00    -0.206 F 
ATOM     89  C   UNL A   1      39.258  35.424  39.389  1.00  0.00     0.060 A 
BRANCH  89  90
ATOM     90  S   UNL A   1      38.902  36.503  40.792  1.00  0.00     0.124 S 
ATOM     91  O   UNL A   1      37.906  35.723  41.518  1.00  0.00    -0.237 OA
ATOM     92  O   UNL A   1      40.208  36.621  41.433  1.00  0.00    -0.237 OA
ATOM     93  O   UNL A   1      38.406  37.725  40.163  1.00  0.00    -0.744 OA
ENDBRANCH  89  90
ENDBRANCH  57  82
ENDBRANCH  31  32
ENDBRANCH  24  26
ENDBRANCH  23  24
ENDBRANCH  22  23
ENDBRANCH   1  22
TORSDOF 18
ENDMDL
MODEL 2
REMARK VINA RESULT:     -10.5      1.575      8.680
REMARK SMILES Cc1nc(C[N@H+](C)[C@H](C)c2ccc(C(=O)OCCOC(=O)c3ccc(-c4c5nc(c(-c6c(F)cc(S(=O)(=O)[O-])cc6F)c6ccc([nH]6)c(-c6c(F)cc(S(=O)(=O)[O-])cc6F)c6nc(c(-c7c(F)cc(S(=O)(=O)[O-])cc7F)c7ccc4[nH]7)C=C6)C=C5)cc3)o2)cs1
REMARK SMILES IDX 17 1 16 2 14 3 15 4 13 5 10 6 11 7 88 8 12 9 8 10 9 11 6 12
REMARK SMILES IDX 7 13 5 15 4 16 1 17 2 18 3 19 90 20 89 21 18 22 19 23 20 24
REMARK SMILES IDX 21 25 22 26 23 27 87 28 24 29 86 30 25 31 26 32 27 33 80 34
REMARK SMILES IDX 28 35 85 36 79 37 81 38 29 39 84 40 78 41 77 42 30 44 64 45
REMARK SMILES IDX 43 46 63 47 44 48 47 49 62 50 82 51 45 52 46 53 61 55 83 56
REMARK SMILES IDX 48 57 31 58 32 59 41 60 33 61 34 62 40 63 42 64 35 65 36 66
REMARK SMILES IDX 37 67 38 68 39 69 65 70 66 71 75 72 67 73 68 74 74 75 76 76
REMARK SMILES IDX 69 77 70 78 71 79 72 80 73 81 49 82 50 83 59 84 51 85 52 86
REMARK SMILES IDX 58 87 60 88 53 89 54 90 55 91 56 92 57 93
REMARK H PARENT 6 14 81 43 47 54
REMARK Flexibility Score: inf
ROOT
ATOM      1  C   UNL A   1      42.711  21.871  25.851  1.00  0.00     0.275 C 
ENDROOT
BRANCH   1   2
ATOM      2  O   UNL A   1      41.415  21.327  25.531  1.00  0.00    -0.456 OA
BRANCH   2   3
ATOM      3  C   UNL A   1      40.519  21.293  26.564  1.00  0.00     0.374 C 
ATOM      4  O   UNL A   1      40.707  20.700  27.618  1.00  0.00    -0.242 OA
BRANCH   3   5
ATOM      5  C   UNL A   1      39.350  22.078  26.242  1.00  0.00     0.212 A 
ATOM      6  C   UNL A   1      37.347  22.396  25.343  1.00  0.00     0.162 A 
ATOM      7  C   UNL A   1      37.723  23.590  25.932  1.00  0.00     0.053 A 
ATOM      8  O   UNL A   1      38.380  21.513  25.453  1.00  0.00    -0.448 OA
ATOM      9  C   UNL A   1      38.967  23.363  26.570  1.00  0.00     0.059 A 
BRANCH   6  10
ATOM     10  C   UNL A   1      36.106  21.955  24.594  1.00  0.00     0.248 C 
ATOM     11  C   UNL A   1      35.554  20.580  25.003  1.00  0.00     0.084 C 
BRANCH  10  12
ATOM     12  N   UNL A   1      35.078  23.029  24.555  1.00  0.00    -0.324 N 
ATOM     13  C   UNL A   1      34.331  22.962  23.291  1.00  0.00     0.333 C 
ATOM     14  H   UNL A   1      35.626  23.884  24.648  1.00  0.00     0.348 HD
BRANCH  12  15
ATOM     15  C   UNL A   1      34.104  23.071  25.675  1.00  0.00     0.320 C 
BRANCH  15  16
ATOM     16  C   UNL A   1      33.360  24.374  25.836  1.00  0.00     0.106 A 
ATOM     17  C   UNL A   1      33.654  28.012  26.054  1.00  0.00     0.079 C 
ATOM     18  C   UNL A   1      33.232  26.590  25.967  1.00  0.00     0.090 A 
ATOM     19  N   UNL A   1      34.048  25.584  25.726  1.00  0.00    -0.241 NA
ATOM     20  S   UNL A   1      31.591  26.170  26.238  1.00  0.00    -0.127 S 
ATOM     21  C   UNL A   1      32.001  24.521  26.062  1.00  0.00     0.096 A 
ENDBRANCH  15  16
ENDBRANCH  12  15
ENDBRANCH  10  12
ENDBRANCH   6  10
ENDBRANCH   3   5
ENDBRANCH   2   3
ENDBRANCH   1   2
BRANCH   1  22
ATOM     22  C   UNL A   1      42.858  23.357  25.495  1.00  0.00     0.275 C 
BRANCH  22  23
ATOM     23  O   UNL A   1      42.165  24.215  26.419  1.00  0.00    -0.458 OA
BRANCH  23  24
ATOM     24  C   UNL A   1      42.216  25.534  26.116  1.00  0.00     0.338 C 
ATOM     25  O   UNL A   1      42.176  26.031  25.002  1.00  0.00    -0.246 OA
BRANCH  24  26
ATOM     26  C   UNL A   1      42.167  26.339  27.346  1.00  0.00     0.060 A 
ATOM     27  C   UNL A   1      41.314  25.897  28.350  1.00  0.00     0.016 A 
ATOM     28  C   UNL A   1      42.839  27.551  27.487  1.00  0.00     0.016 A 
ATOM     29  C   UNL A   1      41.084  26.663  29.483  1.00  0.00     0.010 A 
ATOM     30  C   UNL A   1      42.632  28.315  28.646  1.00  0.00     0.010 A 
ATOM     31  C   UNL A   1      41.736  27.885  29.643  1.00  0.00    -0.014 A 
BRANCH  31  32
ATOM     32  C   UNL A   1      41.417  28.709  30.835  1.00  0.00     0.031 A 
ATOM     33  C   UNL A   1      40.248  29.653  30.802  1.00  0.00     0.074 A 
ATOM     34  C   UNL A   1      42.134  28.556  31.966  1.00  0.00     0.049 A 
ATOM     35  N   UNL A   1      39.854  30.513  31.704  1.00  0.00    -0.248 NA
ATOM     36  C   UNL A   1      39.412  29.627  29.591  1.00  0.00     0.031 C 
ATOM     37  C   UNL A   1      43.243  27.615  32.140  1.00  0.00     0.029 A 
ATOM     38  N   UNL A   1      42.038  29.184  33.182  1.00  0.00    -0.354 N 
ATOM     39  C   UNL A   1      38.747  31.154  31.160  1.00  0.00     0.074 A 
ATOM     40  C   UNL A   1      38.544  30.596  29.840  1.00  0.00     0.031 C 
ATOM     41  C   UNL A   1      43.719  27.723  33.390  1.00  0.00     0.029 A 
ATOM     42  C   UNL A   1      42.998  28.786  34.082  1.00  0.00     0.049 A 
ATOM     43  H   UNL A   1      41.347  29.853  33.391  1.00  0.00     0.167 HD
ATOM     44  C   UNL A   1      37.972  32.117  31.717  1.00  0.00     0.037 A 
ATOM     45  C   UNL A   1      43.296  29.255  35.309  1.00  0.00     0.037 A 
ATOM     46  C   UNL A   1      38.183  32.650  33.039  1.00  0.00     0.049 A 
ATOM     47  C   UNL A   1      42.471  30.377  35.875  1.00  0.00     0.074 A 
ATOM     48  C   UNL A   1      37.458  33.627  33.698  1.00  0.00     0.029 A 
ATOM     49  N   UNL A   1      39.194  32.253  33.903  1.00  0.00    -0.354 N 
ATOM     50  N   UNL A   1      41.442  30.993  35.342  1.00  0.00    -0.248 NA
ATOM     51  C   UNL A   1      42.847  30.872  37.206  1.00  0.00     0.031 C 
ATOM     52  C   UNL A   1      38.065  33.861  34.937  1.00  0.00     0.029 A 
ATOM     53  C   UNL A   1      39.128  32.984  35.079  1.00  0.00     0.049 A 
ATOM     54  H   UNL A   1      39.861  31.555  33.709  1.00  0.00     0.167 HD
ATOM     55  C   UNL A   1      41.032  31.933  36.281  1.00  0.00     0.074 A 
ATOM     56  C   UNL A   1      41.917  31.793  37.421  1.00  0.00     0.031 C 
ATOM     57  C   UNL A   1      40.016  32.829  36.207  1.00  0.00     0.037 A 
BRANCH  44  58
ATOM     58  C   UNL A   1      36.859  32.688  30.878  1.00  0.00     0.058 A 
ATOM     59  C   UNL A   1      37.083  33.687  29.916  1.00  0.00     0.135 A 
ATOM     60  C   UNL A   1      35.545  32.214  31.031  1.00  0.00     0.135 A 
ATOM     61  F   UNL A   1      38.314  34.189  29.737  1.00  0.00    -0.206 F 
ATOM     62  C   UNL A   1      36.041  34.219  29.163  1.00  0.00     0.059 A 
ATOM     63  C   UNL A   1      34.492  32.711  30.266  1.00  0.00     0.059 A 
ATOM     64  F   UNL A   1      35.270  31.261  31.935  1.00  0.00    -0.206 F 
ATOM     65  C   UNL A   1      34.748  33.726  29.348  1.00  0.00     0.060 A 
BRANCH  65  66
ATOM     66  S   UNL A   1      33.406  34.437  28.372  1.00  0.00     0.124 S 
ATOM     67  O   UNL A   1      32.526  34.952  29.417  1.00  0.00    -0.237 OA
ATOM     68  O   UNL A   1      34.099  35.445  27.575  1.00  0.00    -0.237 OA
ATOM     69  O   UNL A   1      32.886  33.298  27.622  1.00  0.00    -0.744 OA
ENDBRANCH  65  66
ENDBRANCH  44  58
BRANCH  45  70
ATOM     70  C   UNL A   1      44.448  28.686  36.058  1.00  0.00     0.058 A 
ATOM     71  C   UNL A   1      45.739  29.217  35.925  1.00  0.00     0.135 A 
ATOM     72  C   UNL A   1      44.276  27.610  36.946  1.00  0.00     0.135 A 
ATOM     73  F   UNL A   1      45.960  30.238  35.082  1.00  0.00    -0.206 F 
ATOM     74  C   UNL A   1      46.817  28.702  36.637  1.00  0.00     0.059 A 
ATOM     75  C   UNL A   1      45.331  27.098  37.692  1.00  0.00     0.059 A 
ATOM     76  F   UNL A   1      43.059  27.070  37.119  1.00  0.00    -0.206 F 
ATOM     77  C   UNL A   1      46.601  27.645  37.525  1.00  0.00     0.060 A 
BRANCH  77  78
ATOM     78  S   UNL A   1      47.997  27.019  38.484  1.00  0.00     0.124 S 
ATOM     79  O   UNL A   1      47.437  25.803  39.060  1.00  0.00    -0.237 OA
ATOM     80  O   UNL A   1      49.013  26.828  37.453  1.00  0.00    -0.237 OA
ATOM     81  O   UNL A   1      48.269  28.099  39.428  1.00  0.00    -0.744 OA
ENDBRANCH  77  78
ENDBRANCH  45  70
BRANCH  57  82
ATOM     82  C   UNL A   1      39.777  33.703  37.408  1.00  0.00     0.058 A 
ATOM     83  C   UNL A   1      40.403  34.949  37.556  1.00  0.00     0.135 A 
ATOM     84  C   UNL A   1      38.869  33.305  38.403  1.00  0.00     0.135 A 
ATOM     85  F   UNL A   1      41.287  35.376  36.639  1.00  0.00    -0.206 F 
ATOM     86  C   UNL A   1      40.156  35.762  38.659  1.00  0.00     0.059 A 
ATOM     87  C   UNL A   1      38.581  34.114  39.497  1.00  0.00     0.059 A 
ATOM     88  F   UNL A   1      38.235  32.125  38.307  1.00  0.00    -0.206 F 
ATOM     89  C   UNL A   1      39.239  35.336  39.622  1.00  0.00     0.060 A 
BRANCH  89  90
ATOM     90  S   UNL A   1      38.900  36.415  41.029  1.00  0.00     0.124 S 
ATOM     91  O   UNL A   1      37.813  35.703  41.692  1.00  0.00    -0.237 OA
ATOM     92  O   UNL A   1      40.178  36.419  41.734  1.00  0.00    -0.237 OA
ATOM     93  O   UNL A   1      38.531  37.683  40.405  1.00  0.00    -0.744 OA
ENDBRANCH  89  90
ENDBRANCH  57  82
ENDBRANCH  31  32
ENDBRANCH  24  26
ENDBRANCH  23  24
ENDBRANCH  22  23
ENDBRANCH   1  22
TORSDOF 18
ENDMDL
MODEL 3
REMARK VINA RESULT:     -10.4      6.056     12.903
REMARK SMILES Cc1nc(C[N@H+](C)[C@H](C)c2ccc(C(=O)OCCOC(=O)c3ccc(-c4c5nc(c(-c6c(F)cc(S(=O)(=O)[O-])cc6F)c6ccc([nH]6)c(-c6c(F)cc(S(=O)(=O)[O-])cc6F)c6nc(c(-c7c(F)cc(S(=O)(=O)[O-])cc7F)c7ccc4[nH]7)C=C6)C=C5)cc3)o2)cs1
REMARK SMILES IDX 17 1 16 2 14 3 15 4 13 5 10 6 11 7 88 8 12 9 8 10 9 11 6 12
REMARK SMILES IDX 7 13 5 15 4 16 1 17 2 18 3 19 90 20 89 21 18 22 19 23 20 24
REMARK SMILES IDX 21 25 22 26 23 27 87 28 24 29 86 30 25 31 26 32 27 33 80 34
REMARK SMILES IDX 28 35 85 36 79 37 81 38 29 39 84 40 78 41 77 42 30 44 64 45
REMARK SMILES IDX 43 46 63 47 44 48 47 49 62 50 82 51 45 52 46 53 61 55 83 56
REMARK SMILES IDX 48 57 31 58 32 59 41 60 33 61 34 62 40 63 42 64 35 65 36 66
REMARK SMILES IDX 37 67 38 68 39 69 65 70 66 71 75 72 67 73 68 74 74 75 76 76
REMARK SMILES IDX 69 77 70 78 71 79 72 80 73 81 49 82 50 83 59 84 51 85 52 86
REMARK SMILES IDX 58 87 60 88 53 89 54 90 55 91 56 92 57 93
REMARK H PARENT 6 14 81 43 47 54
REMARK Flexibility Score: inf
ROOT
ATOM      1  C   UNL A   1      33.128  33.065  27.749  1.00  0.00     0.275 C 
ENDROOT
BRANCH   1   2
ATOM      2  O   UNL A   1      34.325  33.837  27.526  1.00  0.00    -0.456 OA
BRANCH   2   3
ATOM      3  C   UNL A   1      34.783  34.539  28.607  1.00  0.00     0.374 C 
ATOM      4  O   UNL A   1      34.205  35.499  29.099  1.00  0.00    -0.242 OA
BRANCH   3   5
ATOM      5  C   UNL A   1      36.016  33.965  29.093  1.00  0.00     0.212 A 
ATOM      6  C   UNL A   1      37.448  33.369  30.679  1.00  0.00     0.162 A 
ATOM      7  C   UNL A   1      38.010  33.009  29.467  1.00  0.00     0.053 A 
ATOM      8  O   UNL A   1      36.282  34.033  30.438  1.00  0.00    -0.448 OA
ATOM      9  C   UNL A   1      37.061  33.322  28.462  1.00  0.00     0.059 A 
BRANCH   6  10
ATOM     10  C   UNL A   1      37.903  33.222  32.117  1.00  0.00     0.248 C 
ATOM     11  C   UNL A   1      38.627  34.446  32.698  1.00  0.00     0.084 C 
BRANCH  10  12
ATOM     12  N   UNL A   1      36.816  32.697  32.985  1.00  0.00    -0.324 N 
ATOM     13  C   UNL A   1      37.295  31.527  33.734  1.00  0.00     0.333 C 
ATOM     14  H   UNL A   1      36.075  32.469  32.323  1.00  0.00     0.348 HD
BRANCH  12  15
ATOM     15  C   UNL A   1      36.199  33.649  33.944  1.00  0.00     0.320 C 
BRANCH  15  16
ATOM     16  C   UNL A   1      35.085  34.499  33.384  1.00  0.00     0.106 A 
ATOM     17  C   UNL A   1      33.968  37.896  32.625  1.00  0.00     0.079 C 
ATOM     18  C   UNL A   1      34.163  36.433  32.791  1.00  0.00     0.090 A 
ATOM     19  N   UNL A   1      35.274  35.873  33.225  1.00  0.00    -0.241 NA
ATOM     20  S   UNL A   1      32.869  35.358  32.454  1.00  0.00    -0.127 S 
ATOM     21  C   UNL A   1      33.845  34.050  32.960  1.00  0.00     0.096 A 
ENDBRANCH  15  16
ENDBRANCH  12  15
ENDBRANCH  10  12
ENDBRANCH   6  10
ENDBRANCH   3   5
ENDBRANCH   2   3
ENDBRANCH   1   2
BRANCH   1  22
ATOM     22  C   UNL A   1      33.343  31.550  27.623  1.00  0.00     0.275 C 
BRANCH  22  23
ATOM     23  O   UNL A   1      34.352  31.062  28.525  1.00  0.00    -0.458 OA
BRANCH  23  24
ATOM     24  C   UNL A   1      34.783  29.804  28.267  1.00  0.00     0.338 C 
ATOM     25  O   UNL A   1      34.135  28.896  27.772  1.00  0.00    -0.246 OA
BRANCH  24  26
ATOM     26  C   UNL A   1      36.228  29.700  28.520  1.00  0.00     0.060 A 
ATOM     27  C   UNL A   1      37.070  29.897  27.432  1.00  0.00     0.016 A 
ATOM     28  C   UNL A   1      36.758  29.312  29.748  1.00  0.00     0.016 A 
ATOM     29  C   UNL A   1      38.435  29.675  27.533  1.00  0.00     0.010 A 
ATOM     30  C   UNL A   1      38.143  29.114  29.863  1.00  0.00     0.010 A 
ATOM     31  C   UNL A   1      38.988  29.275  28.749  1.00  0.00    -0.014 A 
BRANCH  31  32
ATOM     32  C   UNL A   1      40.442  28.982  28.806  1.00  0.00     0.031 A 
ATOM     33  C   UNL A   1      41.405  30.046  29.252  1.00  0.00     0.074 A 
ATOM     34  C   UNL A   1      40.886  27.741  28.525  1.00  0.00     0.049 A 
ATOM     35  N   UNL A   1      42.710  30.016  29.294  1.00  0.00    -0.248 NA
ATOM     36  C   UNL A   1      40.818  31.316  29.711  1.00  0.00     0.031 C 
ATOM     37  C   UNL A   1      40.037  26.606  28.153  1.00  0.00     0.029 A 
ATOM     38  N   UNL A   1      42.156  27.224  28.509  1.00  0.00    -0.354 N 
ATOM     39  C   UNL A   1      43.106  31.268  29.751  1.00  0.00     0.074 A 
ATOM     40  C   UNL A   1      41.900  32.042  29.954  1.00  0.00     0.031 C 
ATOM     41  C   UNL A   1      40.809  25.526  27.955  1.00  0.00     0.029 A 
ATOM     42  C   UNL A   1      42.208  25.908  28.113  1.00  0.00     0.049 A 
ATOM     43  H   UNL A   1      42.954  27.744  28.759  1.00  0.00     0.167 HD
ATOM     44  C   UNL A   1      44.361  31.724  29.980  1.00  0.00     0.037 A 
ATOM     45  C   UNL A   1      43.264  25.110  27.862  1.00  0.00     0.037 A 
ATOM     46  C   UNL A   1      45.550  30.933  29.785  1.00  0.00     0.049 A 
ATOM     47  C   UNL A   1      44.649  25.662  28.050  1.00  0.00     0.074 A 
ATOM     48  C   UNL A   1      46.868  31.297  29.987  1.00  0.00     0.029 A 
ATOM     49  N   UNL A   1      45.563  29.617  29.340  1.00  0.00    -0.354 N 
ATOM     50  N   UNL A   1      45.013  26.855  28.458  1.00  0.00    -0.248 NA
ATOM     51  C   UNL A   1      45.770  24.764  27.741  1.00  0.00     0.031 C 
ATOM     52  C   UNL A   1      47.682  30.222  29.611  1.00  0.00     0.029 A 
ATOM     53  C   UNL A   1      46.869  29.164  29.237  1.00  0.00     0.049 A 
ATOM     54  H   UNL A   1      44.763  29.085  29.129  1.00  0.00     0.167 HD
ATOM     55  C   UNL A   1      46.402  26.845  28.477  1.00  0.00     0.074 A 
ATOM     56  C   UNL A   1      46.813  25.521  28.053  1.00  0.00     0.031 C 
ATOM     57  C   UNL A   1      47.260  27.840  28.816  1.00  0.00     0.037 A 
BRANCH  44  58
ATOM     58  C   UNL A   1      44.513  33.157  30.421  1.00  0.00     0.058 A 
ATOM     59  C   UNL A   1      44.578  33.519  31.777  1.00  0.00     0.135 A 
ATOM     60  C   UNL A   1      44.610  34.184  29.468  1.00  0.00     0.135 A 
ATOM     61  F   UNL A   1      44.475  32.583  32.733  1.00  0.00    -0.206 F 
ATOM     62  C   UNL A   1      44.698  34.848  32.170  1.00  0.00     0.059 A 
ATOM     63  C   UNL A   1      44.761  35.517  29.838  1.00  0.00     0.059 A 
ATOM     64  F   UNL A   1      44.552  33.898  28.157  1.00  0.00    -0.206 F 
ATOM     65  C   UNL A   1      44.786  35.841  31.192  1.00  0.00     0.060 A 
BRANCH  65  66
ATOM     66  S   UNL A   1      44.927  37.562  31.720  1.00  0.00     0.124 S 
ATOM     67  O   UNL A   1      46.258  37.909  31.228  1.00  0.00    -0.237 OA
ATOM     68  O   UNL A   1      43.811  38.194  31.024  1.00  0.00    -0.237 OA
ATOM     69  O   UNL A   1      44.797  37.487  33.172  1.00  0.00    -0.744 OA
ENDBRANCH  65  66
ENDBRANCH  44  58
BRANCH  45  70
ATOM     70  C   UNL A   1      43.042  23.723  27.371  1.00  0.00     0.058 A 
ATOM     71  C   UNL A   1      43.157  23.405  26.010  1.00  0.00     0.135 A 
ATOM     72  C   UNL A   1      42.734  22.680  28.260  1.00  0.00     0.135 A 
ATOM     73  F   UNL A   1      43.438  24.366  25.118  1.00  0.00    -0.206 F 
ATOM     74  C   UNL A   1      42.969  22.106  25.547  1.00  0.00     0.059 A 
ATOM     75  C   UNL A   1      42.573  21.369  27.826  1.00  0.00     0.059 A 
ATOM     76  F   UNL A   1      42.623  22.928  29.575  1.00  0.00    -0.206 F 
ATOM     77  C   UNL A   1      42.684  21.093  26.465  1.00  0.00     0.060 A 
BRANCH  77  78
ATOM     78  S   UNL A   1      42.496  19.402  25.859  1.00  0.00     0.124 S 
ATOM     79  O   UNL A   1      43.089  18.632  26.946  1.00  0.00    -0.237 OA
ATOM     80  O   UNL A   1      41.048  19.290  25.714  1.00  0.00    -0.237 OA
ATOM     81  O   UNL A   1      43.245  19.407  24.607  1.00  0.00    -0.744 OA
ENDBRANCH  77  78
ENDBRANCH  45  70
BRANCH  57  82
ATOM     82  C   UNL A   1      48.731  27.525  28.782  1.00  0.00     0.058 A 
ATOM     83  C   UNL A   1      49.378  26.882  29.849  1.00  0.00     0.135 A 
ATOM     84  C   UNL A   1      49.494  27.828  27.642  1.00  0.00     0.135 A 
ATOM     85  F   UNL A   1      48.699  26.577  30.966  1.00  0.00    -0.206 F 
ATOM     86  C   UNL A   1      50.733  26.572  29.797  1.00  0.00     0.059 A 
ATOM     87  C   UNL A   1      50.842  27.498  27.555  1.00  0.00     0.059 A 
ATOM     88  F   UNL A   1      48.923  28.435  26.589  1.00  0.00    -0.206 F 
ATOM     89  C   UNL A   1      51.456  26.880  28.643  1.00  0.00     0.060 A 
BRANCH  89  90
ATOM     90  S   UNL A   1      53.205  26.440  28.574  1.00  0.00     0.124 S 
ATOM     91  O   UNL A   1      53.219  25.457  27.496  1.00  0.00    -0.237 OA
ATOM     92  O   UNL A   1      53.837  27.721  28.273  1.00  0.00    -0.237 OA
ATOM     93  O   UNL A   1      53.476  25.912  29.908  1.00  0.00    -0.744 OA
ENDBRANCH  89  90
ENDBRANCH  57  82
ENDBRANCH  31  32
ENDBRANCH  24  26
ENDBRANCH  23  24
ENDBRANCH  22  23
ENDBRANCH   1  22
TORSDOF 18
ENDMDL
