MODEL 1
REMARK VINA RESULT:     -11.3      0.000      0.000
REMARK SMILES Cc1cccc(C)c1Nc1ccccc1CC(=O)OCCOC(=O)c1ccc(-c2c3nc(c(-c4c(F)cc(S(=O)(=O)[O-])cc4F)c4ccc([nH]4)c(-c4c(F)cc(S(=O)(=O)[O-])cc4F)c4nc(c(-c5c(F)cc(S(=O)(=O)[O-])cc5F)c5ccc2[nH]5)C=C4)C=C3)cc1
REMARK SMILES IDX 20 1 19 2 17 3 18 4 16 5 15 6 10 7 11 8 12 9 14 10 13 11
REMARK SMILES IDX 9 12 8 14 1 15 2 16 3 17 4 18 6 19 5 20 7 21 21 22 22 23
REMARK SMILES IDX 23 24 24 25 25 26 26 27 90 28 27 29 89 30 28 31 29 32 30 33
REMARK SMILES IDX 83 34 31 35 88 36 82 37 84 38 32 39 87 40 81 41 80 42 33 44
REMARK SMILES IDX 67 45 46 46 66 47 47 48 50 49 65 50 85 51 48 52 49 53 64 55
REMARK SMILES IDX 86 56 51 57 34 58 35 59 44 60 36 61 37 62 43 63 45 64 38 65
REMARK SMILES IDX 39 66 40 67 41 68 42 69 68 70 69 71 78 72 70 73 71 74 77 75
REMARK SMILES IDX 79 76 72 77 73 78 74 79 75 80 76 81 52 82 53 83 62 84 54 85
REMARK SMILES IDX 55 86 61 87 63 88 56 89 57 90 58 91 59 92 60 93
REMARK H PARENT 9 13 84 43 50 54
REMARK Flexibility Score: inf
ROOT
ATOM      1  C   UNL A   1      33.151  30.065  27.137  1.00  0.00     0.274 C 
ENDROOT
BRANCH   1   2
ATOM      2  O   UNL A   1      33.122  28.747  27.714  1.00  0.00    -0.462 OA
BRANCH   2   3
ATOM      3  C   UNL A   1      32.548  27.791  26.937  1.00  0.00     0.310 C 
ATOM      4  O   UNL A   1      31.342  27.559  26.905  1.00  0.00    -0.252 OA
BRANCH   3   5
ATOM      5  C   UNL A   1      33.535  26.952  26.171  1.00  0.00     0.160 C 
BRANCH   5   6
ATOM      6  C   UNL A   1      33.562  27.039  24.657  1.00  0.00    -0.013 A 
ATOM      7  C   UNL A   1      33.310  25.901  23.859  1.00  0.00     0.042 A 
ATOM      8  C   UNL A   1      33.395  26.015  22.459  1.00  0.00     0.026 A 
ATOM      9  C   UNL A   1      33.649  27.241  21.846  1.00  0.00     0.002 A 
ATOM     10  C   UNL A   1      33.777  28.274  24.020  1.00  0.00     0.006 A 
ATOM     11  C   UNL A   1      33.818  28.376  22.629  1.00  0.00     0.000 A 
BRANCH   7  12
ATOM     12  N   UNL A   1      32.853  24.673  24.380  1.00  0.00    -0.355 N 
ATOM     13  H   UNL A   1      32.075  24.293  23.912  1.00  0.00     0.167 HD
BRANCH  12  14
ATOM     14  C   UNL A   1      33.329  23.897  25.464  1.00  0.00     0.044 A 
ATOM     15  C   UNL A   1      30.984  24.016  26.464  1.00  0.00     0.046 C 
ATOM     16  C   UNL A   1      32.418  23.552  26.494  1.00  0.00    -0.027 A 
ATOM     17  C   UNL A   1      32.818  22.688  27.526  1.00  0.00     0.005 A 
ATOM     18  C   UNL A   1      34.107  22.169  27.554  1.00  0.00     0.001 A 
ATOM     19  C   UNL A   1      34.652  23.396  25.523  1.00  0.00    -0.027 A 
ATOM     20  C   UNL A   1      35.015  22.519  26.561  1.00  0.00     0.005 A 
ATOM     21  C   UNL A   1      35.718  23.743  24.517  1.00  0.00     0.046 C 
ENDBRANCH  12  14
ENDBRANCH   7  12
ENDBRANCH   5   6
ENDBRANCH   3   5
ENDBRANCH   2   3
ENDBRANCH   1   2
BRANCH   1  22
ATOM     22  C   UNL A   1      34.409  30.820  27.559  1.00  0.00     0.275 C 
BRANCH  22  23
ATOM     23  O   UNL A   1      35.323  29.934  28.229  1.00  0.00    -0.458 OA
BRANCH  23  24
ATOM     24  C   UNL A   1      36.173  30.517  29.103  1.00  0.00     0.338 C 
ATOM     25  O   UNL A   1      35.924  31.408  29.896  1.00  0.00    -0.246 OA
BRANCH  24  26
ATOM     26  C   UNL A   1      37.516  29.928  28.963  1.00  0.00     0.060 A 
ATOM     27  C   UNL A   1      38.280  29.605  30.088  1.00  0.00     0.016 A 
ATOM     28  C   UNL A   1      38.056  29.802  27.684  1.00  0.00     0.016 A 
ATOM     29  C   UNL A   1      39.603  29.184  29.934  1.00  0.00     0.010 A 
ATOM     30  C   UNL A   1      39.362  29.334  27.530  1.00  0.00     0.010 A 
ATOM     31  C   UNL A   1      40.155  29.040  28.653  1.00  0.00    -0.014 A 
BRANCH  31  32
ATOM     32  C   UNL A   1      41.568  28.622  28.458  1.00  0.00     0.031 A 
ATOM     33  C   UNL A   1      42.664  29.653  28.500  1.00  0.00     0.074 A 
ATOM     34  C   UNL A   1      41.867  27.334  28.200  1.00  0.00     0.049 A 
ATOM     35  N   UNL A   1      43.919  29.543  28.146  1.00  0.00    -0.248 NA
ATOM     36  C   UNL A   1      42.295  30.988  28.997  1.00  0.00     0.031 C 
ATOM     37  C   UNL A   1      40.908  26.229  28.173  1.00  0.00     0.029 A 
ATOM     38  N   UNL A   1      43.067  26.742  27.892  1.00  0.00    -0.354 N 
ATOM     39  C   UNL A   1      44.483  30.798  28.349  1.00  0.00     0.074 A 
ATOM     40  C   UNL A   1      43.430  31.658  28.846  1.00  0.00     0.031 C 
ATOM     41  C   UNL A   1      41.555  25.094  27.865  1.00  0.00     0.029 A 
ATOM     42  C   UNL A   1      42.961  25.400  27.613  1.00  0.00     0.049 A 
ATOM     43  H   UNL A   1      43.921  27.231  27.874  1.00  0.00     0.167 HD
ATOM     44  C   UNL A   1      45.761  31.194  28.141  1.00  0.00     0.037 A 
ATOM     45  C   UNL A   1      43.881  24.524  27.165  1.00  0.00     0.037 A 
ATOM     46  C   UNL A   1      46.811  30.330  27.666  1.00  0.00     0.049 A 
ATOM     47  C   UNL A   1      45.280  25.001  26.886  1.00  0.00     0.074 A 
ATOM     48  C   UNL A   1      48.136  30.641  27.410  1.00  0.00     0.029 A 
ATOM     49  N   UNL A   1      46.658  28.980  27.388  1.00  0.00    -0.354 N 
ATOM     50  N   UNL A   1      45.787  26.202  27.033  1.00  0.00    -0.248 NA
ATOM     51  C   UNL A   1      46.229  24.007  26.366  1.00  0.00     0.031 C 
ATOM     52  C   UNL A   1      48.779  29.485  26.957  1.00  0.00     0.029 A 
ATOM     53  C   UNL A   1      47.862  28.445  26.962  1.00  0.00     0.049 A 
ATOM     54  H   UNL A   1      45.818  28.477  27.480  1.00  0.00     0.167 HD
ATOM     55  C   UNL A   1      47.118  26.102  26.643  1.00  0.00     0.074 A 
ATOM     56  C   UNL A   1      47.341  24.722  26.263  1.00  0.00     0.031 C 
ATOM     57  C   UNL A   1      48.070  27.066  26.600  1.00  0.00     0.037 A 
BRANCH  44  58
ATOM     58  C   UNL A   1      46.096  32.634  28.411  1.00  0.00     0.058 A 
ATOM     59  C   UNL A   1      45.999  33.612  27.410  1.00  0.00     0.135 A 
ATOM     60  C   UNL A   1      46.481  33.047  29.698  1.00  0.00     0.135 A 
ATOM     61  F   UNL A   1      45.652  33.266  26.160  1.00  0.00    -0.206 F 
ATOM     62  C   UNL A   1      46.287  34.948  27.669  1.00  0.00     0.059 A 
ATOM     63  C   UNL A   1      46.753  34.382  29.984  1.00  0.00     0.059 A 
ATOM     64  F   UNL A   1      46.592  32.151  30.690  1.00  0.00    -0.206 F 
ATOM     65  C   UNL A   1      46.665  35.323  28.960  1.00  0.00     0.060 A 
BRANCH  65  66
ATOM     66  S   UNL A   1      47.028  37.062  29.286  1.00  0.00     0.124 S 
ATOM     67  O   UNL A   1      45.904  37.721  28.628  1.00  0.00    -0.237 OA
ATOM     68  O   UNL A   1      47.027  37.116  30.745  1.00  0.00    -0.237 OA
ATOM     69  O   UNL A   1      48.329  37.262  28.656  1.00  0.00    -0.744 OA
ENDBRANCH  65  66
ENDBRANCH  44  58
BRANCH  45  70
ATOM     70  C   UNL A   1      43.504  23.108  26.917  1.00  0.00     0.058 A 
ATOM     71  C   UNL A   1      43.389  22.614  25.610  1.00  0.00     0.135 A 
ATOM     72  C   UNL A   1      43.244  22.227  27.978  1.00  0.00     0.135 A 
ATOM     73  F   UNL A   1      43.618  23.423  24.564  1.00  0.00    -0.206 F 
ATOM     74  C   UNL A   1      43.010  21.299  25.361  1.00  0.00     0.059 A 
ATOM     75  C   UNL A   1      42.887  20.902  27.754  1.00  0.00     0.059 A 
ATOM     76  F   UNL A   1      43.351  22.650  29.247  1.00  0.00    -0.206 F 
ATOM     77  C   UNL A   1      42.758  20.451  26.440  1.00  0.00     0.060 A 
BRANCH  77  78
ATOM     78  S   UNL A   1      42.299  18.735  26.113  1.00  0.00     0.124 S 
ATOM     79  O   UNL A   1      42.496  18.125  27.423  1.00  0.00    -0.237 OA
ATOM     80  O   UNL A   1      40.913  18.863  25.671  1.00  0.00    -0.237 OA
ATOM     81  O   UNL A   1      43.243  18.330  25.076  1.00  0.00    -0.744 OA
ENDBRANCH  77  78
ENDBRANCH  45  70
BRANCH  57  82
ATOM     82  C   UNL A   1      49.447  26.653  26.167  1.00  0.00     0.058 A 
ATOM     83  C   UNL A   1      49.882  26.819  24.843  1.00  0.00     0.135 A 
ATOM     84  C   UNL A   1      50.354  26.122  27.096  1.00  0.00     0.135 A 
ATOM     85  F   UNL A   1      49.048  27.317  23.916  1.00  0.00    -0.206 F 
ATOM     86  C   UNL A   1      51.165  26.452  24.450  1.00  0.00     0.059 A 
ATOM     87  C   UNL A   1      51.648  25.765  26.730  1.00  0.00     0.059 A 
ATOM     88  F   UNL A   1      49.988  25.951  28.377  1.00  0.00    -0.206 F 
ATOM     89  C   UNL A   1      52.040  25.924  25.401  1.00  0.00     0.060 A 
BRANCH  89  90
ATOM     90  S   UNL A   1      53.713  25.478  24.890  1.00  0.00     0.124 S 
ATOM     91  O   UNL A   1      53.835  26.194  23.625  1.00  0.00    -0.237 OA
ATOM     92  O   UNL A   1      54.527  25.991  25.988  1.00  0.00    -0.237 OA
ATOM     93  O   UNL A   1      53.659  24.023  24.787  1.00  0.00    -0.744 OA
ENDBRANCH  89  90
ENDBRANCH  57  82
ENDBRANCH  31  32
ENDBRANCH  24  26
ENDBRANCH  23  24
ENDBRANCH  22  23
ENDBRANCH   1  22
TORSDOF 17
ENDMDL
MODEL 2
REMARK VINA RESULT:     -11.2      2.016      2.656
REMARK SMILES Cc1cccc(C)c1Nc1ccccc1CC(=O)OCCOC(=O)c1ccc(-c2c3nc(c(-c4c(F)cc(S(=O)(=O)[O-])cc4F)c4ccc([nH]4)c(-c4c(F)cc(S(=O)(=O)[O-])cc4F)c4nc(c(-c5c(F)cc(S(=O)(=O)[O-])cc5F)c5ccc2[nH]5)C=C4)C=C3)cc1
REMARK SMILES IDX 20 1 19 2 17 3 18 4 16 5 15 6 10 7 11 8 12 9 14 10 13 11
REMARK SMILES IDX 9 12 8 14 1 15 2 16 3 17 4 18 6 19 5 20 7 21 21 22 22 23
REMARK SMILES IDX 23 24 24 25 25 26 26 27 90 28 27 29 89 30 28 31 29 32 30 33
REMARK SMILES IDX 83 34 31 35 88 36 82 37 84 38 32 39 87 40 81 41 80 42 33 44
REMARK SMILES IDX 67 45 46 46 66 47 47 48 50 49 65 50 85 51 48 52 49 53 64 55
REMARK SMILES IDX 86 56 51 57 34 58 35 59 44 60 36 61 37 62 43 63 45 64 38 65
REMARK SMILES IDX 39 66 40 67 41 68 42 69 68 70 69 71 78 72 70 73 71 74 77 75
REMARK SMILES IDX 79 76 72 77 73 78 74 79 75 80 76 81 52 82 53 83 62 84 54 85
REMARK SMILES IDX 55 86 61 87 63 88 56 89 57 90 58 91 59 92 60 93
REMARK H PARENT 9 13 84 43 50 54
REMARK Flexibility Score: inf
ROOT
ATOM      1  C   UNL A   1      31.775  29.387  26.674  1.00  0.00     0.274 C 
ENDROOT
BRANCH   1   2
ATOM      2  O   UNL A   1      32.060  28.195  27.428  1.00  0.00    -0.462 OA
BRANCH   2   3
ATOM      3  C   UNL A   1      31.910  27.031  26.742  1.00  0.00     0.310 C 
ATOM      4  O   UNL A   1      30.848  26.420  26.643  1.00  0.00    -0.252 OA
BRANCH   3   5
ATOM      5  C   UNL A   1      33.193  26.481  26.182  1.00  0.00     0.160 C 
BRANCH   5   6
ATOM      6  C   UNL A   1      33.279  26.167  24.701  1.00  0.00    -0.013 A 
ATOM      7  C   UNL A   1      33.784  24.927  24.248  1.00  0.00     0.042 A 
ATOM      8  C   UNL A   1      33.893  24.697  22.864  1.00  0.00     0.026 A 
ATOM      9  C   UNL A   1      33.444  25.635  21.937  1.00  0.00     0.002 A 
ATOM     10  C   UNL A   1      32.793  27.083  23.750  1.00  0.00     0.006 A 
ATOM     11  C   UNL A   1      32.873  26.820  22.382  1.00  0.00     0.000 A 
BRANCH   7  12
ATOM     12  N   UNL A   1      34.076  23.849  25.107  1.00  0.00    -0.355 N 
ATOM     13  H   UNL A   1      34.543  24.100  25.937  1.00  0.00     0.167 HD
BRANCH  12  14
ATOM     14  C   UNL A   1      33.810  22.465  24.975  1.00  0.00     0.044 A 
ATOM     15  C   UNL A   1      36.316  22.103  24.652  1.00  0.00     0.046 C 
ATOM     16  C   UNL A   1      34.904  21.587  24.764  1.00  0.00    -0.027 A 
ATOM     17  C   UNL A   1      34.697  20.199  24.742  1.00  0.00     0.005 A 
ATOM     18  C   UNL A   1      33.424  19.670  24.922  1.00  0.00     0.001 A 
ATOM     19  C   UNL A   1      32.512  21.919  25.115  1.00  0.00    -0.027 A 
ATOM     20  C   UNL A   1      32.342  20.523  25.107  1.00  0.00     0.005 A 
ATOM     21  C   UNL A   1      31.272  22.758  25.286  1.00  0.00     0.046 C 
ENDBRANCH  12  14
ENDBRANCH   7  12
ENDBRANCH   5   6
ENDBRANCH   3   5
ENDBRANCH   2   3
ENDBRANCH   1   2
BRANCH   1  22
ATOM     22  C   UNL A   1      32.784  30.489  26.991  1.00  0.00     0.275 C 
BRANCH  22  23
ATOM     23  O   UNL A   1      33.998  29.921  27.512  1.00  0.00    -0.458 OA
BRANCH  23  24
ATOM     24  C   UNL A   1      34.683  30.693  28.385  1.00  0.00     0.338 C 
ATOM     25  O   UNL A   1      34.287  31.696  28.952  1.00  0.00    -0.246 OA
BRANCH  24  26
ATOM     26  C   UNL A   1      36.044  30.160  28.564  1.00  0.00     0.060 A 
ATOM     27  C   UNL A   1      36.501  29.765  29.824  1.00  0.00     0.016 A 
ATOM     28  C   UNL A   1      36.908  30.164  27.469  1.00  0.00     0.016 A 
ATOM     29  C   UNL A   1      37.839  29.400  29.997  1.00  0.00     0.010 A 
ATOM     30  C   UNL A   1      38.231  29.752  27.634  1.00  0.00     0.010 A 
ATOM     31  C   UNL A   1      38.715  29.387  28.902  1.00  0.00    -0.014 A 
BRANCH  31  32
ATOM     32  C   UNL A   1      40.150  29.031  29.060  1.00  0.00     0.031 A 
ATOM     33  C   UNL A   1      41.134  30.080  29.503  1.00  0.00     0.074 A 
ATOM     34  C   UNL A   1      40.580  27.789  28.765  1.00  0.00     0.049 A 
ATOM     35  N   UNL A   1      42.443  30.045  29.497  1.00  0.00    -0.248 NA
ATOM     36  C   UNL A   1      40.570  31.341  30.012  1.00  0.00     0.031 C 
ATOM     37  C   UNL A   1      39.727  26.668  28.367  1.00  0.00     0.029 A 
ATOM     38  N   UNL A   1      41.849  27.268  28.740  1.00  0.00    -0.354 N 
ATOM     39  C   UNL A   1      42.859  31.284  29.971  1.00  0.00     0.074 A 
ATOM     40  C   UNL A   1      41.664  32.054  30.245  1.00  0.00     0.031 C 
ATOM     41  C   UNL A   1      40.497  25.593  28.135  1.00  0.00     0.029 A 
ATOM     42  C   UNL A   1      41.899  25.963  28.309  1.00  0.00     0.049 A 
ATOM     43  H   UNL A   1      42.648  27.779  29.005  1.00  0.00     0.167 HD
ATOM     44  C   UNL A   1      44.121  31.736  30.161  1.00  0.00     0.037 A 
ATOM     45  C   UNL A   1      42.953  25.169  28.044  1.00  0.00     0.037 A 
ATOM     46  C   UNL A   1      45.308  30.960  29.907  1.00  0.00     0.049 A 
ATOM     47  C   UNL A   1      44.347  25.712  28.208  1.00  0.00     0.074 A 
ATOM     48  C   UNL A   1      46.632  31.333  30.056  1.00  0.00     0.029 A 
ATOM     49  N   UNL A   1      45.312  29.646  29.464  1.00  0.00    -0.354 N 
ATOM     50  N   UNL A   1      44.726  26.902  28.607  1.00  0.00    -0.248 NA
ATOM     51  C   UNL A   1      45.456  24.808  27.870  1.00  0.00     0.031 C 
ATOM     52  C   UNL A   1      47.438  30.252  29.682  1.00  0.00     0.029 A 
ATOM     53  C   UNL A   1      46.614  29.195  29.332  1.00  0.00     0.049 A 
ATOM     54  H   UNL A   1      44.507  29.112  29.272  1.00  0.00     0.167 HD
ATOM     55  C   UNL A   1      46.117  26.882  28.588  1.00  0.00     0.074 A 
ATOM     56  C   UNL A   1      46.512  25.560  28.147  1.00  0.00     0.031 C 
ATOM     57  C   UNL A   1      46.989  27.871  28.904  1.00  0.00     0.037 A 
BRANCH  44  58
ATOM     58  C   UNL A   1      44.290  33.145  30.656  1.00  0.00     0.058 A 
ATOM     59  C   UNL A   1      44.346  34.233  29.771  1.00  0.00     0.135 A 
ATOM     60  C   UNL A   1      44.354  33.414  32.033  1.00  0.00     0.135 A 
ATOM     61  F   UNL A   1      44.305  34.028  28.445  1.00  0.00    -0.206 F 
ATOM     62  C   UNL A   1      44.477  35.539  30.234  1.00  0.00     0.059 A 
ATOM     63  C   UNL A   1      44.465  34.715  32.518  1.00  0.00     0.059 A 
ATOM     64  F   UNL A   1      44.307  32.409  32.921  1.00  0.00    -0.206 F 
ATOM     65  C   UNL A   1      44.538  35.769  31.609  1.00  0.00     0.060 A 
BRANCH  65  66
ATOM     66  S   UNL A   1      44.700  37.469  32.197  1.00  0.00     0.124 S 
ATOM     67  O   UNL A   1      43.738  37.490  33.294  1.00  0.00    -0.237 OA
ATOM     68  O   UNL A   1      46.105  37.535  32.587  1.00  0.00    -0.237 OA
ATOM     69  O   UNL A   1      44.340  38.268  31.030  1.00  0.00    -0.744 OA
ENDBRANCH  65  66
ENDBRANCH  44  58
BRANCH  45  70
ATOM     70  C   UNL A   1      42.739  23.780  27.562  1.00  0.00     0.058 A 
ATOM     71  C   UNL A   1      42.531  23.515  26.201  1.00  0.00     0.135 A 
ATOM     72  C   UNL A   1      42.727  22.693  28.451  1.00  0.00     0.135 A 
ATOM     73  F   UNL A   1      42.523  24.524  25.316  1.00  0.00    -0.206 F 
ATOM     74  C   UNL A   1      42.300  22.225  25.738  1.00  0.00     0.059 A 
ATOM     75  C   UNL A   1      42.521  21.392  28.008  1.00  0.00     0.059 A 
ATOM     76  F   UNL A   1      42.931  22.894  29.762  1.00  0.00    -0.206 F 
ATOM     77  C   UNL A   1      42.294  21.169  26.650  1.00  0.00     0.060 A 
BRANCH  77  78
ATOM     78  S   UNL A   1      42.027  19.490  26.040  1.00  0.00     0.124 S 
ATOM     79  O   UNL A   1      40.595  19.503  25.765  1.00  0.00    -0.237 OA
ATOM     80  O   UNL A   1      42.900  19.441  24.871  1.00  0.00    -0.237 OA
ATOM     81  O   UNL A   1      42.450  18.657  27.162  1.00  0.00    -0.744 OA
ENDBRANCH  77  78
ENDBRANCH  45  70
BRANCH  57  82
ATOM     82  C   UNL A   1      48.453  27.547  28.824  1.00  0.00     0.058 A 
ATOM     83  C   UNL A   1      49.214  27.858  27.688  1.00  0.00     0.135 A 
ATOM     84  C   UNL A   1      49.109  26.953  29.914  1.00  0.00     0.135 A 
ATOM     85  F   UNL A   1      48.631  28.420  26.618  1.00  0.00    -0.206 F 
ATOM     86  C   UNL A   1      50.574  27.573  27.626  1.00  0.00     0.059 A 
ATOM     87  C   UNL A   1      50.472  26.676  29.881  1.00  0.00     0.059 A 
ATOM     88  F   UNL A   1      48.425  26.643  31.027  1.00  0.00    -0.206 F 
ATOM     89  C   UNL A   1      51.194  26.979  28.728  1.00  0.00     0.060 A 
BRANCH  89  90
ATOM     90  S   UNL A   1      52.965  26.639  28.651  1.00  0.00     0.124 S 
ATOM     91  O   UNL A   1      53.234  26.174  30.008  1.00  0.00    -0.237 OA
ATOM     92  O   UNL A   1      53.048  25.623  27.605  1.00  0.00    -0.237 OA
ATOM     93  O   UNL A   1      53.544  27.933  28.303  1.00  0.00    -0.744 OA
ENDBRANCH  89  90
ENDBRANCH  57  82
ENDBRANCH  31  32
ENDBRANCH  24  26
ENDBRANCH  23  24
ENDBRANCH  22  23
ENDBRANCH   1  22
TORSDOF 17
ENDMDL
MODEL 3
REMARK VINA RESULT:     -11.1      6.706     12.121
REMARK SMILES Cc1cccc(C)c1Nc1ccccc1CC(=O)OCCOC(=O)c1ccc(-c2c3nc(c(-c4c(F)cc(S(=O)(=O)[O-])cc4F)c4ccc([nH]4)c(-c4c(F)cc(S(=O)(=O)[O-])cc4F)c4nc(c(-c5c(F)cc(S(=O)(=O)[O-])cc5F)c5ccc2[nH]5)C=C4)C=C3)cc1
REMARK SMILES IDX 20 1 19 2 17 3 18 4 16 5 15 6 10 7 11 8 12 9 14 10 13 11
REMARK SMILES IDX 9 12 8 14 1 15 2 16 3 17 4 18 6 19 5 20 7 21 21 22 22 23
REMARK SMILES IDX 23 24 24 25 25 26 26 27 90 28 27 29 89 30 28 31 29 32 30 33
REMARK SMILES IDX 83 34 31 35 88 36 82 37 84 38 32 39 87 40 81 41 80 42 33 44
REMARK SMILES IDX 67 45 46 46 66 47 47 48 50 49 65 50 85 51 48 52 49 53 64 55
REMARK SMILES IDX 86 56 51 57 34 58 35 59 44 60 36 61 37 62 43 63 45 64 38 65
REMARK SMILES IDX 39 66 40 67 41 68 42 69 68 70 69 71 78 72 70 73 71 74 77 75
REMARK SMILES IDX 79 76 72 77 73 78 74 79 75 80 76 81 52 82 53 83 62 84 54 85
REMARK SMILES IDX 55 86 61 87 63 88 56 89 57 90 58 91 59 92 60 93
REMARK H PARENT 9 13 84 43 50 54
REMARK Flexibility Score: inf
ROOT
ATOM      1  C   UNL A   1      37.089  22.975  25.475  1.00  0.00     0.274 C 
ENDROOT
BRANCH   1   2
ATOM      2  O   UNL A   1      36.256  21.951  26.047  1.00  0.00    -0.462 OA
BRANCH   2   3
ATOM      3  C   UNL A   1      35.315  21.440  25.209  1.00  0.00     0.310 C 
ATOM      4  O   UNL A   1      35.202  20.245  24.945  1.00  0.00    -0.252 OA
BRANCH   3   5
ATOM      5  C   UNL A   1      34.464  22.482  24.536  1.00  0.00     0.160 C 
BRANCH   5   6
ATOM      6  C   UNL A   1      33.177  22.929  25.204  1.00  0.00    -0.013 A 
ATOM      7  C   UNL A   1      32.982  24.278  25.578  1.00  0.00     0.042 A 
ATOM      8  C   UNL A   1      31.795  24.639  26.240  1.00  0.00     0.026 A 
ATOM      9  C   UNL A   1      30.780  23.710  26.465  1.00  0.00     0.002 A 
ATOM     10  C   UNL A   1      32.126  22.017  25.403  1.00  0.00     0.006 A 
ATOM     11  C   UNL A   1      30.938  22.402  26.026  1.00  0.00     0.000 A 
BRANCH   7  12
ATOM     12  N   UNL A   1      33.862  25.318  25.216  1.00  0.00    -0.355 N 
ATOM     13  H   UNL A   1      34.787  25.203  25.536  1.00  0.00     0.167 HD
BRANCH  12  14
ATOM     14  C   UNL A   1      33.637  26.500  24.470  1.00  0.00     0.044 A 
ATOM     15  C   UNL A   1      33.858  27.812  26.647  1.00  0.00     0.046 C 
ATOM     16  C   UNL A   1      33.646  27.740  25.157  1.00  0.00    -0.027 A 
ATOM     17  C   UNL A   1      33.542  28.942  24.439  1.00  0.00     0.005 A 
ATOM     18  C   UNL A   1      33.425  28.931  23.054  1.00  0.00     0.001 A 
ATOM     19  C   UNL A   1      33.476  26.497  23.064  1.00  0.00    -0.027 A 
ATOM     20  C   UNL A   1      33.393  27.719  22.373  1.00  0.00     0.005 A 
ATOM     21  C   UNL A   1      33.396  25.239  22.239  1.00  0.00     0.046 C 
ENDBRANCH  12  14
ENDBRANCH   7  12
ENDBRANCH   5   6
ENDBRANCH   3   5
ENDBRANCH   2   3
ENDBRANCH   1   2
BRANCH   1  22
ATOM     22  C   UNL A   1      38.459  23.006  26.149  1.00  0.00     0.275 C 
BRANCH  22  23
ATOM     23  O   UNL A   1      38.943  24.358  26.237  1.00  0.00    -0.458 OA
BRANCH  23  24
ATOM     24  C   UNL A   1      40.223  24.500  26.645  1.00  0.00     0.338 C 
ATOM     25  O   UNL A   1      41.205  23.923  26.212  1.00  0.00    -0.246 OA
BRANCH  24  26
ATOM     26  C   UNL A   1      40.292  25.474  27.747  1.00  0.00     0.060 A 
ATOM     27  C   UNL A   1      39.272  25.555  28.699  1.00  0.00     0.016 A 
ATOM     28  C   UNL A   1      41.342  26.391  27.759  1.00  0.00     0.016 A 
ATOM     29  C   UNL A   1      39.285  26.580  29.649  1.00  0.00     0.010 A 
ATOM     30  C   UNL A   1      41.379  27.384  28.739  1.00  0.00     0.010 A 
ATOM     31  C   UNL A   1      40.342  27.502  29.680  1.00  0.00    -0.014 A 
BRANCH  31  32
ATOM     32  C   UNL A   1      40.369  28.619  30.659  1.00  0.00     0.031 A 
ATOM     33  C   UNL A   1      41.339  28.580  31.810  1.00  0.00     0.074 A 
ATOM     34  C   UNL A   1      39.502  29.644  30.548  1.00  0.00     0.049 A 
ATOM     35  N   UNL A   1      41.383  29.328  32.883  1.00  0.00    -0.248 NA
ATOM     36  C   UNL A   1      42.392  27.554  31.749  1.00  0.00     0.031 C 
ATOM     37  C   UNL A   1      38.540  29.827  29.460  1.00  0.00     0.029 A 
ATOM     38  N   UNL A   1      39.278  30.717  31.374  1.00  0.00    -0.354 N 
ATOM     39  C   UNL A   1      42.447  28.847  33.638  1.00  0.00     0.074 A 
ATOM     40  C   UNL A   1      43.015  27.734  32.906  1.00  0.00     0.031 C 
ATOM     41  C   UNL A   1      37.830  30.944  29.685  1.00  0.00     0.029 A 
ATOM     42  C   UNL A   1      38.242  31.521  30.962  1.00  0.00     0.049 A 
ATOM     43  H   UNL A   1      39.809  30.894  32.184  1.00  0.00     0.167 HD
ATOM     44  C   UNL A   1      42.908  29.295  34.831  1.00  0.00     0.037 A 
ATOM     45  C   UNL A   1      37.662  32.577  31.563  1.00  0.00     0.037 A 
ATOM     46  C   UNL A   1      42.353  30.415  35.546  1.00  0.00     0.049 A 
ATOM     47  C   UNL A   1      38.153  33.020  32.914  1.00  0.00     0.074 A 
ATOM     48  C   UNL A   1      42.741  30.937  36.768  1.00  0.00     0.029 A 
ATOM     49  N   UNL A   1      41.299  31.196  35.096  1.00  0.00    -0.354 N 
ATOM     50  N   UNL A   1      39.126  32.525  33.641  1.00  0.00    -0.248 NA
ATOM     51  C   UNL A   1      37.458  34.157  33.534  1.00  0.00     0.031 C 
ATOM     52  C   UNL A   1      41.908  32.020  37.067  1.00  0.00     0.029 A 
ATOM     53  C   UNL A   1      41.022  32.193  36.016  1.00  0.00     0.049 A 
ATOM     54  H   UNL A   1      40.819  31.061  34.247  1.00  0.00     0.167 HD
ATOM     55  C   UNL A   1      39.172  33.302  34.793  1.00  0.00     0.074 A 
ATOM     56  C   UNL A   1      38.136  34.306  34.663  1.00  0.00     0.031 C 
ATOM     57  C   UNL A   1      39.996  33.193  35.864  1.00  0.00     0.037 A 
BRANCH  44  58
ATOM     58  C   UNL A   1      44.063  28.561  35.450  1.00  0.00     0.058 A 
ATOM     59  C   UNL A   1      43.865  27.487  36.332  1.00  0.00     0.135 A 
ATOM     60  C   UNL A   1      45.385  28.909  35.126  1.00  0.00     0.135 A 
ATOM     61  F   UNL A   1      42.622  27.126  36.687  1.00  0.00    -0.206 F 
ATOM     62  C   UNL A   1      44.938  26.794  36.885  1.00  0.00     0.059 A 
ATOM     63  C   UNL A   1      46.472  28.216  35.652  1.00  0.00     0.059 A 
ATOM     64  F   UNL A   1      45.629  29.929  34.290  1.00  0.00    -0.206 F 
ATOM     65  C   UNL A   1      46.238  27.168  36.540  1.00  0.00     0.060 A 
BRANCH  65  66
ATOM     66  S   UNL A   1      47.621  26.255  37.259  1.00  0.00     0.124 S 
ATOM     67  O   UNL A   1      47.158  24.877  37.128  1.00  0.00    -0.237 OA
ATOM     68  O   UNL A   1      48.733  26.634  36.391  1.00  0.00    -0.237 OA
ATOM     69  O   UNL A   1      47.694  26.767  38.623  1.00  0.00    -0.744 OA
ENDBRANCH  65  66
ENDBRANCH  44  58
BRANCH  45  70
ATOM     70  C   UNL A   1      36.524  33.276  30.910  1.00  0.00     0.058 A 
ATOM     71  C   UNL A   1      36.731  34.092  29.789  1.00  0.00     0.135 A 
ATOM     72  C   UNL A   1      35.214  33.149  31.397  1.00  0.00     0.135 A 
ATOM     73  F   UNL A   1      37.969  34.252  29.295  1.00  0.00    -0.206 F 
ATOM     74  C   UNL A   1      35.682  34.776  29.184  1.00  0.00     0.059 A 
ATOM     75  C   UNL A   1      34.146  33.804  30.794  1.00  0.00     0.059 A 
ATOM     76  F   UNL A   1      34.963  32.370  32.461  1.00  0.00    -0.206 F 
ATOM     77  C   UNL A   1      34.392  34.627  29.696  1.00  0.00     0.060 A 
BRANCH  77  78
ATOM     78  S   UNL A   1      33.027  35.490  28.886  1.00  0.00     0.124 S 
ATOM     79  O   UNL A   1      33.735  36.541  28.162  1.00  0.00    -0.237 OA
ATOM     80  O   UNL A   1      32.437  34.437  28.066  1.00  0.00    -0.237 OA
ATOM     81  O   UNL A   1      32.205  35.936  30.006  1.00  0.00    -0.744 OA
ENDBRANCH  77  78
ENDBRANCH  45  70
BRANCH  57  82
ATOM     82  C   UNL A   1      39.838  34.208  36.959  1.00  0.00     0.058 A 
ATOM     83  C   UNL A   1      40.346  35.509  36.834  1.00  0.00     0.135 A 
ATOM     84  C   UNL A   1      39.134  33.885  38.130  1.00  0.00     0.135 A 
ATOM     85  F   UNL A   1      41.032  35.864  35.737  1.00  0.00    -0.206 F 
ATOM     86  C   UNL A   1      40.180  36.453  37.844  1.00  0.00     0.059 A 
ATOM     87  C   UNL A   1      38.940  34.818  39.144  1.00  0.00     0.059 A 
ATOM     88  F   UNL A   1      38.622  32.655  38.293  1.00  0.00    -0.206 F 
ATOM     89  C   UNL A   1      39.477  36.096  38.996  1.00  0.00     0.060 A 
BRANCH  89  90
ATOM     90  S   UNL A   1      39.241  37.334  40.289  1.00  0.00     0.124 S 
ATOM     91  O   UNL A   1      40.619  37.672  40.627  1.00  0.00    -0.237 OA
ATOM     92  O   UNL A   1      38.485  38.374  39.597  1.00  0.00    -0.237 OA
ATOM     93  O   UNL A   1      38.499  36.612  41.318  1.00  0.00    -0.744 OA
ENDBRANCH  89  90
ENDBRANCH  57  82
ENDBRANCH  31  32
ENDBRANCH  24  26
ENDBRANCH  23  24
ENDBRANCH  22  23
ENDBRANCH   1  22
TORSDOF 17
ENDMDL
