MODEL 1
REMARK VINA RESULT:     -12.7      0.000      0.000
REMARK SMILES O=C(OCCOC(=O)[C@H]1CCCCN1c1cc(-c2ccccc2)nc(-c2cccc(Cl)c2)n1)c1ccc(-c2c3nc(c(-c4c(F)cc(S(=O)(=O)[O-])cc4F)c4ccc([nH]4)c(-c4c(F)cc(S(=O)(=O)[O-])cc4F)c4nc(c(-c5c(F)cc(S(=O)(=O)[O-])cc5F)c5ccc2[nH]5)C=C4)C=C3)cc1
REMARK SMILES IDX 4 1 3 2 2 3 1 4 34 5 35 6 99 7 36 8 98 9 37 10 38 11 39 12
REMARK SMILES IDX 92 13 40 14 97 15 91 16 93 17 41 18 96 19 90 20 89 21 42 23
REMARK SMILES IDX 76 24 55 25 75 26 56 27 59 28 74 29 94 30 57 31 58 32 73 34
REMARK SMILES IDX 95 35 60 36 43 37 44 38 53 39 45 40 46 41 52 42 54 43 47 44
REMARK SMILES IDX 48 45 49 46 50 47 51 48 77 49 78 50 87 51 79 52 80 53 86 54
REMARK SMILES IDX 88 55 81 56 82 57 83 58 84 59 85 60 61 61 62 62 71 63 63 64
REMARK SMILES IDX 64 65 70 66 72 67 65 68 66 69 67 70 68 71 69 72 5 73 6 74
REMARK SMILES IDX 7 75 8 76 9 77 10 78 14 79 11 80 13 81 12 82 15 83 16 84
REMARK SMILES IDX 33 85 17 86 25 87 24 88 18 89 19 90 23 91 20 92 22 93 21 94
REMARK SMILES IDX 26 95 27 96 32 97 28 98 30 99 29 100 31 101
REMARK H PARENT 93 22 59 33
REMARK Flexibility Score: inf
ROOT
ATOM      1  C   UNL A   1      37.235  21.715  24.549  1.00  0.00     0.275 C 
ENDROOT
BRANCH   1   2
ATOM      2  O   UNL A   1      37.714  22.143  25.822  1.00  0.00    -0.458 OA
BRANCH   2   3
ATOM      3  C   UNL A   1      38.985  22.103  26.270  1.00  0.00     0.338 C 
ATOM      4  O   UNL A   1      39.572  21.020  26.231  1.00  0.00    -0.246 OA
BRANCH   3   5
ATOM      5  C   UNL A   1      39.687  23.277  26.902  1.00  0.00     0.060 A 
ATOM      6  C   UNL A   1      40.611  23.325  27.959  1.00  0.00     0.016 A 
ATOM      7  C   UNL A   1      39.397  24.483  26.285  1.00  0.00     0.016 A 
ATOM      8  C   UNL A   1      41.282  24.515  28.314  1.00  0.00     0.010 A 
ATOM      9  C   UNL A   1      40.053  25.653  26.638  1.00  0.00     0.010 A 
ATOM     10  C   UNL A   1      41.006  25.699  27.646  1.00  0.00    -0.014 A 
BRANCH  10  11
ATOM     11  C   UNL A   1      41.549  27.032  28.005  1.00  0.00     0.031 A 
ATOM     12  C   UNL A   1      42.997  27.315  27.674  1.00  0.00     0.074 A 
ATOM     13  C   UNL A   1      40.850  27.900  28.760  1.00  0.00     0.049 A 
ATOM     14  N   UNL A   1      43.795  28.238  28.138  1.00  0.00    -0.248 NA
ATOM     15  C   UNL A   1      43.663  26.335  26.800  1.00  0.00     0.031 C 
ATOM     16  C   UNL A   1      39.511  27.677  29.309  1.00  0.00     0.029 A 
ATOM     17  N   UNL A   1      41.185  29.151  29.204  1.00  0.00    -0.354 N 
ATOM     18  C   UNL A   1      45.072  27.859  27.727  1.00  0.00     0.074 A 
ATOM     19  C   UNL A   1      44.936  26.598  27.041  1.00  0.00     0.031 C 
ATOM     20  C   UNL A   1      39.114  28.786  29.960  1.00  0.00     0.029 A 
ATOM     21  C   UNL A   1      40.176  29.786  29.889  1.00  0.00     0.049 A 
ATOM     22  H   UNL A   1      42.068  29.558  29.049  1.00  0.00     0.167 HD
ATOM     23  C   UNL A   1      46.241  28.531  27.864  1.00  0.00     0.037 A 
ATOM     24  C   UNL A   1      40.126  31.046  30.363  1.00  0.00     0.037 A 
ATOM     25  C   UNL A   1      46.288  29.881  28.354  1.00  0.00     0.049 A 
ATOM     26  C   UNL A   1      41.337  31.925  30.164  1.00  0.00     0.074 A 
ATOM     27  C   UNL A   1      47.360  30.753  28.396  1.00  0.00     0.029 A 
ATOM     28  N   UNL A   1      45.180  30.578  28.815  1.00  0.00    -0.354 N 
ATOM     29  N   UNL A   1      42.517  31.599  29.689  1.00  0.00    -0.248 NA
ATOM     30  C   UNL A   1      41.214  33.337  30.547  1.00  0.00     0.031 C 
ATOM     31  C   UNL A   1      46.889  31.990  28.848  1.00  0.00     0.029 A 
ATOM     32  C   UNL A   1      45.521  31.892  29.064  1.00  0.00     0.049 A 
ATOM     33  H   UNL A   1      44.283  30.193  28.944  1.00  0.00     0.167 HD
ATOM     34  C   UNL A   1      43.284  32.756  29.740  1.00  0.00     0.074 A 
ATOM     35  C   UNL A   1      42.411  33.809  30.220  1.00  0.00     0.031 C 
ATOM     36  C   UNL A   1      44.600  32.928  29.457  1.00  0.00     0.037 A 
BRANCH  23  37
ATOM     37  C   UNL A   1      47.515  27.853  27.422  1.00  0.00     0.058 A 
ATOM     38  C   UNL A   1      48.369  27.197  28.325  1.00  0.00     0.135 A 
ATOM     39  C   UNL A   1      47.906  27.877  26.072  1.00  0.00     0.135 A 
ATOM     40  F   UNL A   1      48.047  27.111  29.625  1.00  0.00    -0.206 F 
ATOM     41  C   UNL A   1      49.605  26.694  27.932  1.00  0.00     0.059 A 
ATOM     42  C   UNL A   1      49.115  27.328  25.646  1.00  0.00     0.059 A 
ATOM     43  F   UNL A   1      47.128  28.462  25.148  1.00  0.00    -0.206 F 
ATOM     44  C   UNL A   1      49.978  26.779  26.593  1.00  0.00     0.060 A 
BRANCH  44  45
ATOM     45  S   UNL A   1      51.613  26.196  26.106  1.00  0.00     0.124 S 
ATOM     46  O   UNL A   1      51.618  26.525  24.682  1.00  0.00    -0.237 OA
ATOM     47  O   UNL A   1      52.501  27.006  26.941  1.00  0.00    -0.237 OA
ATOM     48  O   UNL A   1      51.578  24.778  26.425  1.00  0.00    -0.744 OA
ENDBRANCH  44  45
ENDBRANCH  23  37
BRANCH  24  49
ATOM     49  C   UNL A   1      38.868  31.576  30.950  1.00  0.00     0.058 A 
ATOM     50  C   UNL A   1      38.592  31.389  32.315  1.00  0.00     0.135 A 
ATOM     51  C   UNL A   1      37.941  32.311  30.197  1.00  0.00     0.135 A 
ATOM     52  F   UNL A   1      39.446  30.693  33.082  1.00  0.00    -0.206 F 
ATOM     53  C   UNL A   1      37.443  31.899  32.909  1.00  0.00     0.059 A 
ATOM     54  C   UNL A   1      36.793  32.852  30.773  1.00  0.00     0.059 A 
ATOM     55  F   UNL A   1      38.163  32.537  28.893  1.00  0.00    -0.206 F 
ATOM     56  C   UNL A   1      36.552  32.638  32.130  1.00  0.00     0.060 A 
BRANCH  56  57
ATOM     57  S   UNL A   1      35.104  33.361  32.937  1.00  0.00     0.124 S 
ATOM     58  O   UNL A   1      35.264  34.776  32.625  1.00  0.00    -0.237 OA
ATOM     59  O   UNL A   1      34.007  32.678  32.259  1.00  0.00    -0.237 OA
ATOM     60  O   UNL A   1      35.286  32.999  34.340  1.00  0.00    -0.744 OA
ENDBRANCH  56  57
ENDBRANCH  24  49
BRANCH  36  61
ATOM     61  C   UNL A   1      45.155  34.316  29.552  1.00  0.00     0.058 A 
ATOM     62  C   UNL A   1      45.127  35.198  28.463  1.00  0.00     0.135 A 
ATOM     63  C   UNL A   1      45.620  34.797  30.786  1.00  0.00     0.135 A 
ATOM     64  F   UNL A   1      44.688  34.782  27.265  1.00  0.00    -0.206 F 
ATOM     65  C   UNL A   1      45.560  36.512  28.591  1.00  0.00     0.059 A 
ATOM     66  C   UNL A   1      46.035  36.113  30.942  1.00  0.00     0.059 A 
ATOM     67  F   UNL A   1      45.647  33.992  31.860  1.00  0.00    -0.206 F 
ATOM     68  C   UNL A   1      46.007  36.961  29.835  1.00  0.00     0.060 A 
BRANCH  68  69
ATOM     69  S   UNL A   1      46.524  38.682  29.997  1.00  0.00     0.124 S 
ATOM     70  O   UNL A   1      45.749  39.323  28.940  1.00  0.00    -0.237 OA
ATOM     71  O   UNL A   1      46.120  39.002  31.363  1.00  0.00    -0.237 OA
ATOM     72  O   UNL A   1      47.965  38.629  29.774  1.00  0.00    -0.744 OA
ENDBRANCH  68  69
ENDBRANCH  36  61
ENDBRANCH  10  11
ENDBRANCH   3   5
ENDBRANCH   2   3
ENDBRANCH   1   2
BRANCH   1  73
ATOM     73  C   UNL A   1      36.458  22.779  23.759  1.00  0.00     0.274 C 
BRANCH  73  74
ATOM     74  O   UNL A   1      35.014  22.662  23.759  1.00  0.00    -0.461 OA
BRANCH  74  75
ATOM     75  C   UNL A   1      34.348  23.356  24.739  1.00  0.00     0.328 C 
ATOM     76  O   UNL A   1      34.303  22.960  25.900  1.00  0.00    -0.250 OA
BRANCH  75  77
ATOM     77  C   UNL A   1      33.607  24.630  24.190  1.00  0.00     0.193 C 
ATOM     78  C   UNL A   1      33.174  24.325  22.748  1.00  0.00     0.037 C 
ATOM     79  N   UNL A   1      32.402  24.988  25.002  1.00  0.00    -0.343 N 
ATOM     80  C   UNL A   1      32.047  23.286  22.692  1.00  0.00     0.005 C 
ATOM     81  C   UNL A   1      31.329  23.998  25.043  1.00  0.00     0.119 C 
ATOM     82  C   UNL A   1      30.886  23.644  23.622  1.00  0.00     0.022 C 
BRANCH  79  83
ATOM     83  C   UNL A   1      32.023  26.325  25.198  1.00  0.00     0.134 A 
ATOM     84  C   UNL A   1      32.629  27.054  26.225  1.00  0.00     0.076 A 
ATOM     85  N   UNL A   1      31.177  26.932  24.352  1.00  0.00    -0.211 NA
ATOM     86  C   UNL A   1      32.496  28.438  26.238  1.00  0.00     0.076 A 
ATOM     87  C   UNL A   1      30.972  28.264  24.526  1.00  0.00     0.162 A 
ATOM     88  N   UNL A   1      31.621  29.043  25.413  1.00  0.00    -0.228 NA
BRANCH  86  89
ATOM     89  C   UNL A   1      33.466  29.348  26.922  1.00  0.00     0.000 A 
ATOM     90  C   UNL A   1      33.156  30.688  27.206  1.00  0.00     0.010 A 
ATOM     91  C   UNL A   1      34.798  28.951  27.182  1.00  0.00     0.010 A 
ATOM     92  C   UNL A   1      34.124  31.575  27.706  1.00  0.00     0.001 A 
ATOM     93  C   UNL A   1      35.778  29.843  27.635  1.00  0.00     0.001 A 
ATOM     94  C   UNL A   1      35.438  31.161  27.901  1.00  0.00     0.000 A 
ENDBRANCH  86  89
BRANCH  87  95
ATOM     95  C   UNL A   1      29.850  28.888  23.807  1.00  0.00     0.021 A 
ATOM     96  C   UNL A   1      28.797  28.084  23.329  1.00  0.00     0.012 A 
ATOM     97  C   UNL A   1      29.736  30.282  23.642  1.00  0.00     0.032 A 
ATOM     98  C   UNL A   1      27.677  28.636  22.703  1.00  0.00     0.002 A 
ATOM     99  C   UNL A   1      28.612  30.831  23.016  1.00  0.00     0.041 A 
ATOM    100  C   UNL A   1      27.590  30.014  22.538  1.00  0.00     0.020 A 
ATOM    101  Cl  UNL A   1      28.430  32.534  22.874  1.00  0.00    -0.084 Cl
ENDBRANCH  87  95
ENDBRANCH  79  83
ENDBRANCH  75  77
ENDBRANCH  74  75
ENDBRANCH  73  74
ENDBRANCH   1  73
TORSDOF 17
ENDMDL
MODEL 2
REMARK VINA RESULT:     -12.4      1.003      3.011
REMARK SMILES O=C(OCCOC(=O)[C@H]1CCCCN1c1cc(-c2ccccc2)nc(-c2cccc(Cl)c2)n1)c1ccc(-c2c3nc(c(-c4c(F)cc(S(=O)(=O)[O-])cc4F)c4ccc([nH]4)c(-c4c(F)cc(S(=O)(=O)[O-])cc4F)c4nc(c(-c5c(F)cc(S(=O)(=O)[O-])cc5F)c5ccc2[nH]5)C=C4)C=C3)cc1
REMARK SMILES IDX 4 1 3 2 2 3 1 4 34 5 35 6 99 7 36 8 98 9 37 10 38 11 39 12
REMARK SMILES IDX 92 13 40 14 97 15 91 16 93 17 41 18 96 19 90 20 89 21 42 23
REMARK SMILES IDX 76 24 55 25 75 26 56 27 59 28 74 29 94 30 57 31 58 32 73 34
REMARK SMILES IDX 95 35 60 36 43 37 44 38 53 39 45 40 46 41 52 42 54 43 47 44
REMARK SMILES IDX 48 45 49 46 50 47 51 48 77 49 78 50 87 51 79 52 80 53 86 54
REMARK SMILES IDX 88 55 81 56 82 57 83 58 84 59 85 60 61 61 62 62 71 63 63 64
REMARK SMILES IDX 64 65 70 66 72 67 65 68 66 69 67 70 68 71 69 72 5 73 6 74
REMARK SMILES IDX 7 75 8 76 9 77 10 78 14 79 11 80 13 81 12 82 15 83 16 84
REMARK SMILES IDX 33 85 17 86 25 87 24 88 18 89 19 90 23 91 20 92 22 93 21 94
REMARK SMILES IDX 26 95 27 96 32 97 28 98 30 99 29 100 31 101
REMARK H PARENT 93 22 59 33
REMARK Flexibility Score: inf
ROOT
ATOM      1  C   UNL A   1      36.651  22.094  25.007  1.00  0.00     0.275 C 
ENDROOT
BRANCH   1   2
ATOM      2  O   UNL A   1      37.425  22.343  26.179  1.00  0.00    -0.458 OA
BRANCH   2   3
ATOM      3  C   UNL A   1      38.768  22.420  26.267  1.00  0.00     0.338 C 
ATOM      4  O   UNL A   1      39.424  21.454  25.873  1.00  0.00    -0.246 OA
BRANCH   3   5
ATOM      5  C   UNL A   1      39.499  23.571  26.909  1.00  0.00     0.060 A 
ATOM      6  C   UNL A   1      40.399  23.591  27.987  1.00  0.00     0.016 A 
ATOM      7  C   UNL A   1      39.269  24.783  26.278  1.00  0.00     0.016 A 
ATOM      8  C   UNL A   1      41.107  24.757  28.350  1.00  0.00     0.010 A 
ATOM      9  C   UNL A   1      39.962  25.930  26.640  1.00  0.00     0.010 A 
ATOM     10  C   UNL A   1      40.893  25.947  27.669  1.00  0.00    -0.014 A 
BRANCH  10  11
ATOM     11  C   UNL A   1      41.478  27.260  28.033  1.00  0.00     0.031 A 
ATOM     12  C   UNL A   1      42.925  27.510  27.673  1.00  0.00     0.074 A 
ATOM     13  C   UNL A   1      40.817  28.135  28.813  1.00  0.00     0.049 A 
ATOM     14  N   UNL A   1      43.757  28.406  28.131  1.00  0.00    -0.248 NA
ATOM     15  C   UNL A   1      43.546  26.525  26.773  1.00  0.00     0.031 C 
ATOM     16  C   UNL A   1      39.486  27.940  29.389  1.00  0.00     0.029 A 
ATOM     17  N   UNL A   1      41.195  29.372  29.266  1.00  0.00    -0.354 N 
ATOM     18  C   UNL A   1      45.014  28.000  27.687  1.00  0.00     0.074 A 
ATOM     19  C   UNL A   1      44.830  26.752  26.989  1.00  0.00     0.031 C 
ATOM     20  C   UNL A   1      39.132  29.050  30.063  1.00  0.00     0.029 A 
ATOM     21  C   UNL A   1      40.218  30.023  29.981  1.00  0.00     0.049 A 
ATOM     22  H   UNL A   1      42.084  29.758  29.096  1.00  0.00     0.167 HD
ATOM     23  C   UNL A   1      46.202  28.640  27.807  1.00  0.00     0.037 A 
ATOM     24  C   UNL A   1      40.211  31.278  30.471  1.00  0.00     0.037 A 
ATOM     25  C   UNL A   1      46.296  29.982  28.312  1.00  0.00     0.049 A 
ATOM     26  C   UNL A   1      41.440  32.128  30.257  1.00  0.00     0.074 A 
ATOM     27  C   UNL A   1      47.390  30.825  28.341  1.00  0.00     0.029 A 
ATOM     28  N   UNL A   1      45.216  30.701  28.806  1.00  0.00    -0.354 N 
ATOM     29  N   UNL A   1      42.600  31.778  29.752  1.00  0.00    -0.248 NA
ATOM     30  C   UNL A   1      41.362  33.538  30.660  1.00  0.00     0.031 C 
ATOM     31  C   UNL A   1      46.962  32.068  28.819  1.00  0.00     0.029 A 
ATOM     32  C   UNL A   1      45.597  32.002  29.064  1.00  0.00     0.049 A 
ATOM     33  H   UNL A   1      44.313  30.337  28.950  1.00  0.00     0.167 HD
ATOM     34  C   UNL A   1      43.398  32.915  29.800  1.00  0.00     0.074 A 
ATOM     35  C   UNL A   1      42.564  33.983  30.313  1.00  0.00     0.031 C 
ATOM     36  C   UNL A   1      44.711  33.056  29.491  1.00  0.00     0.037 A 
BRANCH  23  37
ATOM     37  C   UNL A   1      47.449  27.935  27.328  1.00  0.00     0.058 A 
ATOM     38  C   UNL A   1      48.284  27.211  28.197  1.00  0.00     0.135 A 
ATOM     39  C   UNL A   1      47.833  28.001  25.977  1.00  0.00     0.135 A 
ATOM     40  F   UNL A   1      47.965  27.083  29.495  1.00  0.00    -0.206 F 
ATOM     41  C   UNL A   1      49.498  26.681  27.775  1.00  0.00     0.059 A 
ATOM     42  C   UNL A   1      49.019  27.428  25.521  1.00  0.00     0.059 A 
ATOM     43  F   UNL A   1      47.072  28.652  25.084  1.00  0.00    -0.206 F 
ATOM     44  C   UNL A   1      49.866  26.808  26.438  1.00  0.00     0.060 A 
BRANCH  44  45
ATOM     45  S   UNL A   1      51.477  26.187  25.916  1.00  0.00     0.124 S 
ATOM     46  O   UNL A   1      51.371  26.314  24.463  1.00  0.00    -0.237 OA
ATOM     47  O   UNL A   1      52.401  27.119  26.562  1.00  0.00    -0.237 OA
ATOM     48  O   UNL A   1      51.500  24.827  26.430  1.00  0.00    -0.744 OA
ENDBRANCH  44  45
ENDBRANCH  23  37
BRANCH  24  49
ATOM     49  C   UNL A   1      38.981  31.833  31.093  1.00  0.00     0.058 A 
ATOM     50  C   UNL A   1      38.119  32.652  30.346  1.00  0.00     0.135 A 
ATOM     51  C   UNL A   1      38.608  31.534  32.412  1.00  0.00     0.135 A 
ATOM     52  F   UNL A   1      38.429  32.970  29.079  1.00  0.00    -0.206 F 
ATOM     53  C   UNL A   1      36.941  33.162  30.882  1.00  0.00     0.059 A 
ATOM     54  C   UNL A   1      37.422  32.014  32.965  1.00  0.00     0.059 A 
ATOM     55  F   UNL A   1      39.383  30.740  33.167  1.00  0.00    -0.206 F 
ATOM     56  C   UNL A   1      36.596  32.830  32.192  1.00  0.00     0.060 A 
BRANCH  56  57
ATOM     57  S   UNL A   1      35.023  33.437  32.844  1.00  0.00     0.124 S 
ATOM     58  O   UNL A   1      35.137  33.100  34.258  1.00  0.00    -0.237 OA
ATOM     59  O   UNL A   1      35.089  34.859  32.519  1.00  0.00    -0.237 OA
ATOM     60  O   UNL A   1      34.031  32.675  32.091  1.00  0.00    -0.744 OA
ENDBRANCH  56  57
ENDBRANCH  24  49
BRANCH  36  61
ATOM     61  C   UNL A   1      45.305  34.428  29.590  1.00  0.00     0.058 A 
ATOM     62  C   UNL A   1      45.274  35.325  28.514  1.00  0.00     0.135 A 
ATOM     63  C   UNL A   1      45.810  34.880  30.819  1.00  0.00     0.135 A 
ATOM     64  F   UNL A   1      44.797  34.937  27.322  1.00  0.00    -0.206 F 
ATOM     65  C   UNL A   1      45.744  36.626  28.649  1.00  0.00     0.059 A 
ATOM     66  C   UNL A   1      46.262  36.183  30.983  1.00  0.00     0.059 A 
ATOM     67  F   UNL A   1      45.841  34.060  31.882  1.00  0.00    -0.206 F 
ATOM     68  C   UNL A   1      46.231  37.046  29.888  1.00  0.00     0.060 A 
BRANCH  68  69
ATOM     69  S   UNL A   1      46.796  38.751  30.061  1.00  0.00     0.124 S 
ATOM     70  O   UNL A   1      45.582  39.496  29.744  1.00  0.00    -0.237 OA
ATOM     71  O   UNL A   1      47.223  38.799  31.456  1.00  0.00    -0.237 OA
ATOM     72  O   UNL A   1      47.870  38.856  29.079  1.00  0.00    -0.744 OA
ENDBRANCH  68  69
ENDBRANCH  36  61
ENDBRANCH  10  11
ENDBRANCH   3   5
ENDBRANCH   2   3
ENDBRANCH   1   2
BRANCH   1  73
ATOM     73  C   UNL A   1      36.505  23.294  24.060  1.00  0.00     0.274 C 
BRANCH  73  74
ATOM     74  O   UNL A   1      35.294  24.079  24.188  1.00  0.00    -0.461 OA
BRANCH  74  75
ATOM     75  C   UNL A   1      34.376  23.951  23.175  1.00  0.00     0.328 C 
ATOM     76  O   UNL A   1      34.407  23.013  22.384  1.00  0.00    -0.250 OA
BRANCH  75  77
ATOM     77  C   UNL A   1      33.368  25.157  23.108  1.00  0.00     0.193 C 
ATOM     78  C   UNL A   1      32.099  24.655  22.404  1.00  0.00     0.037 C 
ATOM     79  N   UNL A   1      33.008  25.681  24.462  1.00  0.00    -0.343 N 
ATOM     80  C   UNL A   1      31.310  23.667  23.272  1.00  0.00     0.005 C 
ATOM     81  C   UNL A   1      32.322  24.752  25.357  1.00  0.00     0.119 C 
ATOM     82  C   UNL A   1      31.062  24.207  24.682  1.00  0.00     0.022 C 
BRANCH  79  83
ATOM     83  C   UNL A   1      32.765  27.046  24.678  1.00  0.00     0.134 A 
ATOM     84  C   UNL A   1      31.812  27.695  23.887  1.00  0.00     0.076 A 
ATOM     85  N   UNL A   1      33.350  27.697  25.694  1.00  0.00    -0.211 NA
ATOM     86  C   UNL A   1      31.345  28.943  24.284  1.00  0.00     0.076 A 
ATOM     87  C   UNL A   1      32.955  28.977  25.923  1.00  0.00     0.162 A 
ATOM     88  N   UNL A   1      31.956  29.612  25.280  1.00  0.00    -0.228 NA
BRANCH  86  89
ATOM     89  C   UNL A   1      30.021  29.495  23.861  1.00  0.00     0.000 A 
ATOM     90  C   UNL A   1      29.116  28.748  23.088  1.00  0.00     0.010 A 
ATOM     91  C   UNL A   1      29.674  30.847  24.085  1.00  0.00     0.010 A 
ATOM     92  C   UNL A   1      27.946  29.324  22.565  1.00  0.00     0.001 A 
ATOM     93  C   UNL A   1      28.534  31.438  23.527  1.00  0.00     0.001 A 
ATOM     94  C   UNL A   1      27.665  30.672  22.766  1.00  0.00     0.000 A 
ENDBRANCH  86  89
BRANCH  87  95
ATOM     95  C   UNL A   1      33.771  29.798  26.833  1.00  0.00     0.021 A 
ATOM     96  C   UNL A   1      35.027  29.323  27.260  1.00  0.00     0.012 A 
ATOM     97  C   UNL A   1      33.387  31.091  27.239  1.00  0.00     0.032 A 
ATOM     98  C   UNL A   1      35.867  30.094  28.066  1.00  0.00     0.002 A 
ATOM     99  C   UNL A   1      34.234  31.860  28.044  1.00  0.00     0.041 A 
ATOM    100  C   UNL A   1      35.465  31.363  28.466  1.00  0.00     0.020 A 
ATOM    101  Cl  UNL A   1      33.806  33.464  28.484  1.00  0.00    -0.084 Cl
ENDBRANCH  87  95
ENDBRANCH  79  83
ENDBRANCH  75  77
ENDBRANCH  74  75
ENDBRANCH  73  74
ENDBRANCH   1  73
TORSDOF 17
ENDMDL
MODEL 3
REMARK VINA RESULT:     -12.0      5.143      9.258
REMARK SMILES O=C(OCCOC(=O)[C@H]1CCCCN1c1cc(-c2ccccc2)nc(-c2cccc(Cl)c2)n1)c1ccc(-c2c3nc(c(-c4c(F)cc(S(=O)(=O)[O-])cc4F)c4ccc([nH]4)c(-c4c(F)cc(S(=O)(=O)[O-])cc4F)c4nc(c(-c5c(F)cc(S(=O)(=O)[O-])cc5F)c5ccc2[nH]5)C=C4)C=C3)cc1
REMARK SMILES IDX 4 1 3 2 2 3 1 4 34 5 35 6 99 7 36 8 98 9 37 10 38 11 39 12
REMARK SMILES IDX 92 13 40 14 97 15 91 16 93 17 41 18 96 19 90 20 89 21 42 23
REMARK SMILES IDX 76 24 55 25 75 26 56 27 59 28 74 29 94 30 57 31 58 32 73 34
REMARK SMILES IDX 95 35 60 36 43 37 44 38 53 39 45 40 46 41 52 42 54 43 47 44
REMARK SMILES IDX 48 45 49 46 50 47 51 48 77 49 78 50 87 51 79 52 80 53 86 54
REMARK SMILES IDX 88 55 81 56 82 57 83 58 84 59 85 60 61 61 62 62 71 63 63 64
REMARK SMILES IDX 64 65 70 66 72 67 65 68 66 69 67 70 68 71 69 72 5 73 6 74
REMARK SMILES IDX 7 75 8 76 9 77 10 78 14 79 11 80 13 81 12 82 15 83 16 84
REMARK SMILES IDX 33 85 17 86 25 87 24 88 18 89 19 90 23 91 20 92 22 93 21 94
REMARK SMILES IDX 26 95 27 96 32 97 28 98 30 99 29 100 31 101
REMARK H PARENT 93 22 59 33
REMARK Flexibility Score: inf
ROOT
ATOM      1  C   UNL A   1      37.830  23.816  26.674  1.00  0.00     0.275 C 
ENDROOT
BRANCH   1   2
ATOM      2  O   UNL A   1      38.933  24.527  26.117  1.00  0.00    -0.458 OA
BRANCH   2   3
ATOM      3  C   UNL A   1      40.158  24.685  26.658  1.00  0.00     0.338 C 
ATOM      4  O   UNL A   1      41.043  23.903  26.308  1.00  0.00    -0.246 OA
BRANCH   3   5
ATOM      5  C   UNL A   1      40.474  25.694  27.732  1.00  0.00     0.060 A 
ATOM      6  C   UNL A   1      41.520  26.627  27.827  1.00  0.00     0.016 A 
ATOM      7  C   UNL A   1      39.535  25.719  28.750  1.00  0.00     0.016 A 
ATOM      8  C   UNL A   1      41.563  27.602  28.846  1.00  0.00     0.010 A 
ATOM      9  C   UNL A   1      39.581  26.675  29.755  1.00  0.00     0.010 A 
ATOM     10  C   UNL A   1      40.581  27.635  29.826  1.00  0.00    -0.014 A 
BRANCH  10  11
ATOM     11  C   UNL A   1      40.584  28.525  31.013  1.00  0.00     0.031 A 
ATOM     12  C   UNL A   1      39.472  29.543  31.131  1.00  0.00     0.074 A 
ATOM     13  C   UNL A   1      41.624  28.562  31.865  1.00  0.00     0.049 A 
ATOM     14  N   UNL A   1      39.400  30.619  31.866  1.00  0.00    -0.248 NA
ATOM     15  C   UNL A   1      38.352  29.389  30.188  1.00  0.00     0.031 C 
ATOM     16  C   UNL A   1      42.849  27.767  31.763  1.00  0.00     0.029 A 
ATOM     17  N   UNL A   1      41.815  29.320  32.990  1.00  0.00    -0.354 N 
ATOM     18  C   UNL A   1      38.310  31.331  31.369  1.00  0.00     0.074 A 
ATOM     19  C   UNL A   1      37.806  30.592  30.238  1.00  0.00     0.031 C 
ATOM     20  C   UNL A   1      43.634  28.033  32.824  1.00  0.00     0.029 A 
ATOM     21  C   UNL A   1      42.976  29.027  33.666  1.00  0.00     0.049 A 
ATOM     22  H   UNL A   1      41.181  30.012  33.287  1.00  0.00     0.167 HD
ATOM     23  C   UNL A   1      37.750  32.468  31.848  1.00  0.00     0.037 A 
ATOM     24  C   UNL A   1      43.417  29.496  34.850  1.00  0.00     0.037 A 
ATOM     25  C   UNL A   1      38.149  33.041  33.104  1.00  0.00     0.049 A 
ATOM     26  C   UNL A   1      42.566  30.514  35.569  1.00  0.00     0.074 A 
ATOM     27  C   UNL A   1      37.573  34.084  33.805  1.00  0.00     0.029 A 
ATOM     28  N   UNL A   1      39.188  32.552  33.884  1.00  0.00    -0.354 N 
ATOM     29  N   UNL A   1      41.481  31.121  35.145  1.00  0.00    -0.248 NA
ATOM     30  C   UNL A   1      42.979  30.900  36.924  1.00  0.00     0.031 C 
ATOM     31  C   UNL A   1      38.244  34.200  35.027  1.00  0.00     0.029 A 
ATOM     32  C   UNL A   1      39.219  33.214  35.094  1.00  0.00     0.049 A 
ATOM     33  H   UNL A   1      39.810  31.838  33.615  1.00  0.00     0.167 HD
ATOM     34  C   UNL A   1      41.098  31.980  36.169  1.00  0.00     0.074 A 
ATOM     35  C   UNL A   1      42.023  31.757  37.262  1.00  0.00     0.031 C 
ATOM     36  C   UNL A   1      40.101  32.900  36.189  1.00  0.00     0.037 A 
BRANCH  23  37
ATOM     37  C   UNL A   1      36.629  33.103  31.062  1.00  0.00     0.058 A 
ATOM     38  C   UNL A   1      36.859  33.844  29.889  1.00  0.00     0.135 A 
ATOM     39  C   UNL A   1      35.297  32.992  31.497  1.00  0.00     0.135 A 
ATOM     40  F   UNL A   1      38.103  33.970  29.399  1.00  0.00    -0.206 F 
ATOM     41  C   UNL A   1      35.840  34.538  29.248  1.00  0.00     0.059 A 
ATOM     42  C   UNL A   1      34.250  33.633  30.836  1.00  0.00     0.059 A 
ATOM     43  F   UNL A   1      34.998  32.278  32.593  1.00  0.00    -0.206 F 
ATOM     44  C   UNL A   1      34.540  34.440  29.738  1.00  0.00     0.060 A 
BRANCH  44  45
ATOM     45  S   UNL A   1      33.237  35.405  28.947  1.00  0.00     0.124 S 
ATOM     46  O   UNL A   1      32.459  35.834  30.108  1.00  0.00    -0.237 OA
ATOM     47  O   UNL A   1      33.990  36.460  28.270  1.00  0.00    -0.237 OA
ATOM     48  O   UNL A   1      32.585  34.443  28.072  1.00  0.00    -0.744 OA
ENDBRANCH  44  45
ENDBRANCH  23  37
BRANCH  24  49
ATOM     49  C   UNL A   1      44.642  28.929  35.471  1.00  0.00     0.058 A 
ATOM     50  C   UNL A   1      44.561  27.778  36.271  1.00  0.00     0.135 A 
ATOM     51  C   UNL A   1      45.914  29.479  35.255  1.00  0.00     0.135 A 
ATOM     52  F   UNL A   1      43.368  27.211  36.511  1.00  0.00    -0.206 F 
ATOM     53  C   UNL A   1      45.690  27.198  36.841  1.00  0.00     0.059 A 
ATOM     54  C   UNL A   1      47.063  28.904  35.796  1.00  0.00     0.059 A 
ATOM     55  F   UNL A   1      46.054  30.568  34.482  1.00  0.00    -0.206 F 
ATOM     56  C   UNL A   1      46.939  27.765  36.591  1.00  0.00     0.060 A 
BRANCH  56  57
ATOM     57  S   UNL A   1      48.402  26.951  37.274  1.00  0.00     0.124 S 
ATOM     58  O   UNL A   1      48.044  25.543  37.154  1.00  0.00    -0.237 OA
ATOM     59  O   UNL A   1      49.456  27.420  36.380  1.00  0.00    -0.237 OA
ATOM     60  O   UNL A   1      48.470  27.472  38.637  1.00  0.00    -0.744 OA
ENDBRANCH  56  57
ENDBRANCH  24  49
BRANCH  36  61
ATOM     61  C   UNL A   1      39.883  33.658  37.463  1.00  0.00     0.058 A 
ATOM     62  C   UNL A   1      40.601  34.824  37.760  1.00  0.00     0.135 A 
ATOM     63  C   UNL A   1      38.860  33.264  38.340  1.00  0.00     0.135 A 
ATOM     64  F   UNL A   1      41.585  35.240  36.949  1.00  0.00    -0.206 F 
ATOM     65  C   UNL A   1      40.323  35.569  38.900  1.00  0.00     0.059 A 
ATOM     66  C   UNL A   1      38.549  34.007  39.472  1.00  0.00     0.059 A 
ATOM     67  F   UNL A   1      38.134  32.164  38.085  1.00  0.00    -0.206 F 
ATOM     68  C   UNL A   1      39.292  35.155  39.747  1.00  0.00     0.060 A 
BRANCH  68  69
ATOM     69  S   UNL A   1      38.912  36.156  41.199  1.00  0.00     0.124 S 
ATOM     70  O   UNL A   1      40.135  36.013  41.982  1.00  0.00    -0.237 OA
ATOM     71  O   UNL A   1      38.682  37.475  40.617  1.00  0.00    -0.237 OA
ATOM     72  O   UNL A   1      37.729  35.511  41.759  1.00  0.00    -0.744 OA
ENDBRANCH  68  69
ENDBRANCH  36  61
ENDBRANCH  10  11
ENDBRANCH   3   5
ENDBRANCH   2   3
ENDBRANCH   1   2
BRANCH   1  73
ATOM     73  C   UNL A   1      36.471  24.121  26.028  1.00  0.00     0.274 C 
BRANCH  73  74
ATOM     74  O   UNL A   1      35.815  23.024  25.345  1.00  0.00    -0.461 OA
BRANCH  74  75
ATOM     75  C   UNL A   1      34.446  23.085  25.270  1.00  0.00     0.328 C 
ATOM     76  O   UNL A   1      33.732  22.169  25.668  1.00  0.00    -0.250 OA
BRANCH  75  77
ATOM     77  C   UNL A   1      33.929  24.391  24.561  1.00  0.00     0.193 C 
ATOM     78  C   UNL A   1      33.969  24.136  23.046  1.00  0.00     0.037 C 
ATOM     79  N   UNL A   1      32.534  24.750  24.965  1.00  0.00    -0.343 N 
ATOM     80  C   UNL A   1      32.904  23.125  22.604  1.00  0.00     0.005 C 
ATOM     81  C   UNL A   1      31.492  23.783  24.634  1.00  0.00     0.119 C 
ATOM     82  C   UNL A   1      31.514  23.480  23.134  1.00  0.00     0.022 C 
BRANCH  79  83
ATOM     83  C   UNL A   1      32.128  26.089  25.079  1.00  0.00     0.134 A 
ATOM     84  C   UNL A   1      32.738  26.900  26.040  1.00  0.00     0.076 A 
ATOM     85  N   UNL A   1      31.251  26.618  24.212  1.00  0.00    -0.211 NA
ATOM     86  C   UNL A   1      32.572  28.278  25.962  1.00  0.00     0.076 A 
ATOM     87  C   UNL A   1      31.017  27.953  24.300  1.00  0.00     0.162 A 
ATOM     88  N   UNL A   1      31.666  28.806  25.117  1.00  0.00    -0.228 NA
BRANCH  86  89
ATOM     89  C   UNL A   1      33.534  29.254  26.561  1.00  0.00     0.000 A 
ATOM     90  C   UNL A   1      34.880  28.926  26.791  1.00  0.00     0.010 A 
ATOM     91  C   UNL A   1      33.105  30.503  27.067  1.00  0.00     0.010 A 
ATOM     92  C   UNL A   1      35.737  29.790  27.494  1.00  0.00     0.001 A 
ATOM     93  C   UNL A   1      33.942  31.346  27.809  1.00  0.00     0.001 A 
ATOM     94  C   UNL A   1      35.264  30.989  28.021  1.00  0.00     0.000 A 
ENDBRANCH  86  89
BRANCH  87  95
ATOM     95  C   UNL A   1      29.866  28.502  23.565  1.00  0.00     0.021 A 
ATOM     96  C   UNL A   1      28.633  27.822  23.597  1.00  0.00     0.012 A 
ATOM     97  C   UNL A   1      29.917  29.736  22.887  1.00  0.00     0.032 A 
ATOM     98  C   UNL A   1      27.494  28.338  22.974  1.00  0.00     0.002 A 
ATOM     99  C   UNL A   1      28.773  30.249  22.267  1.00  0.00     0.041 A 
ATOM    100  C   UNL A   1      27.568  29.551  22.300  1.00  0.00     0.020 A 
ATOM    101  Cl  UNL A   1      28.806  31.786  21.500  1.00  0.00    -0.084 Cl
ENDBRANCH  87  95
ENDBRANCH  79  83
ENDBRANCH  75  77
ENDBRANCH  74  75
ENDBRANCH  73  74
ENDBRANCH   1  73
TORSDOF 17
ENDMDL
