MODEL 1
REMARK VINA RESULT:     -11.3      0.000      0.000
REMARK SMILES CC[C@H]1SC[C@H](C(=O)OCCOC(=O)c2ccc(-c3c4nc(c(-c5c(F)cc(S(=O)(=O)[O-])cc5F)c5ccc([nH]5)c(-c5c(F)cc(S(=O)(=O)[O-])cc5F)c5nc(c(-c6c(F)cc(S(=O)(=O)[O-])cc6F)c6ccc3[nH]6)C=C5)C=C4)cc2)N1C(=O)c1ccc(F)c(F)c1F
REMARK SMILES IDX 11 1 10 2 9 3 7 4 8 5 6 6 3 7 4 8 81 9 5 10 2 11 1 12 82 13
REMARK SMILES IDX 83 14 84 15 85 16 91 17 86 18 89 19 92 20 87 21 90 22 88 23
REMARK SMILES IDX 12 24 13 25 14 26 15 27 16 28 80 29 17 30 79 31 18 32 19 33
REMARK SMILES IDX 20 34 73 35 21 36 78 37 72 38 74 39 22 40 77 41 71 42 70 43
REMARK SMILES IDX 23 45 57 46 36 47 56 48 37 49 40 50 55 51 75 52 38 53 39 54
REMARK SMILES IDX 54 56 76 57 41 58 24 59 25 60 34 61 26 62 27 63 33 64 35 65
REMARK SMILES IDX 28 66 29 67 30 68 31 69 32 70 58 71 59 72 68 73 60 74 61 75
REMARK SMILES IDX 67 76 69 77 62 78 63 79 64 80 65 81 66 82 42 83 43 84 52 85
REMARK SMILES IDX 44 86 45 87 51 88 53 89 46 90 47 91 48 92 49 93 50 94
REMARK H PARENT 74 44 40 55
REMARK Flexibility Score: inf
ROOT
ATOM      1  C   UNL A   1      32.321  30.461  26.534  1.00  0.00     0.275 C 
ENDROOT
BRANCH   1   2
ATOM      2  C   UNL A   1      32.166  29.702  25.213  1.00  0.00     0.274 C 
BRANCH   2   3
ATOM      3  O   UNL A   1      33.349  28.919  24.988  1.00  0.00    -0.461 OA
BRANCH   3   4
ATOM      4  C   UNL A   1      33.467  28.282  23.782  1.00  0.00     0.329 C 
ATOM      5  O   UNL A   1      33.794  28.819  22.734  1.00  0.00    -0.250 OA
BRANCH   4   6
ATOM      6  C   UNL A   1      32.984  26.834  23.963  1.00  0.00     0.206 C 
ATOM      7  C   UNL A   1      30.955  25.643  24.706  1.00  0.00     0.144 C 
ATOM      8  S   UNL A   1      31.911  25.847  26.234  1.00  0.00    -0.134 SA
ATOM      9  N   UNL A   1      31.554  26.554  23.744  1.00  0.00    -0.312 N 
ATOM     10  C   UNL A   1      33.395  26.428  25.380  1.00  0.00     0.109 C 
BRANCH   7  11
ATOM     11  C   UNL A   1      30.955  24.160  24.265  1.00  0.00     0.033 C 
ATOM     12  C   UNL A   1      31.219  23.111  25.341  1.00  0.00     0.007 C 
ENDBRANCH   7  11
BRANCH   9  13
ATOM     13  C   UNL A   1      30.960  26.994  22.570  1.00  0.00     0.258 C 
ATOM     14  O   UNL A   1      31.226  26.517  21.472  1.00  0.00    -0.269 OA
BRANCH  13  15
ATOM     15  C   UNL A   1      29.968  28.077  22.606  1.00  0.00     0.079 A 
ATOM     16  C   UNL A   1      30.334  29.381  22.247  1.00  0.00     0.020 A 
ATOM     17  C   UNL A   1      28.702  27.823  23.127  1.00  0.00     0.174 A 
ATOM     18  C   UNL A   1      29.411  30.422  22.376  1.00  0.00     0.043 A 
ATOM     19  C   UNL A   1      27.789  28.863  23.263  1.00  0.00     0.195 A 
ATOM     20  F   UNL A   1      28.353  26.581  23.493  1.00  0.00    -0.203 F 
ATOM     21  C   UNL A   1      28.142  30.152  22.883  1.00  0.00     0.161 A 
ATOM     22  F   UNL A   1      26.570  28.619  23.763  1.00  0.00    -0.200 F 
ATOM     23  F   UNL A   1      27.263  31.153  23.007  1.00  0.00    -0.204 F 
ENDBRANCH  13  15
ENDBRANCH   9  13
ENDBRANCH   4   6
ENDBRANCH   3   4
ENDBRANCH   2   3
ENDBRANCH   1   2
BRANCH   1  24
ATOM     24  O   UNL A   1      33.642  30.255  27.069  1.00  0.00    -0.458 OA
BRANCH  24  25
ATOM     25  C   UNL A   1      34.195  31.339  27.673  1.00  0.00     0.338 C 
ATOM     26  O   UNL A   1      33.655  32.422  27.844  1.00  0.00    -0.246 OA
BRANCH  25  27
ATOM     27  C   UNL A   1      35.526  31.005  28.234  1.00  0.00     0.060 A 
ATOM     28  C   UNL A   1      35.693  29.719  28.763  1.00  0.00     0.016 A 
ATOM     29  C   UNL A   1      36.605  31.898  28.222  1.00  0.00     0.016 A 
ATOM     30  C   UNL A   1      36.941  29.314  29.234  1.00  0.00     0.010 A 
ATOM     31  C   UNL A   1      37.854  31.495  28.717  1.00  0.00     0.010 A 
ATOM     32  C   UNL A   1      38.032  30.197  29.213  1.00  0.00    -0.014 A 
BRANCH  32  33
ATOM     33  C   UNL A   1      39.311  29.753  29.821  1.00  0.00     0.031 A 
ATOM     34  C   UNL A   1      39.704  30.331  31.150  1.00  0.00     0.074 A 
ATOM     35  C   UNL A   1      40.073  28.802  29.249  1.00  0.00     0.049 A 
ATOM     36  N   UNL A   1      40.648  29.955  31.972  1.00  0.00    -0.248 NA
ATOM     37  C   UNL A   1      38.913  31.480  31.619  1.00  0.00     0.031 C 
ATOM     38  C   UNL A   1      39.806  28.158  27.964  1.00  0.00     0.029 A 
ATOM     39  N   UNL A   1      41.218  28.188  29.699  1.00  0.00    -0.354 N 
ATOM     40  C   UNL A   1      40.553  30.805  33.065  1.00  0.00     0.074 A 
ATOM     41  C   UNL A   1      39.459  31.718  32.801  1.00  0.00     0.031 C 
ATOM     42  C   UNL A   1      40.744  27.218  27.743  1.00  0.00     0.029 A 
ATOM     43  C   UNL A   1      41.674  27.188  28.871  1.00  0.00     0.049 A 
ATOM     44  H   UNL A   1      41.669  28.440  30.536  1.00  0.00     0.167 HD
ATOM     45  C   UNL A   1      41.317  30.842  34.181  1.00  0.00     0.037 A 
ATOM     46  C   UNL A   1      42.709  26.336  29.022  1.00  0.00     0.037 A 
ATOM     47  C   UNL A   1      42.462  30.003  34.410  1.00  0.00     0.049 A 
ATOM     48  C   UNL A   1      43.569  26.422  30.262  1.00  0.00     0.074 A 
ATOM     49  C   UNL A   1      43.335  30.013  35.483  1.00  0.00     0.029 A 
ATOM     50  N   UNL A   1      42.913  29.028  33.534  1.00  0.00    -0.354 N 
ATOM     51  N   UNL A   1      43.426  27.188  31.318  1.00  0.00    -0.248 NA
ATOM     52  C   UNL A   1      44.736  25.530  30.324  1.00  0.00     0.031 C 
ATOM     53  C   UNL A   1      44.341  29.072  35.234  1.00  0.00     0.029 A 
ATOM     54  C   UNL A   1      44.065  28.442  34.031  1.00  0.00     0.049 A 
ATOM     55  H   UNL A   1      42.478  28.786  32.685  1.00  0.00     0.167 HD
ATOM     56  C   UNL A   1      44.476  26.856  32.173  1.00  0.00     0.074 A 
ATOM     57  C   UNL A   1      45.225  25.801  31.526  1.00  0.00     0.031 C 
ATOM     58  C   UNL A   1      44.796  27.385  33.381  1.00  0.00     0.037 A 
BRANCH  45  59
ATOM     59  C   UNL A   1      40.966  31.880  35.205  1.00  0.00     0.058 A 
ATOM     60  C   UNL A   1      39.949  31.663  36.146  1.00  0.00     0.135 A 
ATOM     61  C   UNL A   1      41.638  33.111  35.227  1.00  0.00     0.135 A 
ATOM     62  F   UNL A   1      39.258  30.511  36.146  1.00  0.00    -0.206 F 
ATOM     63  C   UNL A   1      39.589  32.646  37.062  1.00  0.00     0.059 A 
ATOM     64  C   UNL A   1      41.308  34.101  36.146  1.00  0.00     0.059 A 
ATOM     65  F   UNL A   1      42.609  33.367  34.338  1.00  0.00    -0.206 F 
ATOM     66  C   UNL A   1      40.271  33.865  37.048  1.00  0.00     0.060 A 
BRANCH  66  67
ATOM     67  S   UNL A   1      39.775  35.146  38.219  1.00  0.00     0.124 S 
ATOM     68  O   UNL A   1      39.645  36.305  37.342  1.00  0.00    -0.237 OA
ATOM     69  O   UNL A   1      38.527  34.614  38.756  1.00  0.00    -0.237 OA
ATOM     70  O   UNL A   1      40.890  35.193  39.161  1.00  0.00    -0.744 OA
ENDBRANCH  66  67
ENDBRANCH  45  59
BRANCH  46  71
ATOM     71  C   UNL A   1      42.989  25.287  28.001  1.00  0.00     0.058 A 
ATOM     72  C   UNL A   1      42.466  23.992  28.142  1.00  0.00     0.135 A 
ATOM     73  C   UNL A   1      43.824  25.534  26.901  1.00  0.00     0.135 A 
ATOM     74  F   UNL A   1      41.682  23.699  29.192  1.00  0.00    -0.206 F 
ATOM     75  C   UNL A   1      42.777  22.974  27.247  1.00  0.00     0.059 A 
ATOM     76  C   UNL A   1      44.133  24.537  25.980  1.00  0.00     0.059 A 
ATOM     77  F   UNL A   1      44.350  26.754  26.716  1.00  0.00    -0.206 F 
ATOM     78  C   UNL A   1      43.619  23.254  26.172  1.00  0.00     0.060 A 
BRANCH  78  79
ATOM     79  S   UNL A   1      44.029  21.929  25.015  1.00  0.00     0.124 S 
ATOM     80  O   UNL A   1      43.037  20.920  25.364  1.00  0.00    -0.237 OA
ATOM     81  O   UNL A   1      43.850  22.576  23.718  1.00  0.00    -0.237 OA
ATOM     82  O   UNL A   1      45.410  21.601  25.357  1.00  0.00    -0.744 OA
ENDBRANCH  78  79
ENDBRANCH  46  71
BRANCH  58  83
ATOM     83  C   UNL A   1      45.999  26.826  34.094  1.00  0.00     0.058 A 
ATOM     84  C   UNL A   1      47.277  27.389  33.938  1.00  0.00     0.135 A 
ATOM     85  C   UNL A   1      45.863  25.755  34.992  1.00  0.00     0.135 A 
ATOM     86  F   UNL A   1      47.464  28.416  33.093  1.00  0.00    -0.206 F 
ATOM     87  C   UNL A   1      48.379  26.895  34.627  1.00  0.00     0.059 A 
ATOM     88  C   UNL A   1      46.947  25.262  35.711  1.00  0.00     0.059 A 
ATOM     89  F   UNL A   1      44.662  25.188  35.191  1.00  0.00    -0.206 F 
ATOM     90  C   UNL A   1      48.205  25.830  35.513  1.00  0.00     0.060 A 
BRANCH  90  91
ATOM     91  S   UNL A   1      49.634  25.220  36.432  1.00  0.00     0.124 S 
ATOM     92  O   UNL A   1      49.530  23.781  36.217  1.00  0.00    -0.237 OA
ATOM     93  O   UNL A   1      50.748  25.882  35.760  1.00  0.00    -0.237 OA
ATOM     94  O   UNL A   1      49.377  25.673  37.796  1.00  0.00    -0.744 OA
ENDBRANCH  90  91
ENDBRANCH  58  83
ENDBRANCH  32  33
ENDBRANCH  25  27
ENDBRANCH  24  25
ENDBRANCH   1  24
TORSDOF 17
ENDMDL
MODEL 2
REMARK VINA RESULT:     -11.1      4.661      9.758
REMARK SMILES CC[C@H]1SC[C@H](C(=O)OCCOC(=O)c2ccc(-c3c4nc(c(-c5c(F)cc(S(=O)(=O)[O-])cc5F)c5ccc([nH]5)c(-c5c(F)cc(S(=O)(=O)[O-])cc5F)c5nc(c(-c6c(F)cc(S(=O)(=O)[O-])cc6F)c6ccc3[nH]6)C=C5)C=C4)cc2)N1C(=O)c1ccc(F)c(F)c1F
REMARK SMILES IDX 11 1 10 2 9 3 7 4 8 5 6 6 3 7 4 8 81 9 5 10 2 11 1 12 82 13
REMARK SMILES IDX 83 14 84 15 85 16 91 17 86 18 89 19 92 20 87 21 90 22 88 23
REMARK SMILES IDX 12 24 13 25 14 26 15 27 16 28 80 29 17 30 79 31 18 32 19 33
REMARK SMILES IDX 20 34 73 35 21 36 78 37 72 38 74 39 22 40 77 41 71 42 70 43
REMARK SMILES IDX 23 45 57 46 36 47 56 48 37 49 40 50 55 51 75 52 38 53 39 54
REMARK SMILES IDX 54 56 76 57 41 58 24 59 25 60 34 61 26 62 27 63 33 64 35 65
REMARK SMILES IDX 28 66 29 67 30 68 31 69 32 70 58 71 59 72 68 73 60 74 61 75
REMARK SMILES IDX 67 76 69 77 62 78 63 79 64 80 65 81 66 82 42 83 43 84 52 85
REMARK SMILES IDX 44 86 45 87 51 88 53 89 46 90 47 91 48 92 49 93 50 94
REMARK H PARENT 74 44 40 55
REMARK Flexibility Score: inf
ROOT
ATOM      1  C   UNL A   1      35.977  23.285  26.158  1.00  0.00     0.275 C 
ENDROOT
BRANCH   1   2
ATOM      2  C   UNL A   1      34.804  23.738  25.282  1.00  0.00     0.274 C 
BRANCH   2   3
ATOM      3  O   UNL A   1      34.331  25.006  25.763  1.00  0.00    -0.461 OA
BRANCH   3   4
ATOM      4  C   UNL A   1      32.977  25.175  25.876  1.00  0.00     0.329 C 
ATOM      5  O   UNL A   1      32.224  24.424  26.478  1.00  0.00    -0.250 OA
BRANCH   4   6
ATOM      6  C   UNL A   1      32.576  26.376  25.004  1.00  0.00     0.206 C 
ATOM      7  C   UNL A   1      30.613  27.828  24.651  1.00  0.00     0.144 C 
ATOM      8  S   UNL A   1      30.365  26.482  23.461  1.00  0.00    -0.134 SA
ATOM      9  N   UNL A   1      31.631  27.353  25.573  1.00  0.00    -0.312 N 
ATOM     10  C   UNL A   1      32.015  25.786  23.708  1.00  0.00     0.109 C 
BRANCH   7  11
ATOM     11  C   UNL A   1      30.982  29.137  23.914  1.00  0.00     0.033 C 
ATOM     12  C   UNL A   1      30.597  29.242  22.440  1.00  0.00     0.007 C 
ENDBRANCH   7  11
BRANCH   9  13
ATOM     13  C   UNL A   1      31.895  27.883  26.828  1.00  0.00     0.258 C 
ATOM     14  O   UNL A   1      31.268  27.558  27.831  1.00  0.00    -0.269 OA
BRANCH  13  15
ATOM     15  C   UNL A   1      32.960  28.881  26.999  1.00  0.00     0.079 A 
ATOM     16  C   UNL A   1      34.295  28.472  27.116  1.00  0.00     0.020 A 
ATOM     17  C   UNL A   1      32.618  30.218  27.176  1.00  0.00     0.174 A 
ATOM     18  C   UNL A   1      35.290  29.420  27.374  1.00  0.00     0.043 A 
ATOM     19  C   UNL A   1      33.608  31.156  27.442  1.00  0.00     0.195 A 
ATOM     20  F   UNL A   1      31.339  30.611  27.087  1.00  0.00    -0.203 F 
ATOM     21  C   UNL A   1      34.936  30.758  27.532  1.00  0.00     0.161 A 
ATOM     22  F   UNL A   1      33.280  32.444  27.611  1.00  0.00    -0.200 F 
ATOM     23  F   UNL A   1      35.893  31.659  27.782  1.00  0.00    -0.204 F 
ENDBRANCH  13  15
ENDBRANCH   9  13
ENDBRANCH   4   6
ENDBRANCH   3   4
ENDBRANCH   2   3
ENDBRANCH   1   2
BRANCH   1  24
ATOM     24  O   UNL A   1      37.210  23.380  25.420  1.00  0.00    -0.458 OA
BRANCH  24  25
ATOM     25  C   UNL A   1      38.324  23.025  26.111  1.00  0.00     0.338 C 
ATOM     26  O   UNL A   1      38.772  21.892  26.223  1.00  0.00    -0.246 OA
BRANCH  25  27
ATOM     27  C   UNL A   1      39.030  24.225  26.622  1.00  0.00     0.060 A 
ATOM     28  C   UNL A   1      38.931  24.490  27.993  1.00  0.00     0.016 A 
ATOM     29  C   UNL A   1      39.802  25.061  25.805  1.00  0.00     0.016 A 
ATOM     30  C   UNL A   1      39.635  25.555  28.551  1.00  0.00     0.010 A 
ATOM     31  C   UNL A   1      40.492  26.145  26.366  1.00  0.00     0.010 A 
ATOM     32  C   UNL A   1      40.423  26.390  27.743  1.00  0.00    -0.014 A 
BRANCH  32  33
ATOM     33  C   UNL A   1      41.068  27.572  28.368  1.00  0.00     0.031 A 
ATOM     34  C   UNL A   1      42.560  27.706  28.264  1.00  0.00     0.074 A 
ATOM     35  C   UNL A   1      40.343  28.547  28.949  1.00  0.00     0.049 A 
ATOM     36  N   UNL A   1      43.322  28.733  28.536  1.00  0.00    -0.248 NA
ATOM     37  C   UNL A   1      43.286  26.525  27.770  1.00  0.00     0.031 C 
ATOM     38  C   UNL A   1      38.891  28.542  29.117  1.00  0.00     0.029 A 
ATOM     39  N   UNL A   1      40.737  29.751  29.482  1.00  0.00    -0.354 N 
ATOM     40  C   UNL A   1      44.614  28.330  28.228  1.00  0.00     0.074 A 
ATOM     41  C   UNL A   1      44.534  26.966  27.749  1.00  0.00     0.031 C 
ATOM     42  C   UNL A   1      38.513  29.703  29.684  1.00  0.00     0.029 A 
ATOM     43  C   UNL A   1      39.692  30.535  29.915  1.00  0.00     0.049 A 
ATOM     44  H   UNL A   1      41.679  30.028  29.548  1.00  0.00     0.167 HD
ATOM     45  C   UNL A   1      45.770  29.023  28.350  1.00  0.00     0.037 A 
ATOM     46  C   UNL A   1      39.692  31.787  30.418  1.00  0.00     0.037 A 
ATOM     47  C   UNL A   1      45.872  30.342  28.912  1.00  0.00     0.049 A 
ATOM     48  C   UNL A   1      41.002  32.525  30.578  1.00  0.00     0.074 A 
ATOM     49  C   UNL A   1      47.009  31.097  29.135  1.00  0.00     0.029 A 
ATOM     50  N   UNL A   1      44.798  31.089  29.371  1.00  0.00    -0.354 N 
ATOM     51  N   UNL A   1      42.210  32.157  30.220  1.00  0.00    -0.248 NA
ATOM     52  C   UNL A   1      40.945  33.848  31.219  1.00  0.00     0.031 C 
ATOM     53  C   UNL A   1      46.626  32.284  29.771  1.00  0.00     0.029 A 
ATOM     54  C   UNL A   1      45.246  32.288  29.897  1.00  0.00     0.049 A 
ATOM     55  H   UNL A   1      43.855  30.809  29.328  1.00  0.00     0.167 HD
ATOM     56  C   UNL A   1      43.050  33.210  30.579  1.00  0.00     0.074 A 
ATOM     57  C   UNL A   1      42.210  34.239  31.151  1.00  0.00     0.031 C 
ATOM     58  C   UNL A   1      44.397  33.310  30.455  1.00  0.00     0.037 A 
BRANCH  45  59
ATOM     59  C   UNL A   1      47.025  28.320  27.926  1.00  0.00     0.058 A 
ATOM     60  C   UNL A   1      47.742  27.505  28.815  1.00  0.00     0.135 A 
ATOM     61  C   UNL A   1      47.527  28.485  26.626  1.00  0.00     0.135 A 
ATOM     62  F   UNL A   1      47.317  27.340  30.077  1.00  0.00    -0.206 F 
ATOM     63  C   UNL A   1      48.933  26.896  28.435  1.00  0.00     0.059 A 
ATOM     64  C   UNL A   1      48.705  27.870  26.220  1.00  0.00     0.059 A 
ATOM     65  F   UNL A   1      46.881  29.265  25.747  1.00  0.00    -0.206 F 
ATOM     66  C   UNL A   1      49.410  27.091  27.138  1.00  0.00     0.060 A 
BRANCH  66  67
ATOM     67  S   UNL A   1      50.973  26.321  26.666  1.00  0.00     0.124 S 
ATOM     68  O   UNL A   1      50.849  26.283  25.212  1.00  0.00    -0.237 OA
ATOM     69  O   UNL A   1      51.957  27.261  27.192  1.00  0.00    -0.237 OA
ATOM     70  O   UNL A   1      50.928  25.025  27.335  1.00  0.00    -0.744 OA
ENDBRANCH  66  67
ENDBRANCH  45  59
BRANCH  46  71
ATOM     71  C   UNL A   1      38.415  32.464  30.780  1.00  0.00     0.058 A 
ATOM     72  C   UNL A   1      37.850  32.295  32.053  1.00  0.00     0.135 A 
ATOM     73  C   UNL A   1      37.706  33.243  29.852  1.00  0.00     0.135 A 
ATOM     74  F   UNL A   1      38.477  31.538  32.967  1.00  0.00    -0.206 F 
ATOM     75  C   UNL A   1      36.620  32.851  32.389  1.00  0.00     0.059 A 
ATOM     76  C   UNL A   1      36.483  33.827  30.172  1.00  0.00     0.059 A 
ATOM     77  F   UNL A   1      38.201  33.439  28.621  1.00  0.00    -0.206 F 
ATOM     78  C   UNL A   1      35.939  33.610  31.438  1.00  0.00     0.060 A 
BRANCH  78  79
ATOM     79  S   UNL A   1      34.338  34.324  31.873  1.00  0.00     0.124 S 
ATOM     80  O   UNL A   1      34.738  35.583  32.490  1.00  0.00    -0.237 OA
ATOM     81  O   UNL A   1      33.678  34.432  30.575  1.00  0.00    -0.237 OA
ATOM     82  O   UNL A   1      33.764  33.332  32.778  1.00  0.00    -0.744 OA
ENDBRANCH  78  79
ENDBRANCH  46  71
BRANCH  58  83
ATOM     83  C   UNL A   1      45.052  34.580  30.932  1.00  0.00     0.058 A 
ATOM     84  C   UNL A   1      45.224  35.685  30.082  1.00  0.00     0.135 A 
ATOM     85  C   UNL A   1      45.455  34.716  32.270  1.00  0.00     0.135 A 
ATOM     86  F   UNL A   1      44.856  35.610  28.793  1.00  0.00    -0.206 F 
ATOM     87  C   UNL A   1      45.794  36.870  30.536  1.00  0.00     0.059 A 
ATOM     88  C   UNL A   1      46.004  35.900  32.751  1.00  0.00     0.059 A 
ATOM     89  F   UNL A   1      45.301  33.696  33.129  1.00  0.00    -0.206 F 
ATOM     90  C   UNL A   1      46.182  36.969  31.873  1.00  0.00     0.060 A 
BRANCH  90  91
ATOM     91  S   UNL A   1      46.885  38.524  32.463  1.00  0.00     0.124 S 
ATOM     92  O   UNL A   1      45.711  39.390  32.479  1.00  0.00    -0.237 OA
ATOM     93  O   UNL A   1      47.419  38.154  33.770  1.00  0.00    -0.237 OA
ATOM     94  O   UNL A   1      47.889  38.845  31.453  1.00  0.00    -0.744 OA
ENDBRANCH  90  91
ENDBRANCH  58  83
ENDBRANCH  32  33
ENDBRANCH  25  27
ENDBRANCH  24  25
ENDBRANCH   1  24
TORSDOF 17
ENDMDL
MODEL 3
REMARK VINA RESULT:     -11.1      3.279      8.609
REMARK SMILES CC[C@H]1SC[C@H](C(=O)OCCOC(=O)c2ccc(-c3c4nc(c(-c5c(F)cc(S(=O)(=O)[O-])cc5F)c5ccc([nH]5)c(-c5c(F)cc(S(=O)(=O)[O-])cc5F)c5nc(c(-c6c(F)cc(S(=O)(=O)[O-])cc6F)c6ccc3[nH]6)C=C5)C=C4)cc2)N1C(=O)c1ccc(F)c(F)c1F
REMARK SMILES IDX 11 1 10 2 9 3 7 4 8 5 6 6 3 7 4 8 81 9 5 10 2 11 1 12 82 13
REMARK SMILES IDX 83 14 84 15 85 16 91 17 86 18 89 19 92 20 87 21 90 22 88 23
REMARK SMILES IDX 12 24 13 25 14 26 15 27 16 28 80 29 17 30 79 31 18 32 19 33
REMARK SMILES IDX 20 34 73 35 21 36 78 37 72 38 74 39 22 40 77 41 71 42 70 43
REMARK SMILES IDX 23 45 57 46 36 47 56 48 37 49 40 50 55 51 75 52 38 53 39 54
REMARK SMILES IDX 54 56 76 57 41 58 24 59 25 60 34 61 26 62 27 63 33 64 35 65
REMARK SMILES IDX 28 66 29 67 30 68 31 69 32 70 58 71 59 72 68 73 60 74 61 75
REMARK SMILES IDX 67 76 69 77 62 78 63 79 64 80 65 81 66 82 42 83 43 84 52 85
REMARK SMILES IDX 44 86 45 87 51 88 53 89 46 90 47 91 48 92 49 93 50 94
REMARK H PARENT 74 44 40 55
REMARK Flexibility Score: inf
ROOT
ATOM      1  C   UNL A   1      37.810  23.489  26.064  1.00  0.00     0.275 C 
ENDROOT
BRANCH   1   2
ATOM      2  C   UNL A   1      36.673  23.669  25.054  1.00  0.00     0.274 C 
BRANCH   2   3
ATOM      3  O   UNL A   1      35.737  24.625  25.577  1.00  0.00    -0.461 OA
BRANCH   3   4
ATOM      4  C   UNL A   1      34.406  24.397  25.350  1.00  0.00     0.329 C 
ATOM      5  O   UNL A   1      33.779  23.434  25.764  1.00  0.00    -0.250 OA
BRANCH   4   6
ATOM      6  C   UNL A   1      33.900  25.479  24.383  1.00  0.00     0.206 C 
ATOM      7  C   UNL A   1      31.746  26.362  23.564  1.00  0.00     0.144 C 
ATOM      8  S   UNL A   1      32.143  25.046  22.380  1.00  0.00    -0.134 SA
ATOM      9  N   UNL A   1      32.623  26.144  24.702  1.00  0.00    -0.312 N 
ATOM     10  C   UNL A   1      33.821  24.810  23.008  1.00  0.00     0.109 C 
BRANCH   7  11
ATOM     11  C   UNL A   1      31.902  27.749  22.897  1.00  0.00     0.033 C 
ATOM     12  C   UNL A   1      30.625  28.461  22.458  1.00  0.00     0.007 C 
ENDBRANCH   7  11
BRANCH   9  13
ATOM     13  C   UNL A   1      32.448  26.676  25.971  1.00  0.00     0.258 C 
ATOM     14  O   UNL A   1      31.833  26.092  26.857  1.00  0.00    -0.269 OA
BRANCH  13  15
ATOM     15  C   UNL A   1      33.007  27.995  26.302  1.00  0.00     0.079 A 
ATOM     16  C   UNL A   1      34.298  28.099  26.835  1.00  0.00     0.020 A 
ATOM     17  C   UNL A   1      32.195  29.121  26.205  1.00  0.00     0.174 A 
ATOM     18  C   UNL A   1      34.784  29.346  27.235  1.00  0.00     0.043 A 
ATOM     19  C   UNL A   1      32.678  30.359  26.613  1.00  0.00     0.195 A 
ATOM     20  F   UNL A   1      30.950  29.024  25.715  1.00  0.00    -0.203 F 
ATOM     21  C   UNL A   1      33.968  30.469  27.118  1.00  0.00     0.161 A 
ATOM     22  F   UNL A   1      31.898  31.444  26.519  1.00  0.00    -0.200 F 
ATOM     23  F   UNL A   1      34.438  31.660  27.505  1.00  0.00    -0.204 F 
ENDBRANCH  13  15
ENDBRANCH   9  13
ENDBRANCH   4   6
ENDBRANCH   3   4
ENDBRANCH   2   3
ENDBRANCH   1   2
BRANCH   1  24
ATOM     24  O   UNL A   1      38.359  24.771  26.422  1.00  0.00    -0.458 OA
BRANCH  24  25
ATOM     25  C   UNL A   1      39.645  24.746  26.860  1.00  0.00     0.338 C 
ATOM     26  O   UNL A   1      40.541  24.038  26.424  1.00  0.00    -0.246 OA
BRANCH  25  27
ATOM     27  C   UNL A   1      39.875  25.802  27.875  1.00  0.00     0.060 A 
ATOM     28  C   UNL A   1      39.043  25.799  29.002  1.00  0.00     0.016 A 
ATOM     29  C   UNL A   1      40.893  26.758  27.765  1.00  0.00     0.016 A 
ATOM     30  C   UNL A   1      39.256  26.715  30.030  1.00  0.00     0.010 A 
ATOM     31  C   UNL A   1      41.091  27.692  28.791  1.00  0.00     0.010 A 
ATOM     32  C   UNL A   1      40.284  27.667  29.935  1.00  0.00    -0.014 A 
BRANCH  32  33
ATOM     33  C   UNL A   1      40.403  28.686  31.008  1.00  0.00     0.031 A 
ATOM     34  C   UNL A   1      39.441  29.839  31.004  1.00  0.00     0.074 A 
ATOM     35  C   UNL A   1      41.293  28.556  32.010  1.00  0.00     0.049 A 
ATOM     36  N   UNL A   1      39.207  30.728  31.933  1.00  0.00    -0.248 NA
ATOM     37  C   UNL A   1      38.622  29.999  29.791  1.00  0.00     0.031 C 
ATOM     38  C   UNL A   1      42.282  27.487  32.135  1.00  0.00     0.029 A 
ATOM     39  N   UNL A   1      41.485  29.322  33.135  1.00  0.00    -0.354 N 
ATOM     40  C   UNL A   1      38.201  31.540  31.427  1.00  0.00     0.074 A 
ATOM     41  C   UNL A   1      37.869  31.039  30.109  1.00  0.00     0.031 C 
ATOM     42  C   UNL A   1      42.956  27.647  33.289  1.00  0.00     0.029 A 
ATOM     43  C   UNL A   1      42.445  28.826  33.987  1.00  0.00     0.049 A 
ATOM     44  H   UNL A   1      40.983  30.149  33.314  1.00  0.00     0.167 HD
ATOM     45  C   UNL A   1      37.616  32.620  31.996  1.00  0.00     0.037 A 
ATOM     46  C   UNL A   1      42.844  29.264  35.199  1.00  0.00     0.037 A 
ATOM     47  C   UNL A   1      38.003  33.181  33.261  1.00  0.00     0.049 A 
ATOM     48  C   UNL A   1      42.199  30.494  35.796  1.00  0.00     0.074 A 
ATOM     49  C   UNL A   1      37.511  34.312  33.888  1.00  0.00     0.029 A 
ATOM     50  N   UNL A   1      39.001  32.672  34.078  1.00  0.00    -0.354 N 
ATOM     51  N   UNL A   1      41.202  31.213  35.336  1.00  0.00    -0.248 NA
ATOM     52  C   UNL A   1      42.743  30.974  37.075  1.00  0.00     0.031 C 
ATOM     53  C   UNL A   1      38.243  34.512  35.064  1.00  0.00     0.029 A 
ATOM     54  C   UNL A   1      39.155  33.478  35.194  1.00  0.00     0.049 A 
ATOM     55  H   UNL A   1      39.522  31.858  33.894  1.00  0.00     0.167 HD
ATOM     56  C   UNL A   1      40.992  32.218  36.279  1.00  0.00     0.074 A 
ATOM     57  C   UNL A   1      41.943  31.996  37.346  1.00  0.00     0.031 C 
ATOM     58  C   UNL A   1      40.099  33.239  36.256  1.00  0.00     0.037 A 
BRANCH  45  59
ATOM     59  C   UNL A   1      36.540  33.299  31.204  1.00  0.00     0.058 A 
ATOM     60  C   UNL A   1      35.182  33.116  31.508  1.00  0.00     0.135 A 
ATOM     61  C   UNL A   1      36.869  34.121  30.115  1.00  0.00     0.135 A 
ATOM     62  F   UNL A   1      34.817  32.316  32.523  1.00  0.00    -0.206 F 
ATOM     63  C   UNL A   1      34.183  33.705  30.741  1.00  0.00     0.059 A 
ATOM     64  C   UNL A   1      35.887  34.735  29.346  1.00  0.00     0.059 A 
ATOM     65  F   UNL A   1      38.154  34.314  29.780  1.00  0.00    -0.206 F 
ATOM     66  C   UNL A   1      34.547  34.507  29.657  1.00  0.00     0.060 A 
BRANCH  66  67
ATOM     67  S   UNL A   1      33.242  35.241  28.649  1.00  0.00     0.124 S 
ATOM     68  O   UNL A   1      34.019  36.066  27.728  1.00  0.00    -0.237 OA
ATOM     69  O   UNL A   1      32.601  34.069  28.062  1.00  0.00    -0.237 OA
ATOM     70  O   UNL A   1      32.435  35.974  29.620  1.00  0.00    -0.744 OA
ENDBRANCH  66  67
ENDBRANCH  45  59
BRANCH  46  71
ATOM     71  C   UNL A   1      43.883  28.526  35.973  1.00  0.00     0.058 A 
ATOM     72  C   UNL A   1      45.241  28.856  35.843  1.00  0.00     0.135 A 
ATOM     73  C   UNL A   1      43.553  27.448  36.808  1.00  0.00     0.135 A 
ATOM     74  F   UNL A   1      45.610  29.863  35.036  1.00  0.00    -0.206 F 
ATOM     75  C   UNL A   1      46.236  28.132  36.492  1.00  0.00     0.059 A 
ATOM     76  C   UNL A   1      44.529  26.722  37.484  1.00  0.00     0.059 A 
ATOM     77  F   UNL A   1      42.270  27.090  36.969  1.00  0.00    -0.206 F 
ATOM     78  C   UNL A   1      45.871  27.061  37.305  1.00  0.00     0.060 A 
BRANCH  78  79
ATOM     79  S   UNL A   1      47.165  26.117  38.141  1.00  0.00     0.124 S 
ATOM     80  O   UNL A   1      47.787  27.143  38.968  1.00  0.00    -0.237 OA
ATOM     81  O   UNL A   1      46.401  25.099  38.856  1.00  0.00    -0.237 OA
ATOM     82  O   UNL A   1      47.979  25.617  37.037  1.00  0.00    -0.744 OA
ENDBRANCH  78  79
ENDBRANCH  46  71
BRANCH  58  83
ATOM     83  C   UNL A   1      40.092  34.190  37.424  1.00  0.00     0.058 A 
ATOM     84  C   UNL A   1      40.907  35.333  37.450  1.00  0.00     0.135 A 
ATOM     85  C   UNL A   1      39.214  33.990  38.501  1.00  0.00     0.135 A 
ATOM     86  F   UNL A   1      41.765  35.574  36.445  1.00  0.00    -0.206 F 
ATOM     87  C   UNL A   1      40.870  36.230  38.513  1.00  0.00     0.059 A 
ATOM     88  C   UNL A   1      39.142  34.887  39.563  1.00  0.00     0.059 A 
ATOM     89  F   UNL A   1      38.401  32.921  38.522  1.00  0.00    -0.206 F 
ATOM     90  C   UNL A   1      39.984  35.998  39.566  1.00  0.00     0.060 A 
BRANCH  90  91
ATOM     91  S   UNL A   1      39.915  37.188  40.923  1.00  0.00     0.124 S 
ATOM     92  O   UNL A   1      39.431  38.383  40.241  1.00  0.00    -0.237 OA
ATOM     93  O   UNL A   1      38.975  36.560  41.847  1.00  0.00    -0.237 OA
ATOM     94  O   UNL A   1      41.296  37.246  41.392  1.00  0.00    -0.744 OA
ENDBRANCH  90  91
ENDBRANCH  58  83
ENDBRANCH  32  33
ENDBRANCH  25  27
ENDBRANCH  24  25
ENDBRANCH   1  24
TORSDOF 17
ENDMDL
