MODEL 1
REMARK VINA RESULT:     -10.2      0.000      0.000
REMARK SMILES O=C(OCCOC(=O)c1nn(-c2ccc(Br)cc2F)cc1CCCO)c1ccc(-c2c3nc(c(-c4c(F)cc(S(=O)(=O)[O-])cc4F)c4ccc([nH]4)c(-c4c(F)cc(S(=O)(=O)[O-])cc4F)c4nc(c(-c5c(F)cc(S(=O)(=O)[O-])cc5F)c5ccc2[nH]5)C=C4)C=C3)cc1
REMARK SMILES IDX 5 1 4 2 3 3 2 4 1 5 26 6 27 7 91 8 28 9 90 10 29 11 30 12
REMARK SMILES IDX 31 13 84 14 32 15 89 16 83 17 85 18 33 19 88 20 82 21 81 22
REMARK SMILES IDX 34 24 68 25 47 26 67 27 48 28 51 29 66 30 86 31 49 32 50 33
REMARK SMILES IDX 65 35 87 36 52 37 35 38 36 39 45 40 37 41 38 42 44 43 46 44
REMARK SMILES IDX 39 45 40 46 41 47 42 48 43 49 69 50 70 51 79 52 71 53 72 54
REMARK SMILES IDX 78 55 80 56 73 57 74 58 75 59 76 60 77 61 53 62 54 63 63 64
REMARK SMILES IDX 55 65 56 66 62 67 64 68 57 69 58 70 59 71 60 72 61 73 6 74
REMARK SMILES IDX 7 75 8 76 9 77 10 78 21 79 11 80 20 81 22 82 23 83 24 84
REMARK SMILES IDX 25 85 12 87 13 88 18 89 14 90 17 91 19 92 15 93 16 94
REMARK H PARENT 85 23 51 34 25 86
REMARK Flexibility Score: inf
ROOT
ATOM      1  C   UNL A   1      43.485  21.160  25.571  1.00  0.00     0.275 C 
ENDROOT
BRANCH   1   2
ATOM      2  C   UNL A   1      42.146  21.049  26.297  1.00  0.00     0.275 C 
BRANCH   2   3
ATOM      3  O   UNL A   1      41.400  22.240  26.038  1.00  0.00    -0.458 OA
BRANCH   3   4
ATOM      4  C   UNL A   1      40.434  22.497  26.943  1.00  0.00     0.338 C 
ATOM      5  O   UNL A   1      39.436  21.816  27.122  1.00  0.00    -0.246 OA
BRANCH   4   6
ATOM      6  C   UNL A   1      40.634  23.867  27.426  1.00  0.00     0.060 A 
ATOM      7  C   UNL A   1      41.720  24.193  28.241  1.00  0.00     0.016 A 
ATOM      8  C   UNL A   1      39.744  24.847  27.001  1.00  0.00     0.016 A 
ATOM      9  C   UNL A   1      41.879  25.509  28.667  1.00  0.00     0.010 A 
ATOM     10  C   UNL A   1      39.964  26.171  27.351  1.00  0.00     0.010 A 
ATOM     11  C   UNL A   1      40.981  26.502  28.248  1.00  0.00    -0.014 A 
BRANCH  11  12
ATOM     12  C   UNL A   1      41.071  27.842  28.843  1.00  0.00     0.031 A 
ATOM     13  C   UNL A   1      42.168  28.753  28.402  1.00  0.00     0.074 A 
ATOM     14  C   UNL A   1      40.194  28.305  29.761  1.00  0.00     0.049 A 
ATOM     15  N   UNL A   1      43.200  29.141  29.081  1.00  0.00    -0.248 NA
ATOM     16  C   UNL A   1      42.128  29.280  27.032  1.00  0.00     0.031 C 
ATOM     17  C   UNL A   1      38.909  27.732  30.181  1.00  0.00     0.029 A 
ATOM     18  N   UNL A   1      40.261  29.461  30.483  1.00  0.00    -0.354 N 
ATOM     19  C   UNL A   1      43.845  30.105  28.307  1.00  0.00     0.074 A 
ATOM     20  C   UNL A   1      43.202  30.074  27.016  1.00  0.00     0.031 C 
ATOM     21  C   UNL A   1      38.226  28.640  30.908  1.00  0.00     0.029 A 
ATOM     22  C   UNL A   1      39.095  29.770  31.162  1.00  0.00     0.049 A 
ATOM     23  H   UNL A   1      41.068  30.026  30.517  1.00  0.00     0.167 HD
ATOM     24  C   UNL A   1      44.755  30.977  28.830  1.00  0.00     0.037 A 
ATOM     25  C   UNL A   1      38.838  30.875  31.894  1.00  0.00     0.037 A 
ATOM     26  C   UNL A   1      45.221  30.562  30.126  1.00  0.00     0.049 A 
ATOM     27  C   UNL A   1      40.137  31.421  32.353  1.00  0.00     0.074 A 
ATOM     28  C   UNL A   1      45.884  29.455  30.620  1.00  0.00     0.029 A 
ATOM     29  N   UNL A   1      44.751  31.231  31.229  1.00  0.00    -0.354 N 
ATOM     30  N   UNL A   1      40.927  30.820  33.201  1.00  0.00    -0.248 NA
ATOM     31  C   UNL A   1      40.746  32.500  31.592  1.00  0.00     0.031 C 
ATOM     32  C   UNL A   1      45.370  29.267  31.937  1.00  0.00     0.029 A 
ATOM     33  C   UNL A   1      44.440  30.282  32.170  1.00  0.00     0.049 A 
ATOM     34  H   UNL A   1      44.655  32.205  31.326  1.00  0.00     0.167 HD
ATOM     35  C   UNL A   1      42.208  31.165  32.802  1.00  0.00     0.074 A 
ATOM     36  C   UNL A   1      42.029  32.297  31.901  1.00  0.00     0.031 C 
ATOM     37  C   UNL A   1      43.272  30.338  33.025  1.00  0.00     0.037 A 
BRANCH  24  38
ATOM     38  C   UNL A   1      45.026  32.369  28.305  1.00  0.00     0.058 A 
ATOM     39  C   UNL A   1      46.328  32.731  27.896  1.00  0.00     0.135 A 
ATOM     40  C   UNL A   1      44.116  33.438  28.450  1.00  0.00     0.135 A 
ATOM     41  F   UNL A   1      47.281  31.796  27.743  1.00  0.00    -0.206 F 
ATOM     42  C   UNL A   1      46.715  34.060  27.708  1.00  0.00     0.059 A 
ATOM     43  C   UNL A   1      44.465  34.766  28.217  1.00  0.00     0.059 A 
ATOM     44  F   UNL A   1      42.876  33.248  28.919  1.00  0.00    -0.206 F 
ATOM     45  C   UNL A   1      45.778  35.072  27.891  1.00  0.00     0.060 A 
BRANCH  45  46
ATOM     46  S   UNL A   1      46.298  36.796  27.774  1.00  0.00     0.124 S 
ATOM     47  O   UNL A   1      46.499  36.939  26.337  1.00  0.00    -0.237 OA
ATOM     48  O   UNL A   1      45.149  37.504  28.332  1.00  0.00    -0.237 OA
ATOM     49  O   UNL A   1      47.506  36.835  28.591  1.00  0.00    -0.744 OA
ENDBRANCH  45  46
ENDBRANCH  24  38
BRANCH  25  50
ATOM     50  C   UNL A   1      37.553  31.607  31.969  1.00  0.00     0.058 A 
ATOM     51  C   UNL A   1      36.931  31.871  33.197  1.00  0.00     0.135 A 
ATOM     52  C   UNL A   1      37.039  32.291  30.845  1.00  0.00     0.135 A 
ATOM     53  F   UNL A   1      37.373  31.282  34.318  1.00  0.00    -0.206 F 
ATOM     54  C   UNL A   1      35.888  32.794  33.316  1.00  0.00     0.059 A 
ATOM     55  C   UNL A   1      35.993  33.203  30.935  1.00  0.00     0.059 A 
ATOM     56  F   UNL A   1      37.604  32.158  29.635  1.00  0.00    -0.206 F 
ATOM     57  C   UNL A   1      35.439  33.471  32.180  1.00  0.00     0.060 A 
BRANCH  57  58
ATOM     58  S   UNL A   1      34.223  34.794  32.359  1.00  0.00     0.124 S 
ATOM     59  O   UNL A   1      34.921  35.728  33.236  1.00  0.00    -0.237 OA
ATOM     60  O   UNL A   1      34.039  35.231  30.979  1.00  0.00    -0.237 OA
ATOM     61  O   UNL A   1      33.073  34.119  32.954  1.00  0.00    -0.744 OA
ENDBRANCH  57  58
ENDBRANCH  25  50
BRANCH  37  62
ATOM     62  C   UNL A   1      43.117  29.215  34.020  1.00  0.00     0.058 A 
ATOM     63  C   UNL A   1      43.349  29.354  35.399  1.00  0.00     0.135 A 
ATOM     64  C   UNL A   1      42.535  28.014  33.586  1.00  0.00     0.135 A 
ATOM     65  F   UNL A   1      43.810  30.505  35.907  1.00  0.00    -0.206 F 
ATOM     66  C   UNL A   1      43.034  28.337  36.303  1.00  0.00     0.059 A 
ATOM     67  C   UNL A   1      42.187  26.997  34.472  1.00  0.00     0.059 A 
ATOM     68  F   UNL A   1      42.232  27.843  32.287  1.00  0.00    -0.206 F 
ATOM     69  C   UNL A   1      42.444  27.164  35.832  1.00  0.00     0.060 A 
BRANCH  69  70
ATOM     70  S   UNL A   1      41.913  25.908  37.018  1.00  0.00     0.124 S 
ATOM     71  O   UNL A   1      41.997  24.685  36.229  1.00  0.00    -0.237 OA
ATOM     72  O   UNL A   1      42.898  26.041  38.089  1.00  0.00    -0.237 OA
ATOM     73  O   UNL A   1      40.561  26.329  37.378  1.00  0.00    -0.744 OA
ENDBRANCH  69  70
ENDBRANCH  37  62
ENDBRANCH  11  12
ENDBRANCH   4   6
ENDBRANCH   3   4
ENDBRANCH   2   3
ENDBRANCH   1   2
BRANCH   1  74
ATOM     74  O   UNL A   1      44.003  22.498  25.701  1.00  0.00    -0.457 OA
BRANCH  74  75
ATOM     75  C   UNL A   1      45.274  22.617  26.201  1.00  0.00     0.359 C 
ATOM     76  O   UNL A   1      46.198  21.848  25.949  1.00  0.00    -0.244 OA
BRANCH  75  77
ATOM     77  C   UNL A   1      45.407  23.785  27.075  1.00  0.00     0.173 A 
ATOM     78  N   UNL A   1      45.389  23.606  28.411  1.00  0.00    -0.160 NA
ATOM     79  C   UNL A   1      45.593  25.168  26.750  1.00  0.00     0.006 A 
ATOM     80  N   UNL A   1      45.353  24.848  28.932  1.00  0.00    -0.237 N 
ATOM     81  C   UNL A   1      45.409  25.811  27.962  1.00  0.00     0.119 A 
BRANCH  79  82
ATOM     82  C   UNL A   1      45.820  25.882  25.450  1.00  0.00     0.042 C 
BRANCH  82  83
ATOM     83  C   UNL A   1      44.918  27.083  25.160  1.00  0.00     0.033 C 
BRANCH  83  84
ATOM     84  C   UNL A   1      43.442  26.706  25.057  1.00  0.00     0.156 C 
BRANCH  84  85
ATOM     85  O   UNL A   1      42.750  27.643  24.241  1.00  0.00    -0.396 OA
ATOM     86  H   UNL A   1      41.847  27.329  24.081  1.00  0.00     0.210 HD
ENDBRANCH  84  85
ENDBRANCH  83  84
ENDBRANCH  82  83
ENDBRANCH  79  82
BRANCH  80  87
ATOM     87  C   UNL A   1      45.408  25.044  30.322  1.00  0.00     0.100 A 
ATOM     88  C   UNL A   1      44.367  24.545  31.118  1.00  0.00     0.032 A 
ATOM     89  C   UNL A   1      46.503  25.671  30.912  1.00  0.00     0.149 A 
ATOM     90  C   UNL A   1      44.462  24.631  32.506  1.00  0.00     0.018 A 
ATOM     91  C   UNL A   1      46.575  25.808  32.296  1.00  0.00     0.057 A 
ATOM     92  F   UNL A   1      47.477  26.209  30.163  1.00  0.00    -0.205 F 
ATOM     93  C   UNL A   1      45.562  25.267  33.087  1.00  0.00     0.021 A 
ATOM     94  Br  UNL A   1      45.677  25.383  34.970  1.00  0.00    -0.051 Br
ENDBRANCH  80  87
ENDBRANCH  75  77
ENDBRANCH  74  75
ENDBRANCH   1  74
TORSDOF 19
ENDMDL
MODEL 2
REMARK VINA RESULT:     -10.0      4.428      6.787
REMARK SMILES O=C(OCCOC(=O)c1nn(-c2ccc(Br)cc2F)cc1CCCO)c1ccc(-c2c3nc(c(-c4c(F)cc(S(=O)(=O)[O-])cc4F)c4ccc([nH]4)c(-c4c(F)cc(S(=O)(=O)[O-])cc4F)c4nc(c(-c5c(F)cc(S(=O)(=O)[O-])cc5F)c5ccc2[nH]5)C=C4)C=C3)cc1
REMARK SMILES IDX 5 1 4 2 3 3 2 4 1 5 26 6 27 7 91 8 28 9 90 10 29 11 30 12
REMARK SMILES IDX 31 13 84 14 32 15 89 16 83 17 85 18 33 19 88 20 82 21 81 22
REMARK SMILES IDX 34 24 68 25 47 26 67 27 48 28 51 29 66 30 86 31 49 32 50 33
REMARK SMILES IDX 65 35 87 36 52 37 35 38 36 39 45 40 37 41 38 42 44 43 46 44
REMARK SMILES IDX 39 45 40 46 41 47 42 48 43 49 69 50 70 51 79 52 71 53 72 54
REMARK SMILES IDX 78 55 80 56 73 57 74 58 75 59 76 60 77 61 53 62 54 63 63 64
REMARK SMILES IDX 55 65 56 66 62 67 64 68 57 69 58 70 59 71 60 72 61 73 6 74
REMARK SMILES IDX 7 75 8 76 9 77 10 78 21 79 11 80 20 81 22 82 23 83 24 84
REMARK SMILES IDX 25 85 12 87 13 88 18 89 14 90 17 91 19 92 15 93 16 94
REMARK H PARENT 85 23 51 34 25 86
REMARK Flexibility Score: inf
ROOT
ATOM      1  C   UNL A   1      37.696  22.080  25.555  1.00  0.00     0.275 C 
ENDROOT
BRANCH   1   2
ATOM      2  C   UNL A   1      38.950  21.244  25.800  1.00  0.00     0.275 C 
BRANCH   2   3
ATOM      3  O   UNL A   1      39.687  21.850  26.863  1.00  0.00    -0.458 OA
BRANCH   3   4
ATOM      4  C   UNL A   1      40.813  22.478  26.470  1.00  0.00     0.338 C 
ATOM      5  O   UNL A   1      41.768  21.942  25.928  1.00  0.00    -0.246 OA
BRANCH   4   6
ATOM      6  C   UNL A   1      40.813  23.810  27.083  1.00  0.00     0.060 A 
ATOM      7  C   UNL A   1      39.828  24.749  26.769  1.00  0.00     0.016 A 
ATOM      8  C   UNL A   1      41.789  24.093  28.033  1.00  0.00     0.016 A 
ATOM      9  C   UNL A   1      39.858  25.998  27.384  1.00  0.00     0.010 A 
ATOM     10  C   UNL A   1      41.755  25.303  28.710  1.00  0.00     0.010 A 
ATOM     11  C   UNL A   1      40.844  26.293  28.338  1.00  0.00    -0.014 A 
BRANCH  11  12
ATOM     12  C   UNL A   1      40.956  27.667  28.845  1.00  0.00     0.031 A 
ATOM     13  C   UNL A   1      42.046  28.541  28.321  1.00  0.00     0.074 A 
ATOM     14  C   UNL A   1      40.106  28.192  29.755  1.00  0.00     0.049 A 
ATOM     15  N   UNL A   1      43.098  28.964  28.948  1.00  0.00    -0.248 NA
ATOM     16  C   UNL A   1      41.974  28.981  26.921  1.00  0.00     0.031 C 
ATOM     17  C   UNL A   1      38.829  27.656  30.242  1.00  0.00     0.029 A 
ATOM     18  N   UNL A   1      40.197  29.391  30.401  1.00  0.00    -0.354 N 
ATOM     19  C   UNL A   1      43.728  29.873  28.098  1.00  0.00     0.074 A 
ATOM     20  C   UNL A   1      43.051  29.765  26.829  1.00  0.00     0.031 C 
ATOM     21  C   UNL A   1      38.169  28.612  30.927  1.00  0.00     0.029 A 
ATOM     22  C   UNL A   1      39.051  29.750  31.088  1.00  0.00     0.049 A 
ATOM     23  H   UNL A   1      41.008  29.951  30.379  1.00  0.00     0.167 HD
ATOM     24  C   UNL A   1      44.655  30.770  28.543  1.00  0.00     0.037 A 
ATOM     25  C   UNL A   1      38.819  30.901  31.755  1.00  0.00     0.037 A 
ATOM     26  C   UNL A   1      45.153  30.433  29.849  1.00  0.00     0.049 A 
ATOM     27  C   UNL A   1      40.131  31.465  32.146  1.00  0.00     0.074 A 
ATOM     28  C   UNL A   1      45.822  29.355  30.395  1.00  0.00     0.029 A 
ATOM     29  N   UNL A   1      44.714  31.173  30.920  1.00  0.00    -0.354 N 
ATOM     30  N   UNL A   1      40.940  30.913  33.011  1.00  0.00    -0.248 NA
ATOM     31  C   UNL A   1      40.727  32.490  31.304  1.00  0.00     0.031 C 
ATOM     32  C   UNL A   1      45.341  29.254  31.734  1.00  0.00     0.029 A 
ATOM     33  C   UNL A   1      44.422  30.287  31.927  1.00  0.00     0.049 A 
ATOM     34  H   UNL A   1      44.626  32.153  30.958  1.00  0.00     0.167 HD
ATOM     35  C   UNL A   1      42.212  31.224  32.558  1.00  0.00     0.074 A 
ATOM     36  C   UNL A   1      42.016  32.298  31.592  1.00  0.00     0.031 C 
ATOM     37  C   UNL A   1      43.277  30.405  32.805  1.00  0.00     0.037 A 
BRANCH  24  38
ATOM     38  C   UNL A   1      44.920  32.124  27.924  1.00  0.00     0.058 A 
ATOM     39  C   UNL A   1      46.168  32.396  27.322  1.00  0.00     0.135 A 
ATOM     40  C   UNL A   1      44.095  33.248  28.148  1.00  0.00     0.135 A 
ATOM     41  F   UNL A   1      47.040  31.404  27.078  1.00  0.00    -0.206 F 
ATOM     42  C   UNL A   1      46.591  33.693  27.023  1.00  0.00     0.059 A 
ATOM     43  C   UNL A   1      44.476  34.544  27.811  1.00  0.00     0.059 A 
ATOM     44  F   UNL A   1      42.927  33.146  28.794  1.00  0.00    -0.206 F 
ATOM     45  C   UNL A   1      45.743  34.764  27.291  1.00  0.00     0.060 A 
BRANCH  45  46
ATOM     46  S   UNL A   1      46.329  36.449  27.028  1.00  0.00     0.124 S 
ATOM     47  O   UNL A   1      47.104  36.296  25.801  1.00  0.00    -0.237 OA
ATOM     48  O   UNL A   1      45.080  37.195  26.906  1.00  0.00    -0.237 OA
ATOM     49  O   UNL A   1      47.101  36.726  28.235  1.00  0.00    -0.744 OA
ENDBRANCH  45  46
ENDBRANCH  24  38
BRANCH  25  50
ATOM     50  C   UNL A   1      37.540  31.645  31.816  1.00  0.00     0.058 A 
ATOM     51  C   UNL A   1      36.871  31.852  33.031  1.00  0.00     0.135 A 
ATOM     52  C   UNL A   1      37.080  32.392  30.711  1.00  0.00     0.135 A 
ATOM     53  F   UNL A   1      37.260  31.200  34.137  1.00  0.00    -0.206 F 
ATOM     54  C   UNL A   1      35.834  32.782  33.156  1.00  0.00     0.059 A 
ATOM     55  C   UNL A   1      36.042  33.313  30.806  1.00  0.00     0.059 A 
ATOM     56  F   UNL A   1      37.692  32.315  29.519  1.00  0.00    -0.206 F 
ATOM     57  C   UNL A   1      35.440  33.523  32.040  1.00  0.00     0.060 A 
BRANCH  57  58
ATOM     58  S   UNL A   1      34.232  34.851  32.239  1.00  0.00     0.124 S 
ATOM     59  O   UNL A   1      33.128  34.158  32.893  1.00  0.00    -0.237 OA
ATOM     60  O   UNL A   1      34.962  35.809  33.062  1.00  0.00    -0.237 OA
ATOM     61  O   UNL A   1      33.975  35.283  30.868  1.00  0.00    -0.744 OA
ENDBRANCH  57  58
ENDBRANCH  25  50
BRANCH  37  62
ATOM     62  C   UNL A   1      43.142  29.348  33.872  1.00  0.00     0.058 A 
ATOM     63  C   UNL A   1      43.407  29.572  35.234  1.00  0.00     0.135 A 
ATOM     64  C   UNL A   1      42.545  28.124  33.529  1.00  0.00     0.135 A 
ATOM     65  F   UNL A   1      43.886  30.750  35.658  1.00  0.00    -0.206 F 
ATOM     66  C   UNL A   1      43.110  28.615  36.208  1.00  0.00     0.059 A 
ATOM     67  C   UNL A   1      42.214  27.167  34.486  1.00  0.00     0.059 A 
ATOM     68  F   UNL A   1      42.210  27.874  32.251  1.00  0.00    -0.206 F 
ATOM     69  C   UNL A   1      42.505  27.418  35.826  1.00  0.00     0.060 A 
BRANCH  69  70
ATOM     70  S   UNL A   1      41.998  26.242  37.101  1.00  0.00     0.124 S 
ATOM     71  O   UNL A   1      42.020  24.976  36.378  1.00  0.00    -0.237 OA
ATOM     72  O   UNL A   1      43.031  26.409  38.120  1.00  0.00    -0.237 OA
ATOM     73  O   UNL A   1      40.672  26.715  37.493  1.00  0.00    -0.744 OA
ENDBRANCH  69  70
ENDBRANCH  37  62
ENDBRANCH  11  12
ENDBRANCH   4   6
ENDBRANCH   3   4
ENDBRANCH   2   3
ENDBRANCH   1   2
BRANCH   1  74
ATOM     74  O   UNL A   1      36.968  21.554  24.430  1.00  0.00    -0.457 OA
BRANCH  74  75
ATOM     75  C   UNL A   1      36.325  22.467  23.633  1.00  0.00     0.359 C 
ATOM     76  O   UNL A   1      36.862  23.104  22.730  1.00  0.00    -0.244 OA
BRANCH  75  77
ATOM     77  C   UNL A   1      34.908  22.591  23.982  1.00  0.00     0.173 A 
ATOM     78  N   UNL A   1      34.265  23.742  23.700  1.00  0.00    -0.160 NA
ATOM     79  C   UNL A   1      34.016  21.643  24.579  1.00  0.00     0.006 A 
ATOM     80  N   UNL A   1      33.057  23.621  24.284  1.00  0.00    -0.237 N 
ATOM     81  C   UNL A   1      32.895  22.399  24.876  1.00  0.00     0.119 A 
BRANCH  79  82
ATOM     82  C   UNL A   1      34.173  20.198  24.950  1.00  0.00     0.042 C 
BRANCH  82  83
ATOM     83  C   UNL A   1      33.224  19.208  24.271  1.00  0.00     0.033 C 
BRANCH  83  84
ATOM     84  C   UNL A   1      32.504  18.298  25.264  1.00  0.00     0.156 C 
BRANCH  84  85
ATOM     85  O   UNL A   1      32.897  18.614  26.594  1.00  0.00    -0.396 OA
ATOM     86  H   UNL A   1      32.220  19.169  27.009  1.00  0.00     0.210 HD
ENDBRANCH  84  85
ENDBRANCH  83  84
ENDBRANCH  82  83
ENDBRANCH  79  82
BRANCH  80  87
ATOM     87  C   UNL A   1      32.081  24.619  24.124  1.00  0.00     0.100 A 
ATOM     88  C   UNL A   1      31.834  25.124  22.840  1.00  0.00     0.032 A 
ATOM     89  C   UNL A   1      31.328  25.061  25.209  1.00  0.00     0.149 A 
ATOM     90  C   UNL A   1      30.793  26.031  22.647  1.00  0.00     0.018 A 
ATOM     91  C   UNL A   1      30.324  26.009  25.030  1.00  0.00     0.057 A 
ATOM     92  F   UNL A   1      31.592  24.635  26.453  1.00  0.00    -0.205 F 
ATOM     93  C   UNL A   1      30.048  26.473  23.743  1.00  0.00     0.021 A 
ATOM     94  Br  UNL A   1      28.642  27.707  23.472  1.00  0.00    -0.051 Br
ENDBRANCH  80  87
ENDBRANCH  75  77
ENDBRANCH  74  75
ENDBRANCH   1  74
TORSDOF 19
ENDMDL
MODEL 3
REMARK VINA RESULT:      -9.9      4.846     11.211
REMARK SMILES O=C(OCCOC(=O)c1nn(-c2ccc(Br)cc2F)cc1CCCO)c1ccc(-c2c3nc(c(-c4c(F)cc(S(=O)(=O)[O-])cc4F)c4ccc([nH]4)c(-c4c(F)cc(S(=O)(=O)[O-])cc4F)c4nc(c(-c5c(F)cc(S(=O)(=O)[O-])cc5F)c5ccc2[nH]5)C=C4)C=C3)cc1
REMARK SMILES IDX 5 1 4 2 3 3 2 4 1 5 26 6 27 7 91 8 28 9 90 10 29 11 30 12
REMARK SMILES IDX 31 13 84 14 32 15 89 16 83 17 85 18 33 19 88 20 82 21 81 22
REMARK SMILES IDX 34 24 68 25 47 26 67 27 48 28 51 29 66 30 86 31 49 32 50 33
REMARK SMILES IDX 65 35 87 36 52 37 35 38 36 39 45 40 37 41 38 42 44 43 46 44
REMARK SMILES IDX 39 45 40 46 41 47 42 48 43 49 69 50 70 51 79 52 71 53 72 54
REMARK SMILES IDX 78 55 80 56 73 57 74 58 75 59 76 60 77 61 53 62 54 63 63 64
REMARK SMILES IDX 55 65 56 66 62 67 64 68 57 69 58 70 59 71 60 72 61 73 6 74
REMARK SMILES IDX 7 75 8 76 9 77 10 78 21 79 11 80 20 81 22 82 23 83 24 84
REMARK SMILES IDX 25 85 12 87 13 88 18 89 14 90 17 91 19 92 15 93 16 94
REMARK H PARENT 85 23 51 34 25 86
REMARK Flexibility Score: inf
ROOT
ATOM      1  C   UNL A   1      32.868  29.970  26.382  1.00  0.00     0.275 C 
ENDROOT
BRANCH   1   2
ATOM      2  C   UNL A   1      33.032  31.148  27.341  1.00  0.00     0.275 C 
BRANCH   2   3
ATOM      3  O   UNL A   1      34.410  31.527  27.345  1.00  0.00    -0.458 OA
BRANCH   3   4
ATOM      4  C   UNL A   1      34.906  31.800  28.569  1.00  0.00     0.338 C 
ATOM      5  O   UNL A   1      34.510  32.688  29.309  1.00  0.00    -0.246 OA
BRANCH   4   6
ATOM      6  C   UNL A   1      36.172  31.073  28.704  1.00  0.00     0.060 A 
ATOM      7  C   UNL A   1      36.276  29.730  28.335  1.00  0.00     0.016 A 
ATOM      8  C   UNL A   1      37.285  31.775  29.157  1.00  0.00     0.016 A 
ATOM      9  C   UNL A   1      37.501  29.081  28.469  1.00  0.00     0.010 A 
ATOM     10  C   UNL A   1      38.521  31.147  29.196  1.00  0.00     0.010 A 
ATOM     11  C   UNL A   1      38.626  29.780  28.931  1.00  0.00    -0.014 A 
BRANCH  11  12
ATOM     12  C   UNL A   1      39.857  29.036  29.222  1.00  0.00     0.031 A 
ATOM     13  C   UNL A   1      40.313  28.923  30.639  1.00  0.00     0.074 A 
ATOM     14  C   UNL A   1      40.597  28.426  28.269  1.00  0.00     0.049 A 
ATOM     15  N   UNL A   1      41.345  29.480  31.189  1.00  0.00    -0.248 NA
ATOM     16  C   UNL A   1      39.512  28.112  31.565  1.00  0.00     0.031 C 
ATOM     17  C   UNL A   1      40.260  28.169  26.863  1.00  0.00     0.029 A 
ATOM     18  N   UNL A   1      41.822  27.838  28.400  1.00  0.00    -0.354 N 
ATOM     19  C   UNL A   1      41.442  28.951  32.476  1.00  0.00     0.074 A 
ATOM     20  C   UNL A   1      40.231  28.196  32.688  1.00  0.00     0.031 C 
ATOM     21  C   UNL A   1      41.147  27.298  26.338  1.00  0.00     0.029 A 
ATOM     22  C   UNL A   1      42.208  27.090  27.301  1.00  0.00     0.049 A 
ATOM     23  H   UNL A   1      42.380  27.937  29.205  1.00  0.00     0.167 HD
ATOM     24  C   UNL A   1      42.584  29.034  33.218  1.00  0.00     0.037 A 
ATOM     25  C   UNL A   1      43.324  26.341  27.168  1.00  0.00     0.037 A 
ATOM     26  C   UNL A   1      43.504  30.006  32.691  1.00  0.00     0.049 A 
ATOM     27  C   UNL A   1      44.341  26.883  28.097  1.00  0.00     0.074 A 
ATOM     28  C   UNL A   1      43.465  31.367  32.460  1.00  0.00     0.029 A 
ATOM     29  N   UNL A   1      44.613  29.551  32.021  1.00  0.00    -0.354 N 
ATOM     30  N   UNL A   1      44.895  28.060  27.974  1.00  0.00    -0.248 NA
ATOM     31  C   UNL A   1      44.503  26.253  29.398  1.00  0.00     0.031 C 
ATOM     32  C   UNL A   1      44.258  31.572  31.293  1.00  0.00     0.029 A 
ATOM     33  C   UNL A   1      44.747  30.326  30.896  1.00  0.00     0.049 A 
ATOM     34  H   UNL A   1      45.201  28.812  32.296  1.00  0.00     0.167 HD
ATOM     35  C   UNL A   1      45.121  28.486  29.274  1.00  0.00     0.074 A 
ATOM     36  C   UNL A   1      44.985  27.286  30.091  1.00  0.00     0.031 C 
ATOM     37  C   UNL A   1      45.132  29.812  29.598  1.00  0.00     0.037 A 
BRANCH  24  38
ATOM     38  C   UNL A   1      43.012  28.034  34.270  1.00  0.00     0.058 A 
ATOM     39  C   UNL A   1      43.108  28.427  35.622  1.00  0.00     0.135 A 
ATOM     40  C   UNL A   1      43.594  26.787  33.956  1.00  0.00     0.135 A 
ATOM     41  F   UNL A   1      42.603  29.604  36.030  1.00  0.00    -0.206 F 
ATOM     42  C   UNL A   1      43.787  27.669  36.578  1.00  0.00     0.059 A 
ATOM     43  C   UNL A   1      44.231  25.991  34.904  1.00  0.00     0.059 A 
ATOM     44  F   UNL A   1      43.654  26.336  32.696  1.00  0.00    -0.206 F 
ATOM     45  C   UNL A   1      44.364  26.459  36.202  1.00  0.00     0.060 A 
BRANCH  45  46
ATOM     46  S   UNL A   1      45.350  25.535  37.397  1.00  0.00     0.124 S 
ATOM     47  O   UNL A   1      46.681  25.637  36.809  1.00  0.00    -0.237 OA
ATOM     48  O   UNL A   1      45.135  26.291  38.627  1.00  0.00    -0.237 OA
ATOM     49  O   UNL A   1      44.745  24.208  37.372  1.00  0.00    -0.744 OA
ENDBRANCH  45  46
ENDBRANCH  24  38
BRANCH  25  50
ATOM     50  C   UNL A   1      43.434  25.034  26.481  1.00  0.00     0.058 A 
ATOM     51  C   UNL A   1      44.258  24.864  25.359  1.00  0.00     0.135 A 
ATOM     52  C   UNL A   1      42.929  23.856  27.073  1.00  0.00     0.135 A 
ATOM     53  F   UNL A   1      44.799  25.930  24.750  1.00  0.00    -0.206 F 
ATOM     54  C   UNL A   1      44.600  23.597  24.876  1.00  0.00     0.059 A 
ATOM     55  C   UNL A   1      43.244  22.585  26.603  1.00  0.00     0.059 A 
ATOM     56  F   UNL A   1      42.184  23.906  28.188  1.00  0.00    -0.206 F 
ATOM     57  C   UNL A   1      44.103  22.462  25.520  1.00  0.00     0.060 A 
BRANCH  57  58
ATOM     58  S   UNL A   1      44.689  20.829  25.016  1.00  0.00     0.124 S 
ATOM     59  O   UNL A   1      46.057  20.832  25.522  1.00  0.00    -0.237 OA
ATOM     60  O   UNL A   1      43.756  19.943  25.703  1.00  0.00    -0.237 OA
ATOM     61  O   UNL A   1      44.560  20.857  23.562  1.00  0.00    -0.744 OA
ENDBRANCH  57  58
ENDBRANCH  25  50
BRANCH  37  62
ATOM     62  C   UNL A   1      45.255  30.826  28.488  1.00  0.00     0.058 A 
ATOM     63  C   UNL A   1      44.169  31.287  27.725  1.00  0.00     0.135 A 
ATOM     64  C   UNL A   1      46.482  31.488  28.322  1.00  0.00     0.135 A 
ATOM     65  F   UNL A   1      42.942  30.776  27.894  1.00  0.00    -0.206 F 
ATOM     66  C   UNL A   1      44.302  32.346  26.822  1.00  0.00     0.059 A 
ATOM     67  C   UNL A   1      46.631  32.563  27.449  1.00  0.00     0.059 A 
ATOM     68  F   UNL A   1      47.544  31.134  29.067  1.00  0.00    -0.206 F 
ATOM     69  C   UNL A   1      45.535  32.985  26.697  1.00  0.00     0.060 A 
BRANCH  69  70
ATOM     70  S   UNL A   1      45.669  34.438  25.632  1.00  0.00     0.124 S 
ATOM     71  O   UNL A   1      45.210  35.507  26.512  1.00  0.00    -0.237 OA
ATOM     72  O   UNL A   1      47.090  34.460  25.295  1.00  0.00    -0.237 OA
ATOM     73  O   UNL A   1      44.781  34.124  24.515  1.00  0.00    -0.744 OA
ENDBRANCH  69  70
ENDBRANCH  37  62
ENDBRANCH  11  12
ENDBRANCH   4   6
ENDBRANCH   3   4
ENDBRANCH   2   3
ENDBRANCH   1   2
BRANCH   1  74
ATOM     74  O   UNL A   1      33.095  28.733  27.082  1.00  0.00    -0.457 OA
BRANCH  74  75
ATOM     75  C   UNL A   1      32.100  27.792  27.002  1.00  0.00     0.359 C 
ATOM     76  O   UNL A   1      31.095  27.777  27.709  1.00  0.00    -0.244 OA
BRANCH  75  77
ATOM     77  C   UNL A   1      32.373  26.799  25.960  1.00  0.00     0.173 A 
ATOM     78  N   UNL A   1      33.318  25.863  26.182  1.00  0.00    -0.160 NA
ATOM     79  C   UNL A   1      31.763  26.612  24.678  1.00  0.00     0.006 A 
ATOM     80  N   UNL A   1      33.461  25.223  25.005  1.00  0.00    -0.237 N 
ATOM     81  C   UNL A   1      32.589  25.688  24.061  1.00  0.00     0.119 A 
BRANCH  79  82
ATOM     82  C   UNL A   1      30.593  27.268  24.007  1.00  0.00     0.042 C 
BRANCH  82  83
ATOM     83  C   UNL A   1      30.752  28.745  23.638  1.00  0.00     0.033 C 
BRANCH  83  84
ATOM     84  C   UNL A   1      30.219  29.070  22.245  1.00  0.00     0.156 C 
BRANCH  84  85
ATOM     85  O   UNL A   1      31.050  30.036  21.613  1.00  0.00    -0.396 OA
ATOM     86  H   UNL A   1      31.965  29.716  21.599  1.00  0.00     0.210 HD
ENDBRANCH  84  85
ENDBRANCH  83  84
ENDBRANCH  82  83
ENDBRANCH  79  82
BRANCH  80  87
ATOM     87  C   UNL A   1      34.319  24.116  24.892  1.00  0.00     0.100 A 
ATOM     88  C   UNL A   1      35.680  24.282  25.187  1.00  0.00     0.032 A 
ATOM     89  C   UNL A   1      33.823  22.860  24.551  1.00  0.00     0.149 A 
ATOM     90  C   UNL A   1      36.522  23.171  25.189  1.00  0.00     0.018 A 
ATOM     91  C   UNL A   1      34.672  21.758  24.498  1.00  0.00     0.057 A 
ATOM     92  F   UNL A   1      32.537  22.695  24.206  1.00  0.00    -0.205 F 
ATOM     93  C   UNL A   1      36.015  21.917  24.840  1.00  0.00     0.021 A 
ATOM     94  Br  UNL A   1      37.167  20.419  24.841  1.00  0.00    -0.051 Br
ENDBRANCH  80  87
ENDBRANCH  75  77
ENDBRANCH  74  75
ENDBRANCH   1  74
TORSDOF 19
ENDMDL
