MODEL 1
REMARK VINA RESULT:     -10.2      0.000      0.000
REMARK SMILES NC(=O)c1c(F)cccc1O[C@@H](F)C(=O)OCCOC(=O)c1ccc(-c2c3nc(c(-c4c(F)cc(S(=O)(=O)[O-])cc4F)c4ccc([nH]4)c(-c4c(F)cc(S(=O)(=O)[O-])cc4F)c4nc(c(-c5c(F)cc(S(=O)(=O)[O-])cc5F)c5ccc2[nH]5)C=C4)C=C3)cc1
REMARK SMILES IDX 17 1 16 2 14 3 15 4 12 5 13 6 11 7 10 8 4 9 5 10 6 11 7 12
REMARK SMILES IDX 9 13 8 14 2 15 1 16 3 19 18 20 19 21 20 22 21 23 22 24 23 25
REMARK SMILES IDX 87 26 24 27 86 28 25 29 26 30 27 31 80 32 28 33 85 34 79 35
REMARK SMILES IDX 81 36 29 37 84 38 78 39 77 40 30 42 64 43 43 44 63 45 44 46
REMARK SMILES IDX 47 47 62 48 82 49 45 50 46 51 61 53 83 54 48 55 31 56 32 57
REMARK SMILES IDX 41 58 33 59 34 60 40 61 42 62 35 63 36 64 37 65 38 66 39 67
REMARK SMILES IDX 65 68 66 69 75 70 67 71 68 72 74 73 76 74 69 75 70 76 71 77
REMARK SMILES IDX 72 78 73 79 49 80 50 81 59 82 51 83 52 84 58 85 60 86 53 87
REMARK SMILES IDX 54 88 55 89 56 90 57 91
REMARK H PARENT 1 17 1 18 81 41 47 52
REMARK Flexibility Score: inf
ROOT
ATOM      1  C   UNL A   1      33.641  33.869  27.904  1.00  0.00     0.274 C 
ENDROOT
BRANCH   1   2
ATOM      2  O   UNL A   1      32.579  34.589  28.563  1.00  0.00    -0.457 OA
BRANCH   2   3
ATOM      3  C   UNL A   1      32.943  35.687  29.293  1.00  0.00     0.381 C 
ATOM      4  O   UNL A   1      32.881  36.834  28.856  1.00  0.00    -0.244 OA
BRANCH   3   5
ATOM      5  C   UNL A   1      33.298  35.339  30.777  1.00  0.00     0.461 C 
ATOM      6  F   UNL A   1      33.938  36.418  31.338  1.00  0.00    -0.189 F 
BRANCH   5   7
ATOM      7  O   UNL A   1      33.960  34.223  31.333  1.00  0.00    -0.450 OA
BRANCH   7   8
ATOM      8  C   UNL A   1      35.308  34.255  31.492  1.00  0.00     0.139 A 
ATOM      9  C   UNL A   1      35.959  34.297  32.731  1.00  0.00     0.117 A 
ATOM     10  C   UNL A   1      37.350  34.176  32.769  1.00  0.00     0.139 A 
ATOM     11  F   UNL A   1      38.011  34.210  33.937  1.00  0.00    -0.206 F 
ATOM     12  C   UNL A   1      38.091  33.985  31.604  1.00  0.00     0.040 A 
ATOM     13  C   UNL A   1      36.053  34.062  30.321  1.00  0.00     0.047 A 
ATOM     14  C   UNL A   1      37.441  33.928  30.375  1.00  0.00     0.007 A 
BRANCH   9  15
ATOM     15  C   UNL A   1      35.204  34.423  33.991  1.00  0.00     0.255 C 
ATOM     16  N   UNL A   1      34.436  35.541  34.143  1.00  0.00    -0.365 N 
ATOM     17  H   UNL A   1      33.913  35.671  34.966  1.00  0.00     0.159 HD
ATOM     18  H   UNL A   1      34.404  36.218  33.428  1.00  0.00     0.159 HD
ATOM     19  O   UNL A   1      35.197  33.535  34.832  1.00  0.00    -0.269 OA
ENDBRANCH   9  15
ENDBRANCH   7   8
ENDBRANCH   5   7
ENDBRANCH   3   5
ENDBRANCH   2   3
ENDBRANCH   1   2
BRANCH   1  20
ATOM     20  C   UNL A   1      33.349  32.366  27.884  1.00  0.00     0.275 C 
BRANCH  20  21
ATOM     21  O   UNL A   1      34.361  31.620  28.583  1.00  0.00    -0.458 OA
BRANCH  21  22
ATOM     22  C   UNL A   1      34.491  30.331  28.194  1.00  0.00     0.338 C 
ATOM     23  O   UNL A   1      33.639  29.623  27.685  1.00  0.00    -0.246 OA
BRANCH  22  24
ATOM     24  C   UNL A   1      35.898  29.925  28.310  1.00  0.00     0.060 A 
ATOM     25  C   UNL A   1      36.345  29.497  29.562  1.00  0.00     0.016 A 
ATOM     26  C   UNL A   1      36.779  30.025  27.232  1.00  0.00     0.016 A 
ATOM     27  C   UNL A   1      37.684  29.196  29.758  1.00  0.00     0.010 A 
ATOM     28  C   UNL A   1      38.124  29.700  27.424  1.00  0.00     0.010 A 
ATOM     29  C   UNL A   1      38.583  29.297  28.691  1.00  0.00    -0.014 A 
BRANCH  29  30
ATOM     30  C   UNL A   1      40.014  29.008  28.924  1.00  0.00     0.031 A 
ATOM     31  C   UNL A   1      40.893  30.065  29.523  1.00  0.00     0.074 A 
ATOM     32  C   UNL A   1      40.497  27.785  28.637  1.00  0.00     0.049 A 
ATOM     33  N   UNL A   1      42.187  30.058  29.697  1.00  0.00    -0.248 NA
ATOM     34  C   UNL A   1      40.229  31.295  29.988  1.00  0.00     0.031 C 
ATOM     35  C   UNL A   1      39.704  26.666  28.122  1.00  0.00     0.029 A 
ATOM     36  N   UNL A   1      41.764  27.275  28.742  1.00  0.00    -0.354 N 
ATOM     37  C   UNL A   1      42.497  31.284  30.270  1.00  0.00     0.074 A 
ATOM     38  C   UNL A   1      41.258  32.019  30.406  1.00  0.00     0.031 C 
ATOM     39  C   UNL A   1      40.501  25.597  27.970  1.00  0.00     0.029 A 
ATOM     40  C   UNL A   1      41.869  25.973  28.315  1.00  0.00     0.049 A 
ATOM     41  H   UNL A   1      42.526  27.791  29.091  1.00  0.00     0.167 HD
ATOM     42  C   UNL A   1      43.712  31.747  30.649  1.00  0.00     0.037 A 
ATOM     43  C   UNL A   1      42.952  25.185  28.183  1.00  0.00     0.037 A 
ATOM     44  C   UNL A   1      44.928  30.988  30.524  1.00  0.00     0.049 A 
ATOM     45  C   UNL A   1      44.299  25.750  28.540  1.00  0.00     0.074 A 
ATOM     46  C   UNL A   1      46.216  31.365  30.860  1.00  0.00     0.029 A 
ATOM     47  N   UNL A   1      45.003  29.691  30.035  1.00  0.00    -0.354 N 
ATOM     48  N   UNL A   1      44.591  26.934  29.024  1.00  0.00    -0.248 NA
ATOM     49  C   UNL A   1      45.465  24.886  28.315  1.00  0.00     0.031 C 
ATOM     50  C   UNL A   1      47.074  30.307  30.544  1.00  0.00     0.029 A 
ATOM     51  C   UNL A   1      46.317  29.258  30.045  1.00  0.00     0.049 A 
ATOM     52  H   UNL A   1      44.236  29.159  29.726  1.00  0.00     0.167 HD
ATOM     53  C   UNL A   1      45.972  26.957  29.165  1.00  0.00     0.074 A 
ATOM     54  C   UNL A   1      46.458  25.661  28.733  1.00  0.00     0.031 C 
ATOM     55  C   UNL A   1      46.769  27.960  29.607  1.00  0.00     0.037 A 
BRANCH  42  56
ATOM     56  C   UNL A   1      43.793  33.138  31.207  1.00  0.00     0.058 A 
ATOM     57  C   UNL A   1      43.721  33.353  32.592  1.00  0.00     0.135 A 
ATOM     58  C   UNL A   1      43.885  34.263  30.373  1.00  0.00     0.135 A 
ATOM     59  F   UNL A   1      43.646  32.312  33.435  1.00  0.00    -0.206 F 
ATOM     60  C   UNL A   1      43.719  34.636  33.131  1.00  0.00     0.059 A 
ATOM     61  C   UNL A   1      43.903  35.556  30.891  1.00  0.00     0.059 A 
ATOM     62  F   UNL A   1      43.985  34.112  29.043  1.00  0.00    -0.206 F 
ATOM     63  C   UNL A   1      43.806  35.732  32.272  1.00  0.00     0.060 A 
BRANCH  63  64
ATOM     64  S   UNL A   1      43.825  37.389  32.989  1.00  0.00     0.124 S 
ATOM     65  O   UNL A   1      43.661  38.229  31.809  1.00  0.00    -0.237 OA
ATOM     66  O   UNL A   1      42.687  37.342  33.901  1.00  0.00    -0.237 OA
ATOM     67  O   UNL A   1      45.132  37.461  33.638  1.00  0.00    -0.744 OA
ENDBRANCH  63  64
ENDBRANCH  42  56
BRANCH  43  68
ATOM     68  C   UNL A   1      42.804  23.803  27.658  1.00  0.00     0.058 A 
ATOM     69  C   UNL A   1      42.788  23.549  26.277  1.00  0.00     0.135 A 
ATOM     70  C   UNL A   1      42.641  22.714  28.524  1.00  0.00     0.135 A 
ATOM     71  F   UNL A   1      42.935  24.558  25.405  1.00  0.00    -0.206 F 
ATOM     72  C   UNL A   1      42.585  22.269  25.773  1.00  0.00     0.059 A 
ATOM     73  C   UNL A   1      42.461  21.419  28.045  1.00  0.00     0.059 A 
ATOM     74  F   UNL A   1      42.666  22.904  29.852  1.00  0.00    -0.206 F 
ATOM     75  C   UNL A   1      42.417  21.210  26.666  1.00  0.00     0.060 A 
BRANCH  75  76
ATOM     76  S   UNL A   1      42.156  19.555  25.993  1.00  0.00     0.124 S 
ATOM     77  O   UNL A   1      40.720  19.568  25.736  1.00  0.00    -0.237 OA
ATOM     78  O   UNL A   1      43.011  19.564  24.811  1.00  0.00    -0.237 OA
ATOM     79  O   UNL A   1      42.594  18.678  27.074  1.00  0.00    -0.744 OA
ENDBRANCH  75  76
ENDBRANCH  43  68
BRANCH  55  80
ATOM     80  C   UNL A   1      48.245  27.700  29.651  1.00  0.00     0.058 A 
ATOM     81  C   UNL A   1      49.053  28.002  28.544  1.00  0.00     0.135 A 
ATOM     82  C   UNL A   1      48.841  27.070  30.753  1.00  0.00     0.135 A 
ATOM     83  F   UNL A   1      48.527  28.602  27.464  1.00  0.00    -0.206 F 
ATOM     84  C   UNL A   1      50.402  27.666  28.520  1.00  0.00     0.059 A 
ATOM     85  C   UNL A   1      50.192  26.743  30.759  1.00  0.00     0.059 A 
ATOM     86  F   UNL A   1      48.108  26.774  31.838  1.00  0.00    -0.206 F 
ATOM     87  C   UNL A   1      50.961  27.029  29.629  1.00  0.00     0.060 A 
BRANCH  87  88
ATOM     88  S   UNL A   1      52.711  26.593  29.581  1.00  0.00     0.124 S 
ATOM     89  O   UNL A   1      53.346  27.903  29.676  1.00  0.00    -0.237 OA
ATOM     90  O   UNL A   1      52.849  25.735  30.753  1.00  0.00    -0.237 OA
ATOM     91  O   UNL A   1      52.856  25.915  28.297  1.00  0.00    -0.744 OA
ENDBRANCH  87  88
ENDBRANCH  55  80
ENDBRANCH  29  30
ENDBRANCH  22  24
ENDBRANCH  21  22
ENDBRANCH  20  21
ENDBRANCH   1  20
TORSDOF 17
ENDMDL
MODEL 2
REMARK VINA RESULT:     -10.0      4.971     12.601
REMARK SMILES NC(=O)c1c(F)cccc1O[C@@H](F)C(=O)OCCOC(=O)c1ccc(-c2c3nc(c(-c4c(F)cc(S(=O)(=O)[O-])cc4F)c4ccc([nH]4)c(-c4c(F)cc(S(=O)(=O)[O-])cc4F)c4nc(c(-c5c(F)cc(S(=O)(=O)[O-])cc5F)c5ccc2[nH]5)C=C4)C=C3)cc1
REMARK SMILES IDX 17 1 16 2 14 3 15 4 12 5 13 6 11 7 10 8 4 9 5 10 6 11 7 12
REMARK SMILES IDX 9 13 8 14 2 15 1 16 3 19 18 20 19 21 20 22 21 23 22 24 23 25
REMARK SMILES IDX 87 26 24 27 86 28 25 29 26 30 27 31 80 32 28 33 85 34 79 35
REMARK SMILES IDX 81 36 29 37 84 38 78 39 77 40 30 42 64 43 43 44 63 45 44 46
REMARK SMILES IDX 47 47 62 48 82 49 45 50 46 51 61 53 83 54 48 55 31 56 32 57
REMARK SMILES IDX 41 58 33 59 34 60 40 61 42 62 35 63 36 64 37 65 38 66 39 67
REMARK SMILES IDX 65 68 66 69 75 70 67 71 68 72 74 73 76 74 69 75 70 76 71 77
REMARK SMILES IDX 72 78 73 79 49 80 50 81 59 82 51 83 52 84 58 85 60 86 53 87
REMARK SMILES IDX 54 88 55 89 56 90 57 91
REMARK H PARENT 1 17 1 18 81 41 47 52
REMARK Flexibility Score: inf
ROOT
ATOM      1  C   UNL A   1      39.981  22.309  27.035  1.00  0.00     0.274 C 
ENDROOT
BRANCH   1   2
ATOM      2  O   UNL A   1      40.116  20.978  26.494  1.00  0.00    -0.457 OA
BRANCH   2   3
ATOM      3  C   UNL A   1      40.936  20.120  27.173  1.00  0.00     0.381 C 
ATOM      4  O   UNL A   1      40.840  19.914  28.380  1.00  0.00    -0.244 OA
BRANCH   3   5
ATOM      5  C   UNL A   1      41.898  19.324  26.228  1.00  0.00     0.461 C 
ATOM      6  F   UNL A   1      42.866  18.723  26.996  1.00  0.00    -0.189 F 
BRANCH   5   7
ATOM      7  O   UNL A   1      42.585  19.721  25.061  1.00  0.00    -0.450 OA
BRANCH   7   8
ATOM      8  C   UNL A   1      43.629  20.584  25.159  1.00  0.00     0.139 A 
ATOM      9  C   UNL A   1      44.928  20.312  24.713  1.00  0.00     0.117 A 
ATOM     10  C   UNL A   1      45.879  21.335  24.733  1.00  0.00     0.139 A 
ATOM     11  F   UNL A   1      47.134  21.114  24.312  1.00  0.00    -0.206 F 
ATOM     12  C   UNL A   1      45.549  22.619  25.162  1.00  0.00     0.040 A 
ATOM     13  C   UNL A   1      43.298  21.876  25.589  1.00  0.00     0.047 A 
ATOM     14  C   UNL A   1      44.254  22.892  25.592  1.00  0.00     0.007 A 
BRANCH   9  15
ATOM     15  C   UNL A   1      45.295  18.986  24.183  1.00  0.00     0.255 C 
ATOM     16  N   UNL A   1      45.264  18.830  22.828  1.00  0.00    -0.365 N 
ATOM     17  H   UNL A   1      45.500  17.964  22.426  1.00  0.00     0.159 HD
ATOM     18  H   UNL A   1      45.006  19.586  22.251  1.00  0.00     0.159 HD
ATOM     19  O   UNL A   1      45.686  18.086  24.912  1.00  0.00    -0.269 OA
ENDBRANCH   9  15
ENDBRANCH   7   8
ENDBRANCH   5   7
ENDBRANCH   3   5
ENDBRANCH   2   3
ENDBRANCH   1   2
BRANCH   1  20
ATOM     20  C   UNL A   1      39.211  23.214  26.069  1.00  0.00     0.275 C 
BRANCH  20  21
ATOM     21  O   UNL A   1      39.176  24.575  26.532  1.00  0.00    -0.458 OA
BRANCH  21  22
ATOM     22  C   UNL A   1      40.376  25.201  26.556  1.00  0.00     0.338 C 
ATOM     23  O   UNL A   1      41.232  25.192  25.688  1.00  0.00    -0.246 OA
BRANCH  22  24
ATOM     24  C   UNL A   1      40.450  26.070  27.738  1.00  0.00     0.060 A 
ATOM     25  C   UNL A   1      39.484  25.891  28.731  1.00  0.00     0.016 A 
ATOM     26  C   UNL A   1      41.404  27.084  27.842  1.00  0.00     0.016 A 
ATOM     27  C   UNL A   1      39.443  26.745  29.823  1.00  0.00     0.010 A 
ATOM     28  C   UNL A   1      41.374  27.930  28.953  1.00  0.00     0.010 A 
ATOM     29  C   UNL A   1      40.386  27.771  29.940  1.00  0.00    -0.014 A 
BRANCH  29  30
ATOM     30  C   UNL A   1      40.306  28.696  31.091  1.00  0.00     0.031 A 
ATOM     31  C   UNL A   1      39.299  29.807  31.076  1.00  0.00     0.074 A 
ATOM     32  C   UNL A   1      41.107  28.499  32.154  1.00  0.00     0.049 A 
ATOM     33  N   UNL A   1      39.146  30.790  31.922  1.00  0.00    -0.248 NA
ATOM     34  C   UNL A   1      38.335  29.815  29.962  1.00  0.00     0.031 C 
ATOM     35  C   UNL A   1      42.066  27.401  32.295  1.00  0.00     0.029 A 
ATOM     36  N   UNL A   1      41.239  29.208  33.319  1.00  0.00    -0.354 N 
ATOM     37  C   UNL A   1      38.087  31.546  31.435  1.00  0.00     0.074 A 
ATOM     38  C   UNL A   1      37.639  30.916  30.212  1.00  0.00     0.031 C 
ATOM     39  C   UNL A   1      42.677  27.502  33.485  1.00  0.00     0.029 A 
ATOM     40  C   UNL A   1      42.201  28.704  34.162  1.00  0.00     0.049 A 
ATOM     41  H   UNL A   1      40.697  30.002  33.532  1.00  0.00     0.167 HD
ATOM     42  C   UNL A   1      37.543  32.664  31.969  1.00  0.00     0.037 A 
ATOM     43  C   UNL A   1      42.669  29.181  35.330  1.00  0.00     0.037 A 
ATOM     44  C   UNL A   1      37.991  33.260  33.200  1.00  0.00     0.049 A 
ATOM     45  C   UNL A   1      42.099  30.465  35.864  1.00  0.00     0.074 A 
ATOM     46  C   UNL A   1      37.523  34.402  33.824  1.00  0.00     0.029 A 
ATOM     47  N   UNL A   1      39.006  32.751  33.999  1.00  0.00    -0.354 N 
ATOM     48  N   UNL A   1      41.139  31.208  35.364  1.00  0.00    -0.248 NA
ATOM     49  C   UNL A   1      42.685  30.991  37.104  1.00  0.00     0.031 C 
ATOM     50  C   UNL A   1      38.277  34.602  34.985  1.00  0.00     0.029 A 
ATOM     51  C   UNL A   1      39.190  33.565  35.103  1.00  0.00     0.049 A 
ATOM     52  H   UNL A   1      39.520  31.935  33.808  1.00  0.00     0.167 HD
ATOM     53  C   UNL A   1      41.001  32.285  36.228  1.00  0.00     0.074 A 
ATOM     54  C   UNL A   1      41.965  32.090  37.294  1.00  0.00     0.031 C 
ATOM     55  C   UNL A   1      40.159  33.344  36.147  1.00  0.00     0.037 A 
BRANCH  42  56
ATOM     56  C   UNL A   1      36.424  33.329  31.221  1.00  0.00     0.058 A 
ATOM     57  C   UNL A   1      36.681  34.022  30.028  1.00  0.00     0.135 A 
ATOM     58  C   UNL A   1      35.108  33.330  31.709  1.00  0.00     0.135 A 
ATOM     59  F   UNL A   1      37.919  34.041  29.509  1.00  0.00    -0.206 F 
ATOM     60  C   UNL A   1      35.676  34.710  29.354  1.00  0.00     0.059 A 
ATOM     61  C   UNL A   1      34.083  33.996  31.042  1.00  0.00     0.059 A 
ATOM     62  F   UNL A   1      34.804  32.658  32.831  1.00  0.00    -0.206 F 
ATOM     63  C   UNL A   1      34.381  34.695  29.871  1.00  0.00     0.060 A 
BRANCH  63  64
ATOM     64  S   UNL A   1      33.084  35.572  28.972  1.00  0.00     0.124 S 
ATOM     65  O   UNL A   1      32.281  36.118  30.059  1.00  0.00    -0.237 OA
ATOM     66  O   UNL A   1      33.851  36.542  28.196  1.00  0.00    -0.237 OA
ATOM     67  O   UNL A   1      32.447  34.519  28.185  1.00  0.00    -0.744 OA
ENDBRANCH  63  64
ENDBRANCH  42  56
BRANCH  43  68
ATOM     68  C   UNL A   1      43.754  28.458  36.043  1.00  0.00     0.058 A 
ATOM     69  C   UNL A   1      45.101  28.811  35.865  1.00  0.00     0.135 A 
ATOM     70  C   UNL A   1      43.469  27.378  36.890  1.00  0.00     0.135 A 
ATOM     71  F   UNL A   1      45.428  29.835  35.060  1.00  0.00    -0.206 F 
ATOM     72  C   UNL A   1      46.129  28.102  36.476  1.00  0.00     0.059 A 
ATOM     73  C   UNL A   1      44.479  26.667  37.533  1.00  0.00     0.059 A 
ATOM     74  F   UNL A   1      42.196  27.014  37.105  1.00  0.00    -0.206 F 
ATOM     75  C   UNL A   1      45.808  27.027  37.305  1.00  0.00     0.060 A 
BRANCH  75  76
ATOM     76  S   UNL A   1      47.156  26.117  38.090  1.00  0.00     0.124 S 
ATOM     77  O   UNL A   1      48.214  26.246  37.094  1.00  0.00    -0.237 OA
ATOM     78  O   UNL A   1      47.355  26.867  39.326  1.00  0.00    -0.237 OA
ATOM     79  O   UNL A   1      46.606  24.776  38.256  1.00  0.00    -0.744 OA
ENDBRANCH  75  76
ENDBRANCH  43  68
BRANCH  55  80
ATOM     80  C   UNL A   1      40.237  34.371  37.237  1.00  0.00     0.058 A 
ATOM     81  C   UNL A   1      39.383  34.294  38.349  1.00  0.00     0.135 A 
ATOM     82  C   UNL A   1      41.094  35.476  37.136  1.00  0.00     0.135 A 
ATOM     83  F   UNL A   1      38.542  33.257  38.486  1.00  0.00    -0.206 F 
ATOM     84  C   UNL A   1      39.360  35.295  39.314  1.00  0.00     0.059 A 
ATOM     85  C   UNL A   1      41.104  36.478  38.101  1.00  0.00     0.059 A 
ATOM     86  F   UNL A   1      41.937  35.583  36.097  1.00  0.00    -0.206 F 
ATOM     87  C   UNL A   1      40.218  36.387  39.176  1.00  0.00     0.060 A 
BRANCH  87  88
ATOM     88  S   UNL A   1      40.173  37.681  40.434  1.00  0.00     0.124 S 
ATOM     89  O   UNL A   1      38.758  38.038  40.442  1.00  0.00    -0.237 OA
ATOM     90  O   UNL A   1      40.657  36.979  41.618  1.00  0.00    -0.237 OA
ATOM     91  O   UNL A   1      41.075  38.698  39.904  1.00  0.00    -0.744 OA
ENDBRANCH  87  88
ENDBRANCH  55  80
ENDBRANCH  29  30
ENDBRANCH  22  24
ENDBRANCH  21  22
ENDBRANCH  20  21
ENDBRANCH   1  20
TORSDOF 17
ENDMDL
MODEL 3
REMARK VINA RESULT:      -9.9      0.808      1.872
REMARK SMILES NC(=O)c1c(F)cccc1O[C@@H](F)C(=O)OCCOC(=O)c1ccc(-c2c3nc(c(-c4c(F)cc(S(=O)(=O)[O-])cc4F)c4ccc([nH]4)c(-c4c(F)cc(S(=O)(=O)[O-])cc4F)c4nc(c(-c5c(F)cc(S(=O)(=O)[O-])cc5F)c5ccc2[nH]5)C=C4)C=C3)cc1
REMARK SMILES IDX 17 1 16 2 14 3 15 4 12 5 13 6 11 7 10 8 4 9 5 10 6 11 7 12
REMARK SMILES IDX 9 13 8 14 2 15 1 16 3 19 18 20 19 21 20 22 21 23 22 24 23 25
REMARK SMILES IDX 87 26 24 27 86 28 25 29 26 30 27 31 80 32 28 33 85 34 79 35
REMARK SMILES IDX 81 36 29 37 84 38 78 39 77 40 30 42 64 43 43 44 63 45 44 46
REMARK SMILES IDX 47 47 62 48 82 49 45 50 46 51 61 53 83 54 48 55 31 56 32 57
REMARK SMILES IDX 41 58 33 59 34 60 40 61 42 62 35 63 36 64 37 65 38 66 39 67
REMARK SMILES IDX 65 68 66 69 75 70 67 71 68 72 74 73 76 74 69 75 70 76 71 77
REMARK SMILES IDX 72 78 73 79 49 80 50 81 59 82 51 83 52 84 58 85 60 86 53 87
REMARK SMILES IDX 54 88 55 89 56 90 57 91
REMARK H PARENT 1 17 1 18 81 41 47 52
REMARK Flexibility Score: inf
ROOT
ATOM      1  C   UNL A   1      34.322  33.738  28.320  1.00  0.00     0.274 C 
ENDROOT
BRANCH   1   2
ATOM      2  O   UNL A   1      33.215  33.961  29.219  1.00  0.00    -0.457 OA
BRANCH   2   3
ATOM      3  C   UNL A   1      33.092  35.219  29.739  1.00  0.00     0.381 C 
ATOM      4  O   UNL A   1      32.524  36.136  29.151  1.00  0.00    -0.244 OA
BRANCH   3   5
ATOM      5  C   UNL A   1      33.613  35.320  31.212  1.00  0.00     0.461 C 
ATOM      6  F   UNL A   1      32.888  36.286  31.867  1.00  0.00    -0.189 F 
BRANCH   5   7
ATOM      7  O   UNL A   1      34.920  35.470  31.723  1.00  0.00    -0.450 OA
BRANCH   7   8
ATOM      8  C   UNL A   1      35.757  34.400  31.746  1.00  0.00     0.139 A 
ATOM      9  C   UNL A   1      35.733  33.395  32.720  1.00  0.00     0.117 A 
ATOM     10  C   UNL A   1      36.544  32.271  32.552  1.00  0.00     0.139 A 
ATOM     11  F   UNL A   1      36.548  31.285  33.463  1.00  0.00    -0.206 F 
ATOM     12  C   UNL A   1      37.349  32.122  31.424  1.00  0.00     0.040 A 
ATOM     13  C   UNL A   1      36.566  34.250  30.611  1.00  0.00     0.047 A 
ATOM     14  C   UNL A   1      37.361  33.115  30.450  1.00  0.00     0.007 A 
BRANCH   9  15
ATOM     15  C   UNL A   1      34.840  33.482  33.889  1.00  0.00     0.255 C 
ATOM     16  N   UNL A   1      33.509  33.282  33.668  1.00  0.00    -0.365 N 
ATOM     17  H   UNL A   1      32.872  33.330  34.417  1.00  0.00     0.159 HD
ATOM     18  H   UNL A   1      33.184  33.089  32.758  1.00  0.00     0.159 HD
ATOM     19  O   UNL A   1      35.272  33.647  35.021  1.00  0.00    -0.269 OA
ENDBRANCH   9  15
ENDBRANCH   7   8
ENDBRANCH   5   7
ENDBRANCH   3   5
ENDBRANCH   2   3
ENDBRANCH   1   2
BRANCH   1  20
ATOM     20  C   UNL A   1      34.217  32.362  27.656  1.00  0.00     0.275 C 
BRANCH  20  21
ATOM     21  O   UNL A   1      34.237  31.302  28.628  1.00  0.00    -0.458 OA
BRANCH  21  22
ATOM     22  C   UNL A   1      34.601  30.091  28.145  1.00  0.00     0.338 C 
ATOM     23  O   UNL A   1      33.929  29.336  27.463  1.00  0.00    -0.246 OA
BRANCH  22  24
ATOM     24  C   UNL A   1      36.027  29.866  28.414  1.00  0.00     0.060 A 
ATOM     25  C   UNL A   1      36.928  30.136  27.381  1.00  0.00     0.016 A 
ATOM     26  C   UNL A   1      36.468  29.338  29.628  1.00  0.00     0.016 A 
ATOM     27  C   UNL A   1      38.275  29.850  27.541  1.00  0.00     0.010 A 
ATOM     28  C   UNL A   1      37.829  29.071  29.796  1.00  0.00     0.010 A 
ATOM     29  C   UNL A   1      38.734  29.315  28.749  1.00  0.00    -0.014 A 
BRANCH  29  30
ATOM     30  C   UNL A   1      40.168  28.980  28.891  1.00  0.00     0.031 A 
ATOM     31  C   UNL A   1      41.117  30.013  29.423  1.00  0.00     0.074 A 
ATOM     32  C   UNL A   1      40.591  27.740  28.585  1.00  0.00     0.049 A 
ATOM     33  N   UNL A   1      42.419  29.964  29.513  1.00  0.00    -0.248 NA
ATOM     34  C   UNL A   1      40.525  31.266  29.918  1.00  0.00     0.031 C 
ATOM     35  C   UNL A   1      39.730  26.644  28.133  1.00  0.00     0.029 A 
ATOM     36  N   UNL A   1      41.845  27.189  28.613  1.00  0.00    -0.354 N 
ATOM     37  C   UNL A   1      42.806  31.183  30.053  1.00  0.00     0.074 A 
ATOM     38  C   UNL A   1      41.603  31.959  30.262  1.00  0.00     0.031 C 
ATOM     39  C   UNL A   1      40.481  25.549  27.939  1.00  0.00     0.029 A 
ATOM     40  C   UNL A   1      41.879  25.881  28.191  1.00  0.00     0.049 A 
ATOM     41  H   UNL A   1      42.644  27.683  28.907  1.00  0.00     0.167 HD
ATOM     42  C   UNL A   1      44.057  31.608  30.347  1.00  0.00     0.037 A 
ATOM     43  C   UNL A   1      42.926  25.058  27.997  1.00  0.00     0.037 A 
ATOM     44  C   UNL A   1      45.237  30.809  30.152  1.00  0.00     0.049 A 
ATOM     45  C   UNL A   1      44.311  25.580  28.261  1.00  0.00     0.074 A 
ATOM     46  C   UNL A   1      46.555  31.146  30.400  1.00  0.00     0.029 A 
ATOM     47  N   UNL A   1      45.238  29.507  29.671  1.00  0.00    -0.354 N 
ATOM     48  N   UNL A   1      44.672  26.758  28.713  1.00  0.00    -0.248 NA
ATOM     49  C   UNL A   1      45.431  24.677  27.968  1.00  0.00     0.031 C 
ATOM     50  C   UNL A   1      47.357  30.058  30.038  1.00  0.00     0.029 A 
ATOM     51  C   UNL A   1      46.535  29.030  29.600  1.00  0.00     0.049 A 
ATOM     52  H   UNL A   1      44.435  28.998  29.417  1.00  0.00     0.167 HD
ATOM     53  C   UNL A   1      46.059  26.737  28.765  1.00  0.00     0.074 A 
ATOM     54  C   UNL A   1      46.474  25.422  28.314  1.00  0.00     0.031 C 
ATOM     55  C   UNL A   1      46.916  27.716  29.145  1.00  0.00     0.037 A 
BRANCH  42  56
ATOM     56  C   UNL A   1      44.219  33.000  30.886  1.00  0.00     0.058 A 
ATOM     57  C   UNL A   1      44.427  34.080  30.014  1.00  0.00     0.135 A 
ATOM     58  C   UNL A   1      44.225  33.261  32.265  1.00  0.00     0.135 A 
ATOM     59  F   UNL A   1      44.415  33.888  28.686  1.00  0.00    -0.206 F 
ATOM     60  C   UNL A   1      44.653  35.368  30.490  1.00  0.00     0.059 A 
ATOM     61  C   UNL A   1      44.432  34.545  32.764  1.00  0.00     0.059 A 
ATOM     62  F   UNL A   1      44.003  32.268  33.142  1.00  0.00    -0.206 F 
ATOM     63  C   UNL A   1      44.659  35.589  31.867  1.00  0.00     0.060 A 
BRANCH  63  64
ATOM     64  S   UNL A   1      44.932  37.270  32.468  1.00  0.00     0.124 S 
ATOM     65  O   UNL A   1      45.113  38.008  31.224  1.00  0.00    -0.237 OA
ATOM     66  O   UNL A   1      43.695  37.540  33.196  1.00  0.00    -0.237 OA
ATOM     67  O   UNL A   1      46.123  37.141  33.304  1.00  0.00    -0.744 OA
ENDBRANCH  63  64
ENDBRANCH  42  56
BRANCH  43  68
ATOM     68  C   UNL A   1      42.699  23.678  27.495  1.00  0.00     0.058 A 
ATOM     69  C   UNL A   1      42.454  22.615  28.380  1.00  0.00     0.135 A 
ATOM     70  C   UNL A   1      42.757  23.387  26.126  1.00  0.00     0.135 A 
ATOM     71  F   UNL A   1      42.393  22.839  29.702  1.00  0.00    -0.206 F 
ATOM     72  C   UNL A   1      42.304  21.309  27.928  1.00  0.00     0.059 A 
ATOM     73  C   UNL A   1      42.586  22.091  25.645  1.00  0.00     0.059 A 
ATOM     74  F   UNL A   1      42.972  24.372  25.241  1.00  0.00    -0.206 F 
ATOM     75  C   UNL A   1      42.377  21.056  26.557  1.00  0.00     0.060 A 
BRANCH  75  76
ATOM     76  S   UNL A   1      42.179  19.354  25.988  1.00  0.00     0.124 S 
ATOM     77  O   UNL A   1      40.740  19.289  25.757  1.00  0.00    -0.237 OA
ATOM     78  O   UNL A   1      43.015  19.329  24.792  1.00  0.00    -0.237 OA
ATOM     79  O   UNL A   1      42.673  18.564  27.111  1.00  0.00    -0.744 OA
ENDBRANCH  75  76
ENDBRANCH  43  68
BRANCH  55  80
ATOM     80  C   UNL A   1      48.382  27.407  29.095  1.00  0.00     0.058 A 
ATOM     81  C   UNL A   1      49.002  26.728  30.155  1.00  0.00     0.135 A 
ATOM     82  C   UNL A   1      49.186  27.861  28.039  1.00  0.00     0.135 A 
ATOM     83  F   UNL A   1      48.274  26.277  31.189  1.00  0.00    -0.206 F 
ATOM     84  C   UNL A   1      50.378  26.530  30.181  1.00  0.00     0.059 A 
ATOM     85  C   UNL A   1      50.561  27.656  28.034  1.00  0.00     0.059 A 
ATOM     86  F   UNL A   1      48.633  28.504  26.999  1.00  0.00    -0.206 F 
ATOM     87  C   UNL A   1      51.150  27.006  29.120  1.00  0.00     0.060 A 
BRANCH  87  88
ATOM     88  S   UNL A   1      52.936  26.747  29.170  1.00  0.00     0.124 S 
ATOM     89  O   UNL A   1      53.156  25.964  27.958  1.00  0.00    -0.237 OA
ATOM     90  O   UNL A   1      53.448  28.114  29.144  1.00  0.00    -0.237 OA
ATOM     91  O   UNL A   1      53.139  26.033  30.426  1.00  0.00    -0.744 OA
ENDBRANCH  87  88
ENDBRANCH  55  80
ENDBRANCH  29  30
ENDBRANCH  22  24
ENDBRANCH  21  22
ENDBRANCH  20  21
ENDBRANCH   1  20
TORSDOF 17
ENDMDL
