MODEL 1
REMARK VINA RESULT:     -11.5      0.000      0.000
REMARK SMILES CC[C@@H](Oc1ccc(/C=C2\SC(=S)N(NC(=O)c3ccccc3O)C2=O)cc1)C(=O)OCCOC(=O)c1ccc(-c2c3nc(c(-c4c(F)cc(S(=O)(=O)[O-])cc4F)c4ccc([nH]4)c(-c4c(F)cc(S(=O)(=O)[O-])cc4F)c4nc(c(-c5c(F)cc(S(=O)(=O)[O-])cc5F)c5ccc2[nH]5)C=C4)C=C3)cc1
REMARK SMILES IDX 31 1 29 2 30 3 3 4 2 5 1 6 4 7 5 8 6 9 28 10 7 11 27 12 8 13
REMARK SMILES IDX 9 14 10 15 11 16 25 17 12 18 14 19 26 20 13 21 15 22 16 23
REMARK SMILES IDX 17 25 18 26 19 27 23 28 20 29 22 30 21 31 24 32 32 34 33 35
REMARK SMILES IDX 34 36 35 37 36 38 37 39 38 40 102 41 39 42 101 43 40 44
REMARK SMILES IDX 41 45 42 46 95 47 43 48 100 49 94 50 96 51 44 52 99 53 93 54
REMARK SMILES IDX 92 55 45 57 79 58 58 59 78 60 59 61 62 62 77 63 97 64 60 65
REMARK SMILES IDX 61 66 76 68 98 69 63 70 46 71 47 72 56 73 48 74 49 75 55 76
REMARK SMILES IDX 57 77 50 78 51 79 52 80 53 81 54 82 80 83 81 84 90 85 82 86
REMARK SMILES IDX 83 87 89 88 91 89 84 90 85 91 86 92 87 93 88 94 64 95 65 96
REMARK SMILES IDX 74 97 66 98 67 99 73 100 75 101 68 102 69 103 70 104 71 105
REMARK SMILES IDX 72 106
REMARK H PARENT 15 24 24 33 96 56 62 67
REMARK Flexibility Score: inf
ROOT
ATOM      1  O   UNL A   1      35.914  33.666  30.864  1.00  0.00    -0.459 OA
ENDROOT
BRANCH   1   2
ATOM      2  C   UNL A   1      34.745  32.980  30.711  1.00  0.00     0.347 C 
ATOM      3  O   UNL A   1      34.037  32.596  31.635  1.00  0.00    -0.248 OA
BRANCH   2   4
ATOM      4  C   UNL A   1      34.407  32.726  29.244  1.00  0.00     0.282 C 
BRANCH   4   5
ATOM      5  C   UNL A   1      34.444  34.021  28.408  1.00  0.00     0.054 C 
ATOM      6  C   UNL A   1      33.177  34.857  28.566  1.00  0.00     0.008 C 
ENDBRANCH   4   5
BRANCH   4   7
ATOM      7  O   UNL A   1      35.380  31.771  28.790  1.00  0.00    -0.479 OA
BRANCH   7   8
ATOM      8  C   UNL A   1      34.817  30.824  27.984  1.00  0.00     0.120 A 
ATOM      9  C   UNL A   1      35.455  29.606  27.780  1.00  0.00     0.047 A 
ATOM     10  C   UNL A   1      33.642  31.123  27.309  1.00  0.00     0.047 A 
ATOM     11  C   UNL A   1      34.925  28.697  26.855  1.00  0.00     0.012 A 
ATOM     12  C   UNL A   1      33.085  30.191  26.441  1.00  0.00     0.012 A 
ATOM     13  C   UNL A   1      33.761  29.005  26.134  1.00  0.00    -0.024 A 
BRANCH  13  14
ATOM     14  C   UNL A   1      33.314  28.082  25.073  1.00  0.00     0.029 C 
ATOM     15  C   UNL A   1      32.545  26.989  25.206  1.00  0.00     0.082 C 
ATOM     16  S   UNL A   1      31.918  26.267  26.643  1.00  0.00    -0.052 SA
ATOM     17  C   UNL A   1      32.124  26.175  24.029  1.00  0.00     0.285 C 
ATOM     18  C   UNL A   1      31.559  24.757  25.837  1.00  0.00     0.168 C 
ATOM     19  N   UNL A   1      31.753  24.913  24.480  1.00  0.00    -0.198 N 
ATOM     20  O   UNL A   1      32.059  26.609  22.888  1.00  0.00    -0.266 OA
ATOM     21  S   UNL A   1      31.023  23.393  26.638  1.00  0.00    -0.050 S 
BRANCH  19  22
ATOM     22  N   UNL A   1      31.399  23.880  23.602  1.00  0.00    -0.254 N 
ATOM     23  C   UNL A   1      32.151  22.768  23.295  1.00  0.00     0.274 C 
ATOM     24  H   UNL A   1      30.523  23.957  23.158  1.00  0.00     0.192 HD
ATOM     25  O   UNL A   1      31.647  21.849  22.651  1.00  0.00    -0.267 OA
BRANCH  23  26
ATOM     26  C   UNL A   1      33.572  22.674  23.671  1.00  0.00     0.083 A 
ATOM     27  C   UNL A   1      33.912  21.643  24.559  1.00  0.00     0.018 A 
ATOM     28  C   UNL A   1      34.568  23.507  23.157  1.00  0.00     0.128 A 
ATOM     29  C   UNL A   1      35.247  21.416  24.886  1.00  0.00     0.001 A 
ATOM     30  C   UNL A   1      35.905  23.269  23.474  1.00  0.00     0.047 A 
ATOM     31  C   UNL A   1      36.243  22.223  24.336  1.00  0.00     0.004 A 
BRANCH  28  32
ATOM     32  O   UNL A   1      34.308  24.559  22.323  1.00  0.00    -0.507 OA
ATOM     33  H   UNL A   1      34.465  25.436  22.612  1.00  0.00     0.293 HD
ENDBRANCH  28  32
ENDBRANCH  23  26
ENDBRANCH  19  22
ENDBRANCH  13  14
ENDBRANCH   7   8
ENDBRANCH   4   7
ENDBRANCH   2   4
ENDBRANCH   1   2
BRANCH   1  34
ATOM     34  C   UNL A   1      36.557  33.538  32.145  1.00  0.00     0.274 C 
BRANCH  34  35
ATOM     35  C   UNL A   1      37.830  32.695  32.038  1.00  0.00     0.275 C 
BRANCH  35  36
ATOM     36  O   UNL A   1      37.639  31.397  32.632  1.00  0.00    -0.458 OA
BRANCH  36  37
ATOM     37  C   UNL A   1      37.306  30.403  31.780  1.00  0.00     0.338 C 
ATOM     38  O   UNL A   1      36.191  29.956  31.556  1.00  0.00    -0.246 OA
BRANCH  37  39
ATOM     39  C   UNL A   1      38.502  29.957  31.057  1.00  0.00     0.060 A 
ATOM     40  C   UNL A   1      39.580  29.445  31.782  1.00  0.00     0.016 A 
ATOM     41  C   UNL A   1      38.596  30.137  29.678  1.00  0.00     0.016 A 
ATOM     42  C   UNL A   1      40.772  29.129  31.135  1.00  0.00     0.010 A 
ATOM     43  C   UNL A   1      39.785  29.801  29.025  1.00  0.00     0.010 A 
ATOM     44  C   UNL A   1      40.885  29.311  29.751  1.00  0.00    -0.014 A 
BRANCH  44  45
ATOM     45  C   UNL A   1      42.168  29.029  29.066  1.00  0.00     0.031 A 
ATOM     46  C   UNL A   1      42.433  27.657  28.514  1.00  0.00     0.074 A 
ATOM     47  C   UNL A   1      43.092  30.001  28.946  1.00  0.00     0.049 A 
ATOM     48  N   UNL A   1      43.528  27.178  27.985  1.00  0.00    -0.248 NA
ATOM     49  C   UNL A   1      41.319  26.697  28.570  1.00  0.00     0.031 C 
ATOM     50  C   UNL A   1      42.931  31.381  29.408  1.00  0.00     0.029 A 
ATOM     51  N   UNL A   1      44.354  29.972  28.411  1.00  0.00    -0.354 N 
ATOM     52  C   UNL A   1      43.247  25.855  27.667  1.00  0.00     0.074 A 
ATOM     53  C   UNL A   1      41.880  25.604  28.073  1.00  0.00     0.031 C 
ATOM     54  C   UNL A   1      44.056  32.065  29.141  1.00  0.00     0.029 A 
ATOM     55  C   UNL A   1      45.030  31.162  28.532  1.00  0.00     0.049 A 
ATOM     56  H   UNL A   1      44.740  29.174  27.980  1.00  0.00     0.167 HD
ATOM     57  C   UNL A   1      44.057  24.935  27.090  1.00  0.00     0.037 A 
ATOM     58  C   UNL A   1      46.300  31.480  28.217  1.00  0.00     0.037 A 
ATOM     59  C   UNL A   1      45.410  25.196  26.675  1.00  0.00     0.049 A 
ATOM     60  C   UNL A   1      47.194  30.429  27.620  1.00  0.00     0.074 A 
ATOM     61  C   UNL A   1      46.305  24.336  26.063  1.00  0.00     0.029 A 
ATOM     62  N   UNL A   1      46.064  26.411  26.828  1.00  0.00    -0.354 N 
ATOM     63  N   UNL A   1      46.917  29.180  27.329  1.00  0.00    -0.248 NA
ATOM     64  C   UNL A   1      48.575  30.827  27.314  1.00  0.00     0.031 C 
ATOM     65  C   UNL A   1      47.512  25.020  25.877  1.00  0.00     0.029 A 
ATOM     66  C   UNL A   1      47.356  26.317  26.339  1.00  0.00     0.049 A 
ATOM     67  H   UNL A   1      45.668  27.219  27.226  1.00  0.00     0.167 HD
ATOM     68  C   UNL A   1      48.082  28.648  26.790  1.00  0.00     0.074 A 
ATOM     69  C   UNL A   1      49.065  29.714  26.785  1.00  0.00     0.031 C 
ATOM     70  C   UNL A   1      48.319  27.392  26.338  1.00  0.00     0.037 A 
BRANCH  57  71
ATOM     71  C   UNL A   1      43.508  23.550  26.901  1.00  0.00     0.058 A 
ATOM     72  C   UNL A   1      43.400  22.645  27.967  1.00  0.00     0.135 A 
ATOM     73  C   UNL A   1      43.062  23.130  25.637  1.00  0.00     0.135 A 
ATOM     74  F   UNL A   1      43.829  22.990  29.192  1.00  0.00    -0.206 F 
ATOM     75  C   UNL A   1      42.890  21.363  27.784  1.00  0.00     0.059 A 
ATOM     76  C   UNL A   1      42.530  21.861  25.435  1.00  0.00     0.059 A 
ATOM     77  F   UNL A   1      43.146  23.956  24.582  1.00  0.00    -0.206 F 
ATOM     78  C   UNL A   1      42.462  20.978  26.512  1.00  0.00     0.060 A 
BRANCH  78  79
ATOM     79  S   UNL A   1      41.808  19.311  26.284  1.00  0.00     0.124 S 
ATOM     80  O   UNL A   1      42.499  18.892  25.068  1.00  0.00    -0.237 OA
ATOM     81  O   UNL A   1      42.224  18.639  27.511  1.00  0.00    -0.237 OA
ATOM     82  O   UNL A   1      40.371  19.525  26.148  1.00  0.00    -0.744 OA
ENDBRANCH  78  79
ENDBRANCH  57  71
BRANCH  58  83
ATOM     83  C   UNL A   1      46.805  32.853  28.478  1.00  0.00     0.058 A 
ATOM     84  C   UNL A   1      47.376  33.188  29.713  1.00  0.00     0.135 A 
ATOM     85  C   UNL A   1      46.739  33.850  27.493  1.00  0.00     0.135 A 
ATOM     86  F   UNL A   1      47.452  32.269  30.689  1.00  0.00    -0.206 F 
ATOM     87  C   UNL A   1      47.860  34.467  29.968  1.00  0.00     0.059 A 
ATOM     88  C   UNL A   1      47.235  35.130  27.716  1.00  0.00     0.059 A 
ATOM     89  F   UNL A   1      46.210  33.574  26.290  1.00  0.00    -0.206 F 
ATOM     90  C   UNL A   1      47.787  35.432  28.961  1.00  0.00     0.060 A 
BRANCH  90  91
ATOM     91  S   UNL A   1      48.468  37.074  29.278  1.00  0.00     0.124 S 
ATOM     92  O   UNL A   1      49.315  37.271  28.108  1.00  0.00    -0.237 OA
ATOM     93  O   UNL A   1      47.267  37.900  29.344  1.00  0.00    -0.237 OA
ATOM     94  O   UNL A   1      49.171  36.904  30.547  1.00  0.00    -0.744 OA
ENDBRANCH  90  91
ENDBRANCH  58  83
BRANCH  70  95
ATOM     95  C   UNL A   1      49.682  27.108  25.775  1.00  0.00     0.058 A 
ATOM     96  C   UNL A   1      49.969  27.301  24.416  1.00  0.00     0.135 A 
ATOM     97  C   UNL A   1      50.723  26.683  26.616  1.00  0.00     0.135 A 
ATOM     98  F   UNL A   1      49.005  27.701  23.572  1.00  0.00    -0.206 F 
ATOM     99  C   UNL A   1      51.240  27.064  23.903  1.00  0.00     0.059 A 
ATOM    100  C   UNL A   1      52.006  26.459  26.128  1.00  0.00     0.059 A 
ATOM    101  F   UNL A   1      50.500  26.492  27.925  1.00  0.00    -0.206 F 
ATOM    102  C   UNL A   1      52.253  26.642  24.767  1.00  0.00     0.060 A 
BRANCH 102 103
ATOM    103  S   UNL A   1      53.908  26.368  24.101  1.00  0.00     0.124 S 
ATOM    104  O   UNL A   1      53.626  26.188  22.681  1.00  0.00    -0.237 OA
ATOM    105  O   UNL A   1      54.601  27.602  24.458  1.00  0.00    -0.237 OA
ATOM    106  O   UNL A   1      54.364  25.174  24.807  1.00  0.00    -0.744 OA
ENDBRANCH 102 103
ENDBRANCH  70  95
ENDBRANCH  44  45
ENDBRANCH  37  39
ENDBRANCH  36  37
ENDBRANCH  35  36
ENDBRANCH  34  35
ENDBRANCH   1  34
TORSDOF 21
ENDMDL
MODEL 2
REMARK VINA RESULT:     -11.3      2.658      9.264
REMARK SMILES CC[C@@H](Oc1ccc(/C=C2\SC(=S)N(NC(=O)c3ccccc3O)C2=O)cc1)C(=O)OCCOC(=O)c1ccc(-c2c3nc(c(-c4c(F)cc(S(=O)(=O)[O-])cc4F)c4ccc([nH]4)c(-c4c(F)cc(S(=O)(=O)[O-])cc4F)c4nc(c(-c5c(F)cc(S(=O)(=O)[O-])cc5F)c5ccc2[nH]5)C=C4)C=C3)cc1
REMARK SMILES IDX 31 1 29 2 30 3 3 4 2 5 1 6 4 7 5 8 6 9 28 10 7 11 27 12 8 13
REMARK SMILES IDX 9 14 10 15 11 16 25 17 12 18 14 19 26 20 13 21 15 22 16 23
REMARK SMILES IDX 17 25 18 26 19 27 23 28 20 29 22 30 21 31 24 32 32 34 33 35
REMARK SMILES IDX 34 36 35 37 36 38 37 39 38 40 102 41 39 42 101 43 40 44
REMARK SMILES IDX 41 45 42 46 95 47 43 48 100 49 94 50 96 51 44 52 99 53 93 54
REMARK SMILES IDX 92 55 45 57 79 58 58 59 78 60 59 61 62 62 77 63 97 64 60 65
REMARK SMILES IDX 61 66 76 68 98 69 63 70 46 71 47 72 56 73 48 74 49 75 55 76
REMARK SMILES IDX 57 77 50 78 51 79 52 80 53 81 54 82 80 83 81 84 90 85 82 86
REMARK SMILES IDX 83 87 89 88 91 89 84 90 85 91 86 92 87 93 88 94 64 95 65 96
REMARK SMILES IDX 74 97 66 98 67 99 73 100 75 101 68 102 69 103 70 104 71 105
REMARK SMILES IDX 72 106
REMARK H PARENT 15 24 24 33 96 56 62 67
REMARK Flexibility Score: inf
ROOT
ATOM      1  O   UNL A   1      42.137  19.920  26.334  1.00  0.00    -0.459 OA
ENDROOT
BRANCH   1   2
ATOM      2  C   UNL A   1      40.777  19.878  26.249  1.00  0.00     0.347 C 
ATOM      3  O   UNL A   1      40.140  18.977  25.714  1.00  0.00    -0.248 OA
BRANCH   2   4
ATOM      4  C   UNL A   1      40.115  21.096  26.891  1.00  0.00     0.282 C 
BRANCH   4   5
ATOM      5  C   UNL A   1      40.976  21.695  28.020  1.00  0.00     0.054 C 
ATOM      6  C   UNL A   1      41.309  23.166  27.784  1.00  0.00     0.008 C 
ENDBRANCH   4   5
BRANCH   4   7
ATOM      7  O   UNL A   1      39.919  22.031  25.817  1.00  0.00    -0.479 OA
BRANCH   7   8
ATOM      8  C   UNL A   1      38.597  22.316  25.634  1.00  0.00     0.120 A 
ATOM      9  C   UNL A   1      38.068  23.519  26.090  1.00  0.00     0.047 A 
ATOM     10  C   UNL A   1      37.771  21.358  25.062  1.00  0.00     0.047 A 
ATOM     11  C   UNL A   1      36.688  23.741  26.005  1.00  0.00     0.012 A 
ATOM     12  C   UNL A   1      36.411  21.611  24.921  1.00  0.00     0.012 A 
ATOM     13  C   UNL A   1      35.836  22.763  25.467  1.00  0.00    -0.024 A 
BRANCH  13  14
ATOM     14  C   UNL A   1      34.378  22.980  25.522  1.00  0.00     0.029 C 
ATOM     15  C   UNL A   1      33.580  23.449  24.548  1.00  0.00     0.082 C 
ATOM     16  S   UNL A   1      34.004  24.027  22.978  1.00  0.00    -0.052 SA
ATOM     17  C   UNL A   1      32.104  23.564  24.727  1.00  0.00     0.285 C 
ATOM     18  C   UNL A   1      32.462  24.821  22.754  1.00  0.00     0.168 C 
ATOM     19  N   UNL A   1      31.619  24.468  23.788  1.00  0.00    -0.198 N 
ATOM     20  O   UNL A   1      31.460  22.901  25.526  1.00  0.00    -0.266 OA
ATOM     21  S   UNL A   1      32.114  25.800  21.448  1.00  0.00    -0.050 S 
BRANCH  19  22
ATOM     22  N   UNL A   1      30.276  24.869  23.761  1.00  0.00    -0.254 N 
ATOM     23  C   UNL A   1      29.777  26.094  24.142  1.00  0.00     0.274 C 
ATOM     24  H   UNL A   1      29.624  24.208  23.435  1.00  0.00     0.192 HD
ATOM     25  O   UNL A   1      28.605  26.378  23.898  1.00  0.00    -0.267 OA
BRANCH  23  26
ATOM     26  C   UNL A   1      30.598  27.058  24.896  1.00  0.00     0.083 A 
ATOM     27  C   UNL A   1      30.878  28.270  24.250  1.00  0.00     0.018 A 
ATOM     28  C   UNL A   1      31.049  26.842  26.200  1.00  0.00     0.128 A 
ATOM     29  C   UNL A   1      31.559  29.280  24.927  1.00  0.00     0.001 A 
ATOM     30  C   UNL A   1      31.717  27.859  26.881  1.00  0.00     0.047 A 
ATOM     31  C   UNL A   1      31.969  29.077  26.244  1.00  0.00     0.004 A 
BRANCH  28  32
ATOM     32  O   UNL A   1      30.852  25.671  26.876  1.00  0.00    -0.507 OA
ATOM     33  H   UNL A   1      30.459  25.681  27.727  1.00  0.00     0.293 HD
ENDBRANCH  28  32
ENDBRANCH  23  26
ENDBRANCH  19  22
ENDBRANCH  13  14
ENDBRANCH   7   8
ENDBRANCH   4   7
ENDBRANCH   2   4
ENDBRANCH   1   2
BRANCH   1  34
ATOM     34  C   UNL A   1      42.796  18.658  26.543  1.00  0.00     0.274 C 
BRANCH  34  35
ATOM     35  C   UNL A   1      43.718  18.319  25.370  1.00  0.00     0.275 C 
BRANCH  35  36
ATOM     36  O   UNL A   1      44.822  19.242  25.300  1.00  0.00    -0.458 OA
BRANCH  36  37
ATOM     37  C   UNL A   1      44.797  20.111  24.266  1.00  0.00     0.338 C 
ATOM     38  O   UNL A   1      44.608  19.859  23.085  1.00  0.00    -0.246 OA
BRANCH  37  39
ATOM     39  C   UNL A   1      44.952  21.480  24.772  1.00  0.00     0.060 A 
ATOM     40  C   UNL A   1      44.900  22.545  23.870  1.00  0.00     0.016 A 
ATOM     41  C   UNL A   1      45.247  21.702  26.116  1.00  0.00     0.016 A 
ATOM     42  C   UNL A   1      45.165  23.842  24.303  1.00  0.00     0.010 A 
ATOM     43  C   UNL A   1      45.493  23.006  26.555  1.00  0.00     0.010 A 
ATOM     44  C   UNL A   1      45.470  24.081  25.648  1.00  0.00    -0.014 A 
BRANCH  44  45
ATOM     45  C   UNL A   1      45.807  25.450  26.103  1.00  0.00     0.031 A 
ATOM     46  C   UNL A   1      44.725  26.346  26.637  1.00  0.00     0.074 A 
ATOM     47  C   UNL A   1      47.078  25.887  26.029  1.00  0.00     0.049 A 
ATOM     48  N   UNL A   1      44.791  27.606  26.978  1.00  0.00    -0.248 NA
ATOM     49  C   UNL A   1      43.394  25.743  26.807  1.00  0.00     0.031 C 
ATOM     50  C   UNL A   1      48.218  25.096  25.564  1.00  0.00     0.029 A 
ATOM     51  N   UNL A   1      47.620  27.109  26.333  1.00  0.00    -0.354 N 
ATOM     52  C   UNL A   1      43.507  27.957  27.378  1.00  0.00     0.074 A 
ATOM     53  C   UNL A   1      42.681  26.777  27.229  1.00  0.00     0.031 C 
ATOM     54  C   UNL A   1      49.324  25.855  25.608  1.00  0.00     0.029 A 
ATOM     55  C   UNL A   1      48.964  27.197  26.060  1.00  0.00     0.049 A 
ATOM     56  H   UNL A   1      47.098  27.854  26.710  1.00  0.00     0.167 HD
ATOM     57  C   UNL A   1      43.062  29.154  27.828  1.00  0.00     0.037 A 
ATOM     58  C   UNL A   1      49.803  28.248  26.135  1.00  0.00     0.037 A 
ATOM     59  C   UNL A   1      43.893  30.318  27.989  1.00  0.00     0.049 A 
ATOM     60  C   UNL A   1      49.275  29.578  26.594  1.00  0.00     0.074 A 
ATOM     61  C   UNL A   1      43.540  31.572  28.457  1.00  0.00     0.029 A 
ATOM     62  N   UNL A   1      45.247  30.371  27.688  1.00  0.00    -0.354 N 
ATOM     63  N   UNL A   1      48.058  29.898  26.965  1.00  0.00    -0.248 NA
ATOM     64  C   UNL A   1      50.231  30.693  26.639  1.00  0.00     0.031 C 
ATOM     65  C   UNL A   1      44.672  32.393  28.406  1.00  0.00     0.029 A 
ATOM     66  C   UNL A   1      45.739  31.640  27.943  1.00  0.00     0.049 A 
ATOM     67  H   UNL A   1      45.778  29.618  27.343  1.00  0.00     0.167 HD
ATOM     68  C   UNL A   1      48.105  31.245  27.304  1.00  0.00     0.074 A 
ATOM     69  C   UNL A   1      49.474  31.679  27.104  1.00  0.00     0.031 C 
ATOM     70  C   UNL A   1      47.107  32.051  27.742  1.00  0.00     0.037 A 
BRANCH  57  71
ATOM     71  C   UNL A   1      41.599  29.272  28.151  1.00  0.00     0.058 A 
ATOM     72  C   UNL A   1      41.139  29.357  29.473  1.00  0.00     0.135 A 
ATOM     73  C   UNL A   1      40.647  29.324  27.120  1.00  0.00     0.135 A 
ATOM     74  F   UNL A   1      42.006  29.294  30.497  1.00  0.00    -0.206 F 
ATOM     75  C   UNL A   1      39.783  29.466  29.765  1.00  0.00     0.059 A 
ATOM     76  C   UNL A   1      39.288  29.453  27.388  1.00  0.00     0.059 A 
ATOM     77  F   UNL A   1      41.035  29.243  25.838  1.00  0.00    -0.206 F 
ATOM     78  C   UNL A   1      38.864  29.509  28.715  1.00  0.00     0.060 A 
BRANCH  78  79
ATOM     79  S   UNL A   1      37.106  29.644  29.104  1.00  0.00     0.124 S 
ATOM     80  O   UNL A   1      36.503  28.952  27.969  1.00  0.00    -0.237 OA
ATOM     81  O   UNL A   1      37.014  28.954  30.387  1.00  0.00    -0.237 OA
ATOM     82  O   UNL A   1      36.879  31.084  29.154  1.00  0.00    -0.744 OA
ENDBRANCH  78  79
ENDBRANCH  57  71
BRANCH  58  83
ATOM     83  C   UNL A   1      51.229  28.085  25.749  1.00  0.00     0.058 A 
ATOM     84  C   UNL A   1      51.622  28.134  24.405  1.00  0.00     0.135 A 
ATOM     85  C   UNL A   1      52.226  27.891  26.718  1.00  0.00     0.135 A 
ATOM     86  F   UNL A   1      50.702  28.308  23.443  1.00  0.00    -0.206 F 
ATOM     87  C   UNL A   1      52.954  27.991  24.032  1.00  0.00     0.059 A 
ATOM     88  C   UNL A   1      53.566  27.767  26.372  1.00  0.00     0.059 A 
ATOM     89  F   UNL A   1      51.899  27.847  28.020  1.00  0.00    -0.206 F 
ATOM     90  C   UNL A   1      53.920  27.810  25.023  1.00  0.00     0.060 A 
BRANCH  90  91
ATOM     91  S   UNL A   1      55.655  27.682  24.535  1.00  0.00     0.124 S 
ATOM     92  O   UNL A   1      55.949  29.053  24.138  1.00  0.00    -0.237 OA
ATOM     93  O   UNL A   1      56.289  27.223  25.767  1.00  0.00    -0.237 OA
ATOM     94  O   UNL A   1      55.625  26.701  23.453  1.00  0.00    -0.744 OA
ENDBRANCH  90  91
ENDBRANCH  58  83
BRANCH  70  95
ATOM     95  C   UNL A   1      47.463  33.474  28.062  1.00  0.00     0.058 A 
ATOM     96  C   UNL A   1      47.363  34.490  27.100  1.00  0.00     0.135 A 
ATOM     97  C   UNL A   1      47.863  33.831  29.359  1.00  0.00     0.135 A 
ATOM     98  F   UNL A   1      46.990  34.198  25.844  1.00  0.00    -0.206 F 
ATOM     99  C   UNL A   1      47.667  35.813  27.408  1.00  0.00     0.059 A 
ATOM    100  C   UNL A   1      48.153  35.150  29.695  1.00  0.00     0.059 A 
ATOM    101  F   UNL A   1      47.966  32.896  30.317  1.00  0.00    -0.206 F 
ATOM    102  C   UNL A   1      48.062  36.133  28.709  1.00  0.00     0.060 A 
BRANCH 102 103
ATOM    103  S   UNL A   1      48.423  37.856  29.110  1.00  0.00     0.124 S 
ATOM    104  O   UNL A   1      48.651  38.423  27.786  1.00  0.00    -0.237 OA
ATOM    105  O   UNL A   1      47.200  38.286  29.782  1.00  0.00    -0.237 OA
ATOM    106  O   UNL A   1      49.601  37.764  29.966  1.00  0.00    -0.744 OA
ENDBRANCH 102 103
ENDBRANCH  70  95
ENDBRANCH  44  45
ENDBRANCH  37  39
ENDBRANCH  36  37
ENDBRANCH  35  36
ENDBRANCH  34  35
ENDBRANCH   1  34
TORSDOF 21
ENDMDL
MODEL 3
REMARK VINA RESULT:     -11.2      5.713     12.203
REMARK SMILES CC[C@@H](Oc1ccc(/C=C2\SC(=S)N(NC(=O)c3ccccc3O)C2=O)cc1)C(=O)OCCOC(=O)c1ccc(-c2c3nc(c(-c4c(F)cc(S(=O)(=O)[O-])cc4F)c4ccc([nH]4)c(-c4c(F)cc(S(=O)(=O)[O-])cc4F)c4nc(c(-c5c(F)cc(S(=O)(=O)[O-])cc5F)c5ccc2[nH]5)C=C4)C=C3)cc1
REMARK SMILES IDX 31 1 29 2 30 3 3 4 2 5 1 6 4 7 5 8 6 9 28 10 7 11 27 12 8 13
REMARK SMILES IDX 9 14 10 15 11 16 25 17 12 18 14 19 26 20 13 21 15 22 16 23
REMARK SMILES IDX 17 25 18 26 19 27 23 28 20 29 22 30 21 31 24 32 32 34 33 35
REMARK SMILES IDX 34 36 35 37 36 38 37 39 38 40 102 41 39 42 101 43 40 44
REMARK SMILES IDX 41 45 42 46 95 47 43 48 100 49 94 50 96 51 44 52 99 53 93 54
REMARK SMILES IDX 92 55 45 57 79 58 58 59 78 60 59 61 62 62 77 63 97 64 60 65
REMARK SMILES IDX 61 66 76 68 98 69 63 70 46 71 47 72 56 73 48 74 49 75 55 76
REMARK SMILES IDX 57 77 50 78 51 79 52 80 53 81 54 82 80 83 81 84 90 85 82 86
REMARK SMILES IDX 83 87 89 88 91 89 84 90 85 91 86 92 87 93 88 94 64 95 65 96
REMARK SMILES IDX 74 97 66 98 67 99 73 100 75 101 68 102 69 103 70 104 71 105
REMARK SMILES IDX 72 106
REMARK H PARENT 15 24 24 33 96 56 62 67
REMARK Flexibility Score: inf
ROOT
ATOM      1  O   UNL A   1      42.890  22.646  25.904  1.00  0.00    -0.459 OA
ENDROOT
BRANCH   1   2
ATOM      2  C   UNL A   1      42.367  21.398  25.738  1.00  0.00     0.347 C 
ATOM      3  O   UNL A   1      42.947  20.467  25.189  1.00  0.00    -0.248 OA
BRANCH   2   4
ATOM      4  C   UNL A   1      40.955  21.277  26.308  1.00  0.00     0.282 C 
BRANCH   4   5
ATOM      5  C   UNL A   1      40.925  20.459  27.614  1.00  0.00     0.054 C 
ATOM      6  C   UNL A   1      41.948  19.325  27.619  1.00  0.00     0.008 C 
ENDBRANCH   4   5
BRANCH   4   7
ATOM      7  O   UNL A   1      40.514  22.629  26.517  1.00  0.00    -0.479 OA
BRANCH   7   8
ATOM      8  C   UNL A   1      39.188  22.775  26.227  1.00  0.00     0.120 A 
ATOM      9  C   UNL A   1      38.535  23.970  26.508  1.00  0.00     0.047 A 
ATOM     10  C   UNL A   1      38.483  21.691  25.723  1.00  0.00     0.047 A 
ATOM     11  C   UNL A   1      37.150  24.059  26.319  1.00  0.00     0.012 A 
ATOM     12  C   UNL A   1      37.120  21.806  25.475  1.00  0.00     0.012 A 
ATOM     13  C   UNL A   1      36.418  22.957  25.850  1.00  0.00    -0.024 A 
BRANCH  13  14
ATOM     14  C   UNL A   1      34.946  23.049  25.795  1.00  0.00     0.029 C 
ATOM     15  C   UNL A   1      34.187  23.460  24.766  1.00  0.00     0.082 C 
ATOM     16  S   UNL A   1      34.677  24.088  23.235  1.00  0.00    -0.052 SA
ATOM     17  C   UNL A   1      32.697  23.448  24.834  1.00  0.00     0.285 C 
ATOM     18  C   UNL A   1      33.094  24.752  22.899  1.00  0.00     0.168 C 
ATOM     19  N   UNL A   1      32.209  24.318  23.865  1.00  0.00    -0.198 N 
ATOM     20  O   UNL A   1      32.054  22.725  25.579  1.00  0.00    -0.266 OA
ATOM     21  S   UNL A   1      32.764  25.712  21.574  1.00  0.00    -0.050 S 
BRANCH  19  22
ATOM     22  N   UNL A   1      30.843  24.605  23.738  1.00  0.00    -0.254 N 
ATOM     23  C   UNL A   1      30.206  25.760  24.132  1.00  0.00     0.274 C 
ATOM     24  H   UNL A   1      30.282  23.910  23.324  1.00  0.00     0.192 HD
ATOM     25  O   UNL A   1      29.038  25.957  23.798  1.00  0.00    -0.267 OA
BRANCH  23  26
ATOM     26  C   UNL A   1      30.871  26.746  25.000  1.00  0.00     0.083 A 
ATOM     27  C   UNL A   1      31.130  28.000  24.428  1.00  0.00     0.018 A 
ATOM     28  C   UNL A   1      31.197  26.510  26.338  1.00  0.00     0.128 A 
ATOM     29  C   UNL A   1      31.661  29.026  25.207  1.00  0.00     0.001 A 
ATOM     30  C   UNL A   1      31.715  27.542  27.119  1.00  0.00     0.047 A 
ATOM     31  C   UNL A   1      31.944  28.799  26.553  1.00  0.00     0.004 A 
BRANCH  28  32
ATOM     32  O   UNL A   1      31.016  25.302  26.950  1.00  0.00    -0.507 OA
ATOM     33  H   UNL A   1      31.384  24.526  26.574  1.00  0.00     0.293 HD
ENDBRANCH  28  32
ENDBRANCH  23  26
ENDBRANCH  19  22
ENDBRANCH  13  14
ENDBRANCH   7   8
ENDBRANCH   4   7
ENDBRANCH   2   4
ENDBRANCH   1   2
BRANCH   1  34
ATOM     34  C   UNL A   1      43.687  23.146  24.815  1.00  0.00     0.274 C 
BRANCH  34  35
ATOM     35  C   UNL A   1      44.379  24.455  25.198  1.00  0.00     0.275 C 
BRANCH  35  36
ATOM     36  O   UNL A   1      43.654  25.135  26.240  1.00  0.00    -0.458 OA
BRANCH  36  37
ATOM     37  C   UNL A   1      42.768  26.068  25.828  1.00  0.00     0.338 C 
ATOM     38  O   UNL A   1      42.345  26.245  24.695  1.00  0.00    -0.246 OA
BRANCH  37  39
ATOM     39  C   UNL A   1      42.286  26.831  26.984  1.00  0.00     0.060 A 
ATOM     40  C   UNL A   1      42.789  28.117  27.204  1.00  0.00     0.016 A 
ATOM     41  C   UNL A   1      41.420  26.241  27.903  1.00  0.00     0.016 A 
ATOM     42  C   UNL A   1      42.443  28.815  28.358  1.00  0.00     0.010 A 
ATOM     43  C   UNL A   1      41.057  26.950  29.051  1.00  0.00     0.010 A 
ATOM     44  C   UNL A   1      41.579  28.233  29.294  1.00  0.00    -0.014 A 
BRANCH  44  45
ATOM     45  C   UNL A   1      41.252  28.949  30.550  1.00  0.00     0.031 A 
ATOM     46  C   UNL A   1      40.097  29.909  30.582  1.00  0.00     0.074 A 
ATOM     47  C   UNL A   1      41.995  28.741  31.653  1.00  0.00     0.049 A 
ATOM     48  N   UNL A   1      39.718  30.712  31.541  1.00  0.00    -0.248 NA
ATOM     49  C   UNL A   1      39.260  29.974  29.374  1.00  0.00     0.031 C 
ATOM     50  C   UNL A   1      43.116  27.805  31.752  1.00  0.00     0.029 A 
ATOM     51  N   UNL A   1      41.925  29.313  32.897  1.00  0.00    -0.354 N 
ATOM     52  C   UNL A   1      38.616  31.399  31.046  1.00  0.00     0.074 A 
ATOM     53  C   UNL A   1      38.393  30.923  29.697  1.00  0.00     0.031 C 
ATOM     54  C   UNL A   1      43.633  27.872  32.990  1.00  0.00     0.029 A 
ATOM     55  C   UNL A   1      42.911  28.885  33.754  1.00  0.00     0.049 A 
ATOM     56  H   UNL A   1      41.236  29.968  33.153  1.00  0.00     0.167 HD
ATOM     57  C   UNL A   1      37.862  32.340  31.663  1.00  0.00     0.037 A 
ATOM     58  C   UNL A   1      43.215  29.287  35.003  1.00  0.00     0.037 A 
ATOM     59  C   UNL A   1      38.080  32.796  33.010  1.00  0.00     0.049 A 
ATOM     60  C   UNL A   1      42.391  30.366  35.649  1.00  0.00     0.074 A 
ATOM     61  C   UNL A   1      37.358  33.731  33.732  1.00  0.00     0.029 A 
ATOM     62  N   UNL A   1      39.098  32.350  33.842  1.00  0.00    -0.354 N 
ATOM     63  N   UNL A   1      41.355  31.010  35.169  1.00  0.00    -0.248 NA
ATOM     64  C   UNL A   1      42.781  30.778  37.005  1.00  0.00     0.031 C 
ATOM     65  C   UNL A   1      37.960  33.875  34.987  1.00  0.00     0.029 A 
ATOM     66  C   UNL A   1      39.033  33.002  35.061  1.00  0.00     0.049 A 
ATOM     67  H   UNL A   1      39.767  31.669  33.600  1.00  0.00     0.167 HD
ATOM     68  C   UNL A   1      40.957  31.890  36.168  1.00  0.00     0.074 A 
ATOM     69  C   UNL A   1      41.859  31.689  37.285  1.00  0.00     0.031 C 
ATOM     70  C   UNL A   1      39.938  32.784  36.164  1.00  0.00     0.037 A 
BRANCH  57  71
ATOM     71  C   UNL A   1      36.745  32.959  30.872  1.00  0.00     0.058 A 
ATOM     72  C   UNL A   1      35.411  32.555  31.034  1.00  0.00     0.135 A 
ATOM     73  C   UNL A   1      37.012  33.989  29.955  1.00  0.00     0.135 A 
ATOM     74  F   UNL A   1      35.105  31.562  31.884  1.00  0.00    -0.206 F 
ATOM     75  C   UNL A   1      34.382  33.134  30.298  1.00  0.00     0.059 A 
ATOM     76  C   UNL A   1      35.996  34.597  29.224  1.00  0.00     0.059 A 
ATOM     77  F   UNL A   1      38.271  34.411  29.760  1.00  0.00    -0.206 F 
ATOM     78  C   UNL A   1      34.685  34.152  29.391  1.00  0.00     0.060 A 
BRANCH  78  79
ATOM     79  S   UNL A   1      33.343  34.892  28.437  1.00  0.00     0.124 S 
ATOM     80  O   UNL A   1      32.664  35.685  29.457  1.00  0.00    -0.237 OA
ATOM     81  O   UNL A   1      34.063  35.653  27.420  1.00  0.00    -0.237 OA
ATOM     82  O   UNL A   1      32.601  33.737  27.942  1.00  0.00    -0.744 OA
ENDBRANCH  78  79
ENDBRANCH  57  71
BRANCH  58  83
ATOM     83  C   UNL A   1      44.367  28.676  35.716  1.00  0.00     0.058 A 
ATOM     84  C   UNL A   1      44.189  27.574  36.562  1.00  0.00     0.135 A 
ATOM     85  C   UNL A   1      45.669  29.174  35.552  1.00  0.00     0.135 A 
ATOM     86  F   UNL A   1      42.959  27.069  36.757  1.00  0.00    -0.206 F 
ATOM     87  C   UNL A   1      45.259  26.987  37.228  1.00  0.00     0.059 A 
ATOM     88  C   UNL A   1      46.759  28.592  36.190  1.00  0.00     0.059 A 
ATOM     89  F   UNL A   1      45.892  30.222  34.743  1.00  0.00    -0.206 F 
ATOM     90  C   UNL A   1      46.542  27.502  37.034  1.00  0.00     0.060 A 
BRANCH  90  91
ATOM     91  S   UNL A   1      47.936  26.701  37.858  1.00  0.00     0.124 S 
ATOM     92  O   UNL A   1      47.955  25.400  37.200  1.00  0.00    -0.237 OA
ATOM     93  O   UNL A   1      49.042  27.597  37.536  1.00  0.00    -0.237 OA
ATOM     94  O   UNL A   1      47.534  26.695  39.262  1.00  0.00    -0.744 OA
ENDBRANCH  90  91
ENDBRANCH  58  83
BRANCH  70  95
ATOM     95  C   UNL A   1      39.725  33.591  37.412  1.00  0.00     0.058 A 
ATOM     96  C   UNL A   1      40.416  34.790  37.638  1.00  0.00     0.135 A 
ATOM     97  C   UNL A   1      38.783  33.182  38.370  1.00  0.00     0.135 A 
ATOM     98  F   UNL A   1      41.331  35.220  36.754  1.00  0.00    -0.206 F 
ATOM     99  C   UNL A   1      40.196  35.550  38.783  1.00  0.00     0.059 A 
ATOM    100  C   UNL A   1      38.532  33.935  39.512  1.00  0.00     0.059 A 
ATOM    101  F   UNL A   1      38.091  32.046  38.195  1.00  0.00    -0.206 F 
ATOM    102  C   UNL A   1      39.251  35.113  39.715  1.00  0.00     0.060 A 
BRANCH 102 103
ATOM    103  S   UNL A   1      38.947  36.120  41.182  1.00  0.00     0.124 S 
ATOM    104  O   UNL A   1      38.664  37.423  40.590  1.00  0.00    -0.237 OA
ATOM    105  O   UNL A   1      37.809  35.443  41.799  1.00  0.00    -0.237 OA
ATOM    106  O   UNL A   1      40.200  36.025  41.924  1.00  0.00    -0.744 OA
ENDBRANCH 102 103
ENDBRANCH  70  95
ENDBRANCH  44  45
ENDBRANCH  37  39
ENDBRANCH  36  37
ENDBRANCH  35  36
ENDBRANCH  34  35
ENDBRANCH   1  34
TORSDOF 21
ENDMDL
