MODEL 1
REMARK VINA RESULT:     -11.5      0.000      0.000
REMARK SMILES Cc1ccc(NC(=O)C[C@H]([NH2+]Cc2cccnc2)C(=O)OCCOC(=O)c2ccc(-c3c4nc(c(-c5c(F)cc(S(=O)(=O)[O-])cc5F)c5ccc([nH]5)c(-c5c(F)cc(S(=O)(=O)[O-])cc5F)c5nc(c(-c6c(F)cc(S(=O)(=O)[O-])cc6F)c6ccc3[nH]6)C=C5)C=C4)cc2)cc1Cl
REMARK SMILES IDX 22 1 21 2 19 3 20 4 10 5 9 6 7 7 6 8 8 10 5 11 1 12 2 13
REMARK SMILES IDX 3 14 94 15 4 16 93 17 95 18 11 19 12 22 13 23 14 24 18 25
REMARK SMILES IDX 15 26 17 27 16 28 23 29 24 30 25 31 26 32 27 33 28 34 92 35
REMARK SMILES IDX 29 36 91 37 30 38 31 39 32 40 85 41 33 42 90 43 84 44 86 45
REMARK SMILES IDX 34 46 89 47 83 48 82 49 35 51 69 52 48 53 68 54 49 55 52 56
REMARK SMILES IDX 67 57 87 58 50 59 51 60 66 62 88 63 53 64 36 65 37 66 46 67
REMARK SMILES IDX 38 68 39 69 45 70 47 71 40 72 41 73 42 74 43 75 44 76 70 77
REMARK SMILES IDX 71 78 80 79 72 80 73 81 79 82 81 83 74 84 75 85 76 86 77 87
REMARK SMILES IDX 78 88 54 89 55 90 64 91 56 92 57 93 63 94 65 95 58 96 59 97
REMARK SMILES IDX 60 98 61 99 62 100
REMARK H PARENT 6 9 11 20 11 21 86 50 52 61
REMARK Flexibility Score: inf
ROOT
ATOM      1  C   UNL A   1      32.622  29.075  25.652  1.00  0.00     0.274 C 
ENDROOT
BRANCH   1   2
ATOM      2  O   UNL A   1      32.893  29.567  24.323  1.00  0.00    -0.458 OA
BRANCH   2   3
ATOM      3  C   UNL A   1      33.345  28.682  23.395  1.00  0.00     0.365 C 
ATOM      4  O   UNL A   1      34.398  28.812  22.780  1.00  0.00    -0.245 OA
BRANCH   3   5
ATOM      5  C   UNL A   1      32.386  27.496  23.159  1.00  0.00     0.303 C 
BRANCH   5   6
ATOM      6  C   UNL A   1      33.173  26.280  22.709  1.00  0.00     0.177 C 
BRANCH   6   7
ATOM      7  C   UNL A   1      32.701  25.249  21.696  1.00  0.00     0.231 C 
ATOM      8  N   UNL A   1      32.748  23.899  21.737  1.00  0.00    -0.326 N 
ATOM      9  H   UNL A   1      32.775  23.550  20.817  1.00  0.00     0.169 HD
ATOM     10  O   UNL A   1      32.425  25.692  20.563  1.00  0.00    -0.274 OA
BRANCH   8  11
ATOM     11  C   UNL A   1      32.772  22.817  22.638  1.00  0.00     0.042 A 
ATOM     12  C   UNL A   1      33.236  19.715  25.662  1.00  0.00     0.046 C 
ATOM     13  C   UNL A   1      33.084  20.778  24.614  1.00  0.00    -0.032 A 
ATOM     14  C   UNL A   1      33.529  22.079  24.851  1.00  0.00     0.007 A 
ATOM     15  C   UNL A   1      32.489  20.509  23.380  1.00  0.00     0.046 A 
ATOM     16  C   UNL A   1      33.371  23.077  23.879  1.00  0.00     0.026 A 
ATOM     17  C   UNL A   1      32.380  21.511  22.398  1.00  0.00     0.047 A 
ATOM     18  Cl  UNL A   1      31.877  18.923  23.050  1.00  0.00    -0.084 Cl
ENDBRANCH   8  11
ENDBRANCH   6   7
ENDBRANCH   5   6
BRANCH   5  19
ATOM     19  N   UNL A   1      31.220  27.801  22.321  1.00  0.00    -0.330 N 
ATOM     20  H   UNL A   1      31.314  27.269  21.455  1.00  0.00     0.347 HD
ATOM     21  H   UNL A   1      31.235  28.814  22.203  1.00  0.00     0.347 HD
BRANCH  19  22
ATOM     22  C   UNL A   1      29.909  27.502  22.881  1.00  0.00     0.299 C 
BRANCH  22  23
ATOM     23  C   UNL A   1      29.123  28.767  23.115  1.00  0.00     0.024 A 
ATOM     24  C   UNL A   1      29.750  29.982  23.400  1.00  0.00     0.013 A 
ATOM     25  C   UNL A   1      27.733  28.784  23.003  1.00  0.00     0.120 A 
ATOM     26  C   UNL A   1      28.984  31.134  23.565  1.00  0.00     0.021 A 
ATOM     27  N   UNL A   1      26.958  29.884  23.170  1.00  0.00    -0.264 NA
ATOM     28  C   UNL A   1      27.608  31.035  23.440  1.00  0.00     0.111 A 
ENDBRANCH  22  23
ENDBRANCH  19  22
ENDBRANCH   5  19
ENDBRANCH   3   5
ENDBRANCH   2   3
ENDBRANCH   1   2
BRANCH   1  29
ATOM     29  C   UNL A   1      33.894  28.640  26.393  1.00  0.00     0.275 C 
BRANCH  29  30
ATOM     30  O   UNL A   1      33.924  29.131  27.745  1.00  0.00    -0.458 OA
BRANCH  30  31
ATOM     31  C   UNL A   1      34.660  30.252  27.903  1.00  0.00     0.338 C 
ATOM     32  O   UNL A   1      34.258  31.400  27.890  1.00  0.00    -0.246 OA
BRANCH  31  33
ATOM     33  C   UNL A   1      36.033  29.954  28.294  1.00  0.00     0.060 A 
ATOM     34  C   UNL A   1      37.003  30.062  27.290  1.00  0.00     0.016 A 
ATOM     35  C   UNL A   1      36.350  29.487  29.567  1.00  0.00     0.016 A 
ATOM     36  C   UNL A   1      38.313  29.716  27.556  1.00  0.00     0.010 A 
ATOM     37  C   UNL A   1      37.672  29.141  29.835  1.00  0.00     0.010 A 
ATOM     38  C   UNL A   1      38.650  29.260  28.831  1.00  0.00    -0.014 A 
BRANCH  38  39
ATOM     39  C   UNL A   1      40.051  28.924  29.121  1.00  0.00     0.031 A 
ATOM     40  C   UNL A   1      40.973  29.983  29.626  1.00  0.00     0.074 A 
ATOM     41  C   UNL A   1      40.462  27.666  28.895  1.00  0.00     0.049 A 
ATOM     42  N   UNL A   1      42.265  29.932  29.794  1.00  0.00    -0.248 NA
ATOM     43  C   UNL A   1      40.360  31.271  29.987  1.00  0.00     0.031 C 
ATOM     44  C   UNL A   1      39.601  26.568  28.447  1.00  0.00     0.029 A 
ATOM     45  N   UNL A   1      41.706  27.105  28.981  1.00  0.00    -0.354 N 
ATOM     46  C   UNL A   1      42.631  31.191  30.247  1.00  0.00     0.074 A 
ATOM     47  C   UNL A   1      41.424  31.983  30.333  1.00  0.00     0.031 C 
ATOM     48  C   UNL A   1      40.352  25.474  28.260  1.00  0.00     0.029 A 
ATOM     49  C   UNL A   1      41.746  25.811  28.524  1.00  0.00     0.049 A 
ATOM     50  H   UNL A   1      42.493  27.581  29.334  1.00  0.00     0.167 HD
ATOM     51  C   UNL A   1      43.874  31.636  30.546  1.00  0.00     0.037 A 
ATOM     52  C   UNL A   1      42.802  25.010  28.290  1.00  0.00     0.037 A 
ATOM     53  C   UNL A   1      45.053  30.815  30.441  1.00  0.00     0.049 A 
ATOM     54  C   UNL A   1      44.175  25.536  28.588  1.00  0.00     0.074 A 
ATOM     55  C   UNL A   1      46.362  31.144  30.737  1.00  0.00     0.029 A 
ATOM     56  N   UNL A   1      45.059  29.500  29.991  1.00  0.00    -0.354 N 
ATOM     57  N   UNL A   1      44.519  26.724  29.029  1.00  0.00    -0.248 NA
ATOM     58  C   UNL A   1      45.302  24.625  28.360  1.00  0.00     0.031 C 
ATOM     59  C   UNL A   1      47.166  30.042  30.424  1.00  0.00     0.029 A 
ATOM     60  C   UNL A   1      46.353  29.009  29.977  1.00  0.00     0.049 A 
ATOM     61  H   UNL A   1      44.261  28.992  29.722  1.00  0.00     0.167 HD
ATOM     62  C   UNL A   1      45.902  26.700  29.149  1.00  0.00     0.074 A 
ATOM     63  C   UNL A   1      46.329  25.376  28.737  1.00  0.00     0.031 C 
ATOM     64  C   UNL A   1      46.741  27.681  29.565  1.00  0.00     0.037 A 
BRANCH  51  65
ATOM     65  C   UNL A   1      44.014  33.077  30.946  1.00  0.00     0.058 A 
ATOM     66  C   UNL A   1      43.842  33.503  32.273  1.00  0.00     0.135 A 
ATOM     67  C   UNL A   1      44.304  34.052  29.978  1.00  0.00     0.135 A 
ATOM     68  F   UNL A   1      43.545  32.615  33.235  1.00  0.00    -0.206 F 
ATOM     69  C   UNL A   1      43.915  34.849  32.619  1.00  0.00     0.059 A 
ATOM     70  C   UNL A   1      44.405  35.400  30.306  1.00  0.00     0.059 A 
ATOM     71  F   UNL A   1      44.472  33.701  28.694  1.00  0.00    -0.206 F 
ATOM     72  C   UNL A   1      44.186  35.792  31.626  1.00  0.00     0.060 A 
BRANCH  72  73
ATOM     73  S   UNL A   1      44.238  37.539  32.079  1.00  0.00     0.124 S 
ATOM     74  O   UNL A   1      45.660  37.726  32.350  1.00  0.00    -0.237 OA
ATOM     75  O   UNL A   1      43.733  38.191  30.875  1.00  0.00    -0.237 OA
ATOM     76  O   UNL A   1      43.361  37.614  33.243  1.00  0.00    -0.744 OA
ENDBRANCH  72  73
ENDBRANCH  51  65
BRANCH  52  77
ATOM     77  C   UNL A   1      42.570  23.663  27.713  1.00  0.00     0.058 A 
ATOM     78  C   UNL A   1      42.565  23.459  26.328  1.00  0.00     0.135 A 
ATOM     79  C   UNL A   1      42.447  22.536  28.544  1.00  0.00     0.135 A 
ATOM     80  F   UNL A   1      42.678  24.504  25.495  1.00  0.00    -0.206 F 
ATOM     81  C   UNL A   1      42.458  22.183  25.783  1.00  0.00     0.059 A 
ATOM     82  C   UNL A   1      42.360  21.250  28.024  1.00  0.00     0.059 A 
ATOM     83  F   UNL A   1      42.467  22.680  29.879  1.00  0.00    -0.206 F 
ATOM     84  C   UNL A   1      42.366  21.083  26.640  1.00  0.00     0.060 A 
BRANCH  84  85
ATOM     85  S   UNL A   1      42.323  19.425  25.923  1.00  0.00     0.124 S 
ATOM     86  O   UNL A   1      42.804  18.613  27.035  1.00  0.00    -0.237 OA
ATOM     87  O   UNL A   1      40.911  19.273  25.586  1.00  0.00    -0.237 OA
ATOM     88  O   UNL A   1      43.224  19.531  24.780  1.00  0.00    -0.744 OA
ENDBRANCH  84  85
ENDBRANCH  52  77
BRANCH  64  89
ATOM     89  C   UNL A   1      48.203  27.352  29.626  1.00  0.00     0.058 A 
ATOM     90  C   UNL A   1      49.058  27.606  28.544  1.00  0.00     0.135 A 
ATOM     91  C   UNL A   1      48.767  26.865  30.816  1.00  0.00     0.135 A 
ATOM     92  F   UNL A   1      48.562  28.061  27.383  1.00  0.00    -0.206 F 
ATOM     93  C   UNL A   1      50.427  27.390  28.641  1.00  0.00     0.059 A 
ATOM     94  C   UNL A   1      50.137  26.663  30.942  1.00  0.00     0.059 A 
ATOM     95  F   UNL A   1      47.988  26.612  31.880  1.00  0.00    -0.206 F 
ATOM     96  C   UNL A   1      50.959  26.927  29.847  1.00  0.00     0.060 A 
BRANCH  96  97
ATOM     97  S   UNL A   1      52.747  26.725  29.986  1.00  0.00     0.124 S 
ATOM     98  O   UNL A   1      52.849  25.766  31.080  1.00  0.00    -0.237 OA
ATOM     99  O   UNL A   1      53.109  26.222  28.664  1.00  0.00    -0.237 OA
ATOM    100  O   UNL A   1      53.217  28.074  30.286  1.00  0.00    -0.744 OA
ENDBRANCH  96  97
ENDBRANCH  64  89
ENDBRANCH  38  39
ENDBRANCH  31  33
ENDBRANCH  30  31
ENDBRANCH  29  30
ENDBRANCH   1  29
TORSDOF 20
ENDMDL
MODEL 2
REMARK VINA RESULT:     -11.4      3.771      9.994
REMARK SMILES Cc1ccc(NC(=O)C[C@H]([NH2+]Cc2cccnc2)C(=O)OCCOC(=O)c2ccc(-c3c4nc(c(-c5c(F)cc(S(=O)(=O)[O-])cc5F)c5ccc([nH]5)c(-c5c(F)cc(S(=O)(=O)[O-])cc5F)c5nc(c(-c6c(F)cc(S(=O)(=O)[O-])cc6F)c6ccc3[nH]6)C=C5)C=C4)cc2)cc1Cl
REMARK SMILES IDX 22 1 21 2 19 3 20 4 10 5 9 6 7 7 6 8 8 10 5 11 1 12 2 13
REMARK SMILES IDX 3 14 94 15 4 16 93 17 95 18 11 19 12 22 13 23 14 24 18 25
REMARK SMILES IDX 15 26 17 27 16 28 23 29 24 30 25 31 26 32 27 33 28 34 92 35
REMARK SMILES IDX 29 36 91 37 30 38 31 39 32 40 85 41 33 42 90 43 84 44 86 45
REMARK SMILES IDX 34 46 89 47 83 48 82 49 35 51 69 52 48 53 68 54 49 55 52 56
REMARK SMILES IDX 67 57 87 58 50 59 51 60 66 62 88 63 53 64 36 65 37 66 46 67
REMARK SMILES IDX 38 68 39 69 45 70 47 71 40 72 41 73 42 74 43 75 44 76 70 77
REMARK SMILES IDX 71 78 80 79 72 80 73 81 79 82 81 83 74 84 75 85 76 86 77 87
REMARK SMILES IDX 78 88 54 89 55 90 64 91 56 92 57 93 63 94 65 95 58 96 59 97
REMARK SMILES IDX 60 98 61 99 62 100
REMARK H PARENT 6 9 11 20 11 21 86 50 52 61
REMARK Flexibility Score: inf
ROOT
ATOM      1  C   UNL A   1      36.182  22.916  23.535  1.00  0.00     0.274 C 
ENDROOT
BRANCH   1   2
ATOM      2  O   UNL A   1      34.861  22.360  23.709  1.00  0.00    -0.458 OA
BRANCH   2   3
ATOM      3  C   UNL A   1      33.842  22.901  22.991  1.00  0.00     0.365 C 
ATOM      4  O   UNL A   1      33.936  23.935  22.338  1.00  0.00    -0.245 OA
BRANCH   3   5
ATOM      5  C   UNL A   1      32.525  22.102  23.096  1.00  0.00     0.303 C 
BRANCH   5   6
ATOM      6  C   UNL A   1      31.420  23.001  23.618  1.00  0.00     0.177 C 
BRANCH   6   7
ATOM      7  C   UNL A   1      31.076  23.216  25.083  1.00  0.00     0.231 C 
ATOM      8  N   UNL A   1      31.315  24.275  25.890  1.00  0.00    -0.326 N 
ATOM      9  H   UNL A   1      31.370  23.962  26.822  1.00  0.00     0.169 HD
ATOM     10  O   UNL A   1      30.717  22.199  25.709  1.00  0.00    -0.274 OA
BRANCH   8  11
ATOM     11  C   UNL A   1      31.510  25.668  25.860  1.00  0.00     0.042 A 
ATOM     12  C   UNL A   1      31.919  29.969  25.291  1.00  0.00     0.046 C 
ATOM     13  C   UNL A   1      31.788  28.486  25.482  1.00  0.00    -0.032 A 
ATOM     14  C   UNL A   1      30.868  27.751  24.735  1.00  0.00     0.007 A 
ATOM     15  C   UNL A   1      32.568  27.798  26.413  1.00  0.00     0.046 A 
ATOM     16  C   UNL A   1      30.733  26.368  24.926  1.00  0.00     0.026 A 
ATOM     17  C   UNL A   1      32.453  26.403  26.560  1.00  0.00     0.047 A 
ATOM     18  Cl  UNL A   1      33.693  28.667  27.401  1.00  0.00    -0.084 Cl
ENDBRANCH   8  11
ENDBRANCH   6   7
ENDBRANCH   5   6
BRANCH   5  19
ATOM     19  N   UNL A   1      32.636  20.817  23.796  1.00  0.00    -0.330 N 
ATOM     20  H   UNL A   1      32.117  20.896  24.671  1.00  0.00     0.347 HD
ATOM     21  H   UNL A   1      33.637  20.659  23.905  1.00  0.00     0.347 HD
BRANCH  19  22
ATOM     22  C   UNL A   1      32.138  19.640  23.095  1.00  0.00     0.299 C 
BRANCH  22  23
ATOM     23  C   UNL A   1      32.676  18.377  23.716  1.00  0.00     0.024 A 
ATOM     24  C   UNL A   1      33.485  17.491  23.002  1.00  0.00     0.013 A 
ATOM     25  C   UNL A   1      32.428  18.068  25.054  1.00  0.00     0.120 A 
ATOM     26  C   UNL A   1      33.996  16.358  23.632  1.00  0.00     0.021 A 
ATOM     27  N   UNL A   1      32.898  16.968  25.692  1.00  0.00    -0.264 NA
ATOM     28  C   UNL A   1      33.678  16.144  24.963  1.00  0.00     0.111 A 
ENDBRANCH  22  23
ENDBRANCH  19  22
ENDBRANCH   5  19
ENDBRANCH   3   5
ENDBRANCH   2   3
ENDBRANCH   1   2
BRANCH   1  29
ATOM     29  C   UNL A   1      37.178  22.418  24.592  1.00  0.00     0.275 C 
BRANCH  29  30
ATOM     30  O   UNL A   1      37.682  23.492  25.406  1.00  0.00    -0.458 OA
BRANCH  30  31
ATOM     31  C   UNL A   1      38.854  23.213  26.014  1.00  0.00     0.338 C 
ATOM     32  O   UNL A   1      39.528  22.209  25.881  1.00  0.00    -0.246 OA
BRANCH  31  33
ATOM     33  C   UNL A   1      39.372  24.359  26.752  1.00  0.00     0.060 A 
ATOM     34  C   UNL A   1      38.874  24.540  28.048  1.00  0.00     0.016 A 
ATOM     35  C   UNL A   1      40.236  25.282  26.168  1.00  0.00     0.016 A 
ATOM     36  C   UNL A   1      39.249  25.647  28.784  1.00  0.00     0.010 A 
ATOM     37  C   UNL A   1      40.615  26.396  26.910  1.00  0.00     0.010 A 
ATOM     38  C   UNL A   1      40.124  26.574  28.217  1.00  0.00    -0.014 A 
BRANCH  38  39
ATOM     39  C   UNL A   1      40.549  27.734  29.014  1.00  0.00     0.031 A 
ATOM     40  C   UNL A   1      41.811  27.663  29.805  1.00  0.00     0.074 A 
ATOM     41  C   UNL A   1      39.761  28.822  29.020  1.00  0.00     0.049 A 
ATOM     42  N   UNL A   1      42.277  28.507  30.683  1.00  0.00    -0.248 NA
ATOM     43  C   UNL A   1      42.661  26.483  29.581  1.00  0.00     0.031 C 
ATOM     44  C   UNL A   1      38.537  28.978  28.231  1.00  0.00     0.029 A 
ATOM     45  N   UNL A   1      39.854  29.986  29.731  1.00  0.00    -0.354 N 
ATOM     46  C   UNL A   1      43.459  27.948  31.147  1.00  0.00     0.074 A 
ATOM     47  C   UNL A   1      43.642  26.693  30.449  1.00  0.00     0.031 C 
ATOM     48  C   UNL A   1      37.970  30.155  28.532  1.00  0.00     0.029 A 
ATOM     49  C   UNL A   1      38.764  30.805  29.568  1.00  0.00     0.049 A 
ATOM     50  H   UNL A   1      40.624  30.213  30.302  1.00  0.00     0.167 HD
ATOM     51  C   UNL A   1      44.298  28.443  32.085  1.00  0.00     0.037 A 
ATOM     52  C   UNL A   1      38.420  31.926  30.228  1.00  0.00     0.037 A 
ATOM     53  C   UNL A   1      44.076  29.695  32.762  1.00  0.00     0.049 A 
ATOM     54  C   UNL A   1      39.343  32.437  31.295  1.00  0.00     0.074 A 
ATOM     55  C   UNL A   1      44.865  30.313  33.714  1.00  0.00     0.029 A 
ATOM     56  N   UNL A   1      42.970  30.512  32.562  1.00  0.00    -0.354 N 
ATOM     57  N   UNL A   1      40.468  31.913  31.724  1.00  0.00    -0.248 NA
ATOM     58  C   UNL A   1      38.960  33.683  31.968  1.00  0.00     0.031 C 
ATOM     59  C   UNL A   1      44.214  31.483  34.121  1.00  0.00     0.029 A 
ATOM     60  C   UNL A   1      43.041  31.619  33.390  1.00  0.00     0.049 A 
ATOM     61  H   UNL A   1      42.242  30.331  31.925  1.00  0.00     0.167 HD
ATOM     62  C   UNL A   1      40.939  32.774  32.706  1.00  0.00     0.074 A 
ATOM     63  C   UNL A   1      39.976  33.855  32.804  1.00  0.00     0.031 C 
ATOM     64  C   UNL A   1      42.065  32.680  33.456  1.00  0.00     0.037 A 
BRANCH  51  65
ATOM     65  C   UNL A   1      45.482  27.600  32.467  1.00  0.00     0.058 A 
ATOM     66  C   UNL A   1      45.414  26.637  33.487  1.00  0.00     0.135 A 
ATOM     67  C   UNL A   1      46.712  27.775  31.813  1.00  0.00     0.135 A 
ATOM     68  F   UNL A   1      44.268  26.442  34.158  1.00  0.00    -0.206 F 
ATOM     69  C   UNL A   1      46.534  25.905  33.870  1.00  0.00     0.059 A 
ATOM     70  C   UNL A   1      47.838  27.037  32.164  1.00  0.00     0.059 A 
ATOM     71  F   UNL A   1      46.834  28.684  30.834  1.00  0.00    -0.206 F 
ATOM     72  C   UNL A   1      47.744  26.120  33.210  1.00  0.00     0.060 A 
BRANCH  72  73
ATOM     73  S   UNL A   1      49.200  25.195  33.744  1.00  0.00     0.124 S 
ATOM     74  O   UNL A   1      49.879  24.964  32.472  1.00  0.00    -0.237 OA
ATOM     75  O   UNL A   1      49.855  26.133  34.649  1.00  0.00    -0.237 OA
ATOM     76  O   UNL A   1      48.634  24.008  34.378  1.00  0.00    -0.744 OA
ENDBRANCH  72  73
ENDBRANCH  51  65
BRANCH  52  77
ATOM     77  C   UNL A   1      37.131  32.586  29.905  1.00  0.00     0.058 A 
ATOM     78  C   UNL A   1      35.955  32.253  30.588  1.00  0.00     0.135 A 
ATOM     79  C   UNL A   1      37.074  33.634  28.970  1.00  0.00     0.135 A 
ATOM     80  F   UNL A   1      35.961  31.258  31.487  1.00  0.00    -0.206 F 
ATOM     81  C   UNL A   1      34.767  32.942  30.366  1.00  0.00     0.059 A 
ATOM     82  C   UNL A   1      35.904  34.352  28.747  1.00  0.00     0.059 A 
ATOM     83  F   UNL A   1      38.180  34.003  28.305  1.00  0.00    -0.206 F 
ATOM     84  C   UNL A   1      34.754  33.998  29.450  1.00  0.00     0.060 A 
BRANCH  84  85
ATOM     85  S   UNL A   1      33.231  34.947  29.241  1.00  0.00     0.124 S 
ATOM     86  O   UNL A   1      32.506  34.130  28.276  1.00  0.00    -0.237 OA
ATOM     87  O   UNL A   1      32.692  34.965  30.597  1.00  0.00    -0.237 OA
ATOM     88  O   UNL A   1      33.706  36.237  28.748  1.00  0.00    -0.744 OA
ENDBRANCH  84  85
ENDBRANCH  52  77
BRANCH  64  89
ATOM     89  C   UNL A   1      42.336  33.792  34.427  1.00  0.00     0.058 A 
ATOM     90  C   UNL A   1      41.878  33.736  35.751  1.00  0.00     0.135 A 
ATOM     91  C   UNL A   1      43.143  34.876  34.050  1.00  0.00     0.135 A 
ATOM     92  F   UNL A   1      41.094  32.723  36.154  1.00  0.00    -0.206 F 
ATOM     93  C   UNL A   1      42.215  34.721  36.672  1.00  0.00     0.059 A 
ATOM     94  C   UNL A   1      43.510  35.861  34.961  1.00  0.00     0.059 A 
ATOM     95  F   UNL A   1      43.609  34.968  32.794  1.00  0.00    -0.206 F 
ATOM     96  C   UNL A   1      43.038  35.775  36.270  1.00  0.00     0.060 A 
BRANCH  96  97
ATOM     97  S   UNL A   1      43.533  37.005  37.494  1.00  0.00     0.124 S 
ATOM     98  O   UNL A   1      44.604  36.306  38.195  1.00  0.00    -0.237 OA
ATOM     99  O   UNL A   1      43.947  38.129  36.660  1.00  0.00    -0.237 OA
ATOM    100  O   UNL A   1      42.314  37.222  38.267  1.00  0.00    -0.744 OA
ENDBRANCH  96  97
ENDBRANCH  64  89
ENDBRANCH  38  39
ENDBRANCH  31  33
ENDBRANCH  30  31
ENDBRANCH  29  30
ENDBRANCH   1  29
TORSDOF 20
ENDMDL
MODEL 3
REMARK VINA RESULT:     -11.1      5.308     11.044
REMARK SMILES Cc1ccc(NC(=O)C[C@H]([NH2+]Cc2cccnc2)C(=O)OCCOC(=O)c2ccc(-c3c4nc(c(-c5c(F)cc(S(=O)(=O)[O-])cc5F)c5ccc([nH]5)c(-c5c(F)cc(S(=O)(=O)[O-])cc5F)c5nc(c(-c6c(F)cc(S(=O)(=O)[O-])cc6F)c6ccc3[nH]6)C=C5)C=C4)cc2)cc1Cl
REMARK SMILES IDX 22 1 21 2 19 3 20 4 10 5 9 6 7 7 6 8 8 10 5 11 1 12 2 13
REMARK SMILES IDX 3 14 94 15 4 16 93 17 95 18 11 19 12 22 13 23 14 24 18 25
REMARK SMILES IDX 15 26 17 27 16 28 23 29 24 30 25 31 26 32 27 33 28 34 92 35
REMARK SMILES IDX 29 36 91 37 30 38 31 39 32 40 85 41 33 42 90 43 84 44 86 45
REMARK SMILES IDX 34 46 89 47 83 48 82 49 35 51 69 52 48 53 68 54 49 55 52 56
REMARK SMILES IDX 67 57 87 58 50 59 51 60 66 62 88 63 53 64 36 65 37 66 46 67
REMARK SMILES IDX 38 68 39 69 45 70 47 71 40 72 41 73 42 74 43 75 44 76 70 77
REMARK SMILES IDX 71 78 80 79 72 80 73 81 79 82 81 83 74 84 75 85 76 86 77 87
REMARK SMILES IDX 78 88 54 89 55 90 64 91 56 92 57 93 63 94 65 95 58 96 59 97
REMARK SMILES IDX 60 98 61 99 62 100
REMARK H PARENT 6 9 11 20 11 21 86 50 52 61
REMARK Flexibility Score: inf
ROOT
ATOM      1  C   UNL A   1      38.002  22.638  26.170  1.00  0.00     0.274 C 
ENDROOT
BRANCH   1   2
ATOM      2  O   UNL A   1      37.442  21.673  25.255  1.00  0.00    -0.458 OA
BRANCH   2   3
ATOM      3  C   UNL A   1      36.595  22.124  24.292  1.00  0.00     0.365 C 
ATOM      4  O   UNL A   1      36.950  22.783  23.321  1.00  0.00    -0.245 OA
BRANCH   3   5
ATOM      5  C   UNL A   1      35.119  21.755  24.551  1.00  0.00     0.303 C 
BRANCH   5   6
ATOM      6  C   UNL A   1      34.278  23.015  24.623  1.00  0.00     0.177 C 
BRANCH   6   7
ATOM      7  C   UNL A   1      34.043  23.848  25.872  1.00  0.00     0.231 C 
ATOM      8  N   UNL A   1      33.534  25.093  26.010  1.00  0.00    -0.326 N 
ATOM      9  H   UNL A   1      33.895  25.499  26.831  1.00  0.00     0.169 HD
ATOM     10  O   UNL A   1      34.592  23.429  26.912  1.00  0.00    -0.274 OA
BRANCH   8  11
ATOM     11  C   UNL A   1      32.666  26.010  25.388  1.00  0.00     0.042 A 
ATOM     12  C   UNL A   1      30.273  29.220  23.669  1.00  0.00     0.046 C 
ATOM     13  C   UNL A   1      31.091  28.115  24.270  1.00  0.00    -0.032 A 
ATOM     14  C   UNL A   1      32.419  28.333  24.639  1.00  0.00     0.007 A 
ATOM     15  C   UNL A   1      30.561  26.839  24.471  1.00  0.00     0.046 A 
ATOM     16  C   UNL A   1      33.189  27.295  25.185  1.00  0.00     0.026 A 
ATOM     17  C   UNL A   1      31.333  25.822  25.062  1.00  0.00     0.047 A 
ATOM     18  Cl  UNL A   1      28.933  26.500  23.988  1.00  0.00    -0.084 Cl
ENDBRANCH   8  11
ENDBRANCH   6   7
ENDBRANCH   5   6
BRANCH   5  19
ATOM     19  N   UNL A   1      34.901  20.822  25.663  1.00  0.00    -0.330 N 
ATOM     20  H   UNL A   1      35.025  21.343  26.531  1.00  0.00     0.347 HD
ATOM     21  H   UNL A   1      35.574  20.070  25.515  1.00  0.00     0.347 HD
BRANCH  19  22
ATOM     22  C   UNL A   1      33.602  20.164  25.726  1.00  0.00     0.299 C 
BRANCH  22  23
ATOM     23  C   UNL A   1      33.476  19.117  24.650  1.00  0.00     0.024 A 
ATOM     24  C   UNL A   1      32.467  19.168  23.687  1.00  0.00     0.013 A 
ATOM     25  C   UNL A   1      34.402  18.079  24.541  1.00  0.00     0.120 A 
ATOM     26  C   UNL A   1      32.417  18.203  22.683  1.00  0.00     0.021 A 
ATOM     27  N   UNL A   1      34.374  17.117  23.586  1.00  0.00    -0.264 NA
ATOM     28  C   UNL A   1      33.383  17.210  22.675  1.00  0.00     0.111 A 
ENDBRANCH  22  23
ENDBRANCH  19  22
ENDBRANCH   5  19
ENDBRANCH   3   5
ENDBRANCH   2   3
ENDBRANCH   1   2
BRANCH   1  29
ATOM     29  C   UNL A   1      39.521  22.486  26.334  1.00  0.00     0.275 C 
BRANCH  29  30
ATOM     30  O   UNL A   1      40.030  23.293  27.411  1.00  0.00    -0.458 OA
BRANCH  30  31
ATOM     31  C   UNL A   1      40.703  24.390  27.002  1.00  0.00     0.338 C 
ATOM     32  O   UNL A   1      41.227  24.566  25.919  1.00  0.00    -0.246 OA
BRANCH  31  33
ATOM     33  C   UNL A   1      40.589  25.487  27.956  1.00  0.00     0.060 A 
ATOM     34  C   UNL A   1      41.728  26.283  28.125  1.00  0.00     0.016 A 
ATOM     35  C   UNL A   1      39.448  25.673  28.732  1.00  0.00     0.016 A 
ATOM     36  C   UNL A   1      41.732  27.291  29.070  1.00  0.00     0.010 A 
ATOM     37  C   UNL A   1      39.452  26.690  29.683  1.00  0.00     0.010 A 
ATOM     38  C   UNL A   1      40.591  27.498  29.847  1.00  0.00    -0.014 A 
BRANCH  38  39
ATOM     39  C   UNL A   1      40.586  28.592  30.828  1.00  0.00     0.031 A 
ATOM     40  C   UNL A   1      41.478  28.516  32.021  1.00  0.00     0.074 A 
ATOM     41  C   UNL A   1      39.749  29.622  30.626  1.00  0.00     0.049 A 
ATOM     42  N   UNL A   1      41.512  29.291  33.070  1.00  0.00    -0.248 NA
ATOM     43  C   UNL A   1      42.460  27.421  32.039  1.00  0.00     0.031 C 
ATOM     44  C   UNL A   1      38.883  29.783  29.454  1.00  0.00     0.029 A 
ATOM     45  N   UNL A   1      39.466  30.708  31.406  1.00  0.00    -0.354 N 
ATOM     46  C   UNL A   1      42.494  28.760  33.894  1.00  0.00     0.074 A 
ATOM     47  C   UNL A   1      43.036  27.600  33.220  1.00  0.00     0.031 C 
ATOM     48  C   UNL A   1      38.136  30.885  29.612  1.00  0.00     0.029 A 
ATOM     49  C   UNL A   1      38.436  31.471  30.914  1.00  0.00     0.049 A 
ATOM     50  H   UNL A   1      39.952  30.922  32.236  1.00  0.00     0.167 HD
ATOM     51  C   UNL A   1      42.886  29.205  35.110  1.00  0.00     0.037 A 
ATOM     52  C   UNL A   1      37.770  32.493  31.482  1.00  0.00     0.037 A 
ATOM     53  C   UNL A   1      42.314  30.363  35.749  1.00  0.00     0.049 A 
ATOM     54  C   UNL A   1      38.192  32.946  32.849  1.00  0.00     0.074 A 
ATOM     55  C   UNL A   1      42.643  30.926  36.967  1.00  0.00     0.029 A 
ATOM     56  N   UNL A   1      41.282  31.127  35.217  1.00  0.00    -0.354 N 
ATOM     57  N   UNL A   1      39.131  32.450  33.623  1.00  0.00    -0.248 NA
ATOM     58  C   UNL A   1      37.474  34.088  33.425  1.00  0.00     0.031 C 
ATOM     59  C   UNL A   1      41.780  32.004  37.193  1.00  0.00     0.029 A 
ATOM     60  C   UNL A   1      40.944  32.143  36.093  1.00  0.00     0.049 A 
ATOM     61  H   UNL A   1      40.855  30.968  34.345  1.00  0.00     0.167 HD
ATOM     62  C   UNL A   1      39.130  33.231  34.771  1.00  0.00     0.074 A 
ATOM     63  C   UNL A   1      38.098  34.234  34.587  1.00  0.00     0.031 C 
ATOM     64  C   UNL A   1      39.912  33.129  35.874  1.00  0.00     0.037 A 
BRANCH  51  65
ATOM     65  C   UNL A   1      43.926  28.401  35.837  1.00  0.00     0.058 A 
ATOM     66  C   UNL A   1      45.300  28.632  35.668  1.00  0.00     0.135 A 
ATOM     67  C   UNL A   1      43.538  27.366  36.704  1.00  0.00     0.135 A 
ATOM     68  F   UNL A   1      45.727  29.596  34.836  1.00  0.00    -0.206 F 
ATOM     69  C   UNL A   1      46.253  27.840  36.301  1.00  0.00     0.059 A 
ATOM     70  C   UNL A   1      44.473  26.578  37.366  1.00  0.00     0.059 A 
ATOM     71  F   UNL A   1      42.237  27.099  36.898  1.00  0.00    -0.206 F 
ATOM     72  C   UNL A   1      45.829  26.808  37.140  1.00  0.00     0.060 A 
BRANCH  72  73
ATOM     73  S   UNL A   1      47.074  25.761  37.925  1.00  0.00     0.124 S 
ATOM     74  O   UNL A   1      47.291  26.464  39.185  1.00  0.00    -0.237 OA
ATOM     75  O   UNL A   1      46.388  24.477  38.026  1.00  0.00    -0.237 OA
ATOM     76  O   UNL A   1      48.191  25.798  36.985  1.00  0.00    -0.744 OA
ENDBRANCH  72  73
ENDBRANCH  51  65
BRANCH  52  77
ATOM     77  C   UNL A   1      36.628  33.102  30.757  1.00  0.00     0.058 A 
ATOM     78  C   UNL A   1      35.309  32.887  31.172  1.00  0.00     0.135 A 
ATOM     79  C   UNL A   1      36.846  33.991  29.690  1.00  0.00     0.135 A 
ATOM     80  F   UNL A   1      35.052  32.046  32.184  1.00  0.00    -0.206 F 
ATOM     81  C   UNL A   1      34.242  33.541  30.564  1.00  0.00     0.059 A 
ATOM     82  C   UNL A   1      35.797  34.673  29.082  1.00  0.00     0.059 A 
ATOM     83  F   UNL A   1      38.095  34.245  29.270  1.00  0.00    -0.206 F 
ATOM     84  C   UNL A   1      34.497  34.440  29.526  1.00  0.00     0.060 A 
BRANCH  84  85
ATOM     85  S   UNL A   1      33.114  35.355  28.808  1.00  0.00     0.124 S 
ATOM     86  O   UNL A   1      32.454  34.320  28.022  1.00  0.00    -0.237 OA
ATOM     87  O   UNL A   1      32.397  35.808  29.996  1.00  0.00    -0.237 OA
ATOM     88  O   UNL A   1      33.770  36.410  28.043  1.00  0.00    -0.744 OA
ENDBRANCH  84  85
ENDBRANCH  52  77
BRANCH  64  89
ATOM     89  C   UNL A   1      39.706  34.147  36.957  1.00  0.00     0.058 A 
ATOM     90  C   UNL A   1      38.903  33.876  38.074  1.00  0.00     0.135 A 
ATOM     91  C   UNL A   1      40.396  35.368  36.917  1.00  0.00     0.135 A 
ATOM     92  F   UNL A   1      38.216  32.726  38.151  1.00  0.00    -0.206 F 
ATOM     93  C   UNL A   1      38.795  34.784  39.120  1.00  0.00     0.059 A 
ATOM     94  C   UNL A   1      40.318  36.282  37.962  1.00  0.00     0.059 A 
ATOM     95  F   UNL A   1      41.180  35.669  35.869  1.00  0.00    -0.206 F 
ATOM     96  C   UNL A   1      39.513  35.981  39.059  1.00  0.00     0.060 A 
BRANCH  96  97
ATOM     97  S   UNL A   1      39.425  37.117  40.459  1.00  0.00     0.124 S 
ATOM     98  O   UNL A   1      38.677  36.327  41.431  1.00  0.00    -0.237 OA
ATOM     99  O   UNL A   1      40.834  37.339  40.771  1.00  0.00    -0.237 OA
ATOM    100  O   UNL A   1      38.721  38.273  39.913  1.00  0.00    -0.744 OA
ENDBRANCH  96  97
ENDBRANCH  64  89
ENDBRANCH  38  39
ENDBRANCH  31  33
ENDBRANCH  30  31
ENDBRANCH  29  30
ENDBRANCH   1  29
TORSDOF 20
ENDMDL
