MODEL 1
REMARK VINA RESULT:     -14.1      0.000      0.000
REMARK SMILES Cc1ccc(-c2cc(C(=O)OCCOC(=O)c3ccc(-c4c5nc(c(-c6c(F)cc(S(=O)(=O)[O-])cc6F)c6ccc([nH]6)c(-c6c(F)cc(S(=O)(=O)[O-])cc6F)c6nc(c(-c7c(F)cc(S(=O)(=O)[O-])cc7F)c7ccc4[nH]7)C=C6)C=C5)cc3)c3c(-c4cccc([N+](=O)[O-])c4)[nH]nc3n2)cc1
REMARK SMILES IDX 13 1 12 2 11 3 9 4 10 5 8 6 6 7 7 8 97 9 96 10 83 11 95 12
REMARK SMILES IDX 84 13 94 14 5 16 1 17 2 18 3 19 99 20 4 21 98 22 85 23 86 24
REMARK SMILES IDX 93 25 87 26 89 27 88 28 90 29 91 30 92 31 14 32 15 33 16 34
REMARK SMILES IDX 17 35 18 36 82 37 19 38 81 39 20 40 21 41 22 42 75 43 23 44
REMARK SMILES IDX 80 45 74 46 76 47 24 48 79 49 73 50 72 51 25 53 59 54 38 55
REMARK SMILES IDX 58 56 39 57 42 58 57 59 77 60 40 61 41 62 56 64 78 65 43 66
REMARK SMILES IDX 26 67 27 68 36 69 28 70 29 71 35 72 37 73 30 74 31 75 32 76
REMARK SMILES IDX 33 77 34 78 60 79 61 80 70 81 62 82 63 83 69 84 71 85 64 86
REMARK SMILES IDX 65 87 66 88 67 89 68 90 44 91 45 92 54 93 46 94 47 95 53 96
REMARK SMILES IDX 55 97 48 98 49 99 50 100 51 101 52 102
REMARK H PARENT 94 15 76 52 42 63
REMARK Flexibility Score: inf
ROOT
ATOM      1  C   UNL A   1      38.314  22.912  26.105  1.00  0.00     0.275 C 
ENDROOT
BRANCH   1   2
ATOM      2  C   UNL A   1      37.213  22.704  25.031  1.00  0.00     0.275 C 
BRANCH   2   3
ATOM      3  O   UNL A   1      36.500  23.930  24.726  1.00  0.00    -0.458 OA
BRANCH   3   4
ATOM      4  C   UNL A   1      35.190  23.832  24.316  1.00  0.00     0.339 C 
ATOM      5  O   UNL A   1      34.736  24.374  23.318  1.00  0.00    -0.246 OA
BRANCH   4   6
ATOM      6  C   UNL A   1      34.316  23.322  25.431  1.00  0.00     0.075 A 
ATOM      7  C   UNL A   1      32.932  25.180  26.256  1.00  0.00     0.074 A 
ATOM      8  C   UNL A   1      34.173  24.535  26.156  1.00  0.00     0.045 A 
ATOM      9  N   UNL A   1      31.732  24.603  26.111  1.00  0.00    -0.226 NA
ATOM     10  C   UNL A   1      31.808  23.301  25.768  1.00  0.00     0.182 A 
ATOM     11  C   UNL A   1      33.042  22.609  25.360  1.00  0.00     0.061 A 
ATOM     12  N   UNL A   1      30.743  22.518  25.794  1.00  0.00    -0.154 NA
ATOM     13  C   UNL A   1      32.567  21.289  25.075  1.00  0.00     0.076 A 
ATOM     14  N   UNL A   1      31.244  21.339  25.500  1.00  0.00    -0.275 N 
ATOM     15  H   UNL A   1      30.701  20.521  25.578  1.00  0.00     0.190 HD
BRANCH   7  16
ATOM     16  C   UNL A   1      32.931  26.640  26.333  1.00  0.00     0.000 A 
ATOM     17  C   UNL A   1      33.209  30.832  27.271  1.00  0.00     0.044 C 
ATOM     18  C   UNL A   1      33.103  29.392  26.872  1.00  0.00    -0.051 A 
ATOM     19  C   UNL A   1      31.943  28.674  27.187  1.00  0.00     0.004 A 
ATOM     20  C   UNL A   1      34.161  28.741  26.229  1.00  0.00     0.004 A 
ATOM     21  C   UNL A   1      31.856  27.310  26.915  1.00  0.00     0.010 A 
ATOM     22  C   UNL A   1      34.075  27.374  25.960  1.00  0.00     0.010 A 
ENDBRANCH   7  16
BRANCH  13  23
ATOM     23  C   UNL A   1      32.831  19.905  24.536  1.00  0.00     0.007 A 
ATOM     24  C   UNL A   1      32.472  19.728  23.161  1.00  0.00     0.011 A 
ATOM     25  C   UNL A   1      33.066  18.715  25.253  1.00  0.00     0.096 A 
ATOM     26  C   UNL A   1      32.401  18.482  22.515  1.00  0.00     0.008 A 
ATOM     27  C   UNL A   1      33.053  17.446  24.575  1.00  0.00     0.270 A 
ATOM     28  C   UNL A   1      32.727  17.335  23.214  1.00  0.00     0.085 A 
BRANCH  27  29
ATOM     29  N   UNL A   1      33.338  16.178  25.283  1.00  0.00     0.062 N 
ATOM     30  O   UNL A   1      34.280  15.481  24.859  1.00  0.00    -0.258 OA
ATOM     31  O   UNL A   1      32.516  15.795  26.128  1.00  0.00    -0.258 OA
ENDBRANCH  27  29
ENDBRANCH  13  23
ENDBRANCH   4   6
ENDBRANCH   3   4
ENDBRANCH   2   3
ENDBRANCH   1   2
BRANCH   1  32
ATOM     32  O   UNL A   1      39.010  24.180  26.178  1.00  0.00    -0.458 OA
BRANCH  32  33
ATOM     33  C   UNL A   1      39.716  24.452  27.303  1.00  0.00     0.338 C 
ATOM     34  O   UNL A   1      40.678  23.764  27.645  1.00  0.00    -0.246 OA
BRANCH  33  35
ATOM     35  C   UNL A   1      39.388  25.812  27.804  1.00  0.00     0.060 A 
ATOM     36  C   UNL A   1      38.954  25.944  29.125  1.00  0.00     0.016 A 
ATOM     37  C   UNL A   1      39.774  26.932  27.071  1.00  0.00     0.016 A 
ATOM     38  C   UNL A   1      39.074  27.149  29.793  1.00  0.00     0.010 A 
ATOM     39  C   UNL A   1      39.919  28.126  27.723  1.00  0.00     0.010 A 
ATOM     40  C   UNL A   1      39.584  28.215  29.079  1.00  0.00    -0.014 A 
BRANCH  40  41
ATOM     41  C   UNL A   1      39.689  29.532  29.657  1.00  0.00     0.031 A 
ATOM     42  C   UNL A   1      38.664  30.524  29.287  1.00  0.00     0.074 A 
ATOM     43  C   UNL A   1      40.731  29.620  30.509  1.00  0.00     0.049 A 
ATOM     44  N   UNL A   1      38.867  31.784  29.143  1.00  0.00    -0.248 NA
ATOM     45  C   UNL A   1      37.289  30.150  28.922  1.00  0.00     0.031 C 
ATOM     46  C   UNL A   1      41.130  30.616  31.477  1.00  0.00     0.029 A 
ATOM     47  N   UNL A   1      41.823  28.754  30.487  1.00  0.00    -0.354 N 
ATOM     48  C   UNL A   1      37.616  32.373  29.216  1.00  0.00     0.074 A 
ATOM     49  C   UNL A   1      36.694  31.345  28.816  1.00  0.00     0.031 C 
ATOM     50  C   UNL A   1      42.457  30.500  31.696  1.00  0.00     0.029 A 
ATOM     51  C   UNL A   1      42.971  29.467  30.806  1.00  0.00     0.049 A 
ATOM     52  H   UNL A   1      41.786  27.791  30.279  1.00  0.00     0.167 HD
ATOM     53  C   UNL A   1      37.493  33.532  29.933  1.00  0.00     0.037 A 
ATOM     54  C   UNL A   1      43.880  29.661  29.803  1.00  0.00     0.037 A 
ATOM     55  C   UNL A   1      38.817  33.908  30.429  1.00  0.00     0.049 A 
ATOM     56  C   UNL A   1      43.819  31.103  29.323  1.00  0.00     0.074 A 
ATOM     57  C   UNL A   1      39.428  33.679  31.653  1.00  0.00     0.029 A 
ATOM     58  N   UNL A   1      39.839  34.180  29.526  1.00  0.00    -0.354 N 
ATOM     59  N   UNL A   1      42.751  31.865  29.342  1.00  0.00    -0.248 NA
ATOM     60  C   UNL A   1      45.026  31.846  28.977  1.00  0.00     0.031 C 
ATOM     61  C   UNL A   1      40.830  33.771  31.468  1.00  0.00     0.029 A 
ATOM     62  C   UNL A   1      41.073  33.992  30.124  1.00  0.00     0.049 A 
ATOM     63  H   UNL A   1      39.703  34.467  28.594  1.00  0.00     0.167 HD
ATOM     64  C   UNL A   1      43.130  33.184  29.188  1.00  0.00     0.074 A 
ATOM     65  C   UNL A   1      44.559  33.106  28.933  1.00  0.00     0.031 C 
ATOM     66  C   UNL A   1      42.294  34.257  29.386  1.00  0.00     0.037 A 
BRANCH  53  67
ATOM     67  C   UNL A   1      36.201  34.074  30.522  1.00  0.00     0.058 A 
ATOM     68  C   UNL A   1      35.179  34.564  29.672  1.00  0.00     0.135 A 
ATOM     69  C   UNL A   1      35.899  34.154  31.897  1.00  0.00     0.135 A 
ATOM     70  F   UNL A   1      35.274  34.496  28.339  1.00  0.00    -0.206 F 
ATOM     71  C   UNL A   1      34.001  35.149  30.138  1.00  0.00     0.059 A 
ATOM     72  C   UNL A   1      34.727  34.756  32.391  1.00  0.00     0.059 A 
ATOM     73  F   UNL A   1      36.705  33.613  32.819  1.00  0.00    -0.206 F 
ATOM     74  C   UNL A   1      33.784  35.253  31.501  1.00  0.00     0.060 A 
BRANCH  74  75
ATOM     75  S   UNL A   1      32.239  35.995  32.062  1.00  0.00     0.124 S 
ATOM     76  O   UNL A   1      32.713  37.057  32.945  1.00  0.00    -0.237 OA
ATOM     77  O   UNL A   1      31.639  36.436  30.808  1.00  0.00    -0.237 OA
ATOM     78  O   UNL A   1      31.554  34.892  32.729  1.00  0.00    -0.744 OA
ENDBRANCH  74  75
ENDBRANCH  53  67
BRANCH  54  79
ATOM     79  C   UNL A   1      44.063  28.401  28.999  1.00  0.00     0.058 A 
ATOM     80  C   UNL A   1      43.648  28.427  27.641  1.00  0.00     0.135 A 
ATOM     81  C   UNL A   1      45.040  27.466  29.318  1.00  0.00     0.135 A 
ATOM     82  F   UNL A   1      42.679  29.275  27.264  1.00  0.00    -0.206 F 
ATOM     83  C   UNL A   1      44.304  27.725  26.626  1.00  0.00     0.059 A 
ATOM     84  C   UNL A   1      45.707  26.770  28.301  1.00  0.00     0.059 A 
ATOM     85  F   UNL A   1      45.457  27.309  30.584  1.00  0.00    -0.206 F 
ATOM     86  C   UNL A   1      45.397  26.952  26.958  1.00  0.00     0.060 A 
BRANCH  86  87
ATOM     87  S   UNL A   1      46.429  26.294  25.623  1.00  0.00     0.124 S 
ATOM     88  O   UNL A   1      46.000  24.906  25.543  1.00  0.00    -0.237 OA
ATOM     89  O   UNL A   1      46.056  27.140  24.495  1.00  0.00    -0.237 OA
ATOM     90  O   UNL A   1      47.780  26.478  26.128  1.00  0.00    -0.744 OA
ENDBRANCH  86  87
ENDBRANCH  54  79
BRANCH  66  91
ATOM     91  C   UNL A   1      42.564  35.722  29.067  1.00  0.00     0.058 A 
ATOM     92  C   UNL A   1      43.401  36.556  29.818  1.00  0.00     0.135 A 
ATOM     93  C   UNL A   1      42.070  36.301  27.860  1.00  0.00     0.135 A 
ATOM     94  F   UNL A   1      44.051  36.113  30.902  1.00  0.00    -0.206 F 
ATOM     95  C   UNL A   1      43.652  37.881  29.456  1.00  0.00     0.059 A 
ATOM     96  C   UNL A   1      42.381  37.585  27.438  1.00  0.00     0.059 A 
ATOM     97  F   UNL A   1      41.264  35.639  27.018  1.00  0.00    -0.206 F 
ATOM     98  C   UNL A   1      43.142  38.386  28.265  1.00  0.00     0.060 A 
BRANCH  98  99
ATOM     99  S   UNL A   1      43.504  40.077  27.781  1.00  0.00     0.124 S 
ATOM    100  O   UNL A   1      42.818  40.828  28.829  1.00  0.00    -0.237 OA
ATOM    101  O   UNL A   1      44.962  40.112  27.829  1.00  0.00    -0.237 OA
ATOM    102  O   UNL A   1      42.925  40.182  26.446  1.00  0.00    -0.744 OA
ENDBRANCH  98  99
ENDBRANCH  66  91
ENDBRANCH  40  41
ENDBRANCH  33  35
ENDBRANCH  32  33
ENDBRANCH   1  32
TORSDOF 17
ENDMDL
MODEL 2
REMARK VINA RESULT:     -14.1      4.789     10.805
REMARK SMILES Cc1ccc(-c2cc(C(=O)OCCOC(=O)c3ccc(-c4c5nc(c(-c6c(F)cc(S(=O)(=O)[O-])cc6F)c6ccc([nH]6)c(-c6c(F)cc(S(=O)(=O)[O-])cc6F)c6nc(c(-c7c(F)cc(S(=O)(=O)[O-])cc7F)c7ccc4[nH]7)C=C6)C=C5)cc3)c3c(-c4cccc([N+](=O)[O-])c4)[nH]nc3n2)cc1
REMARK SMILES IDX 13 1 12 2 11 3 9 4 10 5 8 6 6 7 7 8 97 9 96 10 83 11 95 12
REMARK SMILES IDX 84 13 94 14 5 16 1 17 2 18 3 19 99 20 4 21 98 22 85 23 86 24
REMARK SMILES IDX 93 25 87 26 89 27 88 28 90 29 91 30 92 31 14 32 15 33 16 34
REMARK SMILES IDX 17 35 18 36 82 37 19 38 81 39 20 40 21 41 22 42 75 43 23 44
REMARK SMILES IDX 80 45 74 46 76 47 24 48 79 49 73 50 72 51 25 53 59 54 38 55
REMARK SMILES IDX 58 56 39 57 42 58 57 59 77 60 40 61 41 62 56 64 78 65 43 66
REMARK SMILES IDX 26 67 27 68 36 69 28 70 29 71 35 72 37 73 30 74 31 75 32 76
REMARK SMILES IDX 33 77 34 78 60 79 61 80 70 81 62 82 63 83 69 84 71 85 64 86
REMARK SMILES IDX 65 87 66 88 67 89 68 90 44 91 45 92 54 93 46 94 47 95 53 96
REMARK SMILES IDX 55 97 48 98 49 99 50 100 51 101 52 102
REMARK H PARENT 94 15 76 52 42 63
REMARK Flexibility Score: inf
ROOT
ATOM      1  C   UNL A   1      34.024  28.961  26.991  1.00  0.00     0.275 C 
ENDROOT
BRANCH   1   2
ATOM      2  C   UNL A   1      33.420  28.528  25.629  1.00  0.00     0.275 C 
BRANCH   2   3
ATOM      3  O   UNL A   1      33.015  27.135  25.621  1.00  0.00    -0.458 OA
BRANCH   3   4
ATOM      4  C   UNL A   1      31.679  26.849  25.782  1.00  0.00     0.339 C 
ATOM      5  O   UNL A   1      31.090  26.882  26.853  1.00  0.00    -0.246 OA
BRANCH   4   6
ATOM      6  C   UNL A   1      31.137  26.121  24.580  1.00  0.00     0.075 A 
ATOM      7  C   UNL A   1      30.150  27.771  23.045  1.00  0.00     0.074 A 
ATOM      8  C   UNL A   1      30.101  27.032  24.235  1.00  0.00     0.045 A 
ATOM      9  N   UNL A   1      30.843  27.447  21.946  1.00  0.00    -0.226 NA
ATOM     10  C   UNL A   1      31.593  26.336  22.100  1.00  0.00     0.182 A 
ATOM     11  C   UNL A   1      31.836  25.657  23.384  1.00  0.00     0.061 A 
ATOM     12  N   UNL A   1      32.169  25.744  21.068  1.00  0.00    -0.154 NA
ATOM     13  C   UNL A   1      32.704  24.586  22.999  1.00  0.00     0.076 A 
ATOM     14  N   UNL A   1      32.704  24.673  21.610  1.00  0.00    -0.275 N 
ATOM     15  H   UNL A   1      33.091  23.959  21.053  1.00  0.00     0.190 HD
BRANCH   7  16
ATOM     16  C   UNL A   1      29.557  29.107  23.052  1.00  0.00     0.000 A 
ATOM     17  C   UNL A   1      28.441  33.249  22.684  1.00  0.00     0.044 C 
ATOM     18  C   UNL A   1      28.758  31.792  22.833  1.00  0.00    -0.051 A 
ATOM     19  C   UNL A   1      29.529  31.362  23.921  1.00  0.00     0.004 A 
ATOM     20  C   UNL A   1      28.335  30.859  21.881  1.00  0.00     0.004 A 
ATOM     21  C   UNL A   1      29.921  30.030  24.032  1.00  0.00     0.010 A 
ATOM     22  C   UNL A   1      28.730  29.525  21.990  1.00  0.00     0.010 A 
ENDBRANCH   7  16
BRANCH  13  23
ATOM     23  C   UNL A   1      33.600  23.438  23.392  1.00  0.00     0.007 A 
ATOM     24  C   UNL A   1      32.907  22.218  23.676  1.00  0.00     0.011 A 
ATOM     25  C   UNL A   1      34.943  23.480  23.819  1.00  0.00     0.096 A 
ATOM     26  C   UNL A   1      33.495  21.096  24.286  1.00  0.00     0.008 A 
ATOM     27  C   UNL A   1      35.560  22.311  24.386  1.00  0.00     0.270 A 
ATOM     28  C   UNL A   1      34.838  21.127  24.613  1.00  0.00     0.085 A 
BRANCH  27  29
ATOM     29  N   UNL A   1      36.978  22.301  24.807  1.00  0.00     0.062 N 
ATOM     30  O   UNL A   1      37.491  23.389  25.129  1.00  0.00    -0.258 OA
ATOM     31  O   UNL A   1      37.620  21.254  24.637  1.00  0.00    -0.258 OA
ENDBRANCH  27  29
ENDBRANCH  13  23
ENDBRANCH   4   6
ENDBRANCH   3   4
ENDBRANCH   2   3
ENDBRANCH   1   2
BRANCH   1  32
ATOM     32  O   UNL A   1      35.452  28.839  27.209  1.00  0.00    -0.458 OA
BRANCH  32  33
ATOM     33  C   UNL A   1      36.141  29.963  27.530  1.00  0.00     0.338 C 
ATOM     34  O   UNL A   1      35.580  31.050  27.661  1.00  0.00    -0.246 OA
BRANCH  33  35
ATOM     35  C   UNL A   1      37.502  29.613  28.014  1.00  0.00     0.060 A 
ATOM     36  C   UNL A   1      37.618  28.938  29.231  1.00  0.00     0.016 A 
ATOM     37  C   UNL A   1      38.589  29.703  27.149  1.00  0.00     0.016 A 
ATOM     38  C   UNL A   1      38.743  28.188  29.522  1.00  0.00     0.010 A 
ATOM     39  C   UNL A   1      39.702  28.948  27.410  1.00  0.00     0.010 A 
ATOM     40  C   UNL A   1      39.757  28.188  28.583  1.00  0.00    -0.014 A 
BRANCH  40  41
ATOM     41  C   UNL A   1      41.001  27.495  28.813  1.00  0.00     0.031 A 
ATOM     42  C   UNL A   1      41.036  26.047  28.547  1.00  0.00     0.074 A 
ATOM     43  C   UNL A   1      41.975  28.341  29.208  1.00  0.00     0.049 A 
ATOM     44  N   UNL A   1      41.719  25.186  29.212  1.00  0.00    -0.248 NA
ATOM     45  C   UNL A   1      40.183  25.401  27.538  1.00  0.00     0.031 C 
ATOM     46  C   UNL A   1      43.406  28.197  29.352  1.00  0.00     0.029 A 
ATOM     47  N   UNL A   1      41.730  29.592  29.774  1.00  0.00    -0.354 N 
ATOM     48  C   UNL A   1      41.799  24.067  28.401  1.00  0.00     0.074 A 
ATOM     49  C   UNL A   1      40.650  24.146  27.540  1.00  0.00     0.031 C 
ATOM     50  C   UNL A   1      43.847  29.121  30.233  1.00  0.00     0.029 A 
ATOM     51  C   UNL A   1      42.690  29.842  30.746  1.00  0.00     0.049 A 
ATOM     52  H   UNL A   1      40.995  30.199  29.525  1.00  0.00     0.167 HD
ATOM     53  C   UNL A   1      42.998  23.413  28.325  1.00  0.00     0.037 A 
ATOM     54  C   UNL A   1      42.270  29.848  32.047  1.00  0.00     0.037 A 
ATOM     55  C   UNL A   1      43.941  24.077  29.226  1.00  0.00     0.049 A 
ATOM     56  C   UNL A   1      42.733  28.578  32.745  1.00  0.00     0.074 A 
ATOM     57  C   UNL A   1      44.902  25.046  28.982  1.00  0.00     0.029 A 
ATOM     58  N   UNL A   1      43.671  24.126  30.590  1.00  0.00    -0.354 N 
ATOM     59  N   UNL A   1      42.920  27.418  32.164  1.00  0.00    -0.248 NA
ATOM     60  C   UNL A   1      43.215  28.595  34.122  1.00  0.00     0.031 C 
ATOM     61  C   UNL A   1      45.176  25.710  30.203  1.00  0.00     0.029 A 
ATOM     62  C   UNL A   1      44.337  25.189  31.173  1.00  0.00     0.049 A 
ATOM     63  H   UNL A   1      43.090  23.494  31.071  1.00  0.00     0.167 HD
ATOM     64  C   UNL A   1      43.675  26.610  32.991  1.00  0.00     0.074 A 
ATOM     65  C   UNL A   1      43.801  27.389  34.212  1.00  0.00     0.031 C 
ATOM     66  C   UNL A   1      44.242  25.419  32.604  1.00  0.00     0.037 A 
BRANCH  53  67
ATOM     67  C   UNL A   1      43.435  22.496  27.195  1.00  0.00     0.058 A 
ATOM     68  C   UNL A   1      42.906  21.186  27.093  1.00  0.00     0.135 A 
ATOM     69  C   UNL A   1      44.368  22.823  26.189  1.00  0.00     0.135 A 
ATOM     70  F   UNL A   1      41.957  20.739  27.923  1.00  0.00    -0.206 F 
ATOM     71  C   UNL A   1      43.316  20.260  26.133  1.00  0.00     0.059 A 
ATOM     72  C   UNL A   1      44.810  21.902  25.223  1.00  0.00     0.059 A 
ATOM     73  F   UNL A   1      44.857  24.065  26.073  1.00  0.00    -0.206 F 
ATOM     74  C   UNL A   1      44.278  20.619  25.206  1.00  0.00     0.060 A 
BRANCH  74  75
ATOM     75  S   UNL A   1      44.764  19.400  23.968  1.00  0.00     0.124 S 
ATOM     76  O   UNL A   1      46.168  19.173  24.298  1.00  0.00    -0.237 OA
ATOM     77  O   UNL A   1      43.859  18.294  24.257  1.00  0.00    -0.237 OA
ATOM     78  O   UNL A   1      44.527  20.088  22.702  1.00  0.00    -0.744 OA
ENDBRANCH  74  75
ENDBRANCH  53  67
BRANCH  54  79
ATOM     79  C   UNL A   1      40.959  30.579  32.180  1.00  0.00     0.058 A 
ATOM     80  C   UNL A   1      39.838  29.831  32.629  1.00  0.00     0.135 A 
ATOM     81  C   UNL A   1      40.906  31.948  32.405  1.00  0.00     0.135 A 
ATOM     82  F   UNL A   1      39.797  28.508  32.410  1.00  0.00    -0.206 F 
ATOM     83  C   UNL A   1      38.830  30.371  33.433  1.00  0.00     0.059 A 
ATOM     84  C   UNL A   1      39.903  32.489  33.222  1.00  0.00     0.059 A 
ATOM     85  F   UNL A   1      41.881  32.758  31.963  1.00  0.00    -0.206 F 
ATOM     86  C   UNL A   1      38.915  31.698  33.796  1.00  0.00     0.060 A 
BRANCH  86  87
ATOM     87  S   UNL A   1      37.794  32.319  35.077  1.00  0.00     0.124 S 
ATOM     88  O   UNL A   1      37.796  31.240  36.053  1.00  0.00    -0.237 OA
ATOM     89  O   UNL A   1      38.451  33.552  35.493  1.00  0.00    -0.237 OA
ATOM     90  O   UNL A   1      36.538  32.483  34.365  1.00  0.00    -0.744 OA
ENDBRANCH  86  87
ENDBRANCH  54  79
BRANCH  66  91
ATOM     91  C   UNL A   1      44.929  24.382  33.482  1.00  0.00     0.058 A 
ATOM     92  C   UNL A   1      44.312  23.225  33.975  1.00  0.00     0.135 A 
ATOM     93  C   UNL A   1      46.329  24.469  33.742  1.00  0.00     0.135 A 
ATOM     94  F   UNL A   1      43.035  22.933  33.696  1.00  0.00    -0.206 F 
ATOM     95  C   UNL A   1      45.000  22.281  34.739  1.00  0.00     0.059 A 
ATOM     96  C   UNL A   1      47.049  23.497  34.421  1.00  0.00     0.059 A 
ATOM     97  F   UNL A   1      47.077  25.504  33.333  1.00  0.00    -0.206 F 
ATOM     98  C   UNL A   1      46.367  22.423  34.954  1.00  0.00     0.060 A 
BRANCH  98  99
ATOM     99  S   UNL A   1      47.258  21.183  35.901  1.00  0.00     0.124 S 
ATOM    100  O   UNL A   1      47.946  22.013  36.884  1.00  0.00    -0.237 OA
ATOM    101  O   UNL A   1      46.178  20.350  36.420  1.00  0.00    -0.237 OA
ATOM    102  O   UNL A   1      48.111  20.542  34.906  1.00  0.00    -0.744 OA
ENDBRANCH  98  99
ENDBRANCH  66  91
ENDBRANCH  40  41
ENDBRANCH  33  35
ENDBRANCH  32  33
ENDBRANCH   1  32
TORSDOF 17
ENDMDL
MODEL 3
REMARK VINA RESULT:     -13.8      1.535      4.692
REMARK SMILES Cc1ccc(-c2cc(C(=O)OCCOC(=O)c3ccc(-c4c5nc(c(-c6c(F)cc(S(=O)(=O)[O-])cc6F)c6ccc([nH]6)c(-c6c(F)cc(S(=O)(=O)[O-])cc6F)c6nc(c(-c7c(F)cc(S(=O)(=O)[O-])cc7F)c7ccc4[nH]7)C=C6)C=C5)cc3)c3c(-c4cccc([N+](=O)[O-])c4)[nH]nc3n2)cc1
REMARK SMILES IDX 13 1 12 2 11 3 9 4 10 5 8 6 6 7 7 8 97 9 96 10 83 11 95 12
REMARK SMILES IDX 84 13 94 14 5 16 1 17 2 18 3 19 99 20 4 21 98 22 85 23 86 24
REMARK SMILES IDX 93 25 87 26 89 27 88 28 90 29 91 30 92 31 14 32 15 33 16 34
REMARK SMILES IDX 17 35 18 36 82 37 19 38 81 39 20 40 21 41 22 42 75 43 23 44
REMARK SMILES IDX 80 45 74 46 76 47 24 48 79 49 73 50 72 51 25 53 59 54 38 55
REMARK SMILES IDX 58 56 39 57 42 58 57 59 77 60 40 61 41 62 56 64 78 65 43 66
REMARK SMILES IDX 26 67 27 68 36 69 28 70 29 71 35 72 37 73 30 74 31 75 32 76
REMARK SMILES IDX 33 77 34 78 60 79 61 80 70 81 62 82 63 83 69 84 71 85 64 86
REMARK SMILES IDX 65 87 66 88 67 89 68 90 44 91 45 92 54 93 46 94 47 95 53 96
REMARK SMILES IDX 55 97 48 98 49 99 50 100 51 101 52 102
REMARK H PARENT 94 15 76 52 42 63
REMARK Flexibility Score: inf
ROOT
ATOM      1  C   UNL A   1      37.188  23.738  25.670  1.00  0.00     0.275 C 
ENDROOT
BRANCH   1   2
ATOM      2  C   UNL A   1      35.641  23.604  25.642  1.00  0.00     0.275 C 
BRANCH   2   3
ATOM      3  O   UNL A   1      35.043  24.338  24.543  1.00  0.00    -0.458 OA
BRANCH   3   4
ATOM      4  C   UNL A   1      34.427  23.619  23.544  1.00  0.00     0.339 C 
ATOM      5  O   UNL A   1      34.906  23.427  22.436  1.00  0.00    -0.246 OA
BRANCH   4   6
ATOM      6  C   UNL A   1      32.960  23.443  23.837  1.00  0.00     0.075 A 
ATOM      7  C   UNL A   1      32.584  21.131  24.589  1.00  0.00     0.074 A 
ATOM      8  C   UNL A   1      32.860  22.051  23.567  1.00  0.00     0.045 A 
ATOM      9  N   UNL A   1      31.977  21.405  25.751  1.00  0.00    -0.226 NA
ATOM     10  C   UNL A   1      31.704  22.716  25.910  1.00  0.00     0.182 A 
ATOM     11  C   UNL A   1      32.206  23.792  25.038  1.00  0.00     0.061 A 
ATOM     12  N   UNL A   1      30.920  23.143  26.885  1.00  0.00    -0.154 NA
ATOM     13  C   UNL A   1      31.663  24.962  25.661  1.00  0.00     0.076 A 
ATOM     14  N   UNL A   1      30.827  24.431  26.639  1.00  0.00    -0.275 N 
ATOM     15  H   UNL A   1      30.189  24.999  27.128  1.00  0.00     0.190 HD
BRANCH   7  16
ATOM     16  C   UNL A   1      33.171  19.797  24.476  1.00  0.00     0.000 A 
ATOM     17  C   UNL A   1      34.844  15.854  24.913  1.00  0.00     0.044 C 
ATOM     18  C   UNL A   1      34.254  17.213  24.687  1.00  0.00    -0.051 A 
ATOM     19  C   UNL A   1      35.083  18.341  24.734  1.00  0.00     0.004 A 
ATOM     20  C   UNL A   1      32.881  17.378  24.473  1.00  0.00     0.004 A 
ATOM     21  C   UNL A   1      34.546  19.622  24.625  1.00  0.00     0.010 A 
ATOM     22  C   UNL A   1      32.344  18.662  24.366  1.00  0.00     0.010 A 
ENDBRANCH   7  16
BRANCH  13  23
ATOM     23  C   UNL A   1      31.584  26.465  25.748  1.00  0.00     0.007 A 
ATOM     24  C   UNL A   1      30.870  27.083  24.671  1.00  0.00     0.011 A 
ATOM     25  C   UNL A   1      32.360  27.340  26.534  1.00  0.00     0.096 A 
ATOM     26  C   UNL A   1      30.869  28.464  24.410  1.00  0.00     0.008 A 
ATOM     27  C   UNL A   1      32.309  28.759  26.304  1.00  0.00     0.270 A 
ATOM     28  C   UNL A   1      31.564  29.314  25.250  1.00  0.00     0.085 A 
BRANCH  27  29
ATOM     29  N   UNL A   1      33.075  29.715  27.134  1.00  0.00     0.062 N 
ATOM     30  O   UNL A   1      32.640  30.879  27.222  1.00  0.00    -0.258 OA
ATOM     31  O   UNL A   1      34.193  29.359  27.535  1.00  0.00    -0.258 OA
ENDBRANCH  27  29
ENDBRANCH  13  23
ENDBRANCH   4   6
ENDBRANCH   3   4
ENDBRANCH   2   3
ENDBRANCH   1   2
BRANCH   1  32
ATOM     32  O   UNL A   1      37.799  24.785  26.464  1.00  0.00    -0.458 OA
BRANCH  32  33
ATOM     33  C   UNL A   1      38.894  24.467  27.197  1.00  0.00     0.338 C 
ATOM     34  O   UNL A   1      39.472  23.388  27.062  1.00  0.00    -0.246 OA
BRANCH  33  35
ATOM     35  C   UNL A   1      39.441  25.678  27.861  1.00  0.00     0.060 A 
ATOM     36  C   UNL A   1      39.955  26.698  27.057  1.00  0.00     0.016 A 
ATOM     37  C   UNL A   1      39.187  25.903  29.212  1.00  0.00     0.016 A 
ATOM     38  C   UNL A   1      40.045  27.995  27.528  1.00  0.00     0.010 A 
ATOM     39  C   UNL A   1      39.249  27.186  29.688  1.00  0.00     0.010 A 
ATOM     40  C   UNL A   1      39.660  28.217  28.836  1.00  0.00    -0.014 A 
BRANCH  40  41
ATOM     41  C   UNL A   1      39.777  29.516  29.450  1.00  0.00     0.031 A 
ATOM     42  C   UNL A   1      38.738  30.513  29.141  1.00  0.00     0.074 A 
ATOM     43  C   UNL A   1      40.844  29.583  30.274  1.00  0.00     0.049 A 
ATOM     44  N   UNL A   1      38.932  31.779  29.030  1.00  0.00    -0.248 NA
ATOM     45  C   UNL A   1      37.354  30.145  28.807  1.00  0.00     0.031 C 
ATOM     46  C   UNL A   1      41.267  30.551  31.260  1.00  0.00     0.029 A 
ATOM     47  N   UNL A   1      41.938  28.722  30.193  1.00  0.00    -0.354 N 
ATOM     48  C   UNL A   1      37.681  32.359  29.158  1.00  0.00     0.074 A 
ATOM     49  C   UNL A   1      36.752  31.340  28.755  1.00  0.00     0.031 C 
ATOM     50  C   UNL A   1      42.601  30.434  31.435  1.00  0.00     0.029 A 
ATOM     51  C   UNL A   1      43.092  29.431  30.499  1.00  0.00     0.049 A 
ATOM     52  H   UNL A   1      41.899  27.767  29.957  1.00  0.00     0.167 HD
ATOM     53  C   UNL A   1      37.575  33.495  29.913  1.00  0.00     0.037 A 
ATOM     54  C   UNL A   1      43.970  29.660  29.477  1.00  0.00     0.037 A 
ATOM     55  C   UNL A   1      38.912  33.862  30.381  1.00  0.00     0.049 A 
ATOM     56  C   UNL A   1      43.889  31.116  29.043  1.00  0.00     0.074 A 
ATOM     57  C   UNL A   1      39.560  33.599  31.579  1.00  0.00     0.029 A 
ATOM     58  N   UNL A   1      39.906  34.166  29.457  1.00  0.00    -0.354 N 
ATOM     59  N   UNL A   1      42.820  31.871  29.116  1.00  0.00    -0.248 NA
ATOM     60  C   UNL A   1      45.083  31.874  28.684  1.00  0.00     0.031 C 
ATOM     61  C   UNL A   1      40.955  33.703  31.356  1.00  0.00     0.029 A 
ATOM     62  C   UNL A   1      41.157  33.966  30.012  1.00  0.00     0.049 A 
ATOM     63  H   UNL A   1      39.741  34.480  28.539  1.00  0.00     0.167 HD
ATOM     64  C   UNL A   1      43.188  33.196  28.992  1.00  0.00     0.074 A 
ATOM     65  C   UNL A   1      44.610  33.132  28.692  1.00  0.00     0.031 C 
ATOM     66  C   UNL A   1      42.355  34.259  29.247  1.00  0.00     0.037 A 
BRANCH  53  67
ATOM     67  C   UNL A   1      36.299  34.013  30.557  1.00  0.00     0.058 A 
ATOM     68  C   UNL A   1      35.268  34.563  29.756  1.00  0.00     0.135 A 
ATOM     69  C   UNL A   1      36.021  34.013  31.939  1.00  0.00     0.135 A 
ATOM     70  F   UNL A   1      35.339  34.574  28.420  1.00  0.00    -0.206 F 
ATOM     71  C   UNL A   1      34.104  35.129  30.277  1.00  0.00     0.059 A 
ATOM     72  C   UNL A   1      34.865  34.595  32.489  1.00  0.00     0.059 A 
ATOM     73  F   UNL A   1      36.838  33.410  32.812  1.00  0.00    -0.206 F 
ATOM     74  C   UNL A   1      33.912  35.154  31.647  1.00  0.00     0.060 A 
BRANCH  74  75
ATOM     75  S   UNL A   1      32.385  35.876  32.279  1.00  0.00     0.124 S 
ATOM     76  O   UNL A   1      32.883  36.839  33.256  1.00  0.00    -0.237 OA
ATOM     77  O   UNL A   1      31.794  36.444  31.073  1.00  0.00    -0.237 OA
ATOM     78  O   UNL A   1      31.675  34.731  32.842  1.00  0.00    -0.744 OA
ENDBRANCH  74  75
ENDBRANCH  53  67
BRANCH  54  79
ATOM     79  C   UNL A   1      44.134  28.425  28.629  1.00  0.00     0.058 A 
ATOM     80  C   UNL A   1      43.694  28.496  27.281  1.00  0.00     0.135 A 
ATOM     81  C   UNL A   1      45.113  27.478  28.900  1.00  0.00     0.135 A 
ATOM     82  F   UNL A   1      42.720  29.358  26.950  1.00  0.00    -0.206 F 
ATOM     83  C   UNL A   1      44.328  27.825  26.232  1.00  0.00     0.059 A 
ATOM     84  C   UNL A   1      45.759  26.813  27.848  1.00  0.00     0.059 A 
ATOM     85  F   UNL A   1      45.555  27.280  30.152  1.00  0.00    -0.206 F 
ATOM     86  C   UNL A   1      45.424  27.040  26.518  1.00  0.00     0.060 A 
BRANCH  86  87
ATOM     87  S   UNL A   1      46.429  26.422  25.143  1.00  0.00     0.124 S 
ATOM     88  O   UNL A   1      46.455  27.555  24.232  1.00  0.00    -0.237 OA
ATOM     89  O   UNL A   1      47.693  26.106  25.800  1.00  0.00    -0.237 OA
ATOM     90  O   UNL A   1      45.667  25.281  24.663  1.00  0.00    -0.744 OA
ENDBRANCH  86  87
ENDBRANCH  54  79
BRANCH  66  91
ATOM     91  C   UNL A   1      42.610  35.734  28.966  1.00  0.00     0.058 A 
ATOM     92  C   UNL A   1      43.406  36.567  29.760  1.00  0.00     0.135 A 
ATOM     93  C   UNL A   1      42.146  36.328  27.754  1.00  0.00     0.135 A 
ATOM     94  F   UNL A   1      44.027  36.114  30.857  1.00  0.00    -0.206 F 
ATOM     95  C   UNL A   1      43.647  37.904  29.432  1.00  0.00     0.059 A 
ATOM     96  C   UNL A   1      42.449  37.625  27.367  1.00  0.00     0.059 A 
ATOM     97  F   UNL A   1      41.382  35.669  26.871  1.00  0.00    -0.206 F 
ATOM     98  C   UNL A   1      43.168  38.423  28.234  1.00  0.00     0.060 A 
BRANCH  98  99
ATOM     99  S   UNL A   1      43.516  40.129  27.795  1.00  0.00     0.124 S 
ATOM    100  O   UNL A   1      42.868  40.844  28.889  1.00  0.00    -0.237 OA
ATOM    101  O   UNL A   1      44.975  40.160  27.793  1.00  0.00    -0.237 OA
ATOM    102  O   UNL A   1      42.891  40.279  26.484  1.00  0.00    -0.744 OA
ENDBRANCH  98  99
ENDBRANCH  66  91
ENDBRANCH  40  41
ENDBRANCH  33  35
ENDBRANCH  32  33
ENDBRANCH   1  32
TORSDOF 17
ENDMDL
