MODEL 1
REMARK VINA RESULT:      -9.4      0.000      0.000
REMARK SMILES C[C@H](Cc1ccco1)[NH2+]Cc1cc(C(=O)OCCOC(=O)c2ccc(-c3c4nc(c(-c5c(F)cc(S(=O)(=O)[O-])cc5F)c5ccc([nH]5)c(-c5c(F)cc(S(=O)(=O)[O-])cc5F)c5nc(c(-c6c(F)cc(S(=O)(=O)[O-])cc6F)c6ccc3[nH]6)C=C5)C=C4)cc2)cs1
REMARK SMILES IDX 17 1 16 2 14 3 15 4 13 5 11 6 12 7 89 8 88 9 10 10 9 11 2 14
REMARK SMILES IDX 1 15 3 16 4 17 5 18 8 19 6 20 7 21 18 22 19 23 20 24 21 25
REMARK SMILES IDX 22 26 23 27 87 28 24 29 86 30 25 31 26 32 27 33 80 34 28 35
REMARK SMILES IDX 85 36 79 37 81 38 29 39 84 40 78 41 77 42 30 44 64 45 43 46
REMARK SMILES IDX 63 47 44 48 47 49 62 50 82 51 45 52 46 53 61 55 83 56 48 57
REMARK SMILES IDX 31 58 32 59 41 60 33 61 34 62 40 63 42 64 35 65 36 66 37 67
REMARK SMILES IDX 38 68 39 69 65 70 66 71 75 72 67 73 68 74 74 75 76 76 69 77
REMARK SMILES IDX 70 78 71 79 72 80 73 81 49 82 50 83 59 84 51 85 52 86 58 87
REMARK SMILES IDX 60 88 53 89 54 90 55 91 56 92 57 93
REMARK H PARENT 9 12 9 13 81 43 47 54
REMARK Flexibility Score: inf
ROOT
ATOM      1  C   UNL A   1      40.477  19.966  26.158  1.00  0.00     0.275 C 
ENDROOT
BRANCH   1   2
ATOM      2  O   UNL A   1      41.783  19.747  26.723  1.00  0.00    -0.458 OA
BRANCH   2   3
ATOM      3  C   UNL A   1      42.574  18.901  26.004  1.00  0.00     0.339 C 
ATOM      4  O   UNL A   1      42.278  17.736  25.751  1.00  0.00    -0.246 OA
BRANCH   3   5
ATOM      5  C   UNL A   1      43.826  19.496  25.545  1.00  0.00     0.071 A 
ATOM      6  C   UNL A   1      45.431  21.054  24.783  1.00  0.00     0.060 A 
ATOM      7  C   UNL A   1      44.117  20.862  25.189  1.00  0.00     0.037 A 
ATOM      8  S   UNL A   1      46.312  19.587  24.900  1.00  0.00    -0.142 S 
ATOM      9  C   UNL A   1      44.949  18.709  25.380  1.00  0.00     0.081 A 
BRANCH   6  10
ATOM     10  C   UNL A   1      46.094  22.346  24.342  1.00  0.00     0.308 C 
BRANCH  10  11
ATOM     11  N   UNL A   1      45.348  23.563  24.679  1.00  0.00    -0.339 N 
ATOM     12  H   UNL A   1      45.242  24.106  23.822  1.00  0.00     0.346 HD
ATOM     13  H   UNL A   1      44.473  23.238  25.087  1.00  0.00     0.346 HD
BRANCH  11  14
ATOM     14  C   UNL A   1      45.950  24.446  25.697  1.00  0.00     0.187 C 
ATOM     15  C   UNL A   1      47.254  25.151  25.307  1.00  0.00     0.075 C 
BRANCH  14  16
ATOM     16  C   UNL A   1      46.096  23.702  27.055  1.00  0.00     0.140 C 
BRANCH  16  17
ATOM     17  C   UNL A   1      44.841  23.473  27.835  1.00  0.00     0.109 A 
ATOM     18  C   UNL A   1      44.528  23.328  29.173  1.00  0.00     0.046 A 
ATOM     19  O   UNL A   1      43.707  23.301  27.089  1.00  0.00    -0.469 OA
ATOM     20  C   UNL A   1      43.131  23.114  29.249  1.00  0.00     0.042 A 
ATOM     21  C   UNL A   1      42.681  23.084  27.953  1.00  0.00     0.195 A 
ENDBRANCH  16  17
ENDBRANCH  14  16
ENDBRANCH  11  14
ENDBRANCH  10  11
ENDBRANCH   6  10
ENDBRANCH   3   5
ENDBRANCH   2   3
ENDBRANCH   1   2
BRANCH   1  22
ATOM     22  C   UNL A   1      40.179  21.451  25.932  1.00  0.00     0.275 C 
BRANCH  22  23
ATOM     23  O   UNL A   1      38.948  21.875  26.550  1.00  0.00    -0.458 OA
BRANCH  23  24
ATOM     24  C   UNL A   1      38.480  23.073  26.124  1.00  0.00     0.338 C 
ATOM     25  O   UNL A   1      37.463  23.273  25.481  1.00  0.00    -0.246 OA
BRANCH  24  26
ATOM     26  C   UNL A   1      39.323  24.166  26.635  1.00  0.00     0.060 A 
ATOM     27  C   UNL A   1      39.275  24.450  28.000  1.00  0.00     0.016 A 
ATOM     28  C   UNL A   1      40.046  24.990  25.768  1.00  0.00     0.016 A 
ATOM     29  C   UNL A   1      39.931  25.571  28.506  1.00  0.00     0.010 A 
ATOM     30  C   UNL A   1      40.720  26.107  26.283  1.00  0.00     0.010 A 
ATOM     31  C   UNL A   1      40.655  26.419  27.653  1.00  0.00    -0.014 A 
BRANCH  31  32
ATOM     32  C   UNL A   1      41.290  27.653  28.196  1.00  0.00     0.031 A 
ATOM     33  C   UNL A   1      42.789  27.804  28.182  1.00  0.00     0.074 A 
ATOM     34  C   UNL A   1      40.527  28.656  28.675  1.00  0.00     0.049 A 
ATOM     35  N   UNL A   1      43.532  28.750  28.701  1.00  0.00    -0.248 NA
ATOM     36  C   UNL A   1      43.553  26.749  27.500  1.00  0.00     0.031 C 
ATOM     37  C   UNL A   1      39.064  28.661  28.708  1.00  0.00     0.029 A 
ATOM     38  N   UNL A   1      40.877  29.868  29.219  1.00  0.00    -0.354 N 
ATOM     39  C   UNL A   1      44.849  28.388  28.443  1.00  0.00     0.074 A 
ATOM     40  C   UNL A   1      44.804  27.130  27.726  1.00  0.00     0.031 C 
ATOM     41  C   UNL A   1      38.642  29.826  29.224  1.00  0.00     0.029 A 
ATOM     42  C   UNL A   1      39.800  30.625  29.616  1.00  0.00     0.049 A 
ATOM     43  H   UNL A   1      41.810  30.165  29.317  1.00  0.00     0.167 HD
ATOM     44  C   UNL A   1      45.990  29.042  28.770  1.00  0.00     0.037 A 
ATOM     45  C   UNL A   1      39.746  31.813  30.251  1.00  0.00     0.037 A 
ATOM     46  C   UNL A   1      46.032  30.313  29.447  1.00  0.00     0.049 A 
ATOM     47  C   UNL A   1      41.026  32.508  30.631  1.00  0.00     0.074 A 
ATOM     48  C   UNL A   1      47.141  31.060  29.810  1.00  0.00     0.029 A 
ATOM     49  N   UNL A   1      44.919  31.034  29.855  1.00  0.00    -0.354 N 
ATOM     50  N   UNL A   1      42.263  32.133  30.414  1.00  0.00    -0.248 NA
ATOM     51  C   UNL A   1      40.902  33.780  31.356  1.00  0.00     0.031 C 
ATOM     52  C   UNL A   1      46.700  32.214  30.466  1.00  0.00     0.029 A 
ATOM     53  C   UNL A   1      45.315  32.208  30.476  1.00  0.00     0.049 A 
ATOM     54  H   UNL A   1      43.986  30.753  29.722  1.00  0.00     0.167 HD
ATOM     55  C   UNL A   1      43.065  33.126  30.964  1.00  0.00     0.074 A 
ATOM     56  C   UNL A   1      42.173  34.128  31.511  1.00  0.00     0.031 C 
ATOM     57  C   UNL A   1      44.418  33.199  31.015  1.00  0.00     0.037 A 
BRANCH  44  58
ATOM     58  C   UNL A   1      47.296  28.377  28.430  1.00  0.00     0.058 A 
ATOM     59  C   UNL A   1      47.979  28.646  27.234  1.00  0.00     0.135 A 
ATOM     60  C   UNL A   1      47.888  27.478  29.333  1.00  0.00     0.135 A 
ATOM     61  F   UNL A   1      47.453  29.485  26.329  1.00  0.00    -0.206 F 
ATOM     62  C   UNL A   1      49.187  28.023  26.930  1.00  0.00     0.059 A 
ATOM     63  C   UNL A   1      49.106  26.863  29.062  1.00  0.00     0.059 A 
ATOM     64  F   UNL A   1      47.280  27.188  30.495  1.00  0.00    -0.206 F 
ATOM     65  C   UNL A   1      49.740  27.129  27.850  1.00  0.00     0.060 A 
BRANCH  65  66
ATOM     66  S   UNL A   1      51.302  26.319  27.441  1.00  0.00     0.124 S 
ATOM     67  O   UNL A   1      51.769  27.137  26.327  1.00  0.00    -0.237 OA
ATOM     68  O   UNL A   1      52.059  26.448  28.682  1.00  0.00    -0.237 OA
ATOM     69  O   UNL A   1      50.899  24.959  27.095  1.00  0.00    -0.744 OA
ENDBRANCH  65  66
ENDBRANCH  44  58
BRANCH  45  70
ATOM     70  C   UNL A   1      38.427  32.406  30.595  1.00  0.00     0.058 A 
ATOM     71  C   UNL A   1      37.808  33.338  29.750  1.00  0.00     0.135 A 
ATOM     72  C   UNL A   1      37.750  32.037  31.768  1.00  0.00     0.135 A 
ATOM     73  F   UNL A   1      38.422  33.734  28.624  1.00  0.00    -0.206 F 
ATOM     74  C   UNL A   1      36.566  33.885  30.054  1.00  0.00     0.059 A 
ATOM     75  C   UNL A   1      36.496  32.549  32.082  1.00  0.00     0.059 A 
ATOM     76  F   UNL A   1      38.297  31.143  32.607  1.00  0.00    -0.206 F 
ATOM     77  C   UNL A   1      35.914  33.480  31.221  1.00  0.00     0.060 A 
BRANCH  77  78
ATOM     78  S   UNL A   1      34.270  34.138  31.575  1.00  0.00     0.124 S 
ATOM     79  O   UNL A   1      34.594  35.442  32.143  1.00  0.00    -0.237 OA
ATOM     80  O   UNL A   1      33.652  34.154  30.252  1.00  0.00    -0.237 OA
ATOM     81  O   UNL A   1      33.713  33.162  32.506  1.00  0.00    -0.744 OA
ENDBRANCH  77  78
ENDBRANCH  45  70
BRANCH  57  82
ATOM     82  C   UNL A   1      45.019  34.414  31.663  1.00  0.00     0.058 A 
ATOM     83  C   UNL A   1      45.351  34.433  33.027  1.00  0.00     0.135 A 
ATOM     84  C   UNL A   1      45.306  35.560  30.903  1.00  0.00     0.135 A 
ATOM     85  F   UNL A   1      45.092  33.366  33.800  1.00  0.00    -0.206 F 
ATOM     86  C   UNL A   1      45.929  35.552  33.620  1.00  0.00     0.059 A 
ATOM     87  C   UNL A   1      45.904  36.681  31.470  1.00  0.00     0.059 A 
ATOM     88  F   UNL A   1      45.015  35.591  29.593  1.00  0.00    -0.206 F 
ATOM     89  C   UNL A   1      46.201  36.673  32.832  1.00  0.00     0.060 A 
BRANCH  89  90
ATOM     90  S   UNL A   1      46.977  38.108  33.604  1.00  0.00     0.124 S 
ATOM     91  O   UNL A   1      47.824  38.602  32.523  1.00  0.00    -0.237 OA
ATOM     92  O   UNL A   1      45.829  38.944  33.943  1.00  0.00    -0.237 OA
ATOM     93  O   UNL A   1      47.685  37.536  34.746  1.00  0.00    -0.744 OA
ENDBRANCH  89  90
ENDBRANCH  57  82
ENDBRANCH  31  32
ENDBRANCH  24  26
ENDBRANCH  23  24
ENDBRANCH  22  23
ENDBRANCH   1  22
TORSDOF 19
ENDMDL
MODEL 2
REMARK VINA RESULT:      -9.4      5.528      8.047
REMARK SMILES C[C@H](Cc1ccco1)[NH2+]Cc1cc(C(=O)OCCOC(=O)c2ccc(-c3c4nc(c(-c5c(F)cc(S(=O)(=O)[O-])cc5F)c5ccc([nH]5)c(-c5c(F)cc(S(=O)(=O)[O-])cc5F)c5nc(c(-c6c(F)cc(S(=O)(=O)[O-])cc6F)c6ccc3[nH]6)C=C5)C=C4)cc2)cs1
REMARK SMILES IDX 17 1 16 2 14 3 15 4 13 5 11 6 12 7 89 8 88 9 10 10 9 11 2 14
REMARK SMILES IDX 1 15 3 16 4 17 5 18 8 19 6 20 7 21 18 22 19 23 20 24 21 25
REMARK SMILES IDX 22 26 23 27 87 28 24 29 86 30 25 31 26 32 27 33 80 34 28 35
REMARK SMILES IDX 85 36 79 37 81 38 29 39 84 40 78 41 77 42 30 44 64 45 43 46
REMARK SMILES IDX 63 47 44 48 47 49 62 50 82 51 45 52 46 53 61 55 83 56 48 57
REMARK SMILES IDX 31 58 32 59 41 60 33 61 34 62 40 63 42 64 35 65 36 66 37 67
REMARK SMILES IDX 38 68 39 69 65 70 66 71 75 72 67 73 68 74 74 75 76 76 69 77
REMARK SMILES IDX 70 78 71 79 72 80 73 81 49 82 50 83 59 84 51 85 52 86 58 87
REMARK SMILES IDX 60 88 53 89 54 90 55 91 56 92 57 93
REMARK H PARENT 9 12 9 13 81 43 47 54
REMARK Flexibility Score: inf
ROOT
ATOM      1  C   UNL A   1      38.008  22.399  25.707  1.00  0.00     0.275 C 
ENDROOT
BRANCH   1   2
ATOM      2  O   UNL A   1      37.388  23.573  25.149  1.00  0.00    -0.458 OA
BRANCH   2   3
ATOM      3  C   UNL A   1      36.462  23.314  24.181  1.00  0.00     0.339 C 
ATOM      4  O   UNL A   1      36.637  22.521  23.260  1.00  0.00    -0.246 OA
BRANCH   3   5
ATOM      5  C   UNL A   1      35.219  24.066  24.326  1.00  0.00     0.071 A 
ATOM      6  C   UNL A   1      33.422  25.288  25.257  1.00  0.00     0.060 A 
ATOM      7  C   UNL A   1      34.631  24.650  25.505  1.00  0.00     0.037 A 
ATOM      8  S   UNL A   1      33.049  25.225  23.584  1.00  0.00    -0.142 S 
ATOM      9  C   UNL A   1      34.409  24.287  23.229  1.00  0.00     0.081 A 
BRANCH   6  10
ATOM     10  C   UNL A   1      32.527  26.012  26.245  1.00  0.00     0.308 C 
BRANCH  10  11
ATOM     11  N   UNL A   1      31.409  26.741  25.637  1.00  0.00    -0.339 N 
ATOM     12  H   UNL A   1      31.392  26.508  24.644  1.00  0.00     0.346 HD
ATOM     13  H   UNL A   1      30.582  26.447  26.155  1.00  0.00     0.346 HD
BRANCH  11  14
ATOM     14  C   UNL A   1      31.439  28.212  25.753  1.00  0.00     0.187 C 
ATOM     15  C   UNL A   1      32.260  28.964  24.698  1.00  0.00     0.075 C 
BRANCH  14  16
ATOM     16  C   UNL A   1      31.837  28.645  27.192  1.00  0.00     0.140 C 
BRANCH  16  17
ATOM     17  C   UNL A   1      33.113  29.412  27.335  1.00  0.00     0.109 A 
ATOM     18  C   UNL A   1      34.452  29.084  27.411  1.00  0.00     0.046 A 
ATOM     19  O   UNL A   1      32.973  30.764  27.490  1.00  0.00    -0.469 OA
ATOM     20  C   UNL A   1      35.166  30.297  27.562  1.00  0.00     0.042 A 
ATOM     21  C   UNL A   1      34.219  31.288  27.626  1.00  0.00     0.195 A 
ENDBRANCH  16  17
ENDBRANCH  14  16
ENDBRANCH  11  14
ENDBRANCH  10  11
ENDBRANCH   6  10
ENDBRANCH   3   5
ENDBRANCH   2   3
ENDBRANCH   1   2
BRANCH   1  22
ATOM     22  C   UNL A   1      39.321  22.719  26.429  1.00  0.00     0.275 C 
BRANCH  22  23
ATOM     23  O   UNL A   1      39.692  24.107  26.328  1.00  0.00    -0.458 OA
BRANCH  23  24
ATOM     24  C   UNL A   1      40.844  24.436  26.960  1.00  0.00     0.338 C 
ATOM     25  O   UNL A   1      41.944  23.941  26.779  1.00  0.00    -0.246 OA
BRANCH  24  26
ATOM     26  C   UNL A   1      40.628  25.580  27.862  1.00  0.00     0.060 A 
ATOM     27  C   UNL A   1      41.652  26.520  27.987  1.00  0.00     0.016 A 
ATOM     28  C   UNL A   1      39.496  25.657  28.677  1.00  0.00     0.016 A 
ATOM     29  C   UNL A   1      41.561  27.532  28.941  1.00  0.00     0.010 A 
ATOM     30  C   UNL A   1      39.400  26.687  29.625  1.00  0.00     0.010 A 
ATOM     31  C   UNL A   1      40.438  27.623  29.778  1.00  0.00    -0.014 A 
BRANCH  31  32
ATOM     32  C   UNL A   1      40.387  28.666  30.843  1.00  0.00     0.031 A 
ATOM     33  C   UNL A   1      41.341  28.608  32.007  1.00  0.00     0.074 A 
ATOM     34  C   UNL A   1      39.507  29.683  30.756  1.00  0.00     0.049 A 
ATOM     35  N   UNL A   1      41.384  29.357  33.081  1.00  0.00    -0.248 NA
ATOM     36  C   UNL A   1      42.381  27.569  31.959  1.00  0.00     0.031 C 
ATOM     37  C   UNL A   1      38.557  29.885  29.662  1.00  0.00     0.029 A 
ATOM     38  N   UNL A   1      39.274  30.742  31.599  1.00  0.00    -0.354 N 
ATOM     39  C   UNL A   1      42.427  28.858  33.854  1.00  0.00     0.074 A 
ATOM     40  C   UNL A   1      42.987  27.737  33.128  1.00  0.00     0.031 C 
ATOM     41  C   UNL A   1      37.858  31.009  29.890  1.00  0.00     0.029 A 
ATOM     42  C   UNL A   1      38.266  31.575  31.173  1.00  0.00     0.049 A 
ATOM     43  H   UNL A   1      39.781  30.891  32.430  1.00  0.00     0.167 HD
ATOM     44  C   UNL A   1      42.878  29.294  35.056  1.00  0.00     0.037 A 
ATOM     45  C   UNL A   1      37.709  32.652  31.760  1.00  0.00     0.037 A 
ATOM     46  C   UNL A   1      42.345  30.435  35.759  1.00  0.00     0.049 A 
ATOM     47  C   UNL A   1      38.204  33.101  33.108  1.00  0.00     0.074 A 
ATOM     48  C   UNL A   1      42.746  30.960  36.976  1.00  0.00     0.029 A 
ATOM     49  N   UNL A   1      41.307  31.234  35.304  1.00  0.00    -0.354 N 
ATOM     50  N   UNL A   1      39.166  32.595  33.843  1.00  0.00    -0.248 NA
ATOM     51  C   UNL A   1      37.531  34.258  33.713  1.00  0.00     0.031 C 
ATOM     52  C   UNL A   1      41.928  32.056  37.274  1.00  0.00     0.029 A 
ATOM     53  C   UNL A   1      41.045  32.239  36.222  1.00  0.00     0.049 A 
ATOM     54  H   UNL A   1      40.827  31.107  34.455  1.00  0.00     0.167 HD
ATOM     55  C   UNL A   1      39.220  33.377  34.990  1.00  0.00     0.074 A 
ATOM     56  C   UNL A   1      38.206  34.401  34.846  1.00  0.00     0.031 C 
ATOM     57  C   UNL A   1      40.034  33.254  36.068  1.00  0.00     0.037 A 
BRANCH  44  58
ATOM     58  C   UNL A   1      43.984  28.513  35.710  1.00  0.00     0.058 A 
ATOM     59  C   UNL A   1      45.337  28.782  35.455  1.00  0.00     0.135 A 
ATOM     60  C   UNL A   1      43.683  27.496  36.632  1.00  0.00     0.135 A 
ATOM     61  F   UNL A   1      45.682  29.733  34.573  1.00  0.00    -0.206 F 
ATOM     62  C   UNL A   1      46.353  28.051  36.066  1.00  0.00     0.059 A 
ATOM     63  C   UNL A   1      44.681  26.769  37.273  1.00  0.00     0.059 A 
ATOM     64  F   UNL A   1      42.404  27.199  36.916  1.00  0.00    -0.206 F 
ATOM     65  C   UNL A   1      46.013  27.042  36.970  1.00  0.00     0.060 A 
BRANCH  65  66
ATOM     66  S   UNL A   1      47.338  26.093  37.749  1.00  0.00     0.124 S 
ATOM     67  O   UNL A   1      48.470  26.412  36.884  1.00  0.00    -0.237 OA
ATOM     68  O   UNL A   1      47.387  26.663  39.092  1.00  0.00    -0.237 OA
ATOM     69  O   UNL A   1      46.859  24.716  37.673  1.00  0.00    -0.744 OA
ENDBRANCH  65  66
ENDBRANCH  44  58
BRANCH  45  70
ATOM     70  C   UNL A   1      36.592  33.365  31.084  1.00  0.00     0.058 A 
ATOM     71  C   UNL A   1      36.822  34.176  29.964  1.00  0.00     0.135 A 
ATOM     72  C   UNL A   1      35.270  33.232  31.535  1.00  0.00     0.135 A 
ATOM     73  F   UNL A   1      38.071  34.347  29.504  1.00  0.00    -0.206 F 
ATOM     74  C   UNL A   1      35.782  34.832  29.314  1.00  0.00     0.059 A 
ATOM     75  C   UNL A   1      34.209  33.856  30.887  1.00  0.00     0.059 A 
ATOM     76  F   UNL A   1      34.996  32.461  32.599  1.00  0.00    -0.206 F 
ATOM     77  C   UNL A   1      34.476  34.662  29.780  1.00  0.00     0.060 A 
BRANCH  77  78
ATOM     78  S   UNL A   1      33.121  35.458  28.890  1.00  0.00     0.124 S 
ATOM     79  O   UNL A   1      32.320  35.986  29.988  1.00  0.00    -0.237 OA
ATOM     80  O   UNL A   1      33.824  36.448  28.079  1.00  0.00    -0.237 OA
ATOM     81  O   UNL A   1      32.522  34.358  28.141  1.00  0.00    -0.744 OA
ENDBRANCH  77  78
ENDBRANCH  45  70
BRANCH  57  82
ATOM     82  C   UNL A   1      39.879  34.267  37.168  1.00  0.00     0.058 A 
ATOM     83  C   UNL A   1      40.532  35.509  37.122  1.00  0.00     0.135 A 
ATOM     84  C   UNL A   1      39.035  34.010  38.260  1.00  0.00     0.135 A 
ATOM     85  F   UNL A   1      41.355  35.802  36.102  1.00  0.00    -0.206 F 
ATOM     86  C   UNL A   1      40.369  36.454  38.131  1.00  0.00     0.059 A 
ATOM     87  C   UNL A   1      38.840  34.948  39.269  1.00  0.00     0.059 A 
ATOM     88  F   UNL A   1      38.382  32.841  38.348  1.00  0.00    -0.206 F 
ATOM     89  C   UNL A   1      39.521  36.163  39.202  1.00  0.00     0.060 A 
BRANCH  89  90
ATOM     90  S   UNL A   1      39.294  37.407  40.490  1.00  0.00     0.124 S 
ATOM     91  O   UNL A   1      38.947  36.580  41.641  1.00  0.00    -0.237 OA
ATOM     92  O   UNL A   1      40.604  38.050  40.544  1.00  0.00    -0.237 OA
ATOM     93  O   UNL A   1      38.215  38.242  39.968  1.00  0.00    -0.744 OA
ENDBRANCH  89  90
ENDBRANCH  57  82
ENDBRANCH  31  32
ENDBRANCH  24  26
ENDBRANCH  23  24
ENDBRANCH  22  23
ENDBRANCH   1  22
TORSDOF 19
ENDMDL
MODEL 3
REMARK VINA RESULT:      -9.2      6.145      8.569
REMARK SMILES C[C@H](Cc1ccco1)[NH2+]Cc1cc(C(=O)OCCOC(=O)c2ccc(-c3c4nc(c(-c5c(F)cc(S(=O)(=O)[O-])cc5F)c5ccc([nH]5)c(-c5c(F)cc(S(=O)(=O)[O-])cc5F)c5nc(c(-c6c(F)cc(S(=O)(=O)[O-])cc6F)c6ccc3[nH]6)C=C5)C=C4)cc2)cs1
REMARK SMILES IDX 17 1 16 2 14 3 15 4 13 5 11 6 12 7 89 8 88 9 10 10 9 11 2 14
REMARK SMILES IDX 1 15 3 16 4 17 5 18 8 19 6 20 7 21 18 22 19 23 20 24 21 25
REMARK SMILES IDX 22 26 23 27 87 28 24 29 86 30 25 31 26 32 27 33 80 34 28 35
REMARK SMILES IDX 85 36 79 37 81 38 29 39 84 40 78 41 77 42 30 44 64 45 43 46
REMARK SMILES IDX 63 47 44 48 47 49 62 50 82 51 45 52 46 53 61 55 83 56 48 57
REMARK SMILES IDX 31 58 32 59 41 60 33 61 34 62 40 63 42 64 35 65 36 66 37 67
REMARK SMILES IDX 38 68 39 69 65 70 66 71 75 72 67 73 68 74 74 75 76 76 69 77
REMARK SMILES IDX 70 78 71 79 72 80 73 81 49 82 50 83 59 84 51 85 52 86 58 87
REMARK SMILES IDX 60 88 53 89 54 90 55 91 56 92 57 93
REMARK H PARENT 9 12 9 13 81 43 47 54
REMARK Flexibility Score: inf
ROOT
ATOM      1  C   UNL A   1      37.980  22.202  25.506  1.00  0.00     0.275 C 
ENDROOT
BRANCH   1   2
ATOM      2  O   UNL A   1      36.994  22.128  24.459  1.00  0.00    -0.458 OA
BRANCH   2   3
ATOM      3  C   UNL A   1      35.704  22.162  24.898  1.00  0.00     0.339 C 
ATOM      4  O   UNL A   1      35.217  21.331  25.660  1.00  0.00    -0.246 OA
BRANCH   3   5
ATOM      5  C   UNL A   1      34.926  23.286  24.384  1.00  0.00     0.071 A 
ATOM      6  C   UNL A   1      33.891  25.401  24.178  1.00  0.00     0.060 A 
ATOM      7  C   UNL A   1      34.704  24.588  24.958  1.00  0.00     0.037 A 
ATOM      8  S   UNL A   1      33.461  24.594  22.726  1.00  0.00    -0.142 S 
ATOM      9  C   UNL A   1      34.253  23.172  23.182  1.00  0.00     0.081 A 
BRANCH   6  10
ATOM     10  C   UNL A   1      33.447  26.824  24.458  1.00  0.00     0.308 C 
BRANCH  10  11
ATOM     11  N   UNL A   1      32.274  27.261  23.693  1.00  0.00    -0.339 N 
ATOM     12  H   UNL A   1      32.493  28.171  23.286  1.00  0.00     0.346 HD
ATOM     13  H   UNL A   1      32.105  26.522  23.013  1.00  0.00     0.346 HD
BRANCH  11  14
ATOM     14  C   UNL A   1      31.010  27.399  24.443  1.00  0.00     0.187 C 
ATOM     15  C   UNL A   1      30.887  26.579  25.733  1.00  0.00     0.075 C 
BRANCH  14  16
ATOM     16  C   UNL A   1      29.787  27.170  23.510  1.00  0.00     0.140 C 
BRANCH  16  17
ATOM     17  C   UNL A   1      29.178  28.386  22.889  1.00  0.00     0.109 A 
ATOM     18  C   UNL A   1      27.912  28.935  22.842  1.00  0.00     0.046 A 
ATOM     19  O   UNL A   1      30.022  29.141  22.122  1.00  0.00    -0.469 OA
ATOM     20  C   UNL A   1      28.000  30.110  22.058  1.00  0.00     0.042 A 
ATOM     21  C   UNL A   1      29.301  30.179  21.625  1.00  0.00     0.195 A 
ENDBRANCH  16  17
ENDBRANCH  14  16
ENDBRANCH  11  14
ENDBRANCH  10  11
ENDBRANCH   6  10
ENDBRANCH   3   5
ENDBRANCH   2   3
ENDBRANCH   1   2
BRANCH   1  22
ATOM     22  C   UNL A   1      38.249  23.642  25.955  1.00  0.00     0.275 C 
BRANCH  22  23
ATOM     23  O   UNL A   1      39.296  23.733  26.941  1.00  0.00    -0.458 OA
BRANCH  23  24
ATOM     24  C   UNL A   1      40.244  24.667  26.680  1.00  0.00     0.338 C 
ATOM     25  O   UNL A   1      40.865  24.805  25.639  1.00  0.00    -0.246 OA
BRANCH  24  26
ATOM     26  C   UNL A   1      40.374  25.599  27.812  1.00  0.00     0.060 A 
ATOM     27  C   UNL A   1      39.351  25.625  28.762  1.00  0.00     0.016 A 
ATOM     28  C   UNL A   1      41.413  26.531  27.869  1.00  0.00     0.016 A 
ATOM     29  C   UNL A   1      39.350  26.595  29.763  1.00  0.00     0.010 A 
ATOM     30  C   UNL A   1      41.418  27.495  28.888  1.00  0.00     0.010 A 
ATOM     31  C   UNL A   1      40.378  27.547  29.834  1.00  0.00    -0.014 A 
BRANCH  31  32
ATOM     32  C   UNL A   1      40.325  28.623  30.864  1.00  0.00     0.031 A 
ATOM     33  C   UNL A   1      41.279  28.605  32.030  1.00  0.00     0.074 A 
ATOM     34  C   UNL A   1      39.444  29.636  30.744  1.00  0.00     0.049 A 
ATOM     35  N   UNL A   1      41.320  29.387  33.080  1.00  0.00    -0.248 NA
ATOM     36  C   UNL A   1      42.320  27.566  32.016  1.00  0.00     0.031 C 
ATOM     37  C   UNL A   1      38.494  29.802  29.644  1.00  0.00     0.029 A 
ATOM     38  N   UNL A   1      39.209  30.722  31.552  1.00  0.00    -0.354 N 
ATOM     39  C   UNL A   1      42.363  28.915  33.869  1.00  0.00     0.074 A 
ATOM     40  C   UNL A   1      42.925  27.772  33.179  1.00  0.00     0.031 C 
ATOM     41  C   UNL A   1      37.794  30.932  29.836  1.00  0.00     0.029 A 
ATOM     42  C   UNL A   1      38.201  31.539  31.100  1.00  0.00     0.049 A 
ATOM     43  H   UNL A   1      39.715  30.897  32.378  1.00  0.00     0.167 HD
ATOM     44  C   UNL A   1      42.813  29.390  35.056  1.00  0.00     0.037 A 
ATOM     45  C   UNL A   1      37.642  32.634  31.651  1.00  0.00     0.037 A 
ATOM     46  C   UNL A   1      42.279  30.552  35.721  1.00  0.00     0.049 A 
ATOM     47  C   UNL A   1      38.136  33.127  32.985  1.00  0.00     0.074 A 
ATOM     48  C   UNL A   1      42.678  31.116  36.921  1.00  0.00     0.029 A 
ATOM     49  N   UNL A   1      41.240  31.335  35.241  1.00  0.00    -0.354 N 
ATOM     50  N   UNL A   1      39.098  32.646  33.736  1.00  0.00    -0.248 NA
ATOM     51  C   UNL A   1      37.461  34.302  33.552  1.00  0.00     0.031 C 
ATOM     52  C   UNL A   1      41.859  32.220  37.184  1.00  0.00     0.029 A 
ATOM     53  C   UNL A   1      40.976  32.368  36.126  1.00  0.00     0.049 A 
ATOM     54  H   UNL A   1      40.761  31.180  34.396  1.00  0.00     0.167 HD
ATOM     55  C   UNL A   1      39.150  33.464  34.858  1.00  0.00     0.074 A 
ATOM     56  C   UNL A   1      38.135  34.482  34.680  1.00  0.00     0.031 C 
ATOM     57  C   UNL A   1      39.964  33.377  35.939  1.00  0.00     0.037 A 
BRANCH  44  58
ATOM     58  C   UNL A   1      43.920  28.631  35.735  1.00  0.00     0.058 A 
ATOM     59  C   UNL A   1      45.273  28.937  35.521  1.00  0.00     0.135 A 
ATOM     60  C   UNL A   1      43.619  27.599  36.641  1.00  0.00     0.135 A 
ATOM     61  F   UNL A   1      45.618  29.903  34.656  1.00  0.00    -0.206 F 
ATOM     62  C   UNL A   1      46.289  28.227  36.155  1.00  0.00     0.059 A 
ATOM     63  C   UNL A   1      44.616  26.892  37.304  1.00  0.00     0.059 A 
ATOM     64  F   UNL A   1      42.341  27.268  36.886  1.00  0.00    -0.206 F 
ATOM     65  C   UNL A   1      45.949  27.202  37.041  1.00  0.00     0.060 A 
BRANCH  65  66
ATOM     66  S   UNL A   1      47.276  26.280  37.850  1.00  0.00     0.124 S 
ATOM     67  O   UNL A   1      47.383  26.984  39.124  1.00  0.00    -0.237 OA
ATOM     68  O   UNL A   1      46.725  24.930  37.917  1.00  0.00    -0.237 OA
ATOM     69  O   UNL A   1      48.407  26.447  36.943  1.00  0.00    -0.744 OA
ENDBRANCH  65  66
ENDBRANCH  44  58
BRANCH  45  70
ATOM     70  C   UNL A   1      36.525  33.324  30.953  1.00  0.00     0.058 A 
ATOM     71  C   UNL A   1      35.203  33.206  31.406  1.00  0.00     0.135 A 
ATOM     72  C   UNL A   1      36.761  34.131  29.830  1.00  0.00     0.135 A 
ATOM     73  F   UNL A   1      34.925  32.434  32.467  1.00  0.00    -0.206 F 
ATOM     74  C   UNL A   1      34.154  33.862  30.771  1.00  0.00     0.059 A 
ATOM     75  C   UNL A   1      35.733  34.819  29.193  1.00  0.00     0.059 A 
ATOM     76  F   UNL A   1      38.010  34.283  29.361  1.00  0.00    -0.206 F 
ATOM     77  C   UNL A   1      34.430  34.672  29.667  1.00  0.00     0.060 A 
BRANCH  77  78
ATOM     78  S   UNL A   1      33.075  35.579  28.889  1.00  0.00     0.124 S 
ATOM     79  O   UNL A   1      32.461  34.540  28.070  1.00  0.00    -0.237 OA
ATOM     80  O   UNL A   1      32.299  36.023  30.043  1.00  0.00    -0.237 OA
ATOM     81  O   UNL A   1      33.760  36.641  28.159  1.00  0.00    -0.744 OA
ENDBRANCH  77  78
ENDBRANCH  45  70
BRANCH  57  82
ATOM     82  C   UNL A   1      39.808  34.425  37.005  1.00  0.00     0.058 A 
ATOM     83  C   UNL A   1      38.993  34.216  38.129  1.00  0.00     0.135 A 
ATOM     84  C   UNL A   1      40.516  35.635  36.925  1.00  0.00     0.135 A 
ATOM     85  F   UNL A   1      38.290  33.078  38.251  1.00  0.00    -0.206 F 
ATOM     86  C   UNL A   1      38.868  35.179  39.126  1.00  0.00     0.059 A 
ATOM     87  C   UNL A   1      40.424  36.602  37.921  1.00  0.00     0.059 A 
ATOM     88  F   UNL A   1      41.315  35.881  35.875  1.00  0.00    -0.206 F 
ATOM     89  C   UNL A   1      39.588  36.371  39.013  1.00  0.00     0.060 A 
BRANCH  89  90
ATOM     90  S   UNL A   1      39.442  37.600  40.326  1.00  0.00     0.124 S 
ATOM     91  O   UNL A   1      38.851  36.812  41.403  1.00  0.00    -0.237 OA
ATOM     92  O   UNL A   1      40.828  38.012  40.529  1.00  0.00    -0.237 OA
ATOM     93  O   UNL A   1      38.573  38.618  39.742  1.00  0.00    -0.744 OA
ENDBRANCH  89  90
ENDBRANCH  57  82
ENDBRANCH  31  32
ENDBRANCH  24  26
ENDBRANCH  23  24
ENDBRANCH  22  23
ENDBRANCH   1  22
TORSDOF 19
ENDMDL
