MODEL 1
REMARK VINA RESULT:     -11.2      0.000      0.000
REMARK SMILES Cc1ccc(Cl)c(Nc2ccccc2C(=O)OCCOC(=O)c2ccc(-c3c4nc(c(-c5c(F)cc(S(=O)(=O)[O-])cc5F)c5ccc([nH]5)c(-c5c(F)cc(S(=O)(=O)[O-])cc5F)c5nc(c(-c6c(F)cc(S(=O)(=O)[O-])cc6F)c6ccc3[nH]6)C=C5)C=C4)cc2)c1Cl
REMARK SMILES IDX 19 1 18 2 17 3 15 4 16 5 14 6 9 7 10 8 11 9 13 10 12 11 8 12
REMARK SMILES IDX 7 14 1 15 2 16 3 17 89 18 4 19 90 20 5 21 6 22 20 23 21 24
REMARK SMILES IDX 22 25 23 26 24 27 88 28 25 29 87 30 26 31 27 32 28 33 81 34
REMARK SMILES IDX 29 35 86 36 80 37 82 38 30 39 85 40 79 41 78 42 31 44 65 45
REMARK SMILES IDX 44 46 64 47 45 48 48 49 63 50 83 51 46 52 47 53 62 55 84 56
REMARK SMILES IDX 49 57 32 58 33 59 42 60 34 61 35 62 41 63 43 64 36 65 37 66
REMARK SMILES IDX 38 67 39 68 40 69 66 70 67 71 76 72 68 73 69 74 75 75 77 76
REMARK SMILES IDX 70 77 71 78 72 79 73 80 74 81 50 82 51 83 60 84 52 85 53 86
REMARK SMILES IDX 59 87 61 88 54 89 55 90 56 91 57 92 58 93
REMARK H PARENT 8 13 82 43 48 54
REMARK Flexibility Score: inf
ROOT
ATOM      1  C   UNL A   1      32.667  28.743  26.618  1.00  0.00     0.275 C 
ENDROOT
BRANCH   1   2
ATOM      2  C   UNL A   1      31.601  27.865  27.264  1.00  0.00     0.275 C 
BRANCH   2   3
ATOM      3  O   UNL A   1      31.777  26.471  26.935  1.00  0.00    -0.458 OA
BRANCH   3   4
ATOM      4  C   UNL A   1      30.943  25.988  25.974  1.00  0.00     0.340 C 
ATOM      5  O   UNL A   1      29.764  25.730  26.111  1.00  0.00    -0.246 OA
BRANCH   4   6
ATOM      6  C   UNL A   1      31.650  25.853  24.676  1.00  0.00     0.083 A 
ATOM      7  C   UNL A   1      32.851  25.136  24.516  1.00  0.00     0.053 A 
ATOM      8  C   UNL A   1      33.427  25.106  23.229  1.00  0.00     0.027 A 
ATOM      9  C   UNL A   1      32.819  25.729  22.134  1.00  0.00     0.002 A 
ATOM     10  C   UNL A   1      31.030  26.448  23.563  1.00  0.00     0.018 A 
ATOM     11  C   UNL A   1      31.613  26.394  22.300  1.00  0.00     0.001 A 
BRANCH   7  12
ATOM     12  N   UNL A   1      33.475  24.340  25.502  1.00  0.00    -0.352 N 
ATOM     13  H   UNL A   1      33.560  24.775  26.380  1.00  0.00     0.167 HD
BRANCH  12  14
ATOM     14  C   UNL A   1      34.002  23.024  25.450  1.00  0.00     0.077 A 
ATOM     15  C   UNL A   1      37.281  21.142  24.733  1.00  0.00     0.046 C 
ATOM     16  C   UNL A   1      35.834  21.431  25.036  1.00  0.00    -0.030 A 
ATOM     17  C   UNL A   1      34.899  20.392  24.934  1.00  0.00     0.006 A 
ATOM     18  C   UNL A   1      35.384  22.734  25.342  1.00  0.00     0.069 A 
ATOM     19  C   UNL A   1      33.544  20.638  25.136  1.00  0.00     0.023 A 
ATOM     20  Cl  UNL A   1      36.570  23.961  25.692  1.00  0.00    -0.082 Cl
ATOM     21  C   UNL A   1      33.102  21.940  25.377  1.00  0.00     0.066 A 
ATOM     22  Cl  UNL A   1      31.395  22.192  25.542  1.00  0.00    -0.082 Cl
ENDBRANCH  12  14
ENDBRANCH   7  12
ENDBRANCH   4   6
ENDBRANCH   3   4
ENDBRANCH   2   3
ENDBRANCH   1   2
BRANCH   1  23
ATOM     23  O   UNL A   1      33.831  28.784  27.455  1.00  0.00    -0.458 OA
BRANCH  23  24
ATOM     24  C   UNL A   1      34.258  30.018  27.790  1.00  0.00     0.338 C 
ATOM     25  O   UNL A   1      33.603  31.051  27.831  1.00  0.00    -0.246 OA
BRANCH  24  26
ATOM     26  C   UNL A   1      35.679  29.962  28.153  1.00  0.00     0.060 A 
ATOM     27  C   UNL A   1      36.636  30.172  27.165  1.00  0.00     0.016 A 
ATOM     28  C   UNL A   1      36.065  29.560  29.429  1.00  0.00     0.016 A 
ATOM     29  C   UNL A   1      37.970  29.860  27.404  1.00  0.00     0.010 A 
ATOM     30  C   UNL A   1      37.422  29.364  29.702  1.00  0.00     0.010 A 
ATOM     31  C   UNL A   1      38.385  29.463  28.680  1.00  0.00    -0.014 A 
BRANCH  31  32
ATOM     32  C   UNL A   1      39.809  29.106  28.937  1.00  0.00     0.031 A 
ATOM     33  C   UNL A   1      40.749  30.137  29.507  1.00  0.00     0.074 A 
ATOM     34  C   UNL A   1      40.265  27.867  28.664  1.00  0.00     0.049 A 
ATOM     35  N   UNL A   1      42.053  30.108  29.598  1.00  0.00    -0.248 NA
ATOM     36  C   UNL A   1      40.142  31.375  30.022  1.00  0.00     0.031 C 
ATOM     37  C   UNL A   1      39.458  26.758  28.151  1.00  0.00     0.029 A 
ATOM     38  N   UNL A   1      41.524  27.329  28.780  1.00  0.00    -0.354 N 
ATOM     39  C   UNL A   1      42.428  31.348  30.104  1.00  0.00     0.074 A 
ATOM     40  C   UNL A   1      41.212  32.104  30.311  1.00  0.00     0.031 C 
ATOM     41  C   UNL A   1      40.229  25.668  28.026  1.00  0.00     0.029 A 
ATOM     42  C   UNL A   1      41.605  26.023  28.356  1.00  0.00     0.049 A 
ATOM     43  H   UNL A   1      42.294  27.831  29.132  1.00  0.00     0.167 HD
ATOM     44  C   UNL A   1      43.674  31.812  30.364  1.00  0.00     0.037 A 
ATOM     45  C   UNL A   1      42.669  25.214  28.194  1.00  0.00     0.037 A 
ATOM     46  C   UNL A   1      44.871  31.022  30.226  1.00  0.00     0.049 A 
ATOM     47  C   UNL A   1      44.040  25.743  28.498  1.00  0.00     0.074 A 
ATOM     48  C   UNL A   1      46.179  31.385  30.498  1.00  0.00     0.029 A 
ATOM     49  N   UNL A   1      44.904  29.704  29.792  1.00  0.00    -0.354 N 
ATOM     50  N   UNL A   1      44.385  26.936  28.921  1.00  0.00    -0.248 NA
ATOM     51  C   UNL A   1      45.168  24.828  28.285  1.00  0.00     0.031 C 
ATOM     52  C   UNL A   1      47.006  30.296  30.199  1.00  0.00     0.029 A 
ATOM     53  C   UNL A   1      46.210  29.242  29.779  1.00  0.00     0.049 A 
ATOM     54  H   UNL A   1      44.115  29.176  29.532  1.00  0.00     0.167 HD
ATOM     55  C   UNL A   1      45.770  26.917  29.024  1.00  0.00     0.074 A 
ATOM     56  C   UNL A   1      46.197  25.585  28.643  1.00  0.00     0.031 C 
ATOM     57  C   UNL A   1      46.613  27.913  29.392  1.00  0.00     0.037 A 
BRANCH  44  58
ATOM     58  C   UNL A   1      43.812  33.251  30.782  1.00  0.00     0.058 A 
ATOM     59  C   UNL A   1      43.742  33.654  32.125  1.00  0.00     0.135 A 
ATOM     60  C   UNL A   1      44.039  34.243  29.814  1.00  0.00     0.135 A 
ATOM     61  F   UNL A   1      43.510  32.750  33.090  1.00  0.00    -0.206 F 
ATOM     62  C   UNL A   1      43.861  34.993  32.490  1.00  0.00     0.059 A 
ATOM     63  C   UNL A   1      44.187  35.584  30.158  1.00  0.00     0.059 A 
ATOM     64  F   UNL A   1      44.117  33.914  28.515  1.00  0.00    -0.206 F 
ATOM     65  C   UNL A   1      44.079  35.951  31.498  1.00  0.00     0.060 A 
BRANCH  65  66
ATOM     66  S   UNL A   1      44.227  37.685  31.982  1.00  0.00     0.124 S 
ATOM     67  O   UNL A   1      45.654  37.785  32.271  1.00  0.00    -0.237 OA
ATOM     68  O   UNL A   1      43.774  38.385  30.783  1.00  0.00    -0.237 OA
ATOM     69  O   UNL A   1      43.343  37.792  33.137  1.00  0.00    -0.744 OA
ENDBRANCH  65  66
ENDBRANCH  44  58
BRANCH  45  70
ATOM     70  C   UNL A   1      42.469  23.837  27.668  1.00  0.00     0.058 A 
ATOM     71  C   UNL A   1      42.407  23.589  26.291  1.00  0.00     0.135 A 
ATOM     72  C   UNL A   1      42.393  22.735  28.537  1.00  0.00     0.135 A 
ATOM     73  F   UNL A   1      42.463  24.610  25.421  1.00  0.00    -0.206 F 
ATOM     74  C   UNL A   1      42.282  22.296  25.789  1.00  0.00     0.059 A 
ATOM     75  C   UNL A   1      42.295  21.433  28.059  1.00  0.00     0.059 A 
ATOM     76  F   UNL A   1      42.460  22.919  29.864  1.00  0.00    -0.206 F 
ATOM     77  C   UNL A   1      42.235  21.224  26.682  1.00  0.00     0.060 A 
BRANCH  77  78
ATOM     78  S   UNL A   1      42.163  19.544  26.023  1.00  0.00     0.124 S 
ATOM     79  O   UNL A   1      43.113  19.620  24.920  1.00  0.00    -0.237 OA
ATOM     80  O   UNL A   1      42.578  18.743  27.170  1.00  0.00    -0.237 OA
ATOM     81  O   UNL A   1      40.761  19.395  25.640  1.00  0.00    -0.744 OA
ENDBRANCH  77  78
ENDBRANCH  45  70
BRANCH  57  82
ATOM     82  C   UNL A   1      48.079  27.592  29.417  1.00  0.00     0.058 A 
ATOM     83  C   UNL A   1      48.880  27.733  28.274  1.00  0.00     0.135 A 
ATOM     84  C   UNL A   1      48.696  27.173  30.606  1.00  0.00     0.135 A 
ATOM     85  F   UNL A   1      48.335  28.121  27.111  1.00  0.00    -0.206 F 
ATOM     86  C   UNL A   1      50.241  27.449  28.303  1.00  0.00     0.059 A 
ATOM     87  C   UNL A   1      50.059  26.905  30.664  1.00  0.00     0.059 A 
ATOM     88  F   UNL A   1      47.974  27.031  31.729  1.00  0.00    -0.206 F 
ATOM     89  C   UNL A   1      50.822  27.034  29.503  1.00  0.00     0.060 A 
BRANCH  89  90
ATOM     90  S   UNL A   1      52.593  26.692  29.537  1.00  0.00     0.124 S 
ATOM     91  O   UNL A   1      52.794  26.058  28.238  1.00  0.00    -0.237 OA
ATOM     92  O   UNL A   1      53.169  28.024  29.688  1.00  0.00    -0.237 OA
ATOM     93  O   UNL A   1      52.747  25.815  30.694  1.00  0.00    -0.744 OA
ENDBRANCH  89  90
ENDBRANCH  57  82
ENDBRANCH  31  32
ENDBRANCH  24  26
ENDBRANCH  23  24
ENDBRANCH   1  23
TORSDOF 16
ENDMDL
MODEL 2
REMARK VINA RESULT:     -11.2      4.444      6.742
REMARK SMILES Cc1ccc(Cl)c(Nc2ccccc2C(=O)OCCOC(=O)c2ccc(-c3c4nc(c(-c5c(F)cc(S(=O)(=O)[O-])cc5F)c5ccc([nH]5)c(-c5c(F)cc(S(=O)(=O)[O-])cc5F)c5nc(c(-c6c(F)cc(S(=O)(=O)[O-])cc6F)c6ccc3[nH]6)C=C5)C=C4)cc2)c1Cl
REMARK SMILES IDX 19 1 18 2 17 3 15 4 16 5 14 6 9 7 10 8 11 9 13 10 12 11 8 12
REMARK SMILES IDX 7 14 1 15 2 16 3 17 89 18 4 19 90 20 5 21 6 22 20 23 21 24
REMARK SMILES IDX 22 25 23 26 24 27 88 28 25 29 87 30 26 31 27 32 28 33 81 34
REMARK SMILES IDX 29 35 86 36 80 37 82 38 30 39 85 40 79 41 78 42 31 44 65 45
REMARK SMILES IDX 44 46 64 47 45 48 48 49 63 50 83 51 46 52 47 53 62 55 84 56
REMARK SMILES IDX 49 57 32 58 33 59 42 60 34 61 35 62 41 63 43 64 36 65 37 66
REMARK SMILES IDX 38 67 39 68 40 69 66 70 67 71 76 72 68 73 69 74 75 75 77 76
REMARK SMILES IDX 70 77 71 78 72 79 73 80 74 81 50 82 51 83 60 84 52 85 53 86
REMARK SMILES IDX 59 87 61 88 54 89 55 90 56 91 57 92 58 93
REMARK H PARENT 8 13 82 43 48 54
REMARK Flexibility Score: inf
ROOT
ATOM      1  C   UNL A   1      34.364  31.427  28.018  1.00  0.00     0.275 C 
ENDROOT
BRANCH   1   2
ATOM      2  C   UNL A   1      33.845  32.861  28.055  1.00  0.00     0.275 C 
BRANCH   2   3
ATOM      3  O   UNL A   1      33.968  33.445  29.369  1.00  0.00    -0.458 OA
BRANCH   3   4
ATOM      4  C   UNL A   1      33.911  34.804  29.410  1.00  0.00     0.340 C 
ATOM      5  O   UNL A   1      33.776  35.546  28.459  1.00  0.00    -0.246 OA
BRANCH   4   6
ATOM      6  C   UNL A   1      33.985  35.296  30.809  1.00  0.00     0.083 A 
ATOM      7  C   UNL A   1      34.788  34.701  31.801  1.00  0.00     0.053 A 
ATOM      8  C   UNL A   1      34.748  35.259  33.095  1.00  0.00     0.027 A 
ATOM      9  C   UNL A   1      33.973  36.387  33.388  1.00  0.00     0.002 A 
ATOM     10  C   UNL A   1      33.235  36.448  31.105  1.00  0.00     0.018 A 
ATOM     11  C   UNL A   1      33.222  36.988  32.389  1.00  0.00     0.001 A 
BRANCH   7  12
ATOM     12  N   UNL A   1      35.726  33.666  31.593  1.00  0.00    -0.352 N 
ATOM     13  H   UNL A   1      35.341  32.838  31.225  1.00  0.00     0.167 HD
BRANCH  12  14
ATOM     14  C   UNL A   1      37.124  33.606  31.820  1.00  0.00     0.077 A 
ATOM     15  C   UNL A   1      39.686  33.459  34.688  1.00  0.00     0.046 C 
ATOM     16  C   UNL A   1      39.084  33.551  33.310  1.00  0.00    -0.030 A 
ATOM     17  C   UNL A   1      39.903  33.928  32.236  1.00  0.00     0.006 A 
ATOM     18  C   UNL A   1      37.706  33.344  33.084  1.00  0.00     0.069 A 
ATOM     19  C   UNL A   1      39.367  34.093  30.963  1.00  0.00     0.023 A 
ATOM     20  Cl  UNL A   1      36.748  32.656  34.366  1.00  0.00    -0.082 Cl
ATOM     21  C   UNL A   1      37.993  33.948  30.762  1.00  0.00     0.066 A 
ATOM     22  Cl  UNL A   1      37.378  34.243  29.168  1.00  0.00    -0.082 Cl
ENDBRANCH  12  14
ENDBRANCH   7  12
ENDBRANCH   4   6
ENDBRANCH   3   4
ENDBRANCH   2   3
ENDBRANCH   1   2
BRANCH   1  23
ATOM     23  O   UNL A   1      35.782  31.422  28.230  1.00  0.00    -0.458 OA
BRANCH  23  24
ATOM     24  C   UNL A   1      36.192  30.855  29.383  1.00  0.00     0.338 C 
ATOM     25  O   UNL A   1      35.629  30.879  30.469  1.00  0.00    -0.246 OA
BRANCH  24  26
ATOM     26  C   UNL A   1      37.451  30.137  29.155  1.00  0.00     0.060 A 
ATOM     27  C   UNL A   1      38.221  29.761  30.251  1.00  0.00     0.016 A 
ATOM     28  C   UNL A   1      37.940  29.965  27.863  1.00  0.00     0.016 A 
ATOM     29  C   UNL A   1      39.531  29.332  30.073  1.00  0.00     0.010 A 
ATOM     30  C   UNL A   1      39.214  29.418  27.681  1.00  0.00     0.010 A 
ATOM     31  C   UNL A   1      40.043  29.142  28.784  1.00  0.00    -0.014 A 
BRANCH  31  32
ATOM     32  C   UNL A   1      41.454  28.703  28.586  1.00  0.00     0.031 A 
ATOM     33  C   UNL A   1      42.575  29.702  28.712  1.00  0.00     0.074 A 
ATOM     34  C   UNL A   1      41.737  27.417  28.298  1.00  0.00     0.049 A 
ATOM     35  N   UNL A   1      43.831  29.585  28.367  1.00  0.00    -0.248 NA
ATOM     36  C   UNL A   1      42.231  31.017  29.278  1.00  0.00     0.031 C 
ATOM     37  C   UNL A   1      40.757  26.333  28.189  1.00  0.00     0.029 A 
ATOM     38  N   UNL A   1      42.937  26.798  28.040  1.00  0.00    -0.354 N 
ATOM     39  C   UNL A   1      44.408  30.829  28.600  1.00  0.00     0.074 A 
ATOM     40  C   UNL A   1      43.366  31.685  29.125  1.00  0.00     0.031 C 
ATOM     41  C   UNL A   1      41.393  25.184  27.920  1.00  0.00     0.029 A 
ATOM     42  C   UNL A   1      42.814  25.462  27.741  1.00  0.00     0.049 A 
ATOM     43  H   UNL A   1      43.802  27.268  28.068  1.00  0.00     0.167 HD
ATOM     44  C   UNL A   1      45.687  31.220  28.386  1.00  0.00     0.037 A 
ATOM     45  C   UNL A   1      43.725  24.567  27.313  1.00  0.00     0.037 A 
ATOM     46  C   UNL A   1      46.733  30.336  27.935  1.00  0.00     0.049 A 
ATOM     47  C   UNL A   1      45.140  25.017  27.093  1.00  0.00     0.074 A 
ATOM     48  C   UNL A   1      48.070  30.622  27.722  1.00  0.00     0.029 A 
ATOM     49  N   UNL A   1      46.560  28.991  27.643  1.00  0.00    -0.354 N 
ATOM     50  N   UNL A   1      45.659  26.210  27.262  1.00  0.00    -0.248 NA
ATOM     51  C   UNL A   1      46.089  24.008  26.607  1.00  0.00     0.031 C 
ATOM     52  C   UNL A   1      48.700  29.456  27.271  1.00  0.00     0.029 A 
ATOM     53  C   UNL A   1      47.764  28.434  27.242  1.00  0.00     0.049 A 
ATOM     54  H   UNL A   1      45.708  28.503  27.711  1.00  0.00     0.167 HD
ATOM     55  C   UNL A   1      46.995  26.098  26.901  1.00  0.00     0.074 A 
ATOM     56  C   UNL A   1      47.211  24.713  26.529  1.00  0.00     0.031 C 
ATOM     57  C   UNL A   1      47.955  27.055  26.872  1.00  0.00     0.037 A 
BRANCH  44  58
ATOM     58  C   UNL A   1      46.020  32.672  28.596  1.00  0.00     0.058 A 
ATOM     59  C   UNL A   1      46.476  33.169  29.827  1.00  0.00     0.135 A 
ATOM     60  C   UNL A   1      45.897  33.579  27.530  1.00  0.00     0.135 A 
ATOM     61  F   UNL A   1      46.596  32.350  30.883  1.00  0.00    -0.206 F 
ATOM     62  C   UNL A   1      46.768  34.519  30.003  1.00  0.00     0.059 A 
ATOM     63  C   UNL A   1      46.208  34.929  27.676  1.00  0.00     0.059 A 
ATOM     64  F   UNL A   1      45.467  33.159  26.331  1.00  0.00    -0.206 F 
ATOM     65  C   UNL A   1      46.627  35.392  28.922  1.00  0.00     0.060 A 
BRANCH  65  66
ATOM     66  S   UNL A   1      47.003  37.142  29.162  1.00  0.00     0.124 S 
ATOM     67  O   UNL A   1      48.229  37.285  28.384  1.00  0.00    -0.237 OA
ATOM     68  O   UNL A   1      45.822  37.797  28.607  1.00  0.00    -0.237 OA
ATOM     69  O   UNL A   1      47.159  37.261  30.608  1.00  0.00    -0.744 OA
ENDBRANCH  65  66
ENDBRANCH  44  58
BRANCH  45  70
ATOM     70  C   UNL A   1      43.300  23.173  27.017  1.00  0.00     0.058 A 
ATOM     71  C   UNL A   1      43.209  22.707  25.699  1.00  0.00     0.135 A 
ATOM     72  C   UNL A   1      43.031  22.264  28.054  1.00  0.00     0.135 A 
ATOM     73  F   UNL A   1      43.445  23.540  24.674  1.00  0.00    -0.206 F 
ATOM     74  C   UNL A   1      42.872  21.386  25.416  1.00  0.00     0.059 A 
ATOM     75  C   UNL A   1      42.719  20.933  27.797  1.00  0.00     0.059 A 
ATOM     76  F   UNL A   1      43.116  22.658  29.334  1.00  0.00    -0.206 F 
ATOM     77  C   UNL A   1      42.637  20.504  26.473  1.00  0.00     0.060 A 
BRANCH  77  78
ATOM     78  S   UNL A   1      42.288  18.772  26.102  1.00  0.00     0.124 S 
ATOM     79  O   UNL A   1      43.230  18.508  25.021  1.00  0.00    -0.237 OA
ATOM     80  O   UNL A   1      42.576  18.118  27.374  1.00  0.00    -0.237 OA
ATOM     81  O   UNL A   1      40.877  18.789  25.721  1.00  0.00    -0.744 OA
ENDBRANCH  77  78
ENDBRANCH  45  70
BRANCH  57  82
ATOM     82  C   UNL A   1      49.328  26.630  26.440  1.00  0.00     0.058 A 
ATOM     83  C   UNL A   1      50.220  26.014  27.331  1.00  0.00     0.135 A 
ATOM     84  C   UNL A   1      49.743  26.807  25.111  1.00  0.00     0.135 A 
ATOM     85  F   UNL A   1      49.873  25.831  28.615  1.00  0.00    -0.206 F 
ATOM     86  C   UNL A   1      51.486  25.607  26.924  1.00  0.00     0.059 A 
ATOM     87  C   UNL A   1      50.996  26.387  24.676  1.00  0.00     0.059 A 
ATOM     88  F   UNL A   1      48.923  27.383  24.218  1.00  0.00    -0.206 F 
ATOM     89  C   UNL A   1      51.866  25.799  25.594  1.00  0.00     0.060 A 
BRANCH  89  90
ATOM     90  S   UNL A   1      53.501  25.245  25.070  1.00  0.00     0.124 S 
ATOM     91  O   UNL A   1      53.431  23.815  25.356  1.00  0.00    -0.237 OA
ATOM     92  O   UNL A   1      53.520  25.608  23.658  1.00  0.00    -0.237 OA
ATOM     93  O   UNL A   1      54.407  26.011  25.921  1.00  0.00    -0.744 OA
ENDBRANCH  89  90
ENDBRANCH  57  82
ENDBRANCH  31  32
ENDBRANCH  24  26
ENDBRANCH  23  24
ENDBRANCH   1  23
TORSDOF 16
ENDMDL
MODEL 3
REMARK VINA RESULT:     -11.2      2.488      3.318
REMARK SMILES Cc1ccc(Cl)c(Nc2ccccc2C(=O)OCCOC(=O)c2ccc(-c3c4nc(c(-c5c(F)cc(S(=O)(=O)[O-])cc5F)c5ccc([nH]5)c(-c5c(F)cc(S(=O)(=O)[O-])cc5F)c5nc(c(-c6c(F)cc(S(=O)(=O)[O-])cc6F)c6ccc3[nH]6)C=C5)C=C4)cc2)c1Cl
REMARK SMILES IDX 19 1 18 2 17 3 15 4 16 5 14 6 9 7 10 8 11 9 13 10 12 11 8 12
REMARK SMILES IDX 7 14 1 15 2 16 3 17 89 18 4 19 90 20 5 21 6 22 20 23 21 24
REMARK SMILES IDX 22 25 23 26 24 27 88 28 25 29 87 30 26 31 27 32 28 33 81 34
REMARK SMILES IDX 29 35 86 36 80 37 82 38 30 39 85 40 79 41 78 42 31 44 65 45
REMARK SMILES IDX 44 46 64 47 45 48 48 49 63 50 83 51 46 52 47 53 62 55 84 56
REMARK SMILES IDX 49 57 32 58 33 59 42 60 34 61 35 62 41 63 43 64 36 65 37 66
REMARK SMILES IDX 38 67 39 68 40 69 66 70 67 71 76 72 68 73 69 74 75 75 77 76
REMARK SMILES IDX 70 77 71 78 72 79 73 80 74 81 50 82 51 83 60 84 52 85 53 86
REMARK SMILES IDX 59 87 61 88 54 89 55 90 56 91 57 92 58 93
REMARK H PARENT 8 13 82 43 48 54
REMARK Flexibility Score: inf
ROOT
ATOM      1  C   UNL A   1      34.014  31.190  27.717  1.00  0.00     0.275 C 
ENDROOT
BRANCH   1   2
ATOM      2  C   UNL A   1      32.905  30.230  27.300  1.00  0.00     0.275 C 
BRANCH   2   3
ATOM      3  O   UNL A   1      32.577  30.361  25.901  1.00  0.00    -0.458 OA
BRANCH   3   4
ATOM      4  C   UNL A   1      32.960  29.320  25.112  1.00  0.00     0.340 C 
ATOM      5  O   UNL A   1      34.018  28.726  25.172  1.00  0.00    -0.246 OA
BRANCH   4   6
ATOM      6  C   UNL A   1      31.880  28.945  24.166  1.00  0.00     0.083 A 
ATOM      7  C   UNL A   1      31.980  27.874  23.257  1.00  0.00     0.053 A 
ATOM      8  C   UNL A   1      30.885  27.642  22.399  1.00  0.00     0.027 A 
ATOM      9  C   UNL A   1      29.720  28.414  22.464  1.00  0.00     0.002 A 
ATOM     10  C   UNL A   1      30.693  29.695  24.245  1.00  0.00     0.018 A 
ATOM     11  C   UNL A   1      29.621  29.437  23.396  1.00  0.00     0.001 A 
BRANCH   7  12
ATOM     12  N   UNL A   1      33.031  26.932  23.203  1.00  0.00    -0.352 N 
ATOM     13  H   UNL A   1      33.909  27.316  22.982  1.00  0.00     0.167 HD
BRANCH  12  14
ATOM     14  C   UNL A   1      33.045  25.529  23.411  1.00  0.00     0.077 A 
ATOM     15  C   UNL A   1      33.744  22.917  26.150  1.00  0.00     0.046 C 
ATOM     16  C   UNL A   1      33.431  23.544  24.816  1.00  0.00    -0.030 A 
ATOM     17  C   UNL A   1      33.484  22.747  23.663  1.00  0.00     0.006 A 
ATOM     18  C   UNL A   1      33.162  24.923  24.686  1.00  0.00     0.069 A 
ATOM     19  C   UNL A   1      33.271  23.306  22.407  1.00  0.00     0.023 A 
ATOM     20  Cl  UNL A   1      32.871  25.853  26.130  1.00  0.00    -0.082 Cl
ATOM     21  C   UNL A   1      33.069  24.682  22.284  1.00  0.00     0.066 A 
ATOM     22  Cl  UNL A   1      32.888  25.327  20.685  1.00  0.00    -0.082 Cl
ENDBRANCH  12  14
ENDBRANCH   7  12
ENDBRANCH   4   6
ENDBRANCH   3   4
ENDBRANCH   2   3
ENDBRANCH   1   2
BRANCH   1  23
ATOM     23  O   UNL A   1      35.274  30.503  27.712  1.00  0.00    -0.458 OA
BRANCH  23  24
ATOM     24  C   UNL A   1      36.059  30.727  28.785  1.00  0.00     0.338 C 
ATOM     25  O   UNL A   1      35.793  31.386  29.781  1.00  0.00    -0.246 OA
BRANCH  24  26
ATOM     26  C   UNL A   1      37.331  30.014  28.618  1.00  0.00     0.060 A 
ATOM     27  C   UNL A   1      38.062  29.666  29.749  1.00  0.00     0.016 A 
ATOM     28  C   UNL A   1      37.868  29.822  27.348  1.00  0.00     0.016 A 
ATOM     29  C   UNL A   1      39.381  29.244  29.628  1.00  0.00     0.010 A 
ATOM     30  C   UNL A   1      39.152  29.281  27.224  1.00  0.00     0.010 A 
ATOM     31  C   UNL A   1      39.942  29.033  28.362  1.00  0.00    -0.014 A 
BRANCH  31  32
ATOM     32  C   UNL A   1      41.362  28.602  28.225  1.00  0.00     0.031 A 
ATOM     33  C   UNL A   1      42.470  29.615  28.355  1.00  0.00     0.074 A 
ATOM     34  C   UNL A   1      41.666  27.310  27.988  1.00  0.00     0.049 A 
ATOM     35  N   UNL A   1      43.738  29.499  28.056  1.00  0.00    -0.248 NA
ATOM     36  C   UNL A   1      42.096  30.944  28.866  1.00  0.00     0.031 C 
ATOM     37  C   UNL A   1      40.700  26.214  27.883  1.00  0.00     0.029 A 
ATOM     38  N   UNL A   1      42.879  26.695  27.791  1.00  0.00    -0.354 N 
ATOM     39  C   UNL A   1      44.296  30.756  28.267  1.00  0.00     0.074 A 
ATOM     40  C   UNL A   1      43.230  31.618  28.729  1.00  0.00     0.031 C 
ATOM     41  C   UNL A   1      41.354  25.063  27.672  1.00  0.00     0.029 A 
ATOM     42  C   UNL A   1      42.777  25.349  27.531  1.00  0.00     0.049 A 
ATOM     43  H   UNL A   1      43.739  27.174  27.831  1.00  0.00     0.167 HD
ATOM     44  C   UNL A   1      45.578  31.152  28.083  1.00  0.00     0.037 A 
ATOM     45  C   UNL A   1      43.711  24.450  27.162  1.00  0.00     0.037 A 
ATOM     46  C   UNL A   1      46.645  30.265  27.695  1.00  0.00     0.049 A 
ATOM     47  C   UNL A   1      45.128  24.906  26.975  1.00  0.00     0.074 A 
ATOM     48  C   UNL A   1      47.987  30.557  27.517  1.00  0.00     0.029 A 
ATOM     49  N   UNL A   1      46.495  28.909  27.442  1.00  0.00    -0.354 N 
ATOM     50  N   UNL A   1      45.630  26.109  27.121  1.00  0.00    -0.248 NA
ATOM     51  C   UNL A   1      46.102  23.892  26.553  1.00  0.00     0.031 C 
ATOM     52  C   UNL A   1      48.641  29.383  27.126  1.00  0.00     0.029 A 
ATOM     53  C   UNL A   1      47.716  28.352  27.099  1.00  0.00     0.049 A 
ATOM     54  H   UNL A   1      45.645  28.416  27.498  1.00  0.00     0.167 HD
ATOM     55  C   UNL A   1      46.979  25.998  26.808  1.00  0.00     0.074 A 
ATOM     56  C   UNL A   1      47.219  24.604  26.489  1.00  0.00     0.031 C 
ATOM     57  C   UNL A   1      47.931  26.963  26.780  1.00  0.00     0.037 A 
BRANCH  44  58
ATOM     58  C   UNL A   1      45.891  32.613  28.256  1.00  0.00     0.058 A 
ATOM     59  C   UNL A   1      46.322  33.151  29.480  1.00  0.00     0.135 A 
ATOM     60  C   UNL A   1      45.775  33.489  27.163  1.00  0.00     0.135 A 
ATOM     61  F   UNL A   1      46.434  32.364  30.561  1.00  0.00    -0.206 F 
ATOM     62  C   UNL A   1      46.596  34.509  29.621  1.00  0.00     0.059 A 
ATOM     63  C   UNL A   1      46.069  34.846  27.275  1.00  0.00     0.059 A 
ATOM     64  F   UNL A   1      45.369  33.029  25.970  1.00  0.00    -0.206 F 
ATOM     65  C   UNL A   1      46.462  35.349  28.514  1.00  0.00     0.060 A 
BRANCH  65  66
ATOM     66  S   UNL A   1      46.814  37.109  28.710  1.00  0.00     0.124 S 
ATOM     67  O   UNL A   1      46.821  37.244  30.164  1.00  0.00    -0.237 OA
ATOM     68  O   UNL A   1      48.113  37.244  28.057  1.00  0.00    -0.237 OA
ATOM     69  O   UNL A   1      45.702  37.758  28.025  1.00  0.00    -0.744 OA
ENDBRANCH  65  66
ENDBRANCH  44  58
BRANCH  45  70
ATOM     70  C   UNL A   1      43.308  23.043  26.898  1.00  0.00     0.058 A 
ATOM     71  C   UNL A   1      43.285  22.527  25.596  1.00  0.00     0.135 A 
ATOM     72  C   UNL A   1      42.992  22.171  27.953  1.00  0.00     0.135 A 
ATOM     73  F   UNL A   1      43.567  23.324  24.553  1.00  0.00    -0.206 F 
ATOM     74  C   UNL A   1      42.969  21.195  25.346  1.00  0.00     0.059 A 
ATOM     75  C   UNL A   1      42.700  20.829  27.731  1.00  0.00     0.059 A 
ATOM     76  F   UNL A   1      43.011  22.612  29.220  1.00  0.00    -0.206 F 
ATOM     77  C   UNL A   1      42.686  20.351  26.422  1.00  0.00     0.060 A 
BRANCH  77  78
ATOM     78  S   UNL A   1      42.364  18.604  26.099  1.00  0.00     0.124 S 
ATOM     79  O   UNL A   1      43.286  18.334  25.002  1.00  0.00    -0.237 OA
ATOM     80  O   UNL A   1      42.695  17.986  27.379  1.00  0.00    -0.237 OA
ATOM     81  O   UNL A   1      40.945  18.584  25.751  1.00  0.00    -0.744 OA
ENDBRANCH  77  78
ENDBRANCH  45  70
BRANCH  57  82
ATOM     82  C   UNL A   1      49.321  26.538  26.408  1.00  0.00     0.058 A 
ATOM     83  C   UNL A   1      50.184  25.948  27.344  1.00  0.00     0.135 A 
ATOM     84  C   UNL A   1      49.783  26.688  25.090  1.00  0.00     0.135 A 
ATOM     85  F   UNL A   1      49.792  25.791  28.618  1.00  0.00    -0.206 F 
ATOM     86  C   UNL A   1      51.466  25.540  26.992  1.00  0.00     0.059 A 
ATOM     87  C   UNL A   1      51.053  26.267  24.711  1.00  0.00     0.059 A 
ATOM     88  F   UNL A   1      48.992  27.239  24.156  1.00  0.00    -0.206 F 
ATOM     89  C   UNL A   1      51.892  25.706  25.673  1.00  0.00     0.060 A 
BRANCH  89  90
ATOM     90  S   UNL A   1      53.549  25.151  25.221  1.00  0.00     0.124 S 
ATOM     91  O   UNL A   1      53.654  25.632  23.846  1.00  0.00    -0.237 OA
ATOM     92  O   UNL A   1      54.389  25.835  26.197  1.00  0.00    -0.237 OA
ATOM     93  O   UNL A   1      53.474  23.700  25.374  1.00  0.00    -0.744 OA
ENDBRANCH  89  90
ENDBRANCH  57  82
ENDBRANCH  31  32
ENDBRANCH  24  26
ENDBRANCH  23  24
ENDBRANCH   1  23
TORSDOF 16
ENDMDL
