MODEL 1
REMARK VINA RESULT:     -13.3      0.000      0.000
REMARK SMILES O=C(OCCOC(=O)[C@@H]1CC2(CC[NH2+]CC2)C[N@@H+]1Cc1cccc2nonc12)c1ccc(-c2c3nc(c(-c4c(F)cc(S(=O)(=O)[O-])cc4F)c4ccc([nH]4)c(-c4c(F)cc(S(=O)(=O)[O-])cc4F)c4nc(c(-c5c(F)cc(S(=O)(=O)[O-])cc5F)c5ccc2[nH]5)C=C4)C=C3)cc1
REMARK SMILES IDX 4 1 3 2 2 3 1 4 29 5 30 6 94 7 31 8 93 9 32 10 33 11 34 12
REMARK SMILES IDX 87 13 35 14 92 15 86 16 88 17 36 18 91 19 85 20 84 21 37 23
REMARK SMILES IDX 71 24 50 25 70 26 51 27 54 28 69 29 89 30 52 31 53 32 68 34
REMARK SMILES IDX 90 35 55 36 38 37 39 38 48 39 40 40 41 41 47 42 49 43 42 44
REMARK SMILES IDX 43 45 44 46 45 47 46 48 72 49 73 50 82 51 74 52 75 53 81 54
REMARK SMILES IDX 83 55 76 56 77 57 78 58 79 59 80 60 56 61 57 62 66 63 58 64
REMARK SMILES IDX 59 65 65 66 67 67 60 68 61 69 62 70 63 71 64 72 5 73 6 74
REMARK SMILES IDX 7 75 8 76 9 77 10 78 18 79 11 80 17 81 12 83 16 84 13 85
REMARK SMILES IDX 15 86 14 87 19 90 20 91 21 92 28 93 22 94 24 95 27 96 23 97
REMARK SMILES IDX 25 98 26 99
REMARK H PARENT 88 22 54 33 18 82 14 88 14 89
REMARK Flexibility Score: inf
ROOT
ATOM      1  C   UNL A   1      46.459  19.729  36.070  1.00  0.00     0.275 C 
ENDROOT
BRANCH   1   2
ATOM      2  O   UNL A   1      45.715  20.770  35.430  1.00  0.00    -0.458 OA
BRANCH   2   3
ATOM      3  C   UNL A   1      45.773  22.092  35.680  1.00  0.00     0.338 C 
ATOM      4  O   UNL A   1      45.509  22.487  36.816  1.00  0.00    -0.246 OA
BRANCH   3   5
ATOM      5  C   UNL A   1      46.081  23.152  34.661  1.00  0.00     0.060 A 
ATOM      6  C   UNL A   1      44.583  23.571  33.727  1.00  0.00     0.016 A 
ATOM      7  C   UNL A   1      47.643  24.034  34.282  1.00  0.00     0.016 A 
ATOM      8  C   UNL A   1      44.614  24.840  32.470  1.00  0.00     0.010 A 
ATOM      9  C   UNL A   1      47.621  25.438  33.066  1.00  0.00     0.010 A 
ATOM     10  C   UNL A   1      46.109  25.743  32.070  1.00  0.00    -0.014 A 
BRANCH  10  11
ATOM     11  C   UNL A   1      46.172  26.506  30.790  1.00  0.00     0.031 A 
ATOM     12  C   UNL A   1      45.870  25.732  29.554  1.00  0.00     0.074 A 
ATOM     13  C   UNL A   1      45.931  27.838  30.689  1.00  0.00     0.049 A 
ATOM     14  N   UNL A   1      44.667  25.562  29.080  1.00  0.00    -0.248 NA
ATOM     15  C   UNL A   1      46.907  24.947  28.887  1.00  0.00     0.031 C 
ATOM     16  C   UNL A   1      45.525  28.774  31.746  1.00  0.00     0.029 A 
ATOM     17  N   UNL A   1      45.807  28.600  29.551  1.00  0.00    -0.354 N 
ATOM     18  C   UNL A   1      44.761  24.577  28.123  1.00  0.00     0.074 A 
ATOM     19  C   UNL A   1      46.170  24.245  28.017  1.00  0.00     0.031 C 
ATOM     20  C   UNL A   1      45.047  29.910  31.198  1.00  0.00     0.029 A 
ATOM     21  C   UNL A   1      45.193  29.821  29.761  1.00  0.00     0.049 A 
ATOM     22  H   UNL A   1      46.126  28.303  28.668  1.00  0.00     0.167 HD
ATOM     23  C   UNL A   1      43.705  24.020  27.483  1.00  0.00     0.037 A 
ATOM     24  C   UNL A   1      44.620  30.684  28.880  1.00  0.00     0.037 A 
ATOM     25  C   UNL A   1      42.387  24.524  27.713  1.00  0.00     0.049 A 
ATOM     26  C   UNL A   1      43.692  29.845  28.039  1.00  0.00     0.074 A 
ATOM     27  C   UNL A   1      41.235  24.100  28.336  1.00  0.00     0.029 A 
ATOM     28  N   UNL A   1      41.958  25.601  26.978  1.00  0.00    -0.354 N 
ATOM     29  N   UNL A   1      42.408  29.650  28.247  1.00  0.00    -0.248 NA
ATOM     30  C   UNL A   1      44.281  28.933  27.071  1.00  0.00     0.031 C 
ATOM     31  C   UNL A   1      40.290  25.169  28.202  1.00  0.00     0.029 A 
ATOM     32  C   UNL A   1      40.973  26.266  27.674  1.00  0.00     0.049 A 
ATOM     33  H   UNL A   1      42.300  25.858  26.091  1.00  0.00     0.167 HD
ATOM     34  C   UNL A   1      42.077  28.451  27.594  1.00  0.00     0.074 A 
ATOM     35  C   UNL A   1      43.295  28.068  26.907  1.00  0.00     0.031 C 
ATOM     36  C   UNL A   1      40.904  27.738  27.746  1.00  0.00     0.037 A 
BRANCH  23  37
ATOM     37  C   UNL A   1      43.886  22.939  26.504  1.00  0.00     0.058 A 
ATOM     38  C   UNL A   1      43.439  21.653  26.828  1.00  0.00     0.135 A 
ATOM     39  C   UNL A   1      44.624  23.128  25.330  1.00  0.00     0.135 A 
ATOM     40  F   UNL A   1      42.724  21.452  27.949  1.00  0.00    -0.206 F 
ATOM     41  C   UNL A   1      43.750  20.567  26.030  1.00  0.00     0.059 A 
ATOM     42  C   UNL A   1      44.943  22.054  24.511  1.00  0.00     0.059 A 
ATOM     43  F   UNL A   1      45.064  24.352  24.994  1.00  0.00    -0.206 F 
ATOM     44  C   UNL A   1      44.517  20.777  24.883  1.00  0.00     0.060 A 
BRANCH  44  45
ATOM     45  S   UNL A   1      44.974  19.335  23.904  1.00  0.00     0.124 S 
ATOM     46  O   UNL A   1      44.340  18.256  24.655  1.00  0.00    -0.237 OA
ATOM     47  O   UNL A   1      44.375  19.651  22.612  1.00  0.00    -0.237 OA
ATOM     48  O   UNL A   1      46.433  19.353  23.939  1.00  0.00    -0.744 OA
ENDBRANCH  44  45
ENDBRANCH  23  37
BRANCH  24  49
ATOM     49  C   UNL A   1      45.686  31.614  28.363  1.00  0.00     0.058 A 
ATOM     50  C   UNL A   1      45.707  32.923  28.889  1.00  0.00     0.135 A 
ATOM     51  C   UNL A   1      46.812  31.232  27.617  1.00  0.00     0.135 A 
ATOM     52  F   UNL A   1      44.626  33.415  29.514  1.00  0.00    -0.206 F 
ATOM     53  C   UNL A   1      46.855  33.711  28.873  1.00  0.00     0.059 A 
ATOM     54  C   UNL A   1      47.981  31.993  27.602  1.00  0.00     0.059 A 
ATOM     55  F   UNL A   1      46.844  30.085  26.929  1.00  0.00    -0.206 F 
ATOM     56  C   UNL A   1      48.012  33.199  28.294  1.00  0.00     0.060 A 
BRANCH  56  57
ATOM     57  S   UNL A   1      49.572  34.062  28.575  1.00  0.00     0.124 S 
ATOM     58  O   UNL A   1      49.729  34.823  27.342  1.00  0.00    -0.237 OA
ATOM     59  O   UNL A   1      49.264  34.842  29.771  1.00  0.00    -0.237 OA
ATOM     60  O   UNL A   1      50.529  32.977  28.772  1.00  0.00    -0.744 OA
ENDBRANCH  56  57
ENDBRANCH  24  49
BRANCH  36  61
ATOM     61  C   UNL A   1      39.673  28.498  28.258  1.00  0.00     0.058 A 
ATOM     62  C   UNL A   1      38.960  29.407  27.447  1.00  0.00     0.135 A 
ATOM     63  C   UNL A   1      39.126  28.334  29.545  1.00  0.00     0.135 A 
ATOM     64  F   UNL A   1      39.282  29.556  26.151  1.00  0.00    -0.206 F 
ATOM     65  C   UNL A   1      37.877  30.172  27.920  1.00  0.00     0.059 A 
ATOM     66  C   UNL A   1      38.035  29.060  30.033  1.00  0.00     0.059 A 
ATOM     67  F   UNL A   1      39.697  27.534  30.450  1.00  0.00    -0.206 F 
ATOM     68  C   UNL A   1      37.427  29.999  29.226  1.00  0.00     0.060 A 
BRANCH  68  69
ATOM     69  S   UNL A   1      36.118  31.036  29.913  1.00  0.00     0.124 S 
ATOM     70  O   UNL A   1      35.808  30.382  31.181  1.00  0.00    -0.237 OA
ATOM     71  O   UNL A   1      36.784  32.330  30.018  1.00  0.00    -0.237 OA
ATOM     72  O   UNL A   1      35.059  30.963  28.908  1.00  0.00    -0.744 OA
ENDBRANCH  68  69
ENDBRANCH  36  61
ENDBRANCH  10  11
ENDBRANCH   3   5
ENDBRANCH   2   3
ENDBRANCH   1   2
BRANCH   1  73
ATOM     73  C   UNL A   1      45.595  18.864  36.978  1.00  0.00     0.274 C 
BRANCH  73  74
ATOM     74  O   UNL A   1      46.358  18.502  38.129  1.00  0.00    -0.458 OA
BRANCH  74  75
ATOM     75  C   UNL A   1      46.618  19.462  39.052  1.00  0.00     0.365 C 
ATOM     76  O   UNL A   1      47.240  20.492  38.812  1.00  0.00    -0.245 OA
BRANCH  75  77
ATOM     77  C   UNL A   1      46.025  19.129  40.441  1.00  0.00     0.296 C 
ATOM     78  C   UNL A   1      47.175  19.455  41.408  1.00  0.00     0.091 C 
ATOM     79  N   UNL A   1      45.518  17.588  40.741  1.00  0.00    -0.319 N 
ATOM     80  C   UNL A   1      48.042  18.222  41.537  1.00  0.00     0.036 C 
ATOM     81  C   UNL A   1      47.065  17.097  41.263  1.00  0.00     0.270 C 
ATOM     82  H   UNL A   1      44.549  17.403  40.996  1.00  0.00     0.349 HD
ATOM     83  C   UNL A   1      48.661  18.121  42.948  1.00  0.00     0.074 C 
ATOM     84  C   UNL A   1      49.255  18.076  40.583  1.00  0.00     0.074 C 
ATOM     85  C   UNL A   1      49.683  19.231  43.158  1.00  0.00     0.261 C 
ATOM     86  C   UNL A   1      50.295  19.156  40.790  1.00  0.00     0.261 C 
ATOM     87  N   UNL A   1      50.757  19.171  42.164  1.00  0.00    -0.346 N 
ATOM     88  H   UNL A   1      51.297  18.322  42.328  1.00  0.00     0.346 HD
ATOM     89  H   UNL A   1      51.310  20.021  42.278  1.00  0.00     0.346 HD
BRANCH  79  90
ATOM     90  C   UNL A   1      43.857  16.402  40.245  1.00  0.00     0.302 C 
BRANCH  90  91
ATOM     91  C   UNL A   1      42.700  15.454  41.256  1.00  0.00     0.038 A 
ATOM     92  C   UNL A   1      42.649  15.644  42.681  1.00  0.00     0.012 A 
ATOM     93  C   UNL A   1      42.101  14.224  40.865  1.00  0.00     0.144 A 
ATOM     94  C   UNL A   1      42.451  14.575  43.600  1.00  0.00     0.003 A 
ATOM     95  C   UNL A   1      41.877  13.137  41.824  1.00  0.00     0.135 A 
ATOM     96  N   UNL A   1      41.742  13.773  39.660  1.00  0.00    -0.049 NA
ATOM     97  C   UNL A   1      42.136  13.269  43.200  1.00  0.00     0.034 A 
ATOM     98  N   UNL A   1      41.487  12.050  41.149  1.00  0.00    -0.050 NA
ATOM     99  O   UNL A   1      41.384  12.449  39.828  1.00  0.00    -0.243 OA
ENDBRANCH  90  91
ENDBRANCH  79  90
ENDBRANCH  75  77
ENDBRANCH  74  75
ENDBRANCH  73  74
ENDBRANCH   1  73
TORSDOF 16
ENDMDL
MODEL 2
REMARK VINA RESULT:     -13.2      6.377     14.334
REMARK SMILES O=C(OCCOC(=O)[C@@H]1CC2(CC[NH2+]CC2)C[N@@H+]1Cc1cccc2nonc12)c1ccc(-c2c3nc(c(-c4c(F)cc(S(=O)(=O)[O-])cc4F)c4ccc([nH]4)c(-c4c(F)cc(S(=O)(=O)[O-])cc4F)c4nc(c(-c5c(F)cc(S(=O)(=O)[O-])cc5F)c5ccc2[nH]5)C=C4)C=C3)cc1
REMARK SMILES IDX 4 1 3 2 2 3 1 4 29 5 30 6 94 7 31 8 93 9 32 10 33 11 34 12
REMARK SMILES IDX 87 13 35 14 92 15 86 16 88 17 36 18 91 19 85 20 84 21 37 23
REMARK SMILES IDX 71 24 50 25 70 26 51 27 54 28 69 29 89 30 52 31 53 32 68 34
REMARK SMILES IDX 90 35 55 36 38 37 39 38 48 39 40 40 41 41 47 42 49 43 42 44
REMARK SMILES IDX 43 45 44 46 45 47 46 48 72 49 73 50 82 51 74 52 75 53 81 54
REMARK SMILES IDX 83 55 76 56 77 57 78 58 79 59 80 60 56 61 57 62 66 63 58 64
REMARK SMILES IDX 59 65 65 66 67 67 60 68 61 69 62 70 63 71 64 72 5 73 6 74
REMARK SMILES IDX 7 75 8 76 9 77 10 78 18 79 11 80 17 81 12 83 16 84 13 85
REMARK SMILES IDX 15 86 14 87 19 90 20 91 21 92 28 93 22 94 24 95 27 96 23 97
REMARK SMILES IDX 25 98 26 99
REMARK H PARENT 88 22 54 33 18 82 14 88 14 89
REMARK Flexibility Score: inf
ROOT
ATOM      1  C   UNL A   1      35.904  22.803  23.297  1.00  0.00     0.275 C 
ENDROOT
BRANCH   1   2
ATOM      2  O   UNL A   1      35.806  21.774  24.286  1.00  0.00    -0.458 OA
BRANCH   2   3
ATOM      3  C   UNL A   1      36.344  21.768  25.521  1.00  0.00     0.338 C 
ATOM      4  O   UNL A   1      35.741  21.184  26.421  1.00  0.00    -0.246 OA
BRANCH   3   5
ATOM      5  C   UNL A   1      37.609  22.476  25.915  1.00  0.00     0.060 A 
ATOM      6  C   UNL A   1      37.242  24.190  26.385  1.00  0.00     0.016 A 
ATOM      7  C   UNL A   1      39.339  21.878  26.006  1.00  0.00     0.016 A 
ATOM      8  C   UNL A   1      38.540  25.280  26.953  1.00  0.00     0.010 A 
ATOM      9  C   UNL A   1      40.646  22.986  26.722  1.00  0.00     0.010 A 
ATOM     10  C   UNL A   1      40.245  24.742  27.075  1.00  0.00    -0.014 A 
BRANCH  10  11
ATOM     11  C   UNL A   1      41.319  25.770  27.189  1.00  0.00     0.031 A 
ATOM     12  C   UNL A   1      40.930  27.052  27.839  1.00  0.00     0.074 A 
ATOM     13  C   UNL A   1      42.641  25.477  27.277  1.00  0.00     0.049 A 
ATOM     14  N   UNL A   1      40.973  27.255  29.127  1.00  0.00    -0.248 NA
ATOM     15  C   UNL A   1      40.289  28.119  27.074  1.00  0.00     0.031 C 
ATOM     16  C   UNL A   1      43.281  24.155  27.330  1.00  0.00     0.029 A 
ATOM     17  N   UNL A   1      43.689  26.327  27.542  1.00  0.00    -0.354 N 
ATOM     18  C   UNL A   1      40.280  28.421  29.361  1.00  0.00     0.074 A 
ATOM     19  C   UNL A   1      39.898  28.936  28.059  1.00  0.00     0.031 C 
ATOM     20  C   UNL A   1      44.552  24.275  27.767  1.00  0.00     0.029 A 
ATOM     21  C   UNL A   1      44.846  25.681  27.940  1.00  0.00     0.049 A 
ATOM     22  H   UNL A   1      43.622  27.305  27.456  1.00  0.00     0.167 HD
ATOM     23  C   UNL A   1      39.986  28.910  30.590  1.00  0.00     0.037 A 
ATOM     24  C   UNL A   1      45.950  26.159  28.573  1.00  0.00     0.037 A 
ATOM     25  C   UNL A   1      40.494  28.257  31.756  1.00  0.00     0.049 A 
ATOM     26  C   UNL A   1      45.432  26.937  29.756  1.00  0.00     0.074 A 
ATOM     27  C   UNL A   1      39.994  27.506  32.794  1.00  0.00     0.029 A 
ATOM     28  N   UNL A   1      41.756  28.579  32.192  1.00  0.00    -0.354 N 
ATOM     29  N   UNL A   1      45.273  26.487  30.981  1.00  0.00    -0.248 NA
ATOM     30  C   UNL A   1      44.780  28.213  29.503  1.00  0.00     0.031 C 
ATOM     31  C   UNL A   1      41.118  27.142  33.605  1.00  0.00     0.029 A 
ATOM     32  C   UNL A   1      42.270  27.527  32.916  1.00  0.00     0.049 A 
ATOM     33  H   UNL A   1      42.220  29.429  32.015  1.00  0.00     0.167 HD
ATOM     34  C   UNL A   1      44.319  27.320  31.590  1.00  0.00     0.074 A 
ATOM     35  C   UNL A   1      44.057  28.348  30.601  1.00  0.00     0.031 C 
ATOM     36  C   UNL A   1      43.669  27.077  32.784  1.00  0.00     0.037 A 
BRANCH  23  37
ATOM     37  C   UNL A   1      39.201  30.142  30.756  1.00  0.00     0.058 A 
ATOM     38  C   UNL A   1      37.813  30.042  30.904  1.00  0.00     0.135 A 
ATOM     39  C   UNL A   1      39.783  31.408  30.618  1.00  0.00     0.135 A 
ATOM     40  F   UNL A   1      37.237  28.835  31.043  1.00  0.00    -0.206 F 
ATOM     41  C   UNL A   1      37.010  31.167  30.875  1.00  0.00     0.059 A 
ATOM     42  C   UNL A   1      38.997  32.551  30.591  1.00  0.00     0.059 A 
ATOM     43  F   UNL A   1      41.113  31.532  30.476  1.00  0.00    -0.206 F 
ATOM     44  C   UNL A   1      37.611  32.415  30.701  1.00  0.00     0.060 A 
BRANCH  44  45
ATOM     45  S   UNL A   1      36.535  33.855  30.588  1.00  0.00     0.124 S 
ATOM     46  O   UNL A   1      35.250  33.297  30.996  1.00  0.00    -0.237 OA
ATOM     47  O   UNL A   1      37.163  34.770  31.535  1.00  0.00    -0.237 OA
ATOM     48  O   UNL A   1      36.637  34.242  29.184  1.00  0.00    -0.744 OA
ENDBRANCH  44  45
ENDBRANCH  23  37
BRANCH  24  49
ATOM     49  C   UNL A   1      46.913  26.665  27.533  1.00  0.00     0.058 A 
ATOM     50  C   UNL A   1      47.748  25.712  26.911  1.00  0.00     0.135 A 
ATOM     51  C   UNL A   1      46.879  27.936  26.936  1.00  0.00     0.135 A 
ATOM     52  F   UNL A   1      47.936  24.510  27.478  1.00  0.00    -0.206 F 
ATOM     53  C   UNL A   1      48.322  25.931  25.661  1.00  0.00     0.059 A 
ATOM     54  C   UNL A   1      47.428  28.175  25.676  1.00  0.00     0.059 A 
ATOM     55  F   UNL A   1      46.262  28.970  27.519  1.00  0.00    -0.206 F 
ATOM     56  C   UNL A   1      48.087  27.142  25.018  1.00  0.00     0.060 A 
BRANCH  56  57
ATOM     57  S   UNL A   1      48.533  27.294  23.276  1.00  0.00     0.124 S 
ATOM     58  O   UNL A   1      48.553  25.903  22.841  1.00  0.00    -0.237 OA
ATOM     59  O   UNL A   1      47.436  28.108  22.762  1.00  0.00    -0.237 OA
ATOM     60  O   UNL A   1      49.833  27.960  23.316  1.00  0.00    -0.744 OA
ENDBRANCH  56  57
ENDBRANCH  24  49
BRANCH  36  61
ATOM     61  C   UNL A   1      44.341  26.116  33.775  1.00  0.00     0.058 A 
ATOM     62  C   UNL A   1      44.289  24.714  33.613  1.00  0.00     0.135 A 
ATOM     63  C   UNL A   1      45.088  26.533  34.892  1.00  0.00     0.135 A 
ATOM     64  F   UNL A   1      43.733  24.178  32.515  1.00  0.00    -0.206 F 
ATOM     65  C   UNL A   1      44.830  23.814  34.551  1.00  0.00     0.059 A 
ATOM     66  C   UNL A   1      45.659  25.663  35.825  1.00  0.00     0.059 A 
ATOM     67  F   UNL A   1      45.209  27.826  35.208  1.00  0.00    -0.206 F 
ATOM     68  C   UNL A   1      45.506  24.300  35.667  1.00  0.00     0.060 A 
BRANCH  68  69
ATOM     69  S   UNL A   1      46.117  23.190  36.953  1.00  0.00     0.124 S 
ATOM     70  O   UNL A   1      45.456  23.682  38.158  1.00  0.00    -0.237 OA
ATOM     71  O   UNL A   1      45.659  21.891  36.469  1.00  0.00    -0.237 OA
ATOM     72  O   UNL A   1      47.564  23.388  36.919  1.00  0.00    -0.744 OA
ENDBRANCH  68  69
ENDBRANCH  36  61
ENDBRANCH  10  11
ENDBRANCH   3   5
ENDBRANCH   2   3
ENDBRANCH   1   2
BRANCH   1  73
ATOM     73  C   UNL A   1      34.916  23.938  23.532  1.00  0.00     0.274 C 
BRANCH  73  74
ATOM     74  O   UNL A   1      34.025  24.008  22.418  1.00  0.00    -0.458 OA
BRANCH  74  75
ATOM     75  C   UNL A   1      33.294  25.139  22.253  1.00  0.00     0.365 C 
ATOM     76  O   UNL A   1      33.669  26.105  21.596  1.00  0.00    -0.245 OA
BRANCH  75  77
ATOM     77  C   UNL A   1      31.923  25.072  22.963  1.00  0.00     0.296 C 
ATOM     78  C   UNL A   1      31.634  26.540  23.320  1.00  0.00     0.091 C 
ATOM     79  N   UNL A   1      31.782  24.169  24.337  1.00  0.00    -0.319 N 
ATOM     80  C   UNL A   1      32.262  26.827  24.666  1.00  0.00     0.036 C 
ATOM     81  C   UNL A   1      32.256  25.467  25.334  1.00  0.00     0.270 C 
ATOM     82  H   UNL A   1      31.120  23.395  24.380  1.00  0.00     0.349 HD
ATOM     83  C   UNL A   1      31.435  27.864  25.456  1.00  0.00     0.074 C 
ATOM     84  C   UNL A   1      33.704  27.394  24.695  1.00  0.00     0.074 C 
ATOM     85  C   UNL A   1      31.520  29.231  24.786  1.00  0.00     0.261 C 
ATOM     86  C   UNL A   1      33.807  28.762  24.055  1.00  0.00     0.261 C 
ATOM     87  N   UNL A   1      32.904  29.699  24.692  1.00  0.00    -0.346 N 
ATOM     88  H   UNL A   1      33.245  29.881  25.635  1.00  0.00     0.346 HD
ATOM     89  H   UNL A   1      32.890  30.536  24.108  1.00  0.00     0.346 HD
BRANCH  79  90
ATOM     90  C   UNL A   1      31.625  22.130  24.815  1.00  0.00     0.302 C 
BRANCH  90  91
ATOM     91  C   UNL A   1      32.377  20.655  24.095  1.00  0.00     0.038 A 
ATOM     92  C   UNL A   1      32.453  20.496  22.668  1.00  0.00     0.012 A 
ATOM     93  C   UNL A   1      32.544  19.415  24.774  1.00  0.00     0.144 A 
ATOM     94  C   UNL A   1      32.263  19.245  22.014  1.00  0.00     0.003 A 
ATOM     95  C   UNL A   1      32.371  18.131  24.087  1.00  0.00     0.135 A 
ATOM     96  N   UNL A   1      32.763  19.151  26.066  1.00  0.00    -0.049 NA
ATOM     97  C   UNL A   1      32.137  18.031  22.705  1.00  0.00     0.034 A 
ATOM     98  N   UNL A   1      32.395  17.155  25.002  1.00  0.00    -0.050 NA
ATOM     99  O   UNL A   1      32.657  17.781  26.209  1.00  0.00    -0.243 OA
ENDBRANCH  90  91
ENDBRANCH  79  90
ENDBRANCH  75  77
ENDBRANCH  74  75
ENDBRANCH  73  74
ENDBRANCH   1  73
TORSDOF 16
ENDMDL
MODEL 3
REMARK VINA RESULT:     -13.1      6.074     14.210
REMARK SMILES O=C(OCCOC(=O)[C@@H]1CC2(CC[NH2+]CC2)C[N@@H+]1Cc1cccc2nonc12)c1ccc(-c2c3nc(c(-c4c(F)cc(S(=O)(=O)[O-])cc4F)c4ccc([nH]4)c(-c4c(F)cc(S(=O)(=O)[O-])cc4F)c4nc(c(-c5c(F)cc(S(=O)(=O)[O-])cc5F)c5ccc2[nH]5)C=C4)C=C3)cc1
REMARK SMILES IDX 4 1 3 2 2 3 1 4 29 5 30 6 94 7 31 8 93 9 32 10 33 11 34 12
REMARK SMILES IDX 87 13 35 14 92 15 86 16 88 17 36 18 91 19 85 20 84 21 37 23
REMARK SMILES IDX 71 24 50 25 70 26 51 27 54 28 69 29 89 30 52 31 53 32 68 34
REMARK SMILES IDX 90 35 55 36 38 37 39 38 48 39 40 40 41 41 47 42 49 43 42 44
REMARK SMILES IDX 43 45 44 46 45 47 46 48 72 49 73 50 82 51 74 52 75 53 81 54
REMARK SMILES IDX 83 55 76 56 77 57 78 58 79 59 80 60 56 61 57 62 66 63 58 64
REMARK SMILES IDX 59 65 65 66 67 67 60 68 61 69 62 70 63 71 64 72 5 73 6 74
REMARK SMILES IDX 7 75 8 76 9 77 10 78 18 79 11 80 17 81 12 83 16 84 13 85
REMARK SMILES IDX 15 86 14 87 19 90 20 91 21 92 28 93 22 94 24 95 27 96 23 97
REMARK SMILES IDX 25 98 26 99
REMARK H PARENT 88 22 54 33 18 82 14 88 14 89
REMARK Flexibility Score: inf
ROOT
ATOM      1  C   UNL A   1      36.502  22.184  24.614  1.00  0.00     0.275 C 
ENDROOT
BRANCH   1   2
ATOM      2  O   UNL A   1      37.385  22.589  25.665  1.00  0.00    -0.458 OA
BRANCH   2   3
ATOM      3  C   UNL A   1      38.592  22.075  25.965  1.00  0.00     0.338 C 
ATOM      4  O   UNL A   1      38.815  20.898  25.684  1.00  0.00    -0.246 OA
BRANCH   3   5
ATOM      5  C   UNL A   1      39.691  22.809  26.680  1.00  0.00     0.060 A 
ATOM      6  C   UNL A   1      39.615  24.579  26.288  1.00  0.00     0.016 A 
ATOM      7  C   UNL A   1      40.985  22.207  27.830  1.00  0.00     0.016 A 
ATOM      8  C   UNL A   1      40.765  25.730  27.026  1.00  0.00     0.010 A 
ATOM      9  C   UNL A   1      42.083  23.436  28.686  1.00  0.00     0.010 A 
ATOM     10  C   UNL A   1      42.039  25.197  28.168  1.00  0.00    -0.014 A 
BRANCH  10  11
ATOM     11  C   UNL A   1      43.180  26.114  28.456  1.00  0.00     0.031 A 
ATOM     12  C   UNL A   1      42.929  27.168  29.476  1.00  0.00     0.074 A 
ATOM     13  C   UNL A   1      44.484  25.763  28.321  1.00  0.00     0.049 A 
ATOM     14  N   UNL A   1      43.100  26.994  30.757  1.00  0.00    -0.248 NA
ATOM     15  C   UNL A   1      42.289  28.430  29.111  1.00  0.00     0.031 C 
ATOM     16  C   UNL A   1      45.044  24.461  27.934  1.00  0.00     0.029 A 
ATOM     17  N   UNL A   1      45.602  26.468  28.704  1.00  0.00    -0.354 N 
ATOM     18  C   UNL A   1      42.503  28.066  31.379  1.00  0.00     0.074 A 
ATOM     19  C   UNL A   1      42.038  28.944  30.321  1.00  0.00     0.031 C 
ATOM     20  C   UNL A   1      46.354  24.409  28.254  1.00  0.00     0.029 A 
ATOM     21  C   UNL A   1      46.748  25.697  28.784  1.00  0.00     0.049 A 
ATOM     22  H   UNL A   1      45.587  27.431  28.904  1.00  0.00     0.167 HD
ATOM     23  C   UNL A   1      42.350  28.194  32.719  1.00  0.00     0.037 A 
ATOM     24  C   UNL A   1      47.931  25.937  29.408  1.00  0.00     0.037 A 
ATOM     25  C   UNL A   1      42.920  27.219  33.596  1.00  0.00     0.049 A 
ATOM     26  C   UNL A   1      47.569  26.362  30.808  1.00  0.00     0.074 A 
ATOM     27  C   UNL A   1      42.469  26.220  34.427  1.00  0.00     0.029 A 
ATOM     28  N   UNL A   1      44.233  27.361  33.973  1.00  0.00    -0.354 N 
ATOM     29  N   UNL A   1      47.493  25.586  31.868  1.00  0.00    -0.248 NA
ATOM     30  C   UNL A   1      46.976  27.677  30.992  1.00  0.00     0.031 C 
ATOM     31  C   UNL A   1      43.637  25.603  34.983  1.00  0.00     0.029 A 
ATOM     32  C   UNL A   1      44.744  26.129  34.316  1.00  0.00     0.049 A 
ATOM     33  H   UNL A   1      44.730  28.210  33.995  1.00  0.00     0.167 HD
ATOM     34  C   UNL A   1      46.650  26.242  32.780  1.00  0.00     0.074 A 
ATOM     35  C   UNL A   1      46.364  27.518  32.153  1.00  0.00     0.031 C 
ATOM     36  C   UNL A   1      46.096  25.690  33.919  1.00  0.00     0.037 A 
BRANCH  23  37
ATOM     37  C   UNL A   1      41.660  29.353  33.305  1.00  0.00     0.058 A 
ATOM     38  C   UNL A   1      40.266  29.318  33.423  1.00  0.00     0.135 A 
ATOM     39  C   UNL A   1      42.340  30.539  33.604  1.00  0.00     0.135 A 
ATOM     40  F   UNL A   1      39.596  28.186  33.144  1.00  0.00    -0.206 F 
ATOM     41  C   UNL A   1      39.553  30.445  33.788  1.00  0.00     0.059 A 
ATOM     42  C   UNL A   1      41.646  31.681  33.978  1.00  0.00     0.059 A 
ATOM     43  F   UNL A   1      43.679  30.599  33.500  1.00  0.00    -0.206 F 
ATOM     44  C   UNL A   1      40.251  31.626  34.047  1.00  0.00     0.060 A 
BRANCH  44  45
ATOM     45  S   UNL A   1      39.293  33.098  34.444  1.00  0.00     0.124 S 
ATOM     46  O   UNL A   1      38.665  33.396  33.161  1.00  0.00    -0.237 OA
ATOM     47  O   UNL A   1      38.405  32.600  35.489  1.00  0.00    -0.237 OA
ATOM     48  O   UNL A   1      40.307  34.051  34.885  1.00  0.00    -0.744 OA
ENDBRANCH  44  45
ENDBRANCH  23  37
BRANCH  24  49
ATOM     49  C   UNL A   1      48.826  26.687  28.459  1.00  0.00     0.058 A 
ATOM     50  C   UNL A   1      49.897  25.970  27.882  1.00  0.00     0.135 A 
ATOM     51  C   UNL A   1      48.548  27.940  27.890  1.00  0.00     0.135 A 
ATOM     52  F   UNL A   1      50.311  24.818  28.435  1.00  0.00    -0.206 F 
ATOM     53  C   UNL A   1      50.494  26.361  26.687  1.00  0.00     0.059 A 
ATOM     54  C   UNL A   1      49.118  28.346  26.683  1.00  0.00     0.059 A 
ATOM     55  F   UNL A   1      47.674  28.786  28.446  1.00  0.00    -0.206 F 
ATOM     56  C   UNL A   1      50.038  27.514  26.055  1.00  0.00     0.060 A 
BRANCH  56  57
ATOM     57  S   UNL A   1      50.562  27.831  24.357  1.00  0.00     0.124 S 
ATOM     58  O   UNL A   1      51.246  29.112  24.480  1.00  0.00    -0.237 OA
ATOM     59  O   UNL A   1      51.414  26.675  24.092  1.00  0.00    -0.237 OA
ATOM     60  O   UNL A   1      49.304  27.858  23.614  1.00  0.00    -0.744 OA
ENDBRANCH  56  57
ENDBRANCH  24  49
BRANCH  36  61
ATOM     61  C   UNL A   1      46.793  24.464  34.525  1.00  0.00     0.058 A 
ATOM     62  C   UNL A   1      46.337  23.149  34.292  1.00  0.00     0.135 A 
ATOM     63  C   UNL A   1      47.952  24.532  35.322  1.00  0.00     0.135 A 
ATOM     64  F   UNL A   1      45.328  22.923  33.434  1.00  0.00    -0.206 F 
ATOM     65  C   UNL A   1      46.913  22.018  34.901  1.00  0.00     0.059 A 
ATOM     66  C   UNL A   1      48.561  23.424  35.918  1.00  0.00     0.059 A 
ATOM     67  F   UNL A   1      48.496  25.703  35.666  1.00  0.00    -0.206 F 
ATOM     68  C   UNL A   1      48.023  22.167  35.727  1.00  0.00     0.060 A 
BRANCH  68  69
ATOM     69  S   UNL A   1      48.727  20.763  36.619  1.00  0.00     0.124 S 
ATOM     70  O   UNL A   1      49.412  21.394  37.743  1.00  0.00    -0.237 OA
ATOM     71  O   UNL A   1      47.532  19.996  36.959  1.00  0.00    -0.237 OA
ATOM     72  O   UNL A   1      49.606  20.137  35.634  1.00  0.00    -0.744 OA
ENDBRANCH  68  69
ENDBRANCH  36  61
ENDBRANCH  10  11
ENDBRANCH   3   5
ENDBRANCH   2   3
ENDBRANCH   1   2
BRANCH   1  73
ATOM     73  C   UNL A   1      35.971  23.362  23.808  1.00  0.00     0.274 C 
BRANCH  73  74
ATOM     74  O   UNL A   1      34.764  22.965  23.156  1.00  0.00    -0.458 OA
BRANCH  74  75
ATOM     75  C   UNL A   1      33.761  23.873  23.057  1.00  0.00     0.365 C 
ATOM     76  O   UNL A   1      33.788  24.844  22.309  1.00  0.00    -0.245 OA
BRANCH  75  77
ATOM     77  C   UNL A   1      32.562  23.539  23.976  1.00  0.00     0.296 C 
ATOM     78  C   UNL A   1      31.987  24.921  24.328  1.00  0.00     0.091 C 
ATOM     79  N   UNL A   1      32.841  22.721  25.381  1.00  0.00    -0.319 N 
ATOM     80  C   UNL A   1      32.717  25.434  25.550  1.00  0.00     0.036 C 
ATOM     81  C   UNL A   1      33.132  24.157  26.252  1.00  0.00     0.270 C 
ATOM     82  H   UNL A   1      32.396  21.820  25.552  1.00  0.00     0.349 HD
ATOM     83  C   UNL A   1      31.791  26.304  26.428  1.00  0.00     0.074 C 
ATOM     84  C   UNL A   1      33.972  26.319  25.336  1.00  0.00     0.074 C 
ATOM     85  C   UNL A   1      31.450  27.605  25.712  1.00  0.00     0.261 C 
ATOM     86  C   UNL A   1      33.652  27.628  24.645  1.00  0.00     0.261 C 
ATOM     87  N   UNL A   1      32.655  28.372  25.387  1.00  0.00    -0.346 N 
ATOM     88  H   UNL A   1      33.076  28.690  26.259  1.00  0.00     0.346 HD
ATOM     89  H   UNL A   1      32.358  29.143  24.787  1.00  0.00     0.346 HD
BRANCH  79  90
ATOM     90  C   UNL A   1      33.245  20.738  25.940  1.00  0.00     0.302 C 
BRANCH  90  91
ATOM     91  C   UNL A   1      32.686  19.154  25.278  1.00  0.00     0.038 A 
ATOM     92  C   UNL A   1      32.801  17.953  26.060  1.00  0.00     0.012 A 
ATOM     93  C   UNL A   1      32.515  18.868  23.894  1.00  0.00     0.144 A 
ATOM     94  C   UNL A   1      33.153  16.691  25.501  1.00  0.00     0.003 A 
ATOM     95  C   UNL A   1      32.856  17.558  23.330  1.00  0.00     0.135 A 
ATOM     96  N   UNL A   1      32.152  19.658  22.879  1.00  0.00    -0.049 NA
ATOM     97  C   UNL A   1      33.268  16.471  24.120  1.00  0.00     0.034 A 
ATOM     98  N   UNL A   1      32.779  17.638  21.997  1.00  0.00    -0.050 NA
ATOM     99  O   UNL A   1      32.327  18.918  21.725  1.00  0.00    -0.243 OA
ENDBRANCH  90  91
ENDBRANCH  79  90
ENDBRANCH  75  77
ENDBRANCH  74  75
ENDBRANCH  73  74
ENDBRANCH   1  73
TORSDOF 16
ENDMDL
