MODEL 1
REMARK VINA RESULT:     -12.9      0.000      0.000
REMARK SMILES Cc1nn2c(nnc3c(=O)n(CCCC(=O)OCCOC(=O)c4ccc(-c5c6nc(c(-c7c(F)cc(S(=O)(=O)[O-])cc7F)c7ccc([nH]7)c(-c7c(F)cc(S(=O)(=O)[O-])cc7F)c7nc(c(-c8c(F)cc(S(=O)(=O)[O-])cc8F)c8ccc5[nH]8)C=C7)C=C6)cc4)ccc32)c1-c1ccc(F)cc1
REMARK SMILES IDX 18 1 17 2 15 3 16 4 14 5 13 6 12 7 11 8 1 9 2 10 3 11 92 12
REMARK SMILES IDX 4 13 5 14 91 15 6 16 8 17 90 18 7 19 9 20 89 21 10 22 93 23
REMARK SMILES IDX 94 24 99 25 95 26 98 27 96 28 97 29 19 30 20 31 21 32 22 33
REMARK SMILES IDX 23 34 24 35 88 36 25 37 87 38 26 39 27 40 28 41 81 42 29 43
REMARK SMILES IDX 86 44 80 45 82 46 30 47 85 48 79 49 78 50 31 52 65 53 44 54
REMARK SMILES IDX 64 55 45 56 48 57 63 58 83 59 46 60 47 61 62 63 84 64 49 65
REMARK SMILES IDX 32 66 33 67 42 68 34 69 35 70 41 71 43 72 36 73 37 74 38 75
REMARK SMILES IDX 39 76 40 77 66 78 67 79 76 80 68 81 69 82 75 83 77 84 70 85
REMARK SMILES IDX 71 86 72 87 73 88 74 89 50 90 51 91 60 92 52 93 53 94 59 95
REMARK SMILES IDX 61 96 54 97 55 98 56 99 57 100 58 101
REMARK H PARENT 82 51 48 62
REMARK Flexibility Score: inf
ROOT
ATOM      1  C   UNL A   1      45.794  22.077  24.845  1.00  0.00     0.274 C 
ENDROOT
BRANCH   1   2
ATOM      2  O   UNL A   1      45.488  20.936  25.660  1.00  0.00    -0.462 OA
BRANCH   2   3
ATOM      3  C   UNL A   1      45.389  19.717  25.086  1.00  0.00     0.305 C 
ATOM      4  O   UNL A   1      46.088  19.320  24.160  1.00  0.00    -0.252 OA
BRANCH   3   5
ATOM      5  C   UNL A   1      44.266  18.878  25.677  1.00  0.00     0.124 C 
BRANCH   5   6
ATOM      6  C   UNL A   1      42.803  19.293  25.455  1.00  0.00     0.034 C 
BRANCH   6   7
ATOM      7  C   UNL A   1      42.084  20.115  26.540  1.00  0.00     0.126 C 
BRANCH   7   8
ATOM      8  N   UNL A   1      40.690  20.442  26.220  1.00  0.00    -0.313 N 
ATOM      9  C   UNL A   1      33.376  21.208  24.272  1.00  0.00     0.069 C 
ATOM     10  C   UNL A   1      34.747  21.665  24.595  1.00  0.00     0.070 A 
ATOM     11  N   UNL A   1      35.735  20.771  24.748  1.00  0.00    -0.170 NA
ATOM     12  C   UNL A   1      35.194  22.991  24.788  1.00  0.00     0.051 A 
ATOM     13  N   UNL A   1      36.812  21.509  25.133  1.00  0.00    -0.210 N 
ATOM     14  C   UNL A   1      36.503  22.864  25.178  1.00  0.00     0.186 A 
ATOM     15  C   UNL A   1      38.084  21.092  25.513  1.00  0.00     0.102 A 
ATOM     16  N   UNL A   1      37.419  23.784  25.586  1.00  0.00    -0.129 NA
ATOM     17  C   UNL A   1      38.880  22.067  25.980  1.00  0.00     0.177 A 
ATOM     18  C   UNL A   1      38.566  19.728  25.427  1.00  0.00     0.049 A 
ATOM     19  N   UNL A   1      38.532  23.401  26.011  1.00  0.00    -0.141 NA
ATOM     20  C   UNL A   1      40.192  21.700  26.551  1.00  0.00     0.280 A 
ATOM     21  C   UNL A   1      39.848  19.460  25.714  1.00  0.00     0.091 A 
ATOM     22  O   UNL A   1      40.743  22.530  27.266  1.00  0.00    -0.267 OA
BRANCH  12  23
ATOM     23  C   UNL A   1      34.543  24.279  24.740  1.00  0.00    -0.012 A 
ATOM     24  C   UNL A   1      33.980  24.742  23.547  1.00  0.00     0.012 A 
ATOM     25  C   UNL A   1      34.383  25.018  25.923  1.00  0.00     0.012 A 
ATOM     26  C   UNL A   1      33.263  25.940  23.538  1.00  0.00     0.040 A 
ATOM     27  C   UNL A   1      33.670  26.216  25.909  1.00  0.00     0.040 A 
ATOM     28  C   UNL A   1      33.117  26.665  24.717  1.00  0.00     0.123 A 
ATOM     29  F   UNL A   1      32.421  27.810  24.703  1.00  0.00    -0.207 F 
ENDBRANCH  12  23
ENDBRANCH   7   8
ENDBRANCH   6   7
ENDBRANCH   5   6
ENDBRANCH   3   5
ENDBRANCH   2   3
ENDBRANCH   1   2
BRANCH   1  30
ATOM     30  C   UNL A   1      44.540  22.520  24.114  1.00  0.00     0.275 C 
BRANCH  30  31
ATOM     31  O   UNL A   1      43.670  23.162  25.037  1.00  0.00    -0.458 OA
BRANCH  31  32
ATOM     32  C   UNL A   1      43.855  24.499  25.105  1.00  0.00     0.338 C 
ATOM     33  O   UNL A   1      44.766  25.155  24.625  1.00  0.00    -0.246 OA
BRANCH  32  34
ATOM     34  C   UNL A   1      42.872  25.087  26.003  1.00  0.00     0.060 A 
ATOM     35  C   UNL A   1      41.980  25.989  25.418  1.00  0.00     0.016 A 
ATOM     36  C   UNL A   1      43.181  25.088  27.368  1.00  0.00     0.016 A 
ATOM     37  C   UNL A   1      41.607  27.077  26.163  1.00  0.00     0.010 A 
ATOM     38  C   UNL A   1      42.831  26.191  28.100  1.00  0.00     0.010 A 
ATOM     39  C   UNL A   1      42.126  27.204  27.457  1.00  0.00    -0.014 A 
BRANCH  39  40
ATOM     40  C   UNL A   1      41.806  28.410  28.175  1.00  0.00     0.031 A 
ATOM     41  C   UNL A   1      42.873  29.412  28.049  1.00  0.00     0.074 A 
ATOM     42  C   UNL A   1      40.634  28.608  28.802  1.00  0.00     0.049 A 
ATOM     43  N   UNL A   1      43.739  29.751  28.941  1.00  0.00    -0.248 NA
ATOM     44  C   UNL A   1      43.141  29.948  26.704  1.00  0.00     0.031 C 
ATOM     45  C   UNL A   1      39.415  27.804  28.678  1.00  0.00     0.029 A 
ATOM     46  N   UNL A   1      40.254  29.638  29.603  1.00  0.00    -0.354 N 
ATOM     47  C   UNL A   1      44.468  30.769  28.345  1.00  0.00     0.074 A 
ATOM     48  C   UNL A   1      44.243  30.664  26.928  1.00  0.00     0.031 C 
ATOM     49  C   UNL A   1      38.378  28.500  29.197  1.00  0.00     0.029 A 
ATOM     50  C   UNL A   1      38.887  29.712  29.818  1.00  0.00     0.049 A 
ATOM     51  H   UNL A   1      40.894  30.275  29.997  1.00  0.00     0.167 HD
ATOM     52  C   UNL A   1      44.876  31.831  29.085  1.00  0.00     0.037 A 
ATOM     53  C   UNL A   1      38.227  30.736  30.409  1.00  0.00     0.037 A 
ATOM     54  C   UNL A   1      44.803  31.549  30.496  1.00  0.00     0.049 A 
ATOM     55  C   UNL A   1      39.193  31.456  31.280  1.00  0.00     0.074 A 
ATOM     56  C   UNL A   1      45.559  30.869  31.425  1.00  0.00     0.029 A 
ATOM     57  N   UNL A   1      43.561  31.737  31.042  1.00  0.00    -0.354 N 
ATOM     58  N   UNL A   1      39.769  30.918  32.322  1.00  0.00    -0.248 NA
ATOM     59  C   UNL A   1      39.789  32.707  30.817  1.00  0.00     0.031 C 
ATOM     60  C   UNL A   1      44.691  30.568  32.518  1.00  0.00     0.029 A 
ATOM     61  C   UNL A   1      43.428  31.081  32.239  1.00  0.00     0.049 A 
ATOM     62  H   UNL A   1      42.850  32.276  30.625  1.00  0.00     0.167 HD
ATOM     63  C   UNL A   1      41.007  31.523  32.379  1.00  0.00     0.074 A 
ATOM     64  C   UNL A   1      40.900  32.718  31.557  1.00  0.00     0.031 C 
ATOM     65  C   UNL A   1      42.112  30.842  32.795  1.00  0.00     0.037 A 
BRANCH  52  66
ATOM     66  C   UNL A   1      44.860  33.250  28.571  1.00  0.00     0.058 A 
ATOM     67  C   UNL A   1      46.084  33.897  28.319  1.00  0.00     0.135 A 
ATOM     68  C   UNL A   1      43.719  34.087  28.589  1.00  0.00     0.135 A 
ATOM     69  F   UNL A   1      47.232  33.203  28.309  1.00  0.00    -0.206 F 
ATOM     70  C   UNL A   1      46.170  35.277  28.135  1.00  0.00     0.059 A 
ATOM     71  C   UNL A   1      43.774  35.452  28.346  1.00  0.00     0.059 A 
ATOM     72  F   UNL A   1      42.506  33.644  28.942  1.00  0.00    -0.206 F 
ATOM     73  C   UNL A   1      45.010  36.046  28.157  1.00  0.00     0.060 A 
BRANCH  73  74
ATOM     74  S   UNL A   1      45.123  37.835  27.996  1.00  0.00     0.124 S 
ATOM     75  O   UNL A   1      46.506  38.000  27.566  1.00  0.00    -0.237 OA
ATOM     76  O   UNL A   1      44.102  38.112  26.992  1.00  0.00    -0.237 OA
ATOM     77  O   UNL A   1      44.815  38.312  29.341  1.00  0.00    -0.744 OA
ENDBRANCH  73  74
ENDBRANCH  52  66
BRANCH  53  78
ATOM     78  C   UNL A   1      36.919  31.322  30.020  1.00  0.00     0.058 A 
ATOM     79  C   UNL A   1      36.053  31.841  30.998  1.00  0.00     0.135 A 
ATOM     80  C   UNL A   1      36.630  31.661  28.683  1.00  0.00     0.135 A 
ATOM     81  F   UNL A   1      36.260  31.570  32.296  1.00  0.00    -0.206 F 
ATOM     82  C   UNL A   1      35.011  32.714  30.679  1.00  0.00     0.059 A 
ATOM     83  C   UNL A   1      35.587  32.520  28.340  1.00  0.00     0.059 A 
ATOM     84  F   UNL A   1      37.413  31.249  27.676  1.00  0.00    -0.206 F 
ATOM     85  C   UNL A   1      34.805  33.071  29.347  1.00  0.00     0.060 A 
BRANCH  85  86
ATOM     86  S   UNL A   1      33.596  34.357  28.958  1.00  0.00     0.124 S 
ATOM     87  O   UNL A   1      33.049  34.664  30.276  1.00  0.00    -0.237 OA
ATOM     88  O   UNL A   1      34.434  35.390  28.359  1.00  0.00    -0.237 OA
ATOM     89  O   UNL A   1      32.677  33.691  28.039  1.00  0.00    -0.744 OA
ENDBRANCH  85  86
ENDBRANCH  53  78
BRANCH  65  90
ATOM     90  C   UNL A   1      41.923  29.709  33.756  1.00  0.00     0.058 A 
ATOM     91  C   UNL A   1      41.673  28.376  33.394  1.00  0.00     0.135 A 
ATOM     92  C   UNL A   1      42.075  29.989  35.124  1.00  0.00     0.135 A 
ATOM     93  F   UNL A   1      41.581  28.019  32.105  1.00  0.00    -0.206 F 
ATOM     94  C   UNL A   1      41.558  27.369  34.356  1.00  0.00     0.059 A 
ATOM     95  C   UNL A   1      41.992  28.998  36.096  1.00  0.00     0.059 A 
ATOM     96  F   UNL A   1      42.349  31.240  35.528  1.00  0.00    -0.206 F 
ATOM     97  C   UNL A   1      41.725  27.690  35.705  1.00  0.00     0.060 A 
BRANCH  97  98
ATOM     98  S   UNL A   1      41.657  26.374  36.942  1.00  0.00     0.124 S 
ATOM     99  O   UNL A   1      42.872  26.613  37.714  1.00  0.00    -0.237 OA
ATOM    100  O   UNL A   1      40.401  26.655  37.633  1.00  0.00    -0.237 OA
ATOM    101  O   UNL A   1      41.658  25.152  36.142  1.00  0.00    -0.744 OA
ENDBRANCH  97  98
ENDBRANCH  65  90
ENDBRANCH  39  40
ENDBRANCH  32  34
ENDBRANCH  31  32
ENDBRANCH  30  31
ENDBRANCH   1  30
TORSDOF 18
ENDMDL
MODEL 2
REMARK VINA RESULT:     -12.3      3.429     10.827
REMARK SMILES Cc1nn2c(nnc3c(=O)n(CCCC(=O)OCCOC(=O)c4ccc(-c5c6nc(c(-c7c(F)cc(S(=O)(=O)[O-])cc7F)c7ccc([nH]7)c(-c7c(F)cc(S(=O)(=O)[O-])cc7F)c7nc(c(-c8c(F)cc(S(=O)(=O)[O-])cc8F)c8ccc5[nH]8)C=C7)C=C6)cc4)ccc32)c1-c1ccc(F)cc1
REMARK SMILES IDX 18 1 17 2 15 3 16 4 14 5 13 6 12 7 11 8 1 9 2 10 3 11 92 12
REMARK SMILES IDX 4 13 5 14 91 15 6 16 8 17 90 18 7 19 9 20 89 21 10 22 93 23
REMARK SMILES IDX 94 24 99 25 95 26 98 27 96 28 97 29 19 30 20 31 21 32 22 33
REMARK SMILES IDX 23 34 24 35 88 36 25 37 87 38 26 39 27 40 28 41 81 42 29 43
REMARK SMILES IDX 86 44 80 45 82 46 30 47 85 48 79 49 78 50 31 52 65 53 44 54
REMARK SMILES IDX 64 55 45 56 48 57 63 58 83 59 46 60 47 61 62 63 84 64 49 65
REMARK SMILES IDX 32 66 33 67 42 68 34 69 35 70 41 71 43 72 36 73 37 74 38 75
REMARK SMILES IDX 39 76 40 77 66 78 67 79 76 80 68 81 69 82 75 83 77 84 70 85
REMARK SMILES IDX 71 86 72 87 73 88 74 89 50 90 51 91 60 92 52 93 53 94 59 95
REMARK SMILES IDX 61 96 54 97 55 98 56 99 57 100 58 101
REMARK H PARENT 82 51 48 62
REMARK Flexibility Score: inf
ROOT
ATOM      1  C   UNL A   1      33.767  35.106  32.605  1.00  0.00     0.274 C 
ENDROOT
BRANCH   1   2
ATOM      2  O   UNL A   1      32.813  35.403  31.573  1.00  0.00    -0.462 OA
BRANCH   2   3
ATOM      3  C   UNL A   1      32.944  36.542  30.856  1.00  0.00     0.305 C 
ATOM      4  O   UNL A   1      32.810  37.673  31.309  1.00  0.00    -0.252 OA
BRANCH   3   5
ATOM      5  C   UNL A   1      33.231  36.282  29.385  1.00  0.00     0.124 C 
BRANCH   5   6
ATOM      6  C   UNL A   1      32.857  34.929  28.761  1.00  0.00     0.034 C 
BRANCH   6   7
ATOM      7  C   UNL A   1      33.946  33.855  28.588  1.00  0.00     0.126 C 
BRANCH   7   8
ATOM      8  N   UNL A   1      33.500  32.658  27.867  1.00  0.00    -0.313 N 
ATOM      9  C   UNL A   1      30.337  26.914  24.011  1.00  0.00     0.069 C 
ATOM     10  C   UNL A   1      31.314  27.563  24.913  1.00  0.00     0.070 A 
ATOM     11  N   UNL A   1      31.128  28.833  25.304  1.00  0.00    -0.170 NA
ATOM     12  C   UNL A   1      32.497  27.008  25.451  1.00  0.00     0.051 A 
ATOM     13  N   UNL A   1      32.241  29.139  26.025  1.00  0.00    -0.210 N 
ATOM     14  C   UNL A   1      33.096  28.047  26.118  1.00  0.00     0.186 A 
ATOM     15  C   UNL A   1      32.624  30.348  26.597  1.00  0.00     0.102 A 
ATOM     16  N   UNL A   1      34.295  28.141  26.754  1.00  0.00    -0.129 NA
ATOM     17  C   UNL A   1      33.858  30.357  27.123  1.00  0.00     0.177 A 
ATOM     18  C   UNL A   1      31.793  31.534  26.653  1.00  0.00     0.049 A 
ATOM     19  N   UNL A   1      34.677  29.250  27.191  1.00  0.00    -0.141 NA
ATOM     20  C   UNL A   1      34.412  31.636  27.614  1.00  0.00     0.280 A 
ATOM     21  C   UNL A   1      32.220  32.611  27.330  1.00  0.00     0.091 A 
ATOM     22  O   UNL A   1      35.627  31.697  27.767  1.00  0.00    -0.267 OA
BRANCH  12  23
ATOM     23  C   UNL A   1      33.133  25.717  25.338  1.00  0.00    -0.012 A 
ATOM     24  C   UNL A   1      34.197  25.529  24.450  1.00  0.00     0.012 A 
ATOM     25  C   UNL A   1      32.750  24.679  26.202  1.00  0.00     0.012 A 
ATOM     26  C   UNL A   1      34.871  24.307  24.426  1.00  0.00     0.040 A 
ATOM     27  C   UNL A   1      33.423  23.459  26.172  1.00  0.00     0.040 A 
ATOM     28  C   UNL A   1      34.478  23.285  25.284  1.00  0.00     0.123 A 
ATOM     29  F   UNL A   1      35.133  22.117  25.262  1.00  0.00    -0.207 F 
ENDBRANCH  12  23
ENDBRANCH   7   8
ENDBRANCH   6   7
ENDBRANCH   5   6
ENDBRANCH   3   5
ENDBRANCH   2   3
ENDBRANCH   1   2
BRANCH   1  30
ATOM     30  C   UNL A   1      34.149  33.639  32.525  1.00  0.00     0.275 C 
BRANCH  30  31
ATOM     31  O   UNL A   1      35.113  33.358  33.532  1.00  0.00    -0.458 OA
BRANCH  31  32
ATOM     32  C   UNL A   1      36.356  33.786  33.217  1.00  0.00     0.338 C 
ATOM     33  O   UNL A   1      36.916  34.803  33.592  1.00  0.00    -0.246 OA
BRANCH  32  34
ATOM     34  C   UNL A   1      36.929  32.922  32.195  1.00  0.00     0.060 A 
ATOM     35  C   UNL A   1      36.659  31.559  32.332  1.00  0.00     0.016 A 
ATOM     36  C   UNL A   1      38.030  33.420  31.490  1.00  0.00     0.016 A 
ATOM     37  C   UNL A   1      37.656  30.683  31.992  1.00  0.00     0.010 A 
ATOM     38  C   UNL A   1      39.035  32.546  31.179  1.00  0.00     0.010 A 
ATOM     39  C   UNL A   1      38.865  31.207  31.517  1.00  0.00    -0.014 A 
BRANCH  39  40
ATOM     40  C   UNL A   1      39.931  30.272  31.272  1.00  0.00     0.031 A 
ATOM     41  C   UNL A   1      40.711  30.013  32.490  1.00  0.00     0.074 A 
ATOM     42  C   UNL A   1      40.119  29.657  30.092  1.00  0.00     0.049 A 
ATOM     43  N   UNL A   1      41.888  30.455  32.776  1.00  0.00    -0.248 NA
ATOM     44  C   UNL A   1      40.016  29.359  33.611  1.00  0.00     0.031 C 
ATOM     45  C   UNL A   1      39.191  29.607  28.960  1.00  0.00     0.029 A 
ATOM     46  N   UNL A   1      41.143  28.853  29.698  1.00  0.00    -0.354 N 
ATOM     47  C   UNL A   1      42.187  29.871  33.998  1.00  0.00     0.074 A 
ATOM     48  C   UNL A   1      40.939  29.443  34.569  1.00  0.00     0.031 C 
ATOM     49  C   UNL A   1      39.592  28.639  28.106  1.00  0.00     0.029 A 
ATOM     50  C   UNL A   1      40.874  28.118  28.554  1.00  0.00     0.049 A 
ATOM     51  H   UNL A   1      41.998  28.798  30.182  1.00  0.00     0.167 HD
ATOM     52  C   UNL A   1      43.452  29.449  34.253  1.00  0.00     0.037 A 
ATOM     53  C   UNL A   1      41.631  27.111  28.058  1.00  0.00     0.037 A 
ATOM     54  C   UNL A   1      44.396  30.024  33.328  1.00  0.00     0.049 A 
ATOM     55  C   UNL A   1      43.018  27.297  28.558  1.00  0.00     0.074 A 
ATOM     56  C   UNL A   1      45.046  31.228  33.176  1.00  0.00     0.029 A 
ATOM     57  N   UNL A   1      44.490  29.357  32.136  1.00  0.00    -0.354 N 
ATOM     58  N   UNL A   1      43.767  28.323  28.251  1.00  0.00    -0.248 NA
ATOM     59  C   UNL A   1      43.495  26.494  29.681  1.00  0.00     0.031 C 
ATOM     60  C   UNL A   1      45.453  31.303  31.810  1.00  0.00     0.029 A 
ATOM     61  C   UNL A   1      45.054  30.138  31.161  1.00  0.00     0.049 A 
ATOM     62  H   UNL A   1      44.188  28.431  31.996  1.00  0.00     0.167 HD
ATOM     63  C   UNL A   1      44.549  28.523  29.369  1.00  0.00     0.074 A 
ATOM     64  C   UNL A   1      44.470  27.286  30.131  1.00  0.00     0.031 C 
ATOM     65  C   UNL A   1      44.915  29.774  29.766  1.00  0.00     0.037 A 
BRANCH  52  66
ATOM     66  C   UNL A   1      43.762  28.168  34.989  1.00  0.00     0.058 A 
ATOM     67  C   UNL A   1      44.693  28.196  36.044  1.00  0.00     0.135 A 
ATOM     68  C   UNL A   1      43.404  26.880  34.524  1.00  0.00     0.135 A 
ATOM     69  F   UNL A   1      45.123  29.366  36.542  1.00  0.00    -0.206 F 
ATOM     70  C   UNL A   1      45.254  27.033  36.571  1.00  0.00     0.059 A 
ATOM     71  C   UNL A   1      43.902  25.709  35.076  1.00  0.00     0.059 A 
ATOM     72  F   UNL A   1      42.634  26.692  33.446  1.00  0.00    -0.206 F 
ATOM     73  C   UNL A   1      44.856  25.794  36.075  1.00  0.00     0.060 A 
BRANCH  73  74
ATOM     74  S   UNL A   1      45.632  24.295  36.697  1.00  0.00     0.124 S 
ATOM     75  O   UNL A   1      44.822  23.264  36.061  1.00  0.00    -0.237 OA
ATOM     76  O   UNL A   1      46.997  24.435  36.202  1.00  0.00    -0.237 OA
ATOM     77  O   UNL A   1      45.483  24.417  38.145  1.00  0.00    -0.744 OA
ENDBRANCH  73  74
ENDBRANCH  52  66
BRANCH  53  78
ATOM     78  C   UNL A   1      41.167  25.833  27.459  1.00  0.00     0.058 A 
ATOM     79  C   UNL A   1      41.907  25.218  26.435  1.00  0.00     0.135 A 
ATOM     80  C   UNL A   1      40.177  25.043  28.078  1.00  0.00     0.135 A 
ATOM     81  F   UNL A   1      42.872  25.898  25.797  1.00  0.00    -0.206 F 
ATOM     82  C   UNL A   1      41.734  23.874  26.098  1.00  0.00     0.059 A 
ATOM     83  C   UNL A   1      39.978  23.704  27.749  1.00  0.00     0.059 A 
ATOM     84  F   UNL A   1      39.440  25.521  29.091  1.00  0.00    -0.206 F 
ATOM     85  C   UNL A   1      40.786  23.116  26.784  1.00  0.00     0.060 A 
BRANCH  85  86
ATOM     86  S   UNL A   1      40.708  21.334  26.496  1.00  0.00     0.124 S 
ATOM     87  O   UNL A   1      41.950  21.093  25.769  1.00  0.00    -0.237 OA
ATOM     88  O   UNL A   1      40.652  20.809  27.855  1.00  0.00    -0.237 OA
ATOM     89  O   UNL A   1      39.485  21.170  25.715  1.00  0.00    -0.744 OA
ENDBRANCH  85  86
ENDBRANCH  53  78
BRANCH  65  90
ATOM     90  C   UNL A   1      45.033  30.840  28.720  1.00  0.00     0.058 A 
ATOM     91  C   UNL A   1      46.135  31.020  27.870  1.00  0.00     0.135 A 
ATOM     92  C   UNL A   1      43.926  31.683  28.530  1.00  0.00     0.135 A 
ATOM     93  F   UNL A   1      47.203  30.212  27.947  1.00  0.00    -0.206 F 
ATOM     94  C   UNL A   1      46.142  32.013  26.886  1.00  0.00     0.059 A 
ATOM     95  C   UNL A   1      43.901  32.658  27.539  1.00  0.00     0.059 A 
ATOM     96  F   UNL A   1      42.829  31.535  29.291  1.00  0.00    -0.206 F 
ATOM     97  C   UNL A   1      45.017  32.824  26.725  1.00  0.00     0.060 A 
BRANCH  97  98
ATOM     98  S   UNL A   1      44.994  34.052  25.401  1.00  0.00     0.124 S 
ATOM     99  O   UNL A   1      46.406  34.403  25.280  1.00  0.00    -0.237 OA
ATOM    100  O   UNL A   1      44.430  33.301  24.283  1.00  0.00    -0.237 OA
ATOM    101  O   UNL A   1      44.133  35.109  25.928  1.00  0.00    -0.744 OA
ENDBRANCH  97  98
ENDBRANCH  65  90
ENDBRANCH  39  40
ENDBRANCH  32  34
ENDBRANCH  31  32
ENDBRANCH  30  31
ENDBRANCH   1  30
TORSDOF 18
ENDMDL
MODEL 3
REMARK VINA RESULT:     -11.9      3.552     10.342
REMARK SMILES Cc1nn2c(nnc3c(=O)n(CCCC(=O)OCCOC(=O)c4ccc(-c5c6nc(c(-c7c(F)cc(S(=O)(=O)[O-])cc7F)c7ccc([nH]7)c(-c7c(F)cc(S(=O)(=O)[O-])cc7F)c7nc(c(-c8c(F)cc(S(=O)(=O)[O-])cc8F)c8ccc5[nH]8)C=C7)C=C6)cc4)ccc32)c1-c1ccc(F)cc1
REMARK SMILES IDX 18 1 17 2 15 3 16 4 14 5 13 6 12 7 11 8 1 9 2 10 3 11 92 12
REMARK SMILES IDX 4 13 5 14 91 15 6 16 8 17 90 18 7 19 9 20 89 21 10 22 93 23
REMARK SMILES IDX 94 24 99 25 95 26 98 27 96 28 97 29 19 30 20 31 21 32 22 33
REMARK SMILES IDX 23 34 24 35 88 36 25 37 87 38 26 39 27 40 28 41 81 42 29 43
REMARK SMILES IDX 86 44 80 45 82 46 30 47 85 48 79 49 78 50 31 52 65 53 44 54
REMARK SMILES IDX 64 55 45 56 48 57 63 58 83 59 46 60 47 61 62 63 84 64 49 65
REMARK SMILES IDX 32 66 33 67 42 68 34 69 35 70 41 71 43 72 36 73 37 74 38 75
REMARK SMILES IDX 39 76 40 77 66 78 67 79 76 80 68 81 69 82 75 83 77 84 70 85
REMARK SMILES IDX 71 86 72 87 73 88 74 89 50 90 51 91 60 92 52 93 53 94 59 95
REMARK SMILES IDX 61 96 54 97 55 98 56 99 57 100 58 101
REMARK H PARENT 82 51 48 62
REMARK Flexibility Score: inf
ROOT
ATOM      1  C   UNL A   1      33.489  31.984  27.649  1.00  0.00     0.274 C 
ENDROOT
BRANCH   1   2
ATOM      2  O   UNL A   1      34.157  30.901  26.982  1.00  0.00    -0.462 OA
BRANCH   2   3
ATOM      3  C   UNL A   1      33.771  29.630  27.228  1.00  0.00     0.305 C 
ATOM      4  O   UNL A   1      34.533  28.704  27.484  1.00  0.00    -0.252 OA
BRANCH   3   5
ATOM      5  C   UNL A   1      32.267  29.438  27.107  1.00  0.00     0.124 C 
BRANCH   5   6
ATOM      6  C   UNL A   1      31.648  28.059  27.380  1.00  0.00     0.034 C 
BRANCH   6   7
ATOM      7  C   UNL A   1      31.223  27.178  26.191  1.00  0.00     0.126 C 
BRANCH   7   8
ATOM      8  N   UNL A   1      32.039  25.972  26.015  1.00  0.00    -0.313 N 
ATOM      9  C   UNL A   1      37.006  20.320  24.893  1.00  0.00     0.069 C 
ATOM     10  C   UNL A   1      35.669  20.943  25.019  1.00  0.00     0.070 A 
ATOM     11  N   UNL A   1      35.554  22.276  25.117  1.00  0.00    -0.170 NA
ATOM     12  C   UNL A   1      34.414  20.296  25.063  1.00  0.00     0.051 A 
ATOM     13  N   UNL A   1      34.227  22.495  25.319  1.00  0.00    -0.210 N 
ATOM     14  C   UNL A   1      33.512  21.302  25.304  1.00  0.00     0.186 A 
ATOM     15  C   UNL A   1      33.552  23.684  25.576  1.00  0.00     0.102 A 
ATOM     16  N   UNL A   1      32.172  21.279  25.535  1.00  0.00    -0.129 NA
ATOM     17  C   UNL A   1      32.252  23.541  25.875  1.00  0.00     0.177 A 
ATOM     18  C   UNL A   1      34.154  25.001  25.531  1.00  0.00     0.049 A 
ATOM     19  N   UNL A   1      31.581  22.336  25.852  1.00  0.00    -0.141 NA
ATOM     20  C   UNL A   1      31.488  24.727  26.312  1.00  0.00     0.280 A 
ATOM     21  C   UNL A   1      33.383  26.088  25.683  1.00  0.00     0.091 A 
ATOM     22  O   UNL A   1      30.428  24.527  26.896  1.00  0.00    -0.267 OA
BRANCH  12  23
ATOM     23  C   UNL A   1      34.002  18.913  25.001  1.00  0.00    -0.012 A 
ATOM     24  C   UNL A   1      32.835  18.494  25.647  1.00  0.00     0.012 A 
ATOM     25  C   UNL A   1      34.721  18.013  24.198  1.00  0.00     0.012 A 
ATOM     26  C   UNL A   1      32.392  17.180  25.493  1.00  0.00     0.040 A 
ATOM     27  C   UNL A   1      34.277  16.700  24.050  1.00  0.00     0.040 A 
ATOM     28  C   UNL A   1      33.116  16.296  24.699  1.00  0.00     0.123 A 
ATOM     29  F   UNL A   1      32.682  15.038  24.549  1.00  0.00    -0.207 F 
ENDBRANCH  12  23
ENDBRANCH   7   8
ENDBRANCH   6   7
ENDBRANCH   5   6
ENDBRANCH   3   5
ENDBRANCH   2   3
ENDBRANCH   1   2
BRANCH   1  30
ATOM     30  C   UNL A   1      34.123  32.197  29.012  1.00  0.00     0.275 C 
BRANCH  30  31
ATOM     31  O   UNL A   1      35.208  31.290  29.163  1.00  0.00    -0.458 OA
BRANCH  31  32
ATOM     32  C   UNL A   1      36.239  31.804  29.871  1.00  0.00     0.338 C 
ATOM     33  O   UNL A   1      36.188  32.534  30.848  1.00  0.00    -0.246 OA
BRANCH  32  34
ATOM     34  C   UNL A   1      37.495  31.498  29.203  1.00  0.00     0.060 A 
ATOM     35  C   UNL A   1      37.546  30.269  28.541  1.00  0.00     0.016 A 
ATOM     36  C   UNL A   1      38.634  32.176  29.652  1.00  0.00     0.016 A 
ATOM     37  C   UNL A   1      38.732  29.584  28.578  1.00  0.00     0.010 A 
ATOM     38  C   UNL A   1      39.809  31.477  29.714  1.00  0.00     0.010 A 
ATOM     39  C   UNL A   1      39.812  30.163  29.255  1.00  0.00    -0.014 A 
BRANCH  39  40
ATOM     40  C   UNL A   1      41.010  29.373  29.373  1.00  0.00     0.031 A 
ATOM     41  C   UNL A   1      41.369  29.144  30.779  1.00  0.00     0.074 A 
ATOM     42  C   UNL A   1      41.654  28.848  28.317  1.00  0.00     0.049 A 
ATOM     43  N   UNL A   1      42.317  29.705  31.447  1.00  0.00    -0.248 NA
ATOM     44  C   UNL A   1      40.431  28.355  31.595  1.00  0.00     0.031 C 
ATOM     45  C   UNL A   1      41.168  28.749  26.939  1.00  0.00     0.029 A 
ATOM     46  N   UNL A   1      42.845  28.191  28.281  1.00  0.00    -0.354 N 
ATOM     47  C   UNL A   1      42.267  29.097  32.692  1.00  0.00     0.074 A 
ATOM     48  C   UNL A   1      40.966  28.496  32.808  1.00  0.00     0.031 C 
ATOM     49  C   UNL A   1      41.950  27.880  26.259  1.00  0.00     0.029 A 
ATOM     50  C   UNL A   1      43.066  27.491  27.105  1.00  0.00     0.049 A 
ATOM     51  H   UNL A   1      43.491  28.212  29.023  1.00  0.00     0.167 HD
ATOM     52  C   UNL A   1      43.420  28.813  33.352  1.00  0.00     0.037 A 
ATOM     53  C   UNL A   1      44.067  26.607  26.881  1.00  0.00     0.037 A 
ATOM     54  C   UNL A   1      44.535  29.542  32.803  1.00  0.00     0.049 A 
ATOM     55  C   UNL A   1      45.175  26.928  27.818  1.00  0.00     0.074 A 
ATOM     56  C   UNL A   1      45.038  30.821  32.889  1.00  0.00     0.029 A 
ATOM     57  N   UNL A   1      45.103  28.955  31.704  1.00  0.00    -0.354 N 
ATOM     58  N   UNL A   1      45.845  28.049  27.791  1.00  0.00    -0.248 NA
ATOM     59  C   UNL A   1      45.352  26.128  29.028  1.00  0.00     0.031 C 
ATOM     60  C   UNL A   1      45.862  31.014  31.740  1.00  0.00     0.029 A 
ATOM     61  C   UNL A   1      45.853  29.847  30.983  1.00  0.00     0.049 A 
ATOM     62  H   UNL A   1      44.986  28.008  31.462  1.00  0.00     0.167 HD
ATOM     63  C   UNL A   1      46.181  28.280  29.108  1.00  0.00     0.074 A 
ATOM     64  C   UNL A   1      46.013  27.004  29.787  1.00  0.00     0.031 C 
ATOM     65  C   UNL A   1      46.232  29.542  29.618  1.00  0.00     0.037 A 
BRANCH  52  66
ATOM     66  C   UNL A   1      43.630  27.540  34.136  1.00  0.00     0.058 A 
ATOM     67  C   UNL A   1      43.895  27.626  35.515  1.00  0.00     0.135 A 
ATOM     68  C   UNL A   1      43.861  26.275  33.546  1.00  0.00     0.135 A 
ATOM     69  F   UNL A   1      43.737  28.787  36.169  1.00  0.00    -0.206 F 
ATOM     70  C   UNL A   1      44.390  26.545  36.244  1.00  0.00     0.059 A 
ATOM     71  C   UNL A   1      44.293  25.170  34.265  1.00  0.00     0.059 A 
ATOM     72  F   UNL A   1      43.781  26.070  32.226  1.00  0.00    -0.206 F 
ATOM     73  C   UNL A   1      44.592  25.323  35.608  1.00  0.00     0.060 A 
BRANCH  73  74
ATOM     74  S   UNL A   1      45.301  23.947  36.526  1.00  0.00     0.124 S 
ATOM     75  O   UNL A   1      44.926  24.286  37.893  1.00  0.00    -0.237 OA
ATOM     76  O   UNL A   1      44.611  22.804  35.936  1.00  0.00    -0.237 OA
ATOM     77  O   UNL A   1      46.725  24.037  36.217  1.00  0.00    -0.744 OA
ENDBRANCH  73  74
ENDBRANCH  52  66
BRANCH  53  78
ATOM     78  C   UNL A   1      43.995  25.317  26.148  1.00  0.00     0.058 A 
ATOM     79  C   UNL A   1      44.978  24.980  25.202  1.00  0.00     0.135 A 
ATOM     80  C   UNL A   1      43.152  24.270  26.574  1.00  0.00     0.135 A 
ATOM     81  F   UNL A   1      45.826  25.916  24.747  1.00  0.00    -0.206 F 
ATOM     82  C   UNL A   1      45.171  23.668  24.766  1.00  0.00     0.059 A 
ATOM     83  C   UNL A   1      43.317  22.956  26.142  1.00  0.00     0.059 A 
ATOM     84  F   UNL A   1      42.205  24.475  27.501  1.00  0.00    -0.206 F 
ATOM     85  C   UNL A   1      44.353  22.657  25.266  1.00  0.00     0.060 A 
BRANCH  85  86
ATOM     86  S   UNL A   1      44.735  20.937  24.864  1.00  0.00     0.124 S 
ATOM     87  O   UNL A   1      44.510  20.907  23.423  1.00  0.00    -0.237 OA
ATOM     88  O   UNL A   1      46.123  20.825  25.296  1.00  0.00    -0.237 OA
ATOM     89  O   UNL A   1      43.772  20.181  25.662  1.00  0.00    -0.744 OA
ENDBRANCH  85  86
ENDBRANCH  53  78
BRANCH  65  90
ATOM     90  C   UNL A   1      46.551  30.669  28.683  1.00  0.00     0.058 A 
ATOM     91  C   UNL A   1      45.601  31.477  28.038  1.00  0.00     0.135 A 
ATOM     92  C   UNL A   1      47.905  30.985  28.490  1.00  0.00     0.135 A 
ATOM     93  F   UNL A   1      44.288  31.279  28.226  1.00  0.00    -0.206 F 
ATOM     94  C   UNL A   1      45.986  32.541  27.218  1.00  0.00     0.059 A 
ATOM     95  C   UNL A   1      48.310  32.055  27.700  1.00  0.00     0.059 A 
ATOM     96  F   UNL A   1      48.858  30.268  29.108  1.00  0.00    -0.206 F 
ATOM     97  C   UNL A   1      47.344  32.826  27.060  1.00  0.00     0.060 A 
BRANCH  97  98
ATOM     98  S   UNL A   1      47.839  34.251  26.066  1.00  0.00     0.124 S 
ATOM     99  O   UNL A   1      48.082  35.268  27.083  1.00  0.00    -0.237 OA
ATOM    100  O   UNL A   1      49.023  33.754  25.370  1.00  0.00    -0.237 OA
ATOM    101  O   UNL A   1      46.679  34.490  25.210  1.00  0.00    -0.744 OA
ENDBRANCH  97  98
ENDBRANCH  65  90
ENDBRANCH  39  40
ENDBRANCH  32  34
ENDBRANCH  31  32
ENDBRANCH  30  31
ENDBRANCH   1  30
TORSDOF 18
ENDMDL
