MODEL 1
REMARK VINA RESULT:      -9.7      0.000      0.000
REMARK SMILES CCC(CC)[C@@H](C)[NH2+][C@@H](C)[C@@H](C)C(=O)OCCOC(=O)c1ccc(-c2c3nc(c(-c4c(F)cc(S(=O)(=O)[O-])cc4F)c4ccc([nH]4)c(-c4c(F)cc(S(=O)(=O)[O-])cc4F)c4nc(c(-c5c(F)cc(S(=O)(=O)[O-])cc5F)c5ccc2[nH]5)C=C4)C=C3)cc1
REMARK SMILES IDX 16 1 15 2 13 3 14 4 11 5 12 6 9 7 10 8 8 9 6 12 7 13 3 14
REMARK SMILES IDX 2 15 1 16 4 17 5 18 17 19 18 20 19 21 20 22 21 23 22 24
REMARK SMILES IDX 86 25 23 26 85 27 24 28 25 29 26 30 79 31 27 32 84 33 78 34
REMARK SMILES IDX 80 35 28 36 83 37 77 38 76 39 29 41 63 42 42 43 62 44 43 45
REMARK SMILES IDX 46 46 61 47 81 48 44 49 45 50 60 52 82 53 47 54 30 55 31 56
REMARK SMILES IDX 40 57 32 58 33 59 39 60 41 61 34 62 35 63 36 64 37 65 38 66
REMARK SMILES IDX 64 67 65 68 74 69 66 70 67 71 73 72 75 73 68 74 69 75 70 76
REMARK SMILES IDX 71 77 72 78 48 79 49 80 58 81 50 82 51 83 57 84 59 85 52 86
REMARK SMILES IDX 53 87 54 88 55 89 56 90
REMARK H PARENT 8 10 8 11 80 40 46 51
REMARK Flexibility Score: inf
ROOT
ATOM      1  C   UNL A   1      36.876  23.309  25.895  1.00  0.00     0.274 C 
ENDROOT
BRANCH   1   2
ATOM      2  O   UNL A   1      36.463  22.697  24.653  1.00  0.00    -0.462 OA
BRANCH   2   3
ATOM      3  C   UNL A   1      35.866  21.484  24.791  1.00  0.00     0.314 C 
ATOM      4  O   UNL A   1      36.439  20.474  25.189  1.00  0.00    -0.252 OA
BRANCH   3   5
ATOM      5  C   UNL A   1      34.407  21.453  24.362  1.00  0.00     0.154 C 
ATOM      6  C   UNL A   1      34.098  22.847  23.805  1.00  0.00     0.026 C 
BRANCH   5   7
ATOM      7  C   UNL A   1      33.367  20.976  25.418  1.00  0.00     0.193 C 
ATOM      8  C   UNL A   1      33.626  21.621  26.784  1.00  0.00     0.076 C 
BRANCH   7   9
ATOM      9  N   UNL A   1      33.470  19.504  25.500  1.00  0.00    -0.341 N 
ATOM     10  H   UNL A   1      34.335  19.294  25.997  1.00  0.00     0.346 HD
ATOM     11  H   UNL A   1      32.597  19.230  25.951  1.00  0.00     0.346 HD
BRANCH   9  12
ATOM     12  C   UNL A   1      33.483  18.707  24.263  1.00  0.00     0.182 C 
ATOM     13  C   UNL A   1      32.099  18.730  23.591  1.00  0.00     0.075 C 
BRANCH  12  14
ATOM     14  C   UNL A   1      33.890  17.230  24.641  1.00  0.00     0.046 C 
BRANCH  14  15
ATOM     15  C   UNL A   1      35.404  17.102  24.968  1.00  0.00     0.006 C 
ATOM     16  C   UNL A   1      35.828  15.714  25.436  1.00  0.00     0.004 C 
ENDBRANCH  14  15
BRANCH  14  17
ATOM     17  C   UNL A   1      33.017  16.627  25.776  1.00  0.00     0.006 C 
ATOM     18  C   UNL A   1      32.370  15.288  25.452  1.00  0.00     0.004 C 
ENDBRANCH  14  17
ENDBRANCH  12  14
ENDBRANCH   9  12
ENDBRANCH   7   9
ENDBRANCH   5   7
ENDBRANCH   3   5
ENDBRANCH   2   3
ENDBRANCH   1   2
BRANCH   1  19
ATOM     19  C   UNL A   1      38.380  23.141  26.117  1.00  0.00     0.275 C 
BRANCH  19  20
ATOM     20  O   UNL A   1      39.027  24.424  26.103  1.00  0.00    -0.458 OA
BRANCH  20  21
ATOM     21  C   UNL A   1      40.236  24.477  26.705  1.00  0.00     0.338 C 
ATOM     22  O   UNL A   1      41.198  23.759  26.464  1.00  0.00    -0.246 OA
BRANCH  21  23
ATOM     23  C   UNL A   1      40.259  25.542  27.731  1.00  0.00     0.060 A 
ATOM     24  C   UNL A   1      39.343  25.572  28.789  1.00  0.00     0.016 A 
ATOM     25  C   UNL A   1      41.190  26.573  27.593  1.00  0.00     0.016 A 
ATOM     26  C   UNL A   1      39.338  26.643  29.687  1.00  0.00     0.010 A 
ATOM     27  C   UNL A   1      41.227  27.610  28.527  1.00  0.00     0.010 A 
ATOM     28  C   UNL A   1      40.293  27.663  29.577  1.00  0.00    -0.014 A 
BRANCH  28  29
ATOM     29  C   UNL A   1      40.358  28.781  30.553  1.00  0.00     0.031 A 
ATOM     30  C   UNL A   1      41.313  28.714  31.715  1.00  0.00     0.074 A 
ATOM     31  C   UNL A   1      39.506  29.819  30.442  1.00  0.00     0.049 A 
ATOM     32  N   UNL A   1      41.367  29.465  32.786  1.00  0.00    -0.248 NA
ATOM     33  C   UNL A   1      42.331  27.653  31.671  1.00  0.00     0.031 C 
ATOM     34  C   UNL A   1      38.543  30.011  29.356  1.00  0.00     0.029 A 
ATOM     35  N   UNL A   1      39.291  30.892  31.271  1.00  0.00    -0.354 N 
ATOM     36  C   UNL A   1      42.400  28.947  33.560  1.00  0.00     0.074 A 
ATOM     37  C   UNL A   1      42.939  27.813  32.839  1.00  0.00     0.031 C 
ATOM     38  C   UNL A   1      37.836  31.128  29.589  1.00  0.00     0.029 A 
ATOM     39  C   UNL A   1      38.249  31.694  30.868  1.00  0.00     0.049 A 
ATOM     40  H   UNL A   1      39.830  31.070  32.075  1.00  0.00     0.167 HD
ATOM     41  C   UNL A   1      42.854  29.380  34.761  1.00  0.00     0.037 A 
ATOM     42  C   UNL A   1      37.657  32.738  31.480  1.00  0.00     0.037 A 
ATOM     43  C   UNL A   1      42.324  30.521  35.463  1.00  0.00     0.049 A 
ATOM     44  C   UNL A   1      38.153  33.180  32.828  1.00  0.00     0.074 A 
ATOM     45  C   UNL A   1      42.727  31.050  36.678  1.00  0.00     0.029 A 
ATOM     46  N   UNL A   1      41.277  31.313  35.013  1.00  0.00    -0.354 N 
ATOM     47  N   UNL A   1      39.118  32.671  33.556  1.00  0.00    -0.248 NA
ATOM     48  C   UNL A   1      37.476  34.330  33.441  1.00  0.00     0.031 C 
ATOM     49  C   UNL A   1      41.904  32.142  36.977  1.00  0.00     0.029 A 
ATOM     50  C   UNL A   1      41.013  32.318  35.930  1.00  0.00     0.049 A 
ATOM     51  H   UNL A   1      40.793  31.180  34.167  1.00  0.00     0.167 HD
ATOM     52  C   UNL A   1      39.173  33.448  34.707  1.00  0.00     0.074 A 
ATOM     53  C   UNL A   1      38.153  34.468  34.572  1.00  0.00     0.031 C 
ATOM     54  C   UNL A   1      39.994  33.327  35.779  1.00  0.00     0.037 A 
BRANCH  41  55
ATOM     55  C   UNL A   1      43.967  28.602  35.407  1.00  0.00     0.058 A 
ATOM     56  C   UNL A   1      43.712  27.551  36.301  1.00  0.00     0.135 A 
ATOM     57  C   UNL A   1      45.308  28.890  35.101  1.00  0.00     0.135 A 
ATOM     58  F   UNL A   1      42.450  27.244  36.641  1.00  0.00    -0.206 F 
ATOM     59  C   UNL A   1      44.746  26.829  36.889  1.00  0.00     0.059 A 
ATOM     60  C   UNL A   1      46.357  28.166  35.659  1.00  0.00     0.059 A 
ATOM     61  F   UNL A   1      45.608  29.886  34.252  1.00  0.00    -0.206 F 
ATOM     62  C   UNL A   1      46.067  27.147  36.565  1.00  0.00     0.060 A 
BRANCH  62  63
ATOM     63  S   UNL A   1      47.400  26.204  37.336  1.00  0.00     0.124 S 
ATOM     64  O   UNL A   1      46.653  25.144  38.007  1.00  0.00    -0.237 OA
ATOM     65  O   UNL A   1      48.196  25.785  36.186  1.00  0.00    -0.237 OA
ATOM     66  O   UNL A   1      48.038  27.176  38.217  1.00  0.00    -0.744 OA
ENDBRANCH  62  63
ENDBRANCH  41  55
BRANCH  42  67
ATOM     67  C   UNL A   1      36.508  33.416  30.827  1.00  0.00     0.058 A 
ATOM     68  C   UNL A   1      35.205  33.262  31.319  1.00  0.00     0.135 A 
ATOM     69  C   UNL A   1      36.695  34.260  29.720  1.00  0.00     0.135 A 
ATOM     70  F   UNL A   1      34.976  32.458  32.369  1.00  0.00    -0.206 F 
ATOM     71  C   UNL A   1      34.126  33.917  30.738  1.00  0.00     0.059 A 
ATOM     72  C   UNL A   1      35.635  34.945  29.136  1.00  0.00     0.059 A 
ATOM     73  F   UNL A   1      37.926  34.450  29.219  1.00  0.00    -0.206 F 
ATOM     74  C   UNL A   1      34.351  34.761  29.648  1.00  0.00     0.060 A 
BRANCH  74  75
ATOM     75  S   UNL A   1      32.955  35.663  28.942  1.00  0.00     0.124 S 
ATOM     76  O   UNL A   1      32.346  34.643  28.096  1.00  0.00    -0.237 OA
ATOM     77  O   UNL A   1      32.197  36.040  30.132  1.00  0.00    -0.237 OA
ATOM     78  O   UNL A   1      33.594  36.771  28.239  1.00  0.00    -0.744 OA
ENDBRANCH  74  75
ENDBRANCH  42  67
BRANCH  54  79
ATOM     79  C   UNL A   1      39.842  34.340  36.878  1.00  0.00     0.058 A 
ATOM     80  C   UNL A   1      39.016  34.105  37.987  1.00  0.00     0.135 A 
ATOM     81  C   UNL A   1      40.561  35.546  36.836  1.00  0.00     0.135 A 
ATOM     82  F   UNL A   1      38.302  32.971  38.069  1.00  0.00    -0.206 F 
ATOM     83  C   UNL A   1      38.891  35.040  39.009  1.00  0.00     0.059 A 
ATOM     84  C   UNL A   1      40.467  36.486  37.857  1.00  0.00     0.059 A 
ATOM     85  F   UNL A   1      41.371  35.815  35.799  1.00  0.00    -0.206 F 
ATOM     86  C   UNL A   1      39.620  36.229  38.935  1.00  0.00     0.060 A 
BRANCH  86  87
ATOM     87  S   UNL A   1      39.472  37.425  40.279  1.00  0.00     0.124 S 
ATOM     88  O   UNL A   1      40.872  37.721  40.563  1.00  0.00    -0.237 OA
ATOM     89  O   UNL A   1      38.710  38.504  39.658  1.00  0.00    -0.237 OA
ATOM     90  O   UNL A   1      38.762  36.683  41.316  1.00  0.00    -0.744 OA
ENDBRANCH  86  87
ENDBRANCH  54  79
ENDBRANCH  28  29
ENDBRANCH  21  23
ENDBRANCH  20  21
ENDBRANCH  19  20
ENDBRANCH   1  19
TORSDOF 20
ENDMDL
MODEL 2
REMARK VINA RESULT:      -9.7      5.901     11.325
REMARK SMILES CCC(CC)[C@@H](C)[NH2+][C@@H](C)[C@@H](C)C(=O)OCCOC(=O)c1ccc(-c2c3nc(c(-c4c(F)cc(S(=O)(=O)[O-])cc4F)c4ccc([nH]4)c(-c4c(F)cc(S(=O)(=O)[O-])cc4F)c4nc(c(-c5c(F)cc(S(=O)(=O)[O-])cc5F)c5ccc2[nH]5)C=C4)C=C3)cc1
REMARK SMILES IDX 16 1 15 2 13 3 14 4 11 5 12 6 9 7 10 8 8 9 6 12 7 13 3 14
REMARK SMILES IDX 2 15 1 16 4 17 5 18 17 19 18 20 19 21 20 22 21 23 22 24
REMARK SMILES IDX 86 25 23 26 85 27 24 28 25 29 26 30 79 31 27 32 84 33 78 34
REMARK SMILES IDX 80 35 28 36 83 37 77 38 76 39 29 41 63 42 42 43 62 44 43 45
REMARK SMILES IDX 46 46 61 47 81 48 44 49 45 50 60 52 82 53 47 54 30 55 31 56
REMARK SMILES IDX 40 57 32 58 33 59 39 60 41 61 34 62 35 63 36 64 37 65 38 66
REMARK SMILES IDX 64 67 65 68 74 69 66 70 67 71 73 72 75 73 68 74 69 75 70 76
REMARK SMILES IDX 71 77 72 78 48 79 49 80 58 81 50 82 51 83 57 84 59 85 52 86
REMARK SMILES IDX 53 87 54 88 55 89 56 90
REMARK H PARENT 8 10 8 11 80 40 46 51
REMARK Flexibility Score: inf
ROOT
ATOM      1  C   UNL A   1      32.459  28.901  26.086  1.00  0.00     0.274 C 
ENDROOT
BRANCH   1   2
ATOM      2  O   UNL A   1      32.127  27.737  25.299  1.00  0.00    -0.462 OA
BRANCH   2   3
ATOM      3  C   UNL A   1      32.210  27.920  23.955  1.00  0.00     0.314 C 
ATOM      4  O   UNL A   1      31.377  28.529  23.289  1.00  0.00    -0.252 OA
BRANCH   3   5
ATOM      5  C   UNL A   1      33.417  27.259  23.307  1.00  0.00     0.154 C 
ATOM      6  C   UNL A   1      33.867  28.200  22.185  1.00  0.00     0.026 C 
BRANCH   5   7
ATOM      7  C   UNL A   1      33.250  25.784  22.835  1.00  0.00     0.193 C 
ATOM      8  C   UNL A   1      32.700  25.718  21.406  1.00  0.00     0.076 C 
BRANCH   7   9
ATOM      9  N   UNL A   1      32.334  25.121  23.786  1.00  0.00    -0.341 N 
ATOM     10  H   UNL A   1      31.960  25.849  24.395  1.00  0.00     0.346 HD
ATOM     11  H   UNL A   1      31.672  24.638  23.180  1.00  0.00     0.346 HD
BRANCH   9  12
ATOM     12  C   UNL A   1      32.843  24.053  24.661  1.00  0.00     0.182 C 
ATOM     13  C   UNL A   1      32.557  24.381  26.136  1.00  0.00     0.075 C 
BRANCH  12  14
ATOM     14  C   UNL A   1      34.396  23.919  24.413  1.00  0.00     0.046 C 
BRANCH  14  15
ATOM     15  C   UNL A   1      35.230  24.388  25.637  1.00  0.00     0.006 C 
ATOM     16  C   UNL A   1      36.678  23.908  25.629  1.00  0.00     0.004 C 
ENDBRANCH  14  15
BRANCH  14  17
ATOM     17  C   UNL A   1      34.821  22.497  23.954  1.00  0.00     0.006 C 
ATOM     18  C   UNL A   1      33.819  21.393  24.260  1.00  0.00     0.004 C 
ENDBRANCH  14  17
ENDBRANCH  12  14
ENDBRANCH   9  12
ENDBRANCH   7   9
ENDBRANCH   5   7
ENDBRANCH   3   5
ENDBRANCH   2   3
ENDBRANCH   1   2
BRANCH   1  19
ATOM     19  C   UNL A   1      33.896  28.822  26.608  1.00  0.00     0.275 C 
BRANCH  19  20
ATOM     20  O   UNL A   1      33.930  29.144  28.008  1.00  0.00    -0.458 OA
BRANCH  20  21
ATOM     21  C   UNL A   1      34.667  30.227  28.341  1.00  0.00     0.338 C 
ATOM     22  O   UNL A   1      34.256  31.374  28.466  1.00  0.00    -0.246 OA
BRANCH  21  23
ATOM     23  C   UNL A   1      36.084  29.850  28.539  1.00  0.00     0.060 A 
ATOM     24  C   UNL A   1      36.553  29.344  29.757  1.00  0.00     0.016 A 
ATOM     25  C   UNL A   1      36.979  30.067  27.490  1.00  0.00     0.016 A 
ATOM     26  C   UNL A   1      37.915  29.085  29.934  1.00  0.00     0.010 A 
ATOM     27  C   UNL A   1      38.329  29.748  27.647  1.00  0.00     0.010 A 
ATOM     28  C   UNL A   1      38.814  29.265  28.874  1.00  0.00    -0.014 A 
BRANCH  28  29
ATOM     29  C   UNL A   1      40.256  28.936  29.010  1.00  0.00     0.031 A 
ATOM     30  C   UNL A   1      41.245  30.011  29.374  1.00  0.00     0.074 A 
ATOM     31  C   UNL A   1      40.690  27.692  28.729  1.00  0.00     0.049 A 
ATOM     32  N   UNL A   1      42.552  29.985  29.324  1.00  0.00    -0.248 NA
ATOM     33  C   UNL A   1      40.687  31.290  29.842  1.00  0.00     0.031 C 
ATOM     34  C   UNL A   1      39.834  26.556  28.380  1.00  0.00     0.029 A 
ATOM     35  N   UNL A   1      41.963  27.181  28.664  1.00  0.00    -0.354 N 
ATOM     36  C   UNL A   1      42.973  31.250  29.720  1.00  0.00     0.074 A 
ATOM     37  C   UNL A   1      41.780  32.022  29.997  1.00  0.00     0.031 C 
ATOM     38  C   UNL A   1      40.605  25.486  28.129  1.00  0.00     0.029 A 
ATOM     39  C   UNL A   1      42.007  25.875  28.236  1.00  0.00     0.049 A 
ATOM     40  H   UNL A   1      42.765  27.700  28.899  1.00  0.00     0.167 HD
ATOM     41  C   UNL A   1      44.238  31.720  29.838  1.00  0.00     0.037 A 
ATOM     42  C   UNL A   1      43.054  25.091  27.918  1.00  0.00     0.037 A 
ATOM     43  C   UNL A   1      45.420  30.939  29.577  1.00  0.00     0.049 A 
ATOM     44  C   UNL A   1      44.447  25.643  28.023  1.00  0.00     0.074 A 
ATOM     45  C   UNL A   1      46.747  31.320  29.686  1.00  0.00     0.029 A 
ATOM     46  N   UNL A   1      45.419  29.616  29.159  1.00  0.00    -0.354 N 
ATOM     47  N   UNL A   1      44.830  26.846  28.381  1.00  0.00    -0.248 NA
ATOM     48  C   UNL A   1      45.550  24.738  27.672  1.00  0.00     0.031 C 
ATOM     49  C   UNL A   1      47.548  30.237  29.302  1.00  0.00     0.029 A 
ATOM     50  C   UNL A   1      46.721  29.169  28.993  1.00  0.00     0.049 A 
ATOM     51  H   UNL A   1      44.613  29.075  29.003  1.00  0.00     0.167 HD
ATOM     52  C   UNL A   1      46.219  26.837  28.313  1.00  0.00     0.074 A 
ATOM     53  C   UNL A   1      46.608  25.506  27.892  1.00  0.00     0.031 C 
ATOM     54  C   UNL A   1      47.092  27.840  28.575  1.00  0.00     0.037 A 
BRANCH  41  55
ATOM     55  C   UNL A   1      44.412  33.157  30.248  1.00  0.00     0.058 A 
ATOM     56  C   UNL A   1      44.386  34.201  29.310  1.00  0.00     0.135 A 
ATOM     57  C   UNL A   1      44.573  33.497  31.602  1.00  0.00     0.135 A 
ATOM     58  F   UNL A   1      44.251  33.931  28.002  1.00  0.00    -0.206 F 
ATOM     59  C   UNL A   1      44.539  35.529  29.696  1.00  0.00     0.059 A 
ATOM     60  C   UNL A   1      44.704  34.821  32.012  1.00  0.00     0.059 A 
ATOM     61  F   UNL A   1      44.605  32.538  32.540  1.00  0.00    -0.206 F 
ATOM     62  C   UNL A   1      44.701  35.830  31.050  1.00  0.00     0.060 A 
BRANCH  62  63
ATOM     63  S   UNL A   1      44.900  37.557  31.537  1.00  0.00     0.124 S 
ATOM     64  O   UNL A   1      46.349  37.647  31.695  1.00  0.00    -0.237 OA
ATOM     65  O   UNL A   1      44.343  38.272  30.393  1.00  0.00    -0.237 OA
ATOM     66  O   UNL A   1      44.127  37.653  32.770  1.00  0.00    -0.744 OA
ENDBRANCH  62  63
ENDBRANCH  41  55
BRANCH  42  67
ATOM     67  C   UNL A   1      42.814  23.704  27.442  1.00  0.00     0.058 A 
ATOM     68  C   UNL A   1      42.792  23.405  26.073  1.00  0.00     0.135 A 
ATOM     69  C   UNL A   1      42.639  22.645  28.347  1.00  0.00     0.135 A 
ATOM     70  F   UNL A   1      42.944  24.387  25.171  1.00  0.00    -0.206 F 
ATOM     71  C   UNL A   1      42.601  22.106  25.615  1.00  0.00     0.059 A 
ATOM     72  C   UNL A   1      42.471  21.333  27.914  1.00  0.00     0.059 A 
ATOM     73  F   UNL A   1      42.666  22.878  29.669  1.00  0.00    -0.206 F 
ATOM     74  C   UNL A   1      42.446  21.075  26.544  1.00  0.00     0.060 A 
BRANCH  74  75
ATOM     75  S   UNL A   1      42.270  19.382  25.943  1.00  0.00     0.124 S 
ATOM     76  O   UNL A   1      40.844  19.325  25.643  1.00  0.00    -0.237 OA
ATOM     77  O   UNL A   1      43.166  19.368  24.790  1.00  0.00    -0.237 OA
ATOM     78  O   UNL A   1      42.711  18.576  27.078  1.00  0.00    -0.744 OA
ENDBRANCH  74  75
ENDBRANCH  42  67
BRANCH  54  79
ATOM     79  C   UNL A   1      48.555  27.529  28.442  1.00  0.00     0.058 A 
ATOM     80  C   UNL A   1      49.292  26.989  29.507  1.00  0.00     0.135 A 
ATOM     81  C   UNL A   1      49.218  27.740  27.222  1.00  0.00     0.135 A 
ATOM     82  F   UNL A   1      48.705  26.777  30.695  1.00  0.00    -0.206 F 
ATOM     83  C   UNL A   1      50.643  26.688  29.373  1.00  0.00     0.059 A 
ATOM     84  C   UNL A   1      50.564  27.426  27.061  1.00  0.00     0.059 A 
ATOM     85  F   UNL A   1      48.555  28.248  26.171  1.00  0.00    -0.206 F 
ATOM     86  C   UNL A   1      51.272  26.911  28.147  1.00  0.00     0.060 A 
BRANCH  86  87
ATOM     87  S   UNL A   1      53.019  26.492  27.975  1.00  0.00     0.124 S 
ATOM     88  O   UNL A   1      53.399  26.244  29.362  1.00  0.00    -0.237 OA
ATOM     89  O   UNL A   1      52.978  25.317  27.110  1.00  0.00    -0.237 OA
ATOM     90  O   UNL A   1      53.596  27.688  27.368  1.00  0.00    -0.744 OA
ENDBRANCH  86  87
ENDBRANCH  54  79
ENDBRANCH  28  29
ENDBRANCH  21  23
ENDBRANCH  20  21
ENDBRANCH  19  20
ENDBRANCH   1  19
TORSDOF 20
ENDMDL
MODEL 3
REMARK VINA RESULT:      -9.6      1.924      3.653
REMARK SMILES CCC(CC)[C@@H](C)[NH2+][C@@H](C)[C@@H](C)C(=O)OCCOC(=O)c1ccc(-c2c3nc(c(-c4c(F)cc(S(=O)(=O)[O-])cc4F)c4ccc([nH]4)c(-c4c(F)cc(S(=O)(=O)[O-])cc4F)c4nc(c(-c5c(F)cc(S(=O)(=O)[O-])cc5F)c5ccc2[nH]5)C=C4)C=C3)cc1
REMARK SMILES IDX 16 1 15 2 13 3 14 4 11 5 12 6 9 7 10 8 8 9 6 12 7 13 3 14
REMARK SMILES IDX 2 15 1 16 4 17 5 18 17 19 18 20 19 21 20 22 21 23 22 24
REMARK SMILES IDX 86 25 23 26 85 27 24 28 25 29 26 30 79 31 27 32 84 33 78 34
REMARK SMILES IDX 80 35 28 36 83 37 77 38 76 39 29 41 63 42 42 43 62 44 43 45
REMARK SMILES IDX 46 46 61 47 81 48 44 49 45 50 60 52 82 53 47 54 30 55 31 56
REMARK SMILES IDX 40 57 32 58 33 59 39 60 41 61 34 62 35 63 36 64 37 65 38 66
REMARK SMILES IDX 64 67 65 68 74 69 66 70 67 71 73 72 75 73 68 74 69 75 70 76
REMARK SMILES IDX 71 77 72 78 48 79 49 80 58 81 50 82 51 83 57 84 59 85 52 86
REMARK SMILES IDX 53 87 54 88 55 89 56 90
REMARK H PARENT 8 10 8 11 80 40 46 51
REMARK Flexibility Score: inf
ROOT
ATOM      1  C   UNL A   1      37.306  22.879  25.000  1.00  0.00     0.274 C 
ENDROOT
BRANCH   1   2
ATOM      2  O   UNL A   1      36.191  23.728  25.351  1.00  0.00    -0.462 OA
BRANCH   2   3
ATOM      3  C   UNL A   1      34.996  23.086  25.438  1.00  0.00     0.314 C 
ATOM      4  O   UNL A   1      34.602  22.251  24.629  1.00  0.00    -0.252 OA
BRANCH   3   5
ATOM      5  C   UNL A   1      34.139  23.519  26.617  1.00  0.00     0.154 C 
ATOM      6  C   UNL A   1      33.630  22.230  27.270  1.00  0.00     0.026 C 
BRANCH   5   7
ATOM      7  C   UNL A   1      33.002  24.545  26.327  1.00  0.00     0.193 C 
ATOM      8  C   UNL A   1      31.689  23.836  25.979  1.00  0.00     0.076 C 
BRANCH   7   9
ATOM      9  N   UNL A   1      33.457  25.398  25.210  1.00  0.00    -0.341 N 
ATOM     10  H   UNL A   1      33.728  26.295  25.612  1.00  0.00     0.346 HD
ATOM     11  H   UNL A   1      34.192  24.843  24.772  1.00  0.00     0.346 HD
BRANCH   9  12
ATOM     12  C   UNL A   1      32.538  25.689  24.097  1.00  0.00     0.182 C 
ATOM     13  C   UNL A   1      33.083  25.108  22.781  1.00  0.00     0.075 C 
BRANCH  12  14
ATOM     14  C   UNL A   1      32.386  27.256  23.990  1.00  0.00     0.046 C 
BRANCH  14  15
ATOM     15  C   UNL A   1      31.443  27.833  25.082  1.00  0.00     0.006 C 
ATOM     16  C   UNL A   1      31.728  29.284  25.454  1.00  0.00     0.004 C 
ENDBRANCH  14  15
BRANCH  14  17
ATOM     17  C   UNL A   1      33.749  28.002  23.974  1.00  0.00     0.006 C 
ATOM     18  C   UNL A   1      34.066  28.742  22.682  1.00  0.00     0.004 C 
ENDBRANCH  14  17
ENDBRANCH  12  14
ENDBRANCH   9  12
ENDBRANCH   7   9
ENDBRANCH   5   7
ENDBRANCH   3   5
ENDBRANCH   2   3
ENDBRANCH   1   2
BRANCH   1  19
ATOM     19  C   UNL A   1      38.396  22.931  26.073  1.00  0.00     0.275 C 
BRANCH  19  20
ATOM     20  O   UNL A   1      38.886  24.275  26.214  1.00  0.00    -0.458 OA
BRANCH  20  21
ATOM     21  C   UNL A   1      40.143  24.392  26.696  1.00  0.00     0.338 C 
ATOM     22  O   UNL A   1      41.093  23.666  26.428  1.00  0.00    -0.246 OA
BRANCH  21  23
ATOM     23  C   UNL A   1      40.239  25.541  27.623  1.00  0.00     0.060 A 
ATOM     24  C   UNL A   1      41.240  26.511  27.499  1.00  0.00     0.016 A 
ATOM     25  C   UNL A   1      39.334  25.612  28.683  1.00  0.00     0.016 A 
ATOM     26  C   UNL A   1      41.353  27.531  28.448  1.00  0.00     0.010 A 
ATOM     27  C   UNL A   1      39.408  26.667  29.594  1.00  0.00     0.010 A 
ATOM     28  C   UNL A   1      40.425  27.631  29.494  1.00  0.00    -0.014 A 
BRANCH  28  29
ATOM     29  C   UNL A   1      40.478  28.741  30.480  1.00  0.00     0.031 A 
ATOM     30  C   UNL A   1      41.431  28.673  31.643  1.00  0.00     0.074 A 
ATOM     31  C   UNL A   1      39.616  29.772  30.377  1.00  0.00     0.049 A 
ATOM     32  N   UNL A   1      41.477  29.415  32.720  1.00  0.00    -0.248 NA
ATOM     33  C   UNL A   1      42.460  27.623  31.592  1.00  0.00     0.031 C 
ATOM     34  C   UNL A   1      38.653  29.964  29.291  1.00  0.00     0.029 A 
ATOM     35  N   UNL A   1      39.389  30.836  31.215  1.00  0.00    -0.354 N 
ATOM     36  C   UNL A   1      42.514  28.901  33.491  1.00  0.00     0.074 A 
ATOM     37  C   UNL A   1      43.065  27.778  32.761  1.00  0.00     0.031 C 
ATOM     38  C   UNL A   1      37.935  31.072  29.532  1.00  0.00     0.029 A 
ATOM     39  C   UNL A   1      38.340  31.631  30.818  1.00  0.00     0.049 A 
ATOM     40  H   UNL A   1      39.925  31.012  32.021  1.00  0.00     0.167 HD
ATOM     41  C   UNL A   1      42.961  29.328  34.697  1.00  0.00     0.037 A 
ATOM     42  C   UNL A   1      37.737  32.663  31.438  1.00  0.00     0.037 A 
ATOM     43  C   UNL A   1      42.419  30.457  35.408  1.00  0.00     0.049 A 
ATOM     44  C   UNL A   1      38.227  33.098  32.790  1.00  0.00     0.074 A 
ATOM     45  C   UNL A   1      42.816  30.980  36.628  1.00  0.00     0.029 A 
ATOM     46  N   UNL A   1      41.366  31.243  34.963  1.00  0.00    -0.354 N 
ATOM     47  N   UNL A   1      39.195  32.592  33.515  1.00  0.00    -0.248 NA
ATOM     48  C   UNL A   1      37.537  34.236  33.412  1.00  0.00     0.031 C 
ATOM     49  C   UNL A   1      41.981  32.061  36.935  1.00  0.00     0.029 A 
ATOM     50  C   UNL A   1      41.090  32.237  35.888  1.00  0.00     0.049 A 
ATOM     51  H   UNL A   1      40.884  31.112  34.115  1.00  0.00     0.167 HD
ATOM     52  C   UNL A   1      39.241  33.360  34.673  1.00  0.00     0.074 A 
ATOM     53  C   UNL A   1      38.211  34.371  34.546  1.00  0.00     0.031 C 
ATOM     54  C   UNL A   1      40.062  33.237  35.745  1.00  0.00     0.037 A 
BRANCH  41  55
ATOM     55  C   UNL A   1      44.082  28.555  35.338  1.00  0.00     0.058 A 
ATOM     56  C   UNL A   1      45.428  28.862  35.089  1.00  0.00     0.135 A 
ATOM     57  C   UNL A   1      43.803  27.515  36.241  1.00  0.00     0.135 A 
ATOM     58  F   UNL A   1      45.750  29.836  34.223  1.00  0.00    -0.206 F 
ATOM     59  C   UNL A   1      46.460  28.149  35.692  1.00  0.00     0.059 A 
ATOM     60  C   UNL A   1      44.819  26.804  36.873  1.00  0.00     0.059 A 
ATOM     61  F   UNL A   1      42.533  27.180  36.515  1.00  0.00    -0.206 F 
ATOM     62  C   UNL A   1      46.146  27.118  36.580  1.00  0.00     0.060 A 
BRANCH  62  63
ATOM     63  S   UNL A   1      47.494  26.200  37.354  1.00  0.00     0.124 S 
ATOM     64  O   UNL A   1      48.565  26.382  36.379  1.00  0.00    -0.237 OA
ATOM     65  O   UNL A   1      47.667  26.903  38.621  1.00  0.00    -0.237 OA
ATOM     66  O   UNL A   1      46.965  24.844  37.459  1.00  0.00    -0.744 OA
ENDBRANCH  62  63
ENDBRANCH  41  55
BRANCH  42  67
ATOM     67  C   UNL A   1      36.582  33.335  30.788  1.00  0.00     0.058 A 
ATOM     68  C   UNL A   1      35.281  33.174  31.285  1.00  0.00     0.135 A 
ATOM     69  C   UNL A   1      36.762  34.181  29.682  1.00  0.00     0.135 A 
ATOM     70  F   UNL A   1      35.060  32.367  32.334  1.00  0.00    -0.206 F 
ATOM     71  C   UNL A   1      34.197  33.824  30.707  1.00  0.00     0.059 A 
ATOM     72  C   UNL A   1      35.695  34.861  29.102  1.00  0.00     0.059 A 
ATOM     73  F   UNL A   1      37.990  34.379  29.178  1.00  0.00    -0.206 F 
ATOM     74  C   UNL A   1      34.414  34.670  29.618  1.00  0.00     0.060 A 
BRANCH  74  75
ATOM     75  S   UNL A   1      33.011  35.565  28.917  1.00  0.00     0.124 S 
ATOM     76  O   UNL A   1      32.271  35.935  30.118  1.00  0.00    -0.237 OA
ATOM     77  O   UNL A   1      33.666  36.660  28.208  1.00  0.00    -0.237 OA
ATOM     78  O   UNL A   1      32.373  34.569  28.062  1.00  0.00    -0.744 OA
ENDBRANCH  74  75
ENDBRANCH  42  67
BRANCH  54  79
ATOM     79  C   UNL A   1      39.898  34.239  36.852  1.00  0.00     0.058 A 
ATOM     80  C   UNL A   1      40.512  35.499  36.800  1.00  0.00     0.135 A 
ATOM     81  C   UNL A   1      39.088  33.947  37.961  1.00  0.00     0.135 A 
ATOM     82  F   UNL A   1      41.304  35.823  35.765  1.00  0.00    -0.206 F 
ATOM     83  C   UNL A   1      40.346  36.429  37.821  1.00  0.00     0.059 A 
ATOM     84  C   UNL A   1      38.890  34.871  38.983  1.00  0.00     0.059 A 
ATOM     85  F   UNL A   1      38.472  32.757  38.054  1.00  0.00    -0.206 F 
ATOM     86  C   UNL A   1      39.533  36.106  38.910  1.00  0.00     0.060 A 
BRANCH  86  87
ATOM     87  S   UNL A   1      39.301  37.329  40.216  1.00  0.00     0.124 S 
ATOM     88  O   UNL A   1      40.674  37.750  40.472  1.00  0.00    -0.237 OA
ATOM     89  O   UNL A   1      38.444  38.320  39.571  1.00  0.00    -0.237 OA
ATOM     90  O   UNL A   1      38.666  36.566  41.286  1.00  0.00    -0.744 OA
ENDBRANCH  86  87
ENDBRANCH  54  79
ENDBRANCH  28  29
ENDBRANCH  21  23
ENDBRANCH  20  21
ENDBRANCH  19  20
ENDBRANCH   1  19
TORSDOF 20
ENDMDL
