MODEL 1
REMARK VINA RESULT:     -10.8      0.000      0.000
REMARK SMILES CC[C@@H]1CC[C@H]([C@@H](C)C(=O)OCCOC(=O)c2ccc(-c3c4nc(c(-c5c(F)cc(S(=O)(=O)[O-])cc5F)c5ccc([nH]5)c(-c5c(F)cc(S(=O)(=O)[O-])cc5F)c5nc(c(-c6c(F)cc(S(=O)(=O)[O-])cc6F)c6ccc3[nH]6)C=C5)C=C4)cc2)C1
REMARK SMILES IDX 13 1 12 2 11 3 9 4 10 5 7 6 8 7 6 8 3 9 4 10 83 11 5 12 2 13
REMARK SMILES IDX 1 14 14 15 15 16 16 17 17 18 18 19 82 20 19 21 81 22 20 23
REMARK SMILES IDX 21 24 22 25 75 26 23 27 80 28 74 29 76 30 24 31 79 32 73 33
REMARK SMILES IDX 72 34 25 36 59 37 38 38 58 39 39 40 42 41 57 42 77 43 40 44
REMARK SMILES IDX 41 45 56 47 78 48 43 49 26 50 27 51 36 52 28 53 29 54 35 55
REMARK SMILES IDX 37 56 30 57 31 58 32 59 33 60 34 61 60 62 61 63 70 64 62 65
REMARK SMILES IDX 63 66 69 67 71 68 64 69 65 70 66 71 67 72 68 73 44 74 45 75
REMARK SMILES IDX 54 76 46 77 47 78 53 79 55 80 48 81 49 82 50 83 51 84 52 85
REMARK H PARENT 76 35 42 46
REMARK Flexibility Score: inf
ROOT
ATOM      1  C   UNL A   1      34.585  31.278  27.661  1.00  0.00     0.275 C 
ENDROOT
BRANCH   1   2
ATOM      2  C   UNL A   1      33.199  30.763  27.277  1.00  0.00     0.274 C 
BRANCH   2   3
ATOM      3  O   UNL A   1      33.222  30.142  25.976  1.00  0.00    -0.462 OA
BRANCH   3   4
ATOM      4  C   UNL A   1      33.002  28.801  25.980  1.00  0.00     0.309 C 
ATOM      5  O   UNL A   1      33.880  27.951  26.081  1.00  0.00    -0.252 OA
BRANCH   4   6
ATOM      6  C   UNL A   1      31.546  28.423  25.763  1.00  0.00     0.099 C 
ATOM      7  C   UNL A   1      31.334  27.081  26.468  1.00  0.00     0.020 C 
BRANCH   6   8
ATOM      8  C   UNL A   1      31.051  28.400  24.303  1.00  0.00     0.003 C 
ATOM      9  C   UNL A   1      29.286  29.057  22.788  1.00  0.00    -0.011 C 
ATOM     10  C   UNL A   1      28.892  27.690  23.335  1.00  0.00     0.004 C 
ATOM     11  C   UNL A   1      30.178  29.602  23.902  1.00  0.00     0.008 C 
ATOM     12  C   UNL A   1      30.162  27.170  24.004  1.00  0.00     0.005 C 
BRANCH   9  13
ATOM     13  C   UNL A   1      28.099  29.935  22.378  1.00  0.00     0.000 C 
ATOM     14  C   UNL A   1      27.708  31.038  23.354  1.00  0.00     0.004 C 
ENDBRANCH   9  13
ENDBRANCH   6   8
ENDBRANCH   4   6
ENDBRANCH   3   4
ENDBRANCH   2   3
ENDBRANCH   1   2
BRANCH   1  15
ATOM     15  O   UNL A   1      35.360  30.213  28.236  1.00  0.00    -0.458 OA
BRANCH  15  16
ATOM     16  C   UNL A   1      36.113  30.551  29.307  1.00  0.00     0.338 C 
ATOM     17  O   UNL A   1      35.782  31.251  30.248  1.00  0.00    -0.246 OA
BRANCH  16  18
ATOM     18  C   UNL A   1      37.462  29.972  29.169  1.00  0.00     0.060 A 
ATOM     19  C   UNL A   1      38.237  29.668  30.292  1.00  0.00     0.016 A 
ATOM     20  C   UNL A   1      37.992  29.822  27.887  1.00  0.00     0.016 A 
ATOM     21  C   UNL A   1      39.565  29.266  30.136  1.00  0.00     0.010 A 
ATOM     22  C   UNL A   1      39.297  29.354  27.731  1.00  0.00     0.010 A 
ATOM     23  C   UNL A   1      40.104  29.098  28.853  1.00  0.00    -0.014 A 
BRANCH  23  24
ATOM     24  C   UNL A   1      41.514  28.673  28.660  1.00  0.00     0.031 A 
ATOM     25  C   UNL A   1      42.616  29.695  28.711  1.00  0.00     0.074 A 
ATOM     26  C   UNL A   1      41.799  27.386  28.387  1.00  0.00     0.049 A 
ATOM     27  N   UNL A   1      43.875  29.572  28.374  1.00  0.00    -0.248 NA
ATOM     28  C   UNL A   1      42.249  31.038  29.191  1.00  0.00     0.031 C 
ATOM     29  C   UNL A   1      40.823  26.295  28.332  1.00  0.00     0.029 A 
ATOM     30  N   UNL A   1      42.992  26.780  28.080  1.00  0.00    -0.354 N 
ATOM     31  C   UNL A   1      44.441  30.828  28.558  1.00  0.00     0.074 A 
ATOM     32  C   UNL A   1      43.387  31.700  29.035  1.00  0.00     0.031 C 
ATOM     33  C   UNL A   1      41.456  25.158  28.006  1.00  0.00     0.029 A 
ATOM     34  C   UNL A   1      42.866  25.447  27.771  1.00  0.00     0.049 A 
ATOM     35  H   UNL A   1      43.854  27.256  28.081  1.00  0.00     0.167 HD
ATOM     36  C   UNL A   1      45.721  31.216  28.345  1.00  0.00     0.037 A 
ATOM     37  C   UNL A   1      43.774  24.567  27.308  1.00  0.00     0.037 A 
ATOM     38  C   UNL A   1      46.770  30.334  27.905  1.00  0.00     0.049 A 
ATOM     39  C   UNL A   1      45.185  25.022  27.064  1.00  0.00     0.074 A 
ATOM     40  C   UNL A   1      48.107  30.624  27.691  1.00  0.00     0.029 A 
ATOM     41  N   UNL A   1      46.603  28.988  27.615  1.00  0.00    -0.354 N 
ATOM     42  N   UNL A   1      45.703  26.216  27.227  1.00  0.00    -0.248 NA
ATOM     43  C   UNL A   1      46.131  24.017  26.563  1.00  0.00     0.031 C 
ATOM     44  C   UNL A   1      48.742  29.459  27.245  1.00  0.00     0.029 A 
ATOM     45  C   UNL A   1      47.808  28.436  27.213  1.00  0.00     0.049 A 
ATOM     46  H   UNL A   1      45.753  28.497  27.685  1.00  0.00     0.167 HD
ATOM     47  C   UNL A   1      47.038  26.103  26.860  1.00  0.00     0.074 A 
ATOM     48  C   UNL A   1      47.251  24.722  26.478  1.00  0.00     0.031 C 
ATOM     49  C   UNL A   1      48.001  27.058  26.839  1.00  0.00     0.037 A 
BRANCH  36  50
ATOM     50  C   UNL A   1      46.053  32.666  28.562  1.00  0.00     0.058 A 
ATOM     51  C   UNL A   1      45.886  33.624  27.551  1.00  0.00     0.135 A 
ATOM     52  C   UNL A   1      46.519  33.106  29.812  1.00  0.00     0.135 A 
ATOM     53  F   UNL A   1      45.459  33.253  26.333  1.00  0.00    -0.206 F 
ATOM     54  C   UNL A   1      46.195  34.965  27.761  1.00  0.00     0.059 A 
ATOM     55  C   UNL A   1      46.814  34.445  30.052  1.00  0.00     0.059 A 
ATOM     56  F   UNL A   1      46.698  32.230  30.813  1.00  0.00    -0.206 F 
ATOM     57  C   UNL A   1      46.662  35.364  29.015  1.00  0.00     0.060 A 
BRANCH  57  58
ATOM     58  S   UNL A   1      47.061  37.106  29.277  1.00  0.00     0.124 S 
ATOM     59  O   UNL A   1      48.385  37.195  28.667  1.00  0.00    -0.237 OA
ATOM     60  O   UNL A   1      45.989  37.787  28.561  1.00  0.00    -0.237 OA
ATOM     61  O   UNL A   1      47.029  37.246  30.729  1.00  0.00    -0.744 OA
ENDBRANCH  57  58
ENDBRANCH  36  50
BRANCH  37  62
ATOM     62  C   UNL A   1      43.360  23.170  27.020  1.00  0.00     0.058 A 
ATOM     63  C   UNL A   1      43.229  22.714  25.701  1.00  0.00     0.135 A 
ATOM     64  C   UNL A   1      43.121  22.255  28.057  1.00  0.00     0.135 A 
ATOM     65  F   UNL A   1      43.439  23.556  24.677  1.00  0.00    -0.206 F 
ATOM     66  C   UNL A   1      42.874  21.399  25.417  1.00  0.00     0.059 A 
ATOM     67  C   UNL A   1      42.786  20.930  27.799  1.00  0.00     0.059 A 
ATOM     68  F   UNL A   1      43.245  22.641  29.336  1.00  0.00    -0.206 F 
ATOM     69  C   UNL A   1      42.659  20.513  26.475  1.00  0.00     0.060 A 
BRANCH  69  70
ATOM     70  S   UNL A   1      42.269  18.790  26.101  1.00  0.00     0.124 S 
ATOM     71  O   UNL A   1      40.870  18.886  25.701  1.00  0.00    -0.237 OA
ATOM     72  O   UNL A   1      43.217  18.481  25.035  1.00  0.00    -0.237 OA
ATOM     73  O   UNL A   1      42.520  18.109  27.367  1.00  0.00    -0.744 OA
ENDBRANCH  69  70
ENDBRANCH  37  62
BRANCH  49  74
ATOM     74  C   UNL A   1      49.376  26.634  26.413  1.00  0.00     0.058 A 
ATOM     75  C   UNL A   1      50.241  25.961  27.290  1.00  0.00     0.135 A 
ATOM     76  C   UNL A   1      49.817  26.865  25.100  1.00  0.00     0.135 A 
ATOM     77  F   UNL A   1      49.867  25.724  28.557  1.00  0.00    -0.206 F 
ATOM     78  C   UNL A   1      51.505  25.545  26.884  1.00  0.00     0.059 A 
ATOM     79  C   UNL A   1      51.070  26.440  24.668  1.00  0.00     0.059 A 
ATOM     80  F   UNL A   1      49.024  27.498  24.222  1.00  0.00    -0.206 F 
ATOM     81  C   UNL A   1      51.911  25.791  25.571  1.00  0.00     0.060 A 
BRANCH  81  82
ATOM     82  S   UNL A   1      53.541  25.220  25.043  1.00  0.00     0.124 S 
ATOM     83  O   UNL A   1      53.462  23.794  25.340  1.00  0.00    -0.237 OA
ATOM     84  O   UNL A   1      53.555  25.573  23.627  1.00  0.00    -0.237 OA
ATOM     85  O   UNL A   1      54.457  25.988  25.882  1.00  0.00    -0.744 OA
ENDBRANCH  81  82
ENDBRANCH  49  74
ENDBRANCH  23  24
ENDBRANCH  16  18
ENDBRANCH  15  16
ENDBRANCH   1  15
TORSDOF 16
ENDMDL
MODEL 2
REMARK VINA RESULT:     -10.7      7.321     12.712
REMARK SMILES CC[C@@H]1CC[C@H]([C@@H](C)C(=O)OCCOC(=O)c2ccc(-c3c4nc(c(-c5c(F)cc(S(=O)(=O)[O-])cc5F)c5ccc([nH]5)c(-c5c(F)cc(S(=O)(=O)[O-])cc5F)c5nc(c(-c6c(F)cc(S(=O)(=O)[O-])cc6F)c6ccc3[nH]6)C=C5)C=C4)cc2)C1
REMARK SMILES IDX 13 1 12 2 11 3 9 4 10 5 7 6 8 7 6 8 3 9 4 10 83 11 5 12 2 13
REMARK SMILES IDX 1 14 14 15 15 16 16 17 17 18 18 19 82 20 19 21 81 22 20 23
REMARK SMILES IDX 21 24 22 25 75 26 23 27 80 28 74 29 76 30 24 31 79 32 73 33
REMARK SMILES IDX 72 34 25 36 59 37 38 38 58 39 39 40 42 41 57 42 77 43 40 44
REMARK SMILES IDX 41 45 56 47 78 48 43 49 26 50 27 51 36 52 28 53 29 54 35 55
REMARK SMILES IDX 37 56 30 57 31 58 32 59 33 60 34 61 60 62 61 63 70 64 62 65
REMARK SMILES IDX 63 66 69 67 71 68 64 69 65 70 66 71 67 72 68 73 44 74 45 75
REMARK SMILES IDX 54 76 46 77 47 78 53 79 55 80 48 81 49 82 50 83 51 84 52 85
REMARK H PARENT 76 35 42 46
REMARK Flexibility Score: inf
ROOT
ATOM      1  C   UNL A   1      39.674  22.039  26.434  1.00  0.00     0.275 C 
ENDROOT
BRANCH   1   2
ATOM      2  C   UNL A   1      38.331  21.796  25.747  1.00  0.00     0.274 C 
BRANCH   2   3
ATOM      3  O   UNL A   1      37.550  23.007  25.702  1.00  0.00    -0.462 OA
BRANCH   3   4
ATOM      4  C   UNL A   1      36.204  22.820  25.739  1.00  0.00     0.309 C 
ATOM      5  O   UNL A   1      35.460  23.287  26.595  1.00  0.00    -0.252 OA
BRANCH   4   6
ATOM      6  C   UNL A   1      35.688  21.893  24.651  1.00  0.00     0.099 C 
ATOM      7  C   UNL A   1      35.446  22.765  23.416  1.00  0.00     0.020 C 
BRANCH   6   8
ATOM      8  C   UNL A   1      34.461  21.030  25.007  1.00  0.00     0.003 C 
ATOM      9  C   UNL A   1      33.112  19.129  24.368  1.00  0.00    -0.011 C 
ATOM     10  C   UNL A   1      32.522  20.333  23.645  1.00  0.00     0.004 C 
ATOM     11  C   UNL A   1      34.565  19.558  24.571  1.00  0.00     0.008 C 
ATOM     12  C   UNL A   1      33.169  21.537  24.323  1.00  0.00     0.005 C 
BRANCH   9  13
ATOM     13  C   UNL A   1      32.893  17.793  23.650  1.00  0.00     0.000 C 
ATOM     14  C   UNL A   1      34.127  16.920  23.460  1.00  0.00     0.004 C 
ENDBRANCH   9  13
ENDBRANCH   6   8
ENDBRANCH   4   6
ENDBRANCH   3   4
ENDBRANCH   2   3
ENDBRANCH   1   2
BRANCH   1  15
ATOM     15  O   UNL A   1      39.680  23.336  27.052  1.00  0.00    -0.458 OA
BRANCH  15  16
ATOM     16  C   UNL A   1      40.792  24.077  26.848  1.00  0.00     0.338 C 
ATOM     17  O   UNL A   1      41.722  23.817  26.104  1.00  0.00    -0.246 OA
BRANCH  16  18
ATOM     18  C   UNL A   1      40.757  25.275  27.706  1.00  0.00     0.060 A 
ATOM     19  C   UNL A   1      41.828  26.173  27.740  1.00  0.00     0.016 A 
ATOM     20  C   UNL A   1      39.669  25.447  28.562  1.00  0.00     0.016 A 
ATOM     21  C   UNL A   1      41.839  27.213  28.670  1.00  0.00     0.010 A 
ATOM     22  C   UNL A   1      39.649  26.528  29.444  1.00  0.00     0.010 A 
ATOM     23  C   UNL A   1      40.744  27.404  29.525  1.00  0.00    -0.014 A 
BRANCH  23  24
ATOM     24  C   UNL A   1      40.731  28.502  30.525  1.00  0.00     0.031 A 
ATOM     25  C   UNL A   1      41.666  28.452  31.703  1.00  0.00     0.074 A 
ATOM     26  C   UNL A   1      39.848  29.512  30.407  1.00  0.00     0.049 A 
ATOM     27  N   UNL A   1      41.678  29.193  32.782  1.00  0.00    -0.248 NA
ATOM     28  C   UNL A   1      42.717  27.422  31.667  1.00  0.00     0.031 C 
ATOM     29  C   UNL A   1      38.905  29.686  29.300  1.00  0.00     0.029 A 
ATOM     30  N   UNL A   1      39.583  30.570  31.239  1.00  0.00    -0.354 N 
ATOM     31  C   UNL A   1      42.705  28.693  33.573  1.00  0.00     0.074 A 
ATOM     32  C   UNL A   1      43.293  27.584  32.851  1.00  0.00     0.031 C 
ATOM     33  C   UNL A   1      38.163  30.781  29.526  1.00  0.00     0.029 A 
ATOM     34  C   UNL A   1      38.535  31.351  30.816  1.00  0.00     0.049 A 
ATOM     35  H   UNL A   1      40.096  30.751  32.060  1.00  0.00     0.167 HD
ATOM     36  C   UNL A   1      43.116  29.120  34.791  1.00  0.00     0.037 A 
ATOM     37  C   UNL A   1      37.913  32.382  31.419  1.00  0.00     0.037 A 
ATOM     38  C   UNL A   1      42.549  30.246  35.486  1.00  0.00     0.049 A 
ATOM     39  C   UNL A   1      38.375  32.829  32.777  1.00  0.00     0.074 A 
ATOM     40  C   UNL A   1      42.917  30.777  36.710  1.00  0.00     0.029 A 
ATOM     41  N   UNL A   1      41.495  31.018  35.017  1.00  0.00    -0.354 N 
ATOM     42  N   UNL A   1      39.337  32.338  33.521  1.00  0.00    -0.248 NA
ATOM     43  C   UNL A   1      37.661  33.961  33.383  1.00  0.00     0.031 C 
ATOM     44  C   UNL A   1      42.068  31.854  36.994  1.00  0.00     0.029 A 
ATOM     45  C   UNL A   1      41.193  32.013  35.931  1.00  0.00     0.049 A 
ATOM     46  H   UNL A   1      41.032  30.878  34.160  1.00  0.00     0.167 HD
ATOM     47  C   UNL A   1      39.352  33.108  34.678  1.00  0.00     0.074 A 
ATOM     48  C   UNL A   1      38.311  34.105  34.530  1.00  0.00     0.031 C 
ATOM     49  C   UNL A   1      40.154  32.998  35.765  1.00  0.00     0.037 A 
BRANCH  36  50
ATOM     50  C   UNL A   1      44.218  28.349  35.462  1.00  0.00     0.058 A 
ATOM     51  C   UNL A   1      45.568  28.701  35.309  1.00  0.00     0.135 A 
ATOM     52  C   UNL A   1      43.914  27.258  36.293  1.00  0.00     0.135 A 
ATOM     53  F   UNL A   1      45.913  29.725  34.514  1.00  0.00    -0.206 F 
ATOM     54  C   UNL A   1      46.581  27.982  35.936  1.00  0.00     0.059 A 
ATOM     55  C   UNL A   1      44.910  26.537  36.946  1.00  0.00     0.059 A 
ATOM     56  F   UNL A   1      42.639  26.880  36.471  1.00  0.00    -0.206 F 
ATOM     57  C   UNL A   1      46.241  26.899  36.750  1.00  0.00     0.060 A 
BRANCH  57  58
ATOM     58  S   UNL A   1      47.565  25.972  37.556  1.00  0.00     0.124 S 
ATOM     59  O   UNL A   1      48.022  25.112  36.469  1.00  0.00    -0.237 OA
ATOM     60  O   UNL A   1      48.489  27.026  37.960  1.00  0.00    -0.237 OA
ATOM     61  O   UNL A   1      46.882  25.289  38.651  1.00  0.00    -0.744 OA
ENDBRANCH  57  58
ENDBRANCH  36  50
BRANCH  37  62
ATOM     62  C   UNL A   1      36.765  33.041  30.746  1.00  0.00     0.058 A 
ATOM     63  C   UNL A   1      35.446  32.769  31.138  1.00  0.00     0.135 A 
ATOM     64  C   UNL A   1      36.965  33.980  29.723  1.00  0.00     0.135 A 
ATOM     65  F   UNL A   1      35.206  31.872  32.106  1.00  0.00    -0.206 F 
ATOM     66  C   UNL A   1      34.364  33.405  30.538  1.00  0.00     0.059 A 
ATOM     67  C   UNL A   1      35.900  34.644  29.122  1.00  0.00     0.059 A 
ATOM     68  F   UNL A   1      38.209  34.282  29.321  1.00  0.00    -0.206 F 
ATOM     69  C   UNL A   1      34.602  34.345  29.533  1.00  0.00     0.060 A 
BRANCH  69  70
ATOM     70  S   UNL A   1      33.198  35.218  28.807  1.00  0.00     0.124 S 
ATOM     71  O   UNL A   1      32.466  35.637  29.996  1.00  0.00    -0.237 OA
ATOM     72  O   UNL A   1      33.851  36.282  28.051  1.00  0.00    -0.237 OA
ATOM     73  O   UNL A   1      32.551  34.191  27.995  1.00  0.00    -0.744 OA
ENDBRANCH  69  70
ENDBRANCH  37  62
BRANCH  49  74
ATOM     74  C   UNL A   1      39.954  33.997  36.868  1.00  0.00     0.058 A 
ATOM     75  C   UNL A   1      40.574  35.256  36.839  1.00  0.00     0.135 A 
ATOM     76  C   UNL A   1      39.099  33.708  37.943  1.00  0.00     0.135 A 
ATOM     77  F   UNL A   1      41.407  35.575  35.837  1.00  0.00    -0.206 F 
ATOM     78  C   UNL A   1      40.366  36.189  37.849  1.00  0.00     0.059 A 
ATOM     79  C   UNL A   1      38.860  34.634  38.953  1.00  0.00     0.059 A 
ATOM     80  F   UNL A   1      38.477  32.521  38.011  1.00  0.00    -0.206 F 
ATOM     81  C   UNL A   1      39.508  35.868  38.903  1.00  0.00     0.060 A 
BRANCH  81  82
ATOM     82  S   UNL A   1      39.217  37.098  40.194  1.00  0.00     0.124 S 
ATOM     83  O   UNL A   1      38.455  36.325  41.168  1.00  0.00    -0.237 OA
ATOM     84  O   UNL A   1      40.572  37.462  40.594  1.00  0.00    -0.237 OA
ATOM     85  O   UNL A   1      38.473  38.146  39.500  1.00  0.00    -0.744 OA
ENDBRANCH  81  82
ENDBRANCH  49  74
ENDBRANCH  23  24
ENDBRANCH  16  18
ENDBRANCH  15  16
ENDBRANCH   1  15
TORSDOF 16
ENDMDL
MODEL 3
REMARK VINA RESULT:     -10.4      2.319      2.931
REMARK SMILES CC[C@@H]1CC[C@H]([C@@H](C)C(=O)OCCOC(=O)c2ccc(-c3c4nc(c(-c5c(F)cc(S(=O)(=O)[O-])cc5F)c5ccc([nH]5)c(-c5c(F)cc(S(=O)(=O)[O-])cc5F)c5nc(c(-c6c(F)cc(S(=O)(=O)[O-])cc6F)c6ccc3[nH]6)C=C5)C=C4)cc2)C1
REMARK SMILES IDX 13 1 12 2 11 3 9 4 10 5 7 6 8 7 6 8 3 9 4 10 83 11 5 12 2 13
REMARK SMILES IDX 1 14 14 15 15 16 16 17 17 18 18 19 82 20 19 21 81 22 20 23
REMARK SMILES IDX 21 24 22 25 75 26 23 27 80 28 74 29 76 30 24 31 79 32 73 33
REMARK SMILES IDX 72 34 25 36 59 37 38 38 58 39 39 40 42 41 57 42 77 43 40 44
REMARK SMILES IDX 41 45 56 47 78 48 43 49 26 50 27 51 36 52 28 53 29 54 35 55
REMARK SMILES IDX 37 56 30 57 31 58 32 59 33 60 34 61 60 62 61 63 70 64 62 65
REMARK SMILES IDX 63 66 69 67 71 68 64 69 65 70 66 71 67 72 68 73 44 74 45 75
REMARK SMILES IDX 54 76 46 77 47 78 53 79 55 80 48 81 49 82 50 83 51 84 52 85
REMARK H PARENT 76 35 42 46
REMARK Flexibility Score: inf
ROOT
ATOM      1  C   UNL A   1      33.411  28.591  27.224  1.00  0.00     0.275 C 
ENDROOT
BRANCH   1   2
ATOM      2  C   UNL A   1      31.883  28.613  27.189  1.00  0.00     0.274 C 
BRANCH   2   3
ATOM      3  O   UNL A   1      31.388  28.054  25.956  1.00  0.00    -0.462 OA
BRANCH   3   4
ATOM      4  C   UNL A   1      31.311  28.932  24.922  1.00  0.00     0.309 C 
ATOM      5  O   UNL A   1      31.054  30.125  25.040  1.00  0.00    -0.252 OA
BRANCH   4   6
ATOM      6  C   UNL A   1      31.493  28.284  23.560  1.00  0.00     0.099 C 
ATOM      7  C   UNL A   1      32.781  28.867  22.970  1.00  0.00     0.020 C 
BRANCH   6   8
ATOM      8  C   UNL A   1      30.305  28.388  22.583  1.00  0.00     0.003 C 
ATOM      9  C   UNL A   1      28.490  29.777  21.796  1.00  0.00    -0.011 C 
ATOM     10  C   UNL A   1      27.938  28.978  22.970  1.00  0.00     0.004 C 
ATOM     11  C   UNL A   1      29.985  29.818  22.112  1.00  0.00     0.008 C 
ATOM     12  C   UNL A   1      28.982  27.892  23.214  1.00  0.00     0.005 C 
BRANCH   9  13
ATOM     13  C   UNL A   1      27.806  31.131  21.579  1.00  0.00     0.000 C 
ATOM     14  C   UNL A   1      28.648  32.366  21.872  1.00  0.00     0.004 C 
ENDBRANCH   9  13
ENDBRANCH   6   8
ENDBRANCH   4   6
ENDBRANCH   3   4
ENDBRANCH   2   3
ENDBRANCH   1   2
BRANCH   1  15
ATOM     15  O   UNL A   1      33.926  29.887  26.881  1.00  0.00    -0.458 OA
BRANCH  15  16
ATOM     16  C   UNL A   1      34.457  30.594  27.904  1.00  0.00     0.338 C 
ATOM     17  O   UNL A   1      33.944  31.528  28.497  1.00  0.00    -0.246 OA
BRANCH  16  18
ATOM     18  C   UNL A   1      35.812  30.097  28.203  1.00  0.00     0.060 A 
ATOM     19  C   UNL A   1      36.162  29.678  29.489  1.00  0.00     0.016 A 
ATOM     20  C   UNL A   1      36.774  30.145  27.193  1.00  0.00     0.016 A 
ATOM     21  C   UNL A   1      37.488  29.358  29.783  1.00  0.00     0.010 A 
ATOM     22  C   UNL A   1      38.085  29.759  27.471  1.00  0.00     0.010 A 
ATOM     23  C   UNL A   1      38.460  29.388  28.774  1.00  0.00    -0.014 A 
BRANCH  23  24
ATOM     24  C   UNL A   1      39.879  29.053  29.061  1.00  0.00     0.031 A 
ATOM     25  C   UNL A   1      40.801  30.111  29.604  1.00  0.00     0.074 A 
ATOM     26  C   UNL A   1      40.351  27.824  28.784  1.00  0.00     0.049 A 
ATOM     27  N   UNL A   1      42.103  30.087  29.732  1.00  0.00    -0.248 NA
ATOM     28  C   UNL A   1      40.175  31.367  30.049  1.00  0.00     0.031 C 
ATOM     29  C   UNL A   1      39.554  26.705  28.275  1.00  0.00     0.029 A 
ATOM     30  N   UNL A   1      41.623  27.314  28.869  1.00  0.00    -0.354 N 
ATOM     31  C   UNL A   1      42.458  31.335  30.230  1.00  0.00     0.074 A 
ATOM     32  C   UNL A   1      41.234  32.094  30.378  1.00  0.00     0.031 C 
ATOM     33  C   UNL A   1      40.356  25.645  28.089  1.00  0.00     0.029 A 
ATOM     34  C   UNL A   1      41.729  26.024  28.408  1.00  0.00     0.049 A 
ATOM     35  H   UNL A   1      42.385  27.825  29.227  1.00  0.00     0.167 HD
ATOM     36  C   UNL A   1      43.693  31.803  30.531  1.00  0.00     0.037 A 
ATOM     37  C   UNL A   1      42.813  25.249  28.218  1.00  0.00     0.037 A 
ATOM     38  C   UNL A   1      44.901  31.029  30.414  1.00  0.00     0.049 A 
ATOM     39  C   UNL A   1      44.175  25.794  28.544  1.00  0.00     0.074 A 
ATOM     40  C   UNL A   1      46.197  31.403  30.724  1.00  0.00     0.029 A 
ATOM     41  N   UNL A   1      44.963  29.722  29.952  1.00  0.00    -0.354 N 
ATOM     42  N   UNL A   1      44.498  26.981  28.998  1.00  0.00    -0.248 NA
ATOM     43  C   UNL A   1      45.320  24.900  28.321  1.00  0.00     0.031 C 
ATOM     44  C   UNL A   1      47.046  30.331  30.425  1.00  0.00     0.029 A 
ATOM     45  C   UNL A   1      46.274  29.278  29.960  1.00  0.00     0.049 A 
ATOM     46  H   UNL A   1      44.188  29.189  29.664  1.00  0.00     0.167 HD
ATOM     47  C   UNL A   1      45.882  26.974  29.127  1.00  0.00     0.074 A 
ATOM     48  C   UNL A   1      46.333  25.660  28.714  1.00  0.00     0.031 C 
ATOM     49  C   UNL A   1      46.705  27.966  29.547  1.00  0.00     0.037 A 
BRANCH  36  50
ATOM     50  C   UNL A   1      43.802  33.229  30.993  1.00  0.00     0.058 A 
ATOM     51  C   UNL A   1      43.976  34.289  30.091  1.00  0.00     0.135 A 
ATOM     52  C   UNL A   1      43.702  33.540  32.359  1.00  0.00     0.135 A 
ATOM     53  F   UNL A   1      44.094  34.045  28.776  1.00  0.00    -0.206 F 
ATOM     54  C   UNL A   1      44.074  35.607  30.528  1.00  0.00     0.059 A 
ATOM     55  C   UNL A   1      43.776  34.852  32.817  1.00  0.00     0.059 A 
ATOM     56  F   UNL A   1      43.536  32.563  33.264  1.00  0.00    -0.206 F 
ATOM     57  C   UNL A   1      43.977  35.877  31.894  1.00  0.00     0.060 A 
BRANCH  57  58
ATOM     58  S   UNL A   1      44.107  37.590  32.451  1.00  0.00     0.124 S 
ATOM     59  O   UNL A   1      45.489  37.639  32.919  1.00  0.00    -0.237 OA
ATOM     60  O   UNL A   1      43.826  38.342  31.232  1.00  0.00    -0.237 OA
ATOM     61  O   UNL A   1      43.089  37.687  33.492  1.00  0.00    -0.744 OA
ENDBRANCH  57  58
ENDBRANCH  36  50
BRANCH  37  62
ATOM     62  C   UNL A   1      42.648  23.880  27.666  1.00  0.00     0.058 A 
ATOM     63  C   UNL A   1      42.617  23.660  26.281  1.00  0.00     0.135 A 
ATOM     64  C   UNL A   1      42.554  22.763  28.509  1.00  0.00     0.135 A 
ATOM     65  F   UNL A   1      42.695  24.699  25.435  1.00  0.00    -0.206 F 
ATOM     66  C   UNL A   1      42.497  22.380  25.751  1.00  0.00     0.059 A 
ATOM     67  C   UNL A   1      42.455  21.471  28.002  1.00  0.00     0.059 A 
ATOM     68  F   UNL A   1      42.591  22.922  29.842  1.00  0.00    -0.206 F 
ATOM     69  C   UNL A   1      42.421  21.290  26.621  1.00  0.00     0.060 A 
BRANCH  69  70
ATOM     70  S   UNL A   1      42.336  19.626  25.926  1.00  0.00     0.124 S 
ATOM     71  O   UNL A   1      40.977  19.595  25.402  1.00  0.00    -0.237 OA
ATOM     72  O   UNL A   1      43.404  19.651  24.930  1.00  0.00    -0.237 OA
ATOM     73  O   UNL A   1      42.589  18.770  27.081  1.00  0.00    -0.744 OA
ENDBRANCH  69  70
ENDBRANCH  37  62
BRANCH  49  74
ATOM     74  C   UNL A   1      48.173  27.660  29.605  1.00  0.00     0.058 A 
ATOM     75  C   UNL A   1      48.753  27.060  30.734  1.00  0.00     0.135 A 
ATOM     76  C   UNL A   1      49.000  27.929  28.504  1.00  0.00     0.135 A 
ATOM     77  F   UNL A   1      48.004  26.791  31.814  1.00  0.00    -0.206 F 
ATOM     78  C   UNL A   1      50.109  26.753  30.775  1.00  0.00     0.059 A 
ATOM     79  C   UNL A   1      50.354  27.612  28.516  1.00  0.00     0.059 A 
ATOM     80  F   UNL A   1      48.490  28.495  27.398  1.00  0.00    -0.206 F 
ATOM     81  C   UNL A   1      50.902  27.034  29.661  1.00  0.00     0.060 A 
BRANCH  81  82
ATOM     82  S   UNL A   1      52.656  26.603  29.709  1.00  0.00     0.124 S 
ATOM     83  O   UNL A   1      53.274  27.912  29.890  1.00  0.00    -0.237 OA
ATOM     84  O   UNL A   1      52.728  25.704  30.857  1.00  0.00    -0.237 OA
ATOM     85  O   UNL A   1      52.884  25.972  28.412  1.00  0.00    -0.744 OA
ENDBRANCH  81  82
ENDBRANCH  49  74
ENDBRANCH  23  24
ENDBRANCH  16  18
ENDBRANCH  15  16
ENDBRANCH   1  15
TORSDOF 16
ENDMDL
