MODEL 1
REMARK VINA RESULT:     -12.0      0.000      0.000
REMARK SMILES O=C(OCCOC(=O)c1ccc(-c2c3nc(c(-c4c(F)cc(S(=O)(=O)[O-])cc4F)c4ccc([nH]4)c(-c4c(F)cc(S(=O)(=O)[O-])cc4F)c4nc(c(-c5c(F)cc(S(=O)(=O)[O-])cc5F)c5ccc2[nH]5)C=C4)C=C3)cc1)c1ccc(C[C@H]2CCN(C(=O)Cc3cccc(O)c3)C2)cc1
REMARK SMILES IDX 3 1 2 2 1 3 75 4 76 5 96 6 77 7 95 8 78 9 79 10 80 11 81 12
REMARK SMILES IDX 94 13 82 14 83 15 84 16 85 17 86 18 87 19 88 20 93 21 89 22
REMARK SMILES IDX 91 23 90 24 92 25 4 27 5 28 6 29 7 30 8 31 9 32 10 33 74 34
REMARK SMILES IDX 11 35 73 36 12 37 13 38 14 39 67 40 15 41 72 42 66 43 68 44
REMARK SMILES IDX 16 45 71 46 65 47 64 48 17 50 51 51 30 52 50 53 31 54 34 55
REMARK SMILES IDX 49 56 69 57 32 58 33 59 48 61 70 62 35 63 18 64 19 65 28 66
REMARK SMILES IDX 20 67 21 68 27 69 29 70 22 71 23 72 24 73 25 74 26 75 52 76
REMARK SMILES IDX 53 77 62 78 54 79 55 80 61 81 63 82 56 83 57 84 58 85 59 86
REMARK SMILES IDX 60 87 36 88 37 89 46 90 38 91 39 92 45 93 47 94 40 95 41 96
REMARK SMILES IDX 42 97 43 98 44 99
REMARK H PARENT 92 26 68 49 34 60
REMARK Flexibility Score: inf
ROOT
ATOM      1  O   UNL A   1      41.772  20.931  25.643  1.00  0.00    -0.458 OA
ENDROOT
BRANCH   1   2
ATOM      2  C   UNL A   1      40.774  21.014  26.563  1.00  0.00     0.338 C 
ATOM      3  O   UNL A   1      40.876  20.374  27.608  1.00  0.00    -0.246 OA
BRANCH   2   4
ATOM      4  C   UNL A   1      39.474  21.707  26.274  1.00  0.00     0.060 A 
ATOM      5  C   UNL A   1      39.183  23.005  26.656  1.00  0.00     0.016 A 
ATOM      6  C   UNL A   1      38.518  21.055  25.475  1.00  0.00     0.016 A 
ATOM      7  C   UNL A   1      38.089  23.683  26.144  1.00  0.00     0.004 A 
ATOM      8  C   UNL A   1      37.335  21.704  25.066  1.00  0.00     0.004 A 
ATOM      9  C   UNL A   1      37.121  23.049  25.376  1.00  0.00    -0.048 A 
BRANCH   9  10
ATOM     10  C   UNL A   1      35.939  23.846  24.866  1.00  0.00     0.041 C 
BRANCH  10  11
ATOM     11  C   UNL A   1      34.566  23.259  25.250  1.00  0.00     0.015 C 
ATOM     12  C   UNL A   1      34.292  23.143  26.758  1.00  0.00     0.027 C 
ATOM     13  C   UNL A   1      33.384  24.130  24.791  1.00  0.00     0.123 C 
ATOM     14  C   UNL A   1      32.795  23.020  26.839  1.00  0.00     0.120 C 
ATOM     15  N   UNL A   1      32.337  23.900  25.789  1.00  0.00    -0.342 N 
BRANCH  15  16
ATOM     16  C   UNL A   1      31.090  24.480  25.698  1.00  0.00     0.227 C 
ATOM     17  O   UNL A   1      30.314  24.509  26.654  1.00  0.00    -0.275 OA
BRANCH  16  18
ATOM     18  C   UNL A   1      30.667  25.042  24.344  1.00  0.00     0.135 C 
BRANCH  18  19
ATOM     19  C   UNL A   1      30.774  26.546  24.187  1.00  0.00    -0.035 A 
ATOM     20  C   UNL A   1      31.231  27.363  25.232  1.00  0.00     0.004 A 
ATOM     21  C   UNL A   1      30.403  27.144  22.972  1.00  0.00     0.050 A 
ATOM     22  C   UNL A   1      31.383  28.738  25.045  1.00  0.00     0.004 A 
ATOM     23  C   UNL A   1      30.539  28.521  22.805  1.00  0.00     0.115 A 
ATOM     24  C   UNL A   1      31.041  29.318  23.826  1.00  0.00     0.046 A 
BRANCH  23  25
ATOM     25  O   UNL A   1      30.194  29.132  21.634  1.00  0.00    -0.508 OA
ATOM     26  H   UNL A   1      29.429  28.857  21.169  1.00  0.00     0.293 HD
ENDBRANCH  23  25
ENDBRANCH  18  19
ENDBRANCH  16  18
ENDBRANCH  15  16
ENDBRANCH  10  11
ENDBRANCH   9  10
ENDBRANCH   2   4
ENDBRANCH   1   2
BRANCH   1  27
ATOM     27  C   UNL A   1      43.114  21.451  25.749  1.00  0.00     0.275 C 
BRANCH  27  28
ATOM     28  C   UNL A   1      43.197  22.933  25.327  1.00  0.00     0.275 C 
BRANCH  28  29
ATOM     29  O   UNL A   1      42.692  23.839  26.333  1.00  0.00    -0.458 OA
BRANCH  29  30
ATOM     30  C   UNL A   1      42.494  25.123  25.923  1.00  0.00     0.338 C 
ATOM     31  O   UNL A   1      42.479  25.502  24.769  1.00  0.00    -0.246 OA
BRANCH  30  32
ATOM     32  C   UNL A   1      42.137  26.000  27.078  1.00  0.00     0.060 A 
ATOM     33  C   UNL A   1      42.902  27.158  27.269  1.00  0.00     0.016 A 
ATOM     34  C   UNL A   1      41.078  25.729  27.951  1.00  0.00     0.016 A 
ATOM     35  C   UNL A   1      42.619  28.035  28.325  1.00  0.00     0.010 A 
ATOM     36  C   UNL A   1      40.788  26.621  29.001  1.00  0.00     0.010 A 
ATOM     37  C   UNL A   1      41.561  27.780  29.208  1.00  0.00    -0.014 A 
BRANCH  37  38
ATOM     38  C   UNL A   1      41.291  28.690  30.364  1.00  0.00     0.031 A 
ATOM     39  C   UNL A   1      42.051  28.526  31.654  1.00  0.00     0.074 A 
ATOM     40  C   UNL A   1      40.365  29.669  30.287  1.00  0.00     0.049 A 
ATOM     41  N   UNL A   1      41.940  29.205  32.767  1.00  0.00    -0.248 NA
ATOM     42  C   UNL A   1      43.080  27.476  31.691  1.00  0.00     0.031 C 
ATOM     43  C   UNL A   1      39.585  29.997  29.099  1.00  0.00     0.029 A 
ATOM     44  N   UNL A   1      39.905  30.557  31.234  1.00  0.00    -0.354 N 
ATOM     45  C   UNL A   1      42.894  28.681  33.631  1.00  0.00     0.074 A 
ATOM     46  C   UNL A   1      43.543  27.594  32.928  1.00  0.00     0.031 C 
ATOM     47  C   UNL A   1      38.696  30.959  29.400  1.00  0.00     0.029 A 
ATOM     48  C   UNL A   1      38.847  31.327  30.806  1.00  0.00     0.049 A 
ATOM     49  H   UNL A   1      40.297  30.633  32.134  1.00  0.00     0.167 HD
ATOM     50  C   UNL A   1      43.221  29.087  34.882  1.00  0.00     0.037 A 
ATOM     51  C   UNL A   1      38.076  32.217  31.464  1.00  0.00     0.037 A 
ATOM     52  C   UNL A   1      42.600  30.178  35.587  1.00  0.00     0.049 A 
ATOM     53  C   UNL A   1      38.383  32.566  32.898  1.00  0.00     0.074 A 
ATOM     54  C   UNL A   1      42.941  30.701  36.825  1.00  0.00     0.029 A 
ATOM     55  N   UNL A   1      41.505  30.897  35.141  1.00  0.00    -0.354 N 
ATOM     56  N   UNL A   1      39.357  32.130  33.659  1.00  0.00    -0.248 NA
ATOM     57  C   UNL A   1      37.500  33.542  33.558  1.00  0.00     0.031 C 
ATOM     58  C   UNL A   1      42.015  31.697  37.152  1.00  0.00     0.029 A 
ATOM     59  C   UNL A   1      41.125  31.825  36.100  1.00  0.00     0.049 A 
ATOM     60  H   UNL A   1      41.060  30.770  34.272  1.00  0.00     0.167 HD
ATOM     61  C   UNL A   1      39.226  32.806  34.869  1.00  0.00     0.074 A 
ATOM     62  C   UNL A   1      38.083  33.683  34.741  1.00  0.00     0.031 C 
ATOM     63  C   UNL A   1      39.994  32.708  35.981  1.00  0.00     0.037 A 
BRANCH  50  64
ATOM     64  C   UNL A   1      44.322  28.351  35.587  1.00  0.00     0.058 A 
ATOM     65  C   UNL A   1      44.051  27.254  36.418  1.00  0.00     0.135 A 
ATOM     66  C   UNL A   1      45.665  28.687  35.354  1.00  0.00     0.135 A 
ATOM     67  F   UNL A   1      42.783  26.901  36.682  1.00  0.00    -0.206 F 
ATOM     68  C   UNL A   1      45.076  26.516  36.999  1.00  0.00     0.059 A 
ATOM     69  C   UNL A   1      46.706  27.951  35.907  1.00  0.00     0.059 A 
ATOM     70  F   UNL A   1      45.972  29.731  34.566  1.00  0.00    -0.206 F 
ATOM     71  C   UNL A   1      46.401  26.869  36.733  1.00  0.00     0.060 A 
BRANCH  71  72
ATOM     72  S   UNL A   1      47.719  25.877  37.464  1.00  0.00     0.124 S 
ATOM     73  O   UNL A   1      48.894  26.689  37.162  1.00  0.00    -0.237 OA
ATOM     74  O   UNL A   1      47.329  25.825  38.870  1.00  0.00    -0.237 OA
ATOM     75  O   UNL A   1      47.631  24.610  36.745  1.00  0.00    -0.744 OA
ENDBRANCH  71  72
ENDBRANCH  50  64
BRANCH  51  76
ATOM     76  C   UNL A   1      36.902  32.839  30.791  1.00  0.00     0.058 A 
ATOM     77  C   UNL A   1      37.050  33.935  29.929  1.00  0.00     0.135 A 
ATOM     78  C   UNL A   1      35.600  32.388  31.058  1.00  0.00     0.135 A 
ATOM     79  F   UNL A   1      38.274  34.409  29.651  1.00  0.00    -0.206 F 
ATOM     80  C   UNL A   1      35.947  34.588  29.384  1.00  0.00     0.059 A 
ATOM     81  C   UNL A   1      34.483  33.011  30.509  1.00  0.00     0.059 A 
ATOM     82  F   UNL A   1      35.405  31.331  31.863  1.00  0.00    -0.206 F 
ATOM     83  C   UNL A   1      34.667  34.123  29.689  1.00  0.00     0.060 A 
BRANCH  83  84
ATOM     84  S   UNL A   1      33.241  34.979  28.984  1.00  0.00     0.124 S 
ATOM     85  O   UNL A   1      32.716  33.971  28.071  1.00  0.00    -0.237 OA
ATOM     86  O   UNL A   1      32.432  35.252  30.168  1.00  0.00    -0.237 OA
ATOM     87  O   UNL A   1      33.835  36.154  28.356  1.00  0.00    -0.744 OA
ENDBRANCH  83  84
ENDBRANCH  51  76
BRANCH  63  88
ATOM     88  C   UNL A   1      39.653  33.587  37.155  1.00  0.00     0.058 A 
ATOM     89  C   UNL A   1      38.825  33.136  38.194  1.00  0.00     0.135 A 
ATOM     90  C   UNL A   1      40.214  34.869  37.277  1.00  0.00     0.135 A 
ATOM     91  F   UNL A   1      38.255  31.921  38.125  1.00  0.00    -0.206 F 
ATOM     92  C   UNL A   1      38.555  33.927  39.307  1.00  0.00     0.059 A 
ATOM     93  C   UNL A   1      39.978  35.668  38.392  1.00  0.00     0.059 A 
ATOM     94  F   UNL A   1      41.018  35.349  36.315  1.00  0.00    -0.206 F 
ATOM     95  C   UNL A   1      39.141  35.191  39.400  1.00  0.00     0.060 A 
BRANCH  95  96
ATOM     96  S   UNL A   1      38.828  36.186  40.875  1.00  0.00     0.124 S 
ATOM     97  O   UNL A   1      37.743  35.443  41.507  1.00  0.00    -0.237 OA
ATOM     98  O   UNL A   1      40.114  36.138  41.564  1.00  0.00    -0.237 OA
ATOM     99  O   UNL A   1      38.463  37.492  40.334  1.00  0.00    -0.744 OA
ENDBRANCH  95  96
ENDBRANCH  63  88
ENDBRANCH  37  38
ENDBRANCH  30  32
ENDBRANCH  29  30
ENDBRANCH  28  29
ENDBRANCH  27  28
ENDBRANCH   1  27
TORSDOF 20
ENDMDL
MODEL 2
REMARK VINA RESULT:     -11.8      6.230     12.299
REMARK SMILES O=C(OCCOC(=O)c1ccc(-c2c3nc(c(-c4c(F)cc(S(=O)(=O)[O-])cc4F)c4ccc([nH]4)c(-c4c(F)cc(S(=O)(=O)[O-])cc4F)c4nc(c(-c5c(F)cc(S(=O)(=O)[O-])cc5F)c5ccc2[nH]5)C=C4)C=C3)cc1)c1ccc(C[C@H]2CCN(C(=O)Cc3cccc(O)c3)C2)cc1
REMARK SMILES IDX 3 1 2 2 1 3 75 4 76 5 96 6 77 7 95 8 78 9 79 10 80 11 81 12
REMARK SMILES IDX 94 13 82 14 83 15 84 16 85 17 86 18 87 19 88 20 93 21 89 22
REMARK SMILES IDX 91 23 90 24 92 25 4 27 5 28 6 29 7 30 8 31 9 32 10 33 74 34
REMARK SMILES IDX 11 35 73 36 12 37 13 38 14 39 67 40 15 41 72 42 66 43 68 44
REMARK SMILES IDX 16 45 71 46 65 47 64 48 17 50 51 51 30 52 50 53 31 54 34 55
REMARK SMILES IDX 49 56 69 57 32 58 33 59 48 61 70 62 35 63 18 64 19 65 28 66
REMARK SMILES IDX 20 67 21 68 27 69 29 70 22 71 23 72 24 73 25 74 26 75 52 76
REMARK SMILES IDX 53 77 62 78 54 79 55 80 61 81 63 82 56 83 57 84 58 85 59 86
REMARK SMILES IDX 60 87 36 88 37 89 46 90 38 91 39 92 45 93 47 94 40 95 41 96
REMARK SMILES IDX 42 97 43 98 44 99
REMARK H PARENT 92 26 68 49 34 60
REMARK Flexibility Score: inf
ROOT
ATOM      1  O   UNL A   1      33.358  31.307  27.708  1.00  0.00    -0.458 OA
ENDROOT
BRANCH   1   2
ATOM      2  C   UNL A   1      32.315  31.003  26.891  1.00  0.00     0.338 C 
ATOM      3  O   UNL A   1      31.522  31.892  26.586  1.00  0.00    -0.246 OA
BRANCH   2   4
ATOM      4  C   UNL A   1      31.990  29.591  26.498  1.00  0.00     0.060 A 
ATOM      5  C   UNL A   1      31.988  28.520  27.374  1.00  0.00     0.016 A 
ATOM      6  C   UNL A   1      31.555  29.334  25.186  1.00  0.00     0.016 A 
ATOM      7  C   UNL A   1      31.432  27.299  27.026  1.00  0.00     0.004 A 
ATOM      8  C   UNL A   1      31.116  28.052  24.794  1.00  0.00     0.004 A 
ATOM      9  C   UNL A   1      31.022  27.019  25.730  1.00  0.00    -0.048 A 
BRANCH   9  10
ATOM     10  C   UNL A   1      30.442  25.656  25.414  1.00  0.00     0.041 C 
BRANCH  10  11
ATOM     11  C   UNL A   1      31.337  24.474  25.835  1.00  0.00     0.015 C 
ATOM     12  C   UNL A   1      30.594  23.226  26.339  1.00  0.00     0.027 C 
ATOM     13  C   UNL A   1      32.160  23.891  24.673  1.00  0.00     0.123 C 
ATOM     14  C   UNL A   1      31.616  22.129  26.213  1.00  0.00     0.120 C 
ATOM     15  N   UNL A   1      32.317  22.472  24.997  1.00  0.00    -0.342 N 
BRANCH  15  16
ATOM     16  C   UNL A   1      33.044  21.609  24.205  1.00  0.00     0.227 C 
ATOM     17  O   UNL A   1      34.240  21.787  23.976  1.00  0.00    -0.275 OA
BRANCH  16  18
ATOM     18  C   UNL A   1      32.299  20.442  23.562  1.00  0.00     0.135 C 
BRANCH  18  19
ATOM     19  C   UNL A   1      32.709  19.058  24.025  1.00  0.00    -0.035 A 
ATOM     20  C   UNL A   1      32.487  18.628  25.342  1.00  0.00     0.004 A 
ATOM     21  C   UNL A   1      33.331  18.181  23.123  1.00  0.00     0.050 A 
ATOM     22  C   UNL A   1      32.812  17.327  25.730  1.00  0.00     0.004 A 
ATOM     23  C   UNL A   1      33.671  16.891  23.528  1.00  0.00     0.115 A 
ATOM     24  C   UNL A   1      33.401  16.455  24.819  1.00  0.00     0.046 A 
BRANCH  23  25
ATOM     25  O   UNL A   1      34.270  16.013  22.673  1.00  0.00    -0.508 OA
ATOM     26  H   UNL A   1      34.320  16.208  21.758  1.00  0.00     0.293 HD
ENDBRANCH  23  25
ENDBRANCH  18  19
ENDBRANCH  16  18
ENDBRANCH  15  16
ENDBRANCH  10  11
ENDBRANCH   9  10
ENDBRANCH   2   4
ENDBRANCH   1   2
BRANCH   1  27
ATOM     27  C   UNL A   1      33.874  32.616  28.030  1.00  0.00     0.275 C 
BRANCH  27  28
ATOM     28  C   UNL A   1      35.039  32.549  29.040  1.00  0.00     0.275 C 
BRANCH  28  29
ATOM     29  O   UNL A   1      35.685  31.257  29.076  1.00  0.00    -0.458 OA
BRANCH  29  30
ATOM     30  C   UNL A   1      36.332  30.955  30.236  1.00  0.00     0.338 C 
ATOM     31  O   UNL A   1      35.826  30.919  31.339  1.00  0.00    -0.246 OA
BRANCH  30  32
ATOM     32  C   UNL A   1      37.731  30.512  29.963  1.00  0.00     0.060 A 
ATOM     33  C   UNL A   1      38.075  30.243  28.631  1.00  0.00     0.016 A 
ATOM     34  C   UNL A   1      38.703  30.372  30.960  1.00  0.00     0.016 A 
ATOM     35  C   UNL A   1      39.373  29.833  28.296  1.00  0.00     0.010 A 
ATOM     36  C   UNL A   1      40.010  29.974  30.617  1.00  0.00     0.010 A 
ATOM     37  C   UNL A   1      40.358  29.690  29.282  1.00  0.00    -0.014 A 
BRANCH  37  38
ATOM     38  C   UNL A   1      41.729  29.204  28.932  1.00  0.00     0.031 A 
ATOM     39  C   UNL A   1      42.879  30.174  28.849  1.00  0.00     0.074 A 
ATOM     40  C   UNL A   1      41.971  27.901  28.679  1.00  0.00     0.049 A 
ATOM     41  N   UNL A   1      44.130  29.942  28.540  1.00  0.00    -0.248 NA
ATOM     42  C   UNL A   1      42.590  31.579  29.170  1.00  0.00     0.031 C 
ATOM     43  C   UNL A   1      40.986  26.830  28.770  1.00  0.00     0.029 A 
ATOM     44  N   UNL A   1      43.116  27.256  28.269  1.00  0.00    -0.354 N 
ATOM     45  C   UNL A   1      44.782  31.164  28.648  1.00  0.00     0.074 A 
ATOM     46  C   UNL A   1      43.778  32.145  29.004  1.00  0.00     0.031 C 
ATOM     47  C   UNL A   1      41.540  25.676  28.361  1.00  0.00     0.029 A 
ATOM     48  C   UNL A   1      42.931  25.921  27.985  1.00  0.00     0.049 A 
ATOM     49  H   UNL A   1      43.988  27.707  28.186  1.00  0.00     0.167 HD
ATOM     50  C   UNL A   1      46.100  31.440  28.496  1.00  0.00     0.037 A 
ATOM     51  C   UNL A   1      43.771  24.999  27.470  1.00  0.00     0.037 A 
ATOM     52  C   UNL A   1      47.115  30.474  28.162  1.00  0.00     0.049 A 
ATOM     53  C   UNL A   1      45.208  25.361  27.192  1.00  0.00     0.074 A 
ATOM     54  C   UNL A   1      48.485  30.667  28.077  1.00  0.00     0.029 A 
ATOM     55  N   UNL A   1      46.881  29.150  27.836  1.00  0.00    -0.354 N 
ATOM     56  N   UNL A   1      45.824  26.499  27.402  1.00  0.00    -0.248 NA
ATOM     57  C   UNL A   1      46.070  24.310  26.628  1.00  0.00     0.031 C 
ATOM     58  C   UNL A   1      49.072  29.474  27.643  1.00  0.00     0.029 A 
ATOM     59  C   UNL A   1      48.073  28.526  27.500  1.00  0.00     0.049 A 
ATOM     60  H   UNL A   1      45.998  28.713  27.842  1.00  0.00     0.167 HD
ATOM     61  C   UNL A   1      47.150  26.287  27.032  1.00  0.00     0.074 A 
ATOM     62  C   UNL A   1      47.251  24.914  26.590  1.00  0.00     0.031 C 
ATOM     63  C   UNL A   1      48.188  27.158  27.066  1.00  0.00     0.037 A 
BRANCH  50  64
ATOM     64  C   UNL A   1      46.544  32.859  28.699  1.00  0.00     0.058 A 
ATOM     65  C   UNL A   1      46.583  33.771  27.634  1.00  0.00     0.135 A 
ATOM     66  C   UNL A   1      46.839  33.334  29.986  1.00  0.00     0.135 A 
ATOM     67  F   UNL A   1      46.320  33.362  26.382  1.00  0.00    -0.206 F 
ATOM     68  C   UNL A   1      46.905  35.108  27.837  1.00  0.00     0.059 A 
ATOM     69  C   UNL A   1      47.144  34.671  30.216  1.00  0.00     0.059 A 
ATOM     70  F   UNL A   1      46.815  32.497  31.036  1.00  0.00    -0.206 F 
ATOM     71  C   UNL A   1      47.179  35.549  29.133  1.00  0.00     0.060 A 
BRANCH  71  72
ATOM     72  S   UNL A   1      47.557  37.295  29.385  1.00  0.00     0.124 S 
ATOM     73  O   UNL A   1      48.405  37.578  28.230  1.00  0.00    -0.237 OA
ATOM     74  O   UNL A   1      46.233  37.908  29.364  1.00  0.00    -0.237 OA
ATOM     75  O   UNL A   1      48.233  37.315  30.678  1.00  0.00    -0.744 OA
ENDBRANCH  71  72
ENDBRANCH  50  64
BRANCH  51  76
ATOM     76  C   UNL A   1      43.282  23.631  27.147  1.00  0.00     0.058 A 
ATOM     77  C   UNL A   1      43.164  22.644  28.136  1.00  0.00     0.135 A 
ATOM     78  C   UNL A   1      42.989  23.268  25.822  1.00  0.00     0.135 A 
ATOM     79  F   UNL A   1      43.441  22.940  29.415  1.00  0.00    -0.206 F 
ATOM     80  C   UNL A   1      42.812  21.335  27.820  1.00  0.00     0.059 A 
ATOM     81  C   UNL A   1      42.616  21.971  25.485  1.00  0.00     0.059 A 
ATOM     82  F   UNL A   1      43.070  24.180  24.840  1.00  0.00    -0.206 F 
ATOM     83  C   UNL A   1      42.549  21.006  26.490  1.00  0.00     0.060 A 
BRANCH  83  84
ATOM     84  S   UNL A   1      42.099  19.304  26.087  1.00  0.00     0.124 S 
ATOM     85  O   UNL A   1      40.656  19.416  25.909  1.00  0.00    -0.237 OA
ATOM     86  O   UNL A   1      42.876  19.060  24.875  1.00  0.00    -0.237 OA
ATOM     87  O   UNL A   1      42.536  18.557  27.262  1.00  0.00    -0.744 OA
ENDBRANCH  83  84
ENDBRANCH  51  76
BRANCH  63  88
ATOM     88  C   UNL A   1      49.542  26.660  26.639  1.00  0.00     0.058 A 
ATOM     89  C   UNL A   1      50.403  26.009  27.538  1.00  0.00     0.135 A 
ATOM     90  C   UNL A   1      49.959  26.772  25.303  1.00  0.00     0.135 A 
ATOM     91  F   UNL A   1      50.059  25.882  28.830  1.00  0.00    -0.206 F 
ATOM     92  C   UNL A   1      51.631  25.498  27.130  1.00  0.00     0.059 A 
ATOM     93  C   UNL A   1      51.172  26.247  24.867  1.00  0.00     0.059 A 
ATOM     94  F   UNL A   1      49.174  27.379  24.399  1.00  0.00    -0.206 F 
ATOM     95  C   UNL A   1      52.006  25.617  25.790  1.00  0.00     0.060 A 
BRANCH  95  96
ATOM     96  S   UNL A   1      53.577  24.900  25.262  1.00  0.00     0.124 S 
ATOM     97  O   UNL A   1      53.847  25.650  24.039  1.00  0.00    -0.237 OA
ATOM     98  O   UNL A   1      54.453  25.196  26.391  1.00  0.00    -0.237 OA
ATOM     99  O   UNL A   1      53.262  23.488  25.075  1.00  0.00    -0.744 OA
ENDBRANCH  95  96
ENDBRANCH  63  88
ENDBRANCH  37  38
ENDBRANCH  30  32
ENDBRANCH  29  30
ENDBRANCH  28  29
ENDBRANCH  27  28
ENDBRANCH   1  27
TORSDOF 20
ENDMDL
MODEL 3
REMARK VINA RESULT:     -11.8      0.666      8.024
REMARK SMILES O=C(OCCOC(=O)c1ccc(-c2c3nc(c(-c4c(F)cc(S(=O)(=O)[O-])cc4F)c4ccc([nH]4)c(-c4c(F)cc(S(=O)(=O)[O-])cc4F)c4nc(c(-c5c(F)cc(S(=O)(=O)[O-])cc5F)c5ccc2[nH]5)C=C4)C=C3)cc1)c1ccc(C[C@H]2CCN(C(=O)Cc3cccc(O)c3)C2)cc1
REMARK SMILES IDX 3 1 2 2 1 3 75 4 76 5 96 6 77 7 95 8 78 9 79 10 80 11 81 12
REMARK SMILES IDX 94 13 82 14 83 15 84 16 85 17 86 18 87 19 88 20 93 21 89 22
REMARK SMILES IDX 91 23 90 24 92 25 4 27 5 28 6 29 7 30 8 31 9 32 10 33 74 34
REMARK SMILES IDX 11 35 73 36 12 37 13 38 14 39 67 40 15 41 72 42 66 43 68 44
REMARK SMILES IDX 16 45 71 46 65 47 64 48 17 50 51 51 30 52 50 53 31 54 34 55
REMARK SMILES IDX 49 56 69 57 32 58 33 59 48 61 70 62 35 63 18 64 19 65 28 66
REMARK SMILES IDX 20 67 21 68 27 69 29 70 22 71 23 72 24 73 25 74 26 75 52 76
REMARK SMILES IDX 53 77 62 78 54 79 55 80 61 81 63 82 56 83 57 84 58 85 59 86
REMARK SMILES IDX 60 87 36 88 37 89 46 90 38 91 39 92 45 93 47 94 40 95 41 96
REMARK SMILES IDX 42 97 43 98 44 99
REMARK H PARENT 92 26 68 49 34 60
REMARK Flexibility Score: inf
ROOT
ATOM      1  O   UNL A   1      41.732  21.179  25.693  1.00  0.00    -0.458 OA
ENDROOT
BRANCH   1   2
ATOM      2  C   UNL A   1      40.704  21.238  26.581  1.00  0.00     0.338 C 
ATOM      3  O   UNL A   1      40.796  20.616  27.638  1.00  0.00    -0.246 OA
BRANCH   2   4
ATOM      4  C   UNL A   1      39.390  21.881  26.244  1.00  0.00     0.060 A 
ATOM      5  C   UNL A   1      39.042  23.172  26.596  1.00  0.00     0.016 A 
ATOM      6  C   UNL A   1      38.482  21.183  25.427  1.00  0.00     0.016 A 
ATOM      7  C   UNL A   1      37.940  23.804  26.042  1.00  0.00     0.004 A 
ATOM      8  C   UNL A   1      37.289  21.784  24.974  1.00  0.00     0.004 A 
ATOM      9  C   UNL A   1      37.019  23.125  25.256  1.00  0.00    -0.048 A 
BRANCH   9  10
ATOM     10  C   UNL A   1      35.826  23.872  24.700  1.00  0.00     0.041 C 
BRANCH  10  11
ATOM     11  C   UNL A   1      34.462  23.343  25.189  1.00  0.00     0.015 C 
ATOM     12  C   UNL A   1      34.303  23.230  26.714  1.00  0.00     0.027 C 
ATOM     13  C   UNL A   1      33.287  24.267  24.827  1.00  0.00     0.123 C 
ATOM     14  C   UNL A   1      32.813  23.172  26.911  1.00  0.00     0.120 C 
ATOM     15  N   UNL A   1      32.313  24.077  25.903  1.00  0.00    -0.342 N 
BRANCH  15  16
ATOM     16  C   UNL A   1      31.089  24.711  25.913  1.00  0.00     0.227 C 
ATOM     17  O   UNL A   1      30.276  24.545  26.822  1.00  0.00    -0.275 OA
BRANCH  16  18
ATOM     18  C   UNL A   1      30.741  25.594  24.717  1.00  0.00     0.135 C 
BRANCH  18  19
ATOM     19  C   UNL A   1      30.951  27.083  24.909  1.00  0.00    -0.035 A 
ATOM     20  C   UNL A   1      31.650  27.591  26.015  1.00  0.00     0.004 A 
ATOM     21  C   UNL A   1      30.434  27.984  23.964  1.00  0.00     0.050 A 
ATOM     22  C   UNL A   1      31.889  28.960  26.138  1.00  0.00     0.004 A 
ATOM     23  C   UNL A   1      30.661  29.352  24.109  1.00  0.00     0.115 A 
ATOM     24  C   UNL A   1      31.398  29.843  25.180  1.00  0.00     0.046 A 
BRANCH  23  25
ATOM     25  O   UNL A   1      30.177  30.252  23.205  1.00  0.00    -0.508 OA
ATOM     26  H   UNL A   1      29.779  31.047  23.501  1.00  0.00     0.293 HD
ENDBRANCH  23  25
ENDBRANCH  18  19
ENDBRANCH  16  18
ENDBRANCH  15  16
ENDBRANCH  10  11
ENDBRANCH   9  10
ENDBRANCH   2   4
ENDBRANCH   1   2
BRANCH   1  27
ATOM     27  C   UNL A   1      43.031  21.797  25.807  1.00  0.00     0.275 C 
BRANCH  27  28
ATOM     28  C   UNL A   1      42.999  23.291  25.421  1.00  0.00     0.275 C 
BRANCH  28  29
ATOM     29  O   UNL A   1      42.564  24.147  26.501  1.00  0.00    -0.458 OA
BRANCH  29  30
ATOM     30  C   UNL A   1      42.108  25.376  26.131  1.00  0.00     0.338 C 
ATOM     31  O   UNL A   1      41.774  25.698  25.009  1.00  0.00    -0.246 OA
BRANCH  30  32
ATOM     32  C   UNL A   1      41.918  26.253  27.324  1.00  0.00     0.060 A 
ATOM     33  C   UNL A   1      40.886  25.921  28.211  1.00  0.00     0.016 A 
ATOM     34  C   UNL A   1      42.725  27.363  27.601  1.00  0.00     0.016 A 
ATOM     35  C   UNL A   1      40.653  26.691  29.359  1.00  0.00     0.010 A 
ATOM     36  C   UNL A   1      42.497  28.125  28.762  1.00  0.00     0.010 A 
ATOM     37  C   UNL A   1      41.452  27.805  29.651  1.00  0.00    -0.014 A 
BRANCH  37  38
ATOM     38  C   UNL A   1      41.173  28.656  30.849  1.00  0.00     0.031 A 
ATOM     39  C   UNL A   1      40.094  29.705  30.800  1.00  0.00     0.074 A 
ATOM     40  C   UNL A   1      41.875  28.512  31.993  1.00  0.00     0.049 A 
ATOM     41  N   UNL A   1      39.723  30.549  31.731  1.00  0.00    -0.248 NA
ATOM     42  C   UNL A   1      39.321  29.808  29.553  1.00  0.00     0.031 C 
ATOM     43  C   UNL A   1      42.910  27.512  32.224  1.00  0.00     0.029 A 
ATOM     44  N   UNL A   1      41.841  29.224  33.171  1.00  0.00    -0.354 N 
ATOM     45  C   UNL A   1      38.664  31.269  31.192  1.00  0.00     0.074 A 
ATOM     46  C   UNL A   1      38.482  30.796  29.836  1.00  0.00     0.031 C 
ATOM     47  C   UNL A   1      43.464  27.712  33.433  1.00  0.00     0.029 A 
ATOM     48  C   UNL A   1      42.816  28.854  34.072  1.00  0.00     0.049 A 
ATOM     49  H   UNL A   1      41.182  29.932  33.353  1.00  0.00     0.167 HD
ATOM     50  C   UNL A   1      37.893  32.215  31.782  1.00  0.00     0.037 A 
ATOM     51  C   UNL A   1      43.161  29.377  35.267  1.00  0.00     0.037 A 
ATOM     52  C   UNL A   1      38.046  32.682  33.135  1.00  0.00     0.049 A 
ATOM     53  C   UNL A   1      42.363  30.514  35.853  1.00  0.00     0.074 A 
ATOM     54  C   UNL A   1      37.245  33.576  33.828  1.00  0.00     0.029 A 
ATOM     55  N   UNL A   1      39.070  32.321  33.994  1.00  0.00    -0.354 N 
ATOM     56  N   UNL A   1      41.301  31.107  35.366  1.00  0.00    -0.248 NA
ATOM     57  C   UNL A   1      42.796  31.038  37.158  1.00  0.00     0.031 C 
ATOM     58  C   UNL A   1      37.818  33.800  35.084  1.00  0.00     0.029 A 
ATOM     59  C   UNL A   1      38.951  33.011  35.191  1.00  0.00     0.049 A 
ATOM     60  H   UNL A   1      39.779  31.669  33.787  1.00  0.00     0.167 HD
ATOM     61  C   UNL A   1      40.919  32.045  36.322  1.00  0.00     0.074 A 
ATOM     62  C   UNL A   1      41.858  31.940  37.416  1.00  0.00     0.031 C 
ATOM     63  C   UNL A   1      39.875  32.909  36.291  1.00  0.00     0.037 A 
BRANCH  50  64
ATOM     64  C   UNL A   1      36.786  32.818  30.969  1.00  0.00     0.058 A 
ATOM     65  C   UNL A   1      35.453  32.412  31.135  1.00  0.00     0.135 A 
ATOM     66  C   UNL A   1      37.048  33.879  30.088  1.00  0.00     0.135 A 
ATOM     67  F   UNL A   1      35.153  31.394  31.958  1.00  0.00    -0.206 F 
ATOM     68  C   UNL A   1      34.417  33.034  30.449  1.00  0.00     0.059 A 
ATOM     69  C   UNL A   1      36.025  34.529  29.407  1.00  0.00     0.059 A 
ATOM     70  F   UNL A   1      38.308  34.301  29.896  1.00  0.00    -0.206 F 
ATOM     71  C   UNL A   1      34.712  34.095  29.591  1.00  0.00     0.060 A 
BRANCH  71  72
ATOM     72  S   UNL A   1      33.350  34.917  28.739  1.00  0.00     0.124 S 
ATOM     73  O   UNL A   1      32.525  35.353  29.862  1.00  0.00    -0.237 OA
ATOM     74  O   UNL A   1      34.035  35.977  28.006  1.00  0.00    -0.237 OA
ATOM     75  O   UNL A   1      32.776  33.859  27.913  1.00  0.00    -0.744 OA
ENDBRANCH  71  72
ENDBRANCH  50  64
BRANCH  51  76
ATOM     76  C   UNL A   1      44.347  28.856  36.001  1.00  0.00     0.058 A 
ATOM     77  C   UNL A   1      44.249  27.750  36.858  1.00  0.00     0.135 A 
ATOM     78  C   UNL A   1      45.589  29.504  35.910  1.00  0.00     0.135 A 
ATOM     79  F   UNL A   1      43.080  27.103  36.986  1.00  0.00    -0.206 F 
ATOM     80  C   UNL A   1      45.328  27.328  37.630  1.00  0.00     0.059 A 
ATOM     81  C   UNL A   1      46.688  29.087  36.656  1.00  0.00     0.059 A 
ATOM     82  F   UNL A   1      45.741  30.557  35.091  1.00  0.00    -0.206 F 
ATOM     83  C   UNL A   1      46.541  28.010  37.528  1.00  0.00     0.060 A 
BRANCH  83  84
ATOM     84  S   UNL A   1      47.935  27.460  38.537  1.00  0.00     0.124 S 
ATOM     85  O   UNL A   1      48.647  26.593  37.606  1.00  0.00    -0.237 OA
ATOM     86  O   UNL A   1      48.592  28.722  38.865  1.00  0.00    -0.237 OA
ATOM     87  O   UNL A   1      47.288  26.788  39.660  1.00  0.00    -0.744 OA
ENDBRANCH  83  84
ENDBRANCH  51  76
BRANCH  63  88
ATOM     88  C   UNL A   1      39.662  33.803  37.482  1.00  0.00     0.058 A 
ATOM     89  C   UNL A   1      38.895  33.389  38.583  1.00  0.00     0.135 A 
ATOM     90  C   UNL A   1      40.284  35.060  37.557  1.00  0.00     0.135 A 
ATOM     91  F   UNL A   1      38.270  32.201  38.562  1.00  0.00    -0.206 F 
ATOM     92  C   UNL A   1      38.745  34.193  39.709  1.00  0.00     0.059 A 
ATOM     93  C   UNL A   1      40.168  35.870  38.682  1.00  0.00     0.059 A 
ATOM     94  F   UNL A   1      41.033  35.504  36.535  1.00  0.00    -0.206 F 
ATOM     95  C   UNL A   1      39.389  35.431  39.752  1.00  0.00     0.060 A 
BRANCH  95  96
ATOM     96  S   UNL A   1      39.232  36.440  41.242  1.00  0.00     0.124 S 
ATOM     97  O   UNL A   1      40.593  36.404  41.767  1.00  0.00    -0.237 OA
ATOM     98  O   UNL A   1      38.793  37.724  40.707  1.00  0.00    -0.237 OA
ATOM     99  O   UNL A   1      38.235  35.725  42.034  1.00  0.00    -0.744 OA
ENDBRANCH  95  96
ENDBRANCH  63  88
ENDBRANCH  37  38
ENDBRANCH  30  32
ENDBRANCH  29  30
ENDBRANCH  28  29
ENDBRANCH  27  28
ENDBRANCH   1  27
TORSDOF 20
ENDMDL
