MODEL 1
REMARK VINA RESULT:     -11.5      0.000      0.000
REMARK SMILES Cc1occc1C(=O)N1[C@@H](C(=O)OCCOC(=O)c2ccc(-c3c4nc(c(-c5c(F)cc(S(=O)(=O)[O-])cc5F)c5ccc([nH]5)c(-c5c(F)cc(S(=O)(=O)[O-])cc5F)c5nc(c(-c6c(F)cc(S(=O)(=O)[O-])cc6F)c6ccc3[nH]6)C=C5)C=C4)cc2)C[C@@H]2CCCC[C@H]21
REMARK SMILES IDX 15 1 14 2 13 3 11 4 12 5 10 6 9 7 91 8 85 9 86 10 90 11
REMARK SMILES IDX 87 12 89 13 88 14 7 15 8 16 6 17 1 18 2 19 3 20 4 21 5 22
REMARK SMILES IDX 16 23 17 24 18 25 19 26 20 27 84 28 21 29 83 30 22 31 23 32
REMARK SMILES IDX 24 33 77 34 25 35 82 36 76 37 78 38 26 39 81 40 75 41 74 42
REMARK SMILES IDX 27 44 61 45 40 46 60 47 41 48 44 49 59 50 79 51 42 52 43 53
REMARK SMILES IDX 58 55 80 56 45 57 28 58 29 59 38 60 30 61 31 62 37 63 39 64
REMARK SMILES IDX 32 65 33 66 34 67 35 68 36 69 62 70 63 71 72 72 64 73 65 74
REMARK SMILES IDX 71 75 73 76 66 77 67 78 68 79 69 80 70 81 46 82 47 83 56 84
REMARK SMILES IDX 48 85 49 86 55 87 57 88 50 89 51 90 52 91 53 92 54 93
REMARK H PARENT 78 43 44 54
REMARK Flexibility Score: inf
ROOT
ATOM      1  C   UNL A   1      33.166  28.947  26.414  1.00  0.00     0.275 C 
ENDROOT
BRANCH   1   2
ATOM      2  C   UNL A   1      32.402  27.636  26.301  1.00  0.00     0.274 C 
BRANCH   2   3
ATOM      3  O   UNL A   1      33.331  26.533  26.255  1.00  0.00    -0.461 OA
BRANCH   3   4
ATOM      4  C   UNL A   1      32.777  25.299  26.123  1.00  0.00     0.329 C 
ATOM      5  O   UNL A   1      31.755  24.935  26.698  1.00  0.00    -0.250 OA
BRANCH   4   6
ATOM      6  C   UNL A   1      33.629  24.338  25.284  1.00  0.00     0.196 C 
ATOM      7  N   UNL A   1      33.714  22.900  25.643  1.00  0.00    -0.321 N 
ATOM      8  C   UNL A   1      35.041  22.454  25.213  1.00  0.00     0.089 C 
ATOM      9  C   UNL A   1      35.095  24.823  25.195  1.00  0.00     0.043 C 
ATOM     10  C   UNL A   1      35.896  23.625  25.686  1.00  0.00     0.014 C 
ATOM     11  C   UNL A   1      35.646  21.131  25.657  1.00  0.00     0.025 C 
ATOM     12  C   UNL A   1      37.341  23.549  25.229  1.00  0.00     0.006 C 
ATOM     13  C   UNL A   1      37.108  21.028  25.191  1.00  0.00     0.002 C 
ATOM     14  C   UNL A   1      37.946  22.217  25.675  1.00  0.00     0.000 C 
BRANCH   7  15
ATOM     15  C   UNL A   1      32.568  22.143  25.436  1.00  0.00     0.258 C 
ATOM     16  O   UNL A   1      31.734  22.024  26.335  1.00  0.00    -0.269 OA
BRANCH  15  17
ATOM     17  C   UNL A   1      32.400  21.397  24.186  1.00  0.00     0.081 A 
ATOM     18  C   UNL A   1      32.626  18.770  24.612  1.00  0.00     0.088 C 
ATOM     19  C   UNL A   1      32.423  20.040  23.885  1.00  0.00     0.113 A 
ATOM     20  O   UNL A   1      32.148  19.844  22.559  1.00  0.00    -0.469 OA
ATOM     21  C   UNL A   1      31.894  21.048  22.006  1.00  0.00     0.196 A 
ATOM     22  C   UNL A   1      32.028  22.030  22.949  1.00  0.00     0.056 A 
ENDBRANCH  15  17
ENDBRANCH   7  15
ENDBRANCH   4   6
ENDBRANCH   3   4
ENDBRANCH   2   3
ENDBRANCH   1   2
BRANCH   1  23
ATOM     23  O   UNL A   1      33.685  29.052  27.750  1.00  0.00    -0.458 OA
BRANCH  23  24
ATOM     24  C   UNL A   1      34.398  30.170  28.008  1.00  0.00     0.338 C 
ATOM     25  O   UNL A   1      33.975  31.319  28.032  1.00  0.00    -0.246 OA
BRANCH  24  26
ATOM     26  C   UNL A   1      35.808  29.827  28.278  1.00  0.00     0.060 A 
ATOM     27  C   UNL A   1      36.224  29.380  29.534  1.00  0.00     0.016 A 
ATOM     28  C   UNL A   1      36.750  30.031  27.267  1.00  0.00     0.016 A 
ATOM     29  C   UNL A   1      37.582  29.172  29.786  1.00  0.00     0.010 A 
ATOM     30  C   UNL A   1      38.096  29.736  27.498  1.00  0.00     0.010 A 
ATOM     31  C   UNL A   1      38.533  29.308  28.763  1.00  0.00    -0.014 A 
BRANCH  31  32
ATOM     32  C   UNL A   1      39.966  28.957  28.976  1.00  0.00     0.031 A 
ATOM     33  C   UNL A   1      40.950  29.988  29.465  1.00  0.00     0.074 A 
ATOM     34  C   UNL A   1      40.407  27.719  28.671  1.00  0.00     0.049 A 
ATOM     35  N   UNL A   1      42.258  29.947  29.465  1.00  0.00    -0.248 NA
ATOM     36  C   UNL A   1      40.391  31.234  30.015  1.00  0.00     0.031 C 
ATOM     37  C   UNL A   1      39.571  26.607  28.212  1.00  0.00     0.029 A 
ATOM     38  N   UNL A   1      41.675  27.188  28.690  1.00  0.00    -0.354 N 
ATOM     39  C   UNL A   1      42.682  31.176  29.959  1.00  0.00     0.074 A 
ATOM     40  C   UNL A   1      41.488  31.939  30.260  1.00  0.00     0.031 C 
ATOM     41  C   UNL A   1      40.337  25.524  28.028  1.00  0.00     0.029 A 
ATOM     42  C   UNL A   1      41.731  25.885  28.255  1.00  0.00     0.049 A 
ATOM     43  H   UNL A   1      42.467  27.693  28.986  1.00  0.00     0.167 HD
ATOM     44  C   UNL A   1      43.949  31.626  30.135  1.00  0.00     0.037 A 
ATOM     45  C   UNL A   1      42.781  25.079  28.004  1.00  0.00     0.037 A 
ATOM     46  C   UNL A   1      45.133  30.848  29.873  1.00  0.00     0.049 A 
ATOM     47  C   UNL A   1      44.174  25.610  28.168  1.00  0.00     0.074 A 
ATOM     48  C   UNL A   1      46.459  31.215  30.038  1.00  0.00     0.029 A 
ATOM     49  N   UNL A   1      45.139  29.543  29.405  1.00  0.00    -0.354 N 
ATOM     50  N   UNL A   1      44.556  26.798  28.569  1.00  0.00    -0.248 NA
ATOM     51  C   UNL A   1      45.275  24.705  27.813  1.00  0.00     0.031 C 
ATOM     52  C   UNL A   1      47.266  30.141  29.642  1.00  0.00     0.029 A 
ATOM     53  C   UNL A   1      46.443  29.094  29.261  1.00  0.00     0.049 A 
ATOM     54  H   UNL A   1      44.334  29.013  29.203  1.00  0.00     0.167 HD
ATOM     55  C   UNL A   1      45.944  26.786  28.509  1.00  0.00     0.074 A 
ATOM     56  C   UNL A   1      46.334  25.466  28.055  1.00  0.00     0.031 C 
ATOM     57  C   UNL A   1      46.816  27.783  28.796  1.00  0.00     0.037 A 
BRANCH  44  58
ATOM     58  C   UNL A   1      44.129  33.042  30.608  1.00  0.00     0.058 A 
ATOM     59  C   UNL A   1      44.018  34.134  29.737  1.00  0.00     0.135 A 
ATOM     60  C   UNL A   1      44.364  33.307  31.968  1.00  0.00     0.135 A 
ATOM     61  F   UNL A   1      43.808  33.935  28.426  1.00  0.00    -0.206 F 
ATOM     62  C   UNL A   1      44.153  35.444  30.191  1.00  0.00     0.059 A 
ATOM     63  C   UNL A   1      44.483  34.609  32.449  1.00  0.00     0.059 A 
ATOM     64  F   UNL A   1      44.476  32.298  32.844  1.00  0.00    -0.206 F 
ATOM     65  C   UNL A   1      44.389  35.670  31.550  1.00  0.00     0.060 A 
BRANCH  65  66
ATOM     66  S   UNL A   1      44.557  37.372  32.130  1.00  0.00     0.124 S 
ATOM     67  O   UNL A   1      44.621  38.102  30.868  1.00  0.00    -0.237 OA
ATOM     68  O   UNL A   1      43.339  37.562  32.909  1.00  0.00    -0.237 OA
ATOM     69  O   UNL A   1      45.795  37.346  32.903  1.00  0.00    -0.744 OA
ENDBRANCH  65  66
ENDBRANCH  44  58
BRANCH  45  70
ATOM     70  C   UNL A   1      42.539  23.698  27.518  1.00  0.00     0.058 A 
ATOM     71  C   UNL A   1      42.528  23.412  26.146  1.00  0.00     0.135 A 
ATOM     72  C   UNL A   1      42.375  22.629  28.414  1.00  0.00     0.135 A 
ATOM     73  F   UNL A   1      42.668  24.404  25.254  1.00  0.00    -0.206 F 
ATOM     74  C   UNL A   1      42.377  22.111  25.677  1.00  0.00     0.059 A 
ATOM     75  C   UNL A   1      42.247  21.318  27.969  1.00  0.00     0.059 A 
ATOM     76  F   UNL A   1      42.390  22.852  29.737  1.00  0.00    -0.206 F 
ATOM     77  C   UNL A   1      42.247  21.070  26.597  1.00  0.00     0.060 A 
BRANCH  77  78
ATOM     78  S   UNL A   1      42.155  19.372  25.989  1.00  0.00     0.124 S 
ATOM     79  O   UNL A   1      42.581  18.618  27.161  1.00  0.00    -0.237 OA
ATOM     80  O   UNL A   1      40.747  19.246  25.625  1.00  0.00    -0.237 OA
ATOM     81  O   UNL A   1      43.084  19.373  24.862  1.00  0.00    -0.744 OA
ENDBRANCH  77  78
ENDBRANCH  45  70
BRANCH  57  82
ATOM     82  C   UNL A   1      48.277  27.481  28.631  1.00  0.00     0.058 A 
ATOM     83  C   UNL A   1      48.912  27.609  27.388  1.00  0.00     0.135 A 
ATOM     84  C   UNL A   1      49.054  27.088  29.732  1.00  0.00     0.135 A 
ATOM     85  F   UNL A   1      48.207  27.972  26.303  1.00  0.00    -0.206 F 
ATOM     86  C   UNL A   1      50.269  27.341  27.235  1.00  0.00     0.059 A 
ATOM     87  C   UNL A   1      50.415  26.832  29.607  1.00  0.00     0.059 A 
ATOM     88  F   UNL A   1      48.491  26.956  30.944  1.00  0.00    -0.206 F 
ATOM     89  C   UNL A   1      51.011  26.951  28.351  1.00  0.00     0.060 A 
BRANCH  89  90
ATOM     90  S   UNL A   1      52.777  26.629  28.150  1.00  0.00     0.124 S 
ATOM     91  O   UNL A   1      52.775  25.652  27.067  1.00  0.00    -0.237 OA
ATOM     92  O   UNL A   1      53.302  27.949  27.812  1.00  0.00    -0.237 OA
ATOM     93  O   UNL A   1      53.178  26.119  29.458  1.00  0.00    -0.744 OA
ENDBRANCH  89  90
ENDBRANCH  57  82
ENDBRANCH  31  32
ENDBRANCH  24  26
ENDBRANCH  23  24
ENDBRANCH   1  23
TORSDOF 16
ENDMDL
MODEL 2
REMARK VINA RESULT:     -11.4      1.337      2.439
REMARK SMILES Cc1occc1C(=O)N1[C@@H](C(=O)OCCOC(=O)c2ccc(-c3c4nc(c(-c5c(F)cc(S(=O)(=O)[O-])cc5F)c5ccc([nH]5)c(-c5c(F)cc(S(=O)(=O)[O-])cc5F)c5nc(c(-c6c(F)cc(S(=O)(=O)[O-])cc6F)c6ccc3[nH]6)C=C5)C=C4)cc2)C[C@@H]2CCCC[C@H]21
REMARK SMILES IDX 15 1 14 2 13 3 11 4 12 5 10 6 9 7 91 8 85 9 86 10 90 11
REMARK SMILES IDX 87 12 89 13 88 14 7 15 8 16 6 17 1 18 2 19 3 20 4 21 5 22
REMARK SMILES IDX 16 23 17 24 18 25 19 26 20 27 84 28 21 29 83 30 22 31 23 32
REMARK SMILES IDX 24 33 77 34 25 35 82 36 76 37 78 38 26 39 81 40 75 41 74 42
REMARK SMILES IDX 27 44 61 45 40 46 60 47 41 48 44 49 59 50 79 51 42 52 43 53
REMARK SMILES IDX 58 55 80 56 45 57 28 58 29 59 38 60 30 61 31 62 37 63 39 64
REMARK SMILES IDX 32 65 33 66 34 67 35 68 36 69 62 70 63 71 72 72 64 73 65 74
REMARK SMILES IDX 71 75 73 76 66 77 67 78 68 79 69 80 70 81 46 82 47 83 56 84
REMARK SMILES IDX 48 85 49 86 55 87 57 88 50 89 51 90 52 91 53 92 54 93
REMARK H PARENT 78 43 44 54
REMARK Flexibility Score: inf
ROOT
ATOM      1  C   UNL A   1      32.472  29.893  27.024  1.00  0.00     0.275 C 
ENDROOT
BRANCH   1   2
ATOM      2  C   UNL A   1      31.864  28.676  26.341  1.00  0.00     0.274 C 
BRANCH   2   3
ATOM      3  O   UNL A   1      32.094  27.501  27.146  1.00  0.00    -0.461 OA
BRANCH   3   4
ATOM      4  C   UNL A   1      31.962  26.310  26.503  1.00  0.00     0.329 C 
ATOM      5  O   UNL A   1      31.156  25.440  26.818  1.00  0.00    -0.250 OA
BRANCH   4   6
ATOM      6  C   UNL A   1      33.020  26.089  25.414  1.00  0.00     0.196 C 
ATOM      7  N   UNL A   1      32.779  25.117  24.318  1.00  0.00    -0.321 N 
ATOM      8  C   UNL A   1      34.096  24.601  23.938  1.00  0.00     0.089 C 
ATOM      9  C   UNL A   1      34.379  25.681  26.029  1.00  0.00     0.043 C 
ATOM     10  C   UNL A   1      34.716  24.380  25.315  1.00  0.00     0.014 C 
ATOM     11  C   UNL A   1      34.274  23.370  23.063  1.00  0.00     0.025 C 
ATOM     12  C   UNL A   1      36.184  23.998  25.268  1.00  0.00     0.006 C 
ATOM     13  C   UNL A   1      35.758  22.975  22.991  1.00  0.00     0.002 C 
ATOM     14  C   UNL A   1      36.359  22.761  24.385  1.00  0.00     0.000 C 
BRANCH   7  15
ATOM     15  C   UNL A   1      31.816  25.469  23.380  1.00  0.00     0.258 C 
ATOM     16  O   UNL A   1      31.236  24.596  22.732  1.00  0.00    -0.269 OA
BRANCH  15  17
ATOM     17  C   UNL A   1      31.564  26.882  23.085  1.00  0.00     0.081 A 
ATOM     18  C   UNL A   1      33.828  28.126  22.403  1.00  0.00     0.088 C 
ATOM     19  C   UNL A   1      32.392  27.927  22.689  1.00  0.00     0.113 A 
ATOM     20  O   UNL A   1      31.656  29.061  22.480  1.00  0.00    -0.469 OA
ATOM     21  C   UNL A   1      30.357  28.755  22.682  1.00  0.00     0.196 A 
ATOM     22  C   UNL A   1      30.240  27.442  23.048  1.00  0.00     0.056 A 
ENDBRANCH  15  17
ENDBRANCH   7  15
ENDBRANCH   4   6
ENDBRANCH   3   4
ENDBRANCH   2   3
ENDBRANCH   1   2
BRANCH   1  23
ATOM     23  O   UNL A   1      33.763  29.524  27.536  1.00  0.00    -0.458 OA
BRANCH  23  24
ATOM     24  C   UNL A   1      34.418  30.494  28.208  1.00  0.00     0.338 C 
ATOM     25  O   UNL A   1      33.940  31.532  28.648  1.00  0.00    -0.246 OA
BRANCH  24  26
ATOM     26  C   UNL A   1      35.842  30.138  28.363  1.00  0.00     0.060 A 
ATOM     27  C   UNL A   1      36.727  30.173  27.283  1.00  0.00     0.016 A 
ATOM     28  C   UNL A   1      36.286  29.686  29.608  1.00  0.00     0.016 A 
ATOM     29  C   UNL A   1      38.040  29.723  27.441  1.00  0.00     0.010 A 
ATOM     30  C   UNL A   1      37.624  29.321  29.782  1.00  0.00     0.010 A 
ATOM     31  C   UNL A   1      38.518  29.328  28.699  1.00  0.00    -0.014 A 
BRANCH  31  32
ATOM     32  C   UNL A   1      39.951  28.977  28.915  1.00  0.00     0.031 A 
ATOM     33  C   UNL A   1      40.937  30.010  29.395  1.00  0.00     0.074 A 
ATOM     34  C   UNL A   1      40.390  27.736  28.619  1.00  0.00     0.049 A 
ATOM     35  N   UNL A   1      42.246  29.966  29.393  1.00  0.00    -0.248 NA
ATOM     36  C   UNL A   1      40.381  31.260  29.936  1.00  0.00     0.031 C 
ATOM     37  C   UNL A   1      39.552  26.622  28.169  1.00  0.00     0.029 A 
ATOM     38  N   UNL A   1      41.657  27.203  28.641  1.00  0.00    -0.354 N 
ATOM     39  C   UNL A   1      42.671  31.199  29.877  1.00  0.00     0.074 A 
ATOM     40  C   UNL A   1      41.479  31.966  30.174  1.00  0.00     0.031 C 
ATOM     41  C   UNL A   1      40.316  25.536  27.993  1.00  0.00     0.029 A 
ATOM     42  C   UNL A   1      41.711  25.896  28.216  1.00  0.00     0.049 A 
ATOM     43  H   UNL A   1      42.450  27.708  28.932  1.00  0.00     0.167 HD
ATOM     44  C   UNL A   1      43.939  31.648  30.050  1.00  0.00     0.037 A 
ATOM     45  C   UNL A   1      42.759  25.087  27.971  1.00  0.00     0.037 A 
ATOM     46  C   UNL A   1      45.122  30.866  29.793  1.00  0.00     0.049 A 
ATOM     47  C   UNL A   1      44.153  25.617  28.129  1.00  0.00     0.074 A 
ATOM     48  C   UNL A   1      46.449  31.232  29.954  1.00  0.00     0.029 A 
ATOM     49  N   UNL A   1      45.125  29.558  29.335  1.00  0.00    -0.354 N 
ATOM     50  N   UNL A   1      44.538  26.807  28.520  1.00  0.00    -0.248 NA
ATOM     51  C   UNL A   1      45.252  24.707  27.780  1.00  0.00     0.031 C 
ATOM     52  C   UNL A   1      47.254  30.154  29.565  1.00  0.00     0.029 A 
ATOM     53  C   UNL A   1      46.428  29.106  29.193  1.00  0.00     0.049 A 
ATOM     54  H   UNL A   1      44.319  29.027  29.138  1.00  0.00     0.167 HD
ATOM     55  C   UNL A   1      45.926  26.792  28.459  1.00  0.00     0.074 A 
ATOM     56  C   UNL A   1      46.313  25.468  28.016  1.00  0.00     0.031 C 
ATOM     57  C   UNL A   1      46.799  27.791  28.738  1.00  0.00     0.037 A 
BRANCH  44  58
ATOM     58  C   UNL A   1      44.122  33.067  30.511  1.00  0.00     0.058 A 
ATOM     59  C   UNL A   1      44.196  34.137  29.609  1.00  0.00     0.135 A 
ATOM     60  C   UNL A   1      44.170  33.363  31.884  1.00  0.00     0.135 A 
ATOM     61  F   UNL A   1      44.168  33.909  28.286  1.00  0.00    -0.206 F 
ATOM     62  C   UNL A   1      44.331  35.452  30.048  1.00  0.00     0.059 A 
ATOM     63  C   UNL A   1      44.285  34.670  32.348  1.00  0.00     0.059 A 
ATOM     64  F   UNL A   1      44.101  32.375  32.790  1.00  0.00    -0.206 F 
ATOM     65  C   UNL A   1      44.378  35.708  31.421  1.00  0.00     0.060 A 
BRANCH  65  66
ATOM     66  S   UNL A   1      44.548  37.416  31.980  1.00  0.00     0.124 S 
ATOM     67  O   UNL A   1      45.975  37.483  32.276  1.00  0.00    -0.237 OA
ATOM     68  O   UNL A   1      44.107  38.175  30.815  1.00  0.00    -0.237 OA
ATOM     69  O   UNL A   1      43.663  37.483  33.139  1.00  0.00    -0.744 OA
ENDBRANCH  65  66
ENDBRANCH  44  58
BRANCH  45  70
ATOM     70  C   UNL A   1      42.514  23.702  27.495  1.00  0.00     0.058 A 
ATOM     71  C   UNL A   1      42.486  23.409  26.125  1.00  0.00     0.135 A 
ATOM     72  C   UNL A   1      42.366  22.638  28.399  1.00  0.00     0.135 A 
ATOM     73  F   UNL A   1      42.611  24.396  25.226  1.00  0.00    -0.206 F 
ATOM     74  C   UNL A   1      42.333  22.105  25.665  1.00  0.00     0.059 A 
ATOM     75  C   UNL A   1      42.236  21.324  27.963  1.00  0.00     0.059 A 
ATOM     76  F   UNL A   1      42.399  22.869  29.721  1.00  0.00    -0.206 F 
ATOM     77  C   UNL A   1      42.218  21.068  26.593  1.00  0.00     0.060 A 
BRANCH  77  78
ATOM     78  S   UNL A   1      42.123  19.367  25.995  1.00  0.00     0.124 S 
ATOM     79  O   UNL A   1      40.708  19.251  25.667  1.00  0.00    -0.237 OA
ATOM     80  O   UNL A   1      43.044  19.381  24.862  1.00  0.00    -0.237 OA
ATOM     81  O   UNL A   1      42.574  18.587  27.145  1.00  0.00    -0.744 OA
ENDBRANCH  77  78
ENDBRANCH  45  70
BRANCH  57  82
ATOM     82  C   UNL A   1      48.259  27.485  28.575  1.00  0.00     0.058 A 
ATOM     83  C   UNL A   1      48.900  27.629  27.336  1.00  0.00     0.135 A 
ATOM     84  C   UNL A   1      49.030  27.073  29.672  1.00  0.00     0.135 A 
ATOM     85  F   UNL A   1      48.201  28.011  26.254  1.00  0.00    -0.206 F 
ATOM     86  C   UNL A   1      50.256  27.358  27.185  1.00  0.00     0.059 A 
ATOM     87  C   UNL A   1      50.391  26.812  29.549  1.00  0.00     0.059 A 
ATOM     88  F   UNL A   1      48.462  26.925  30.880  1.00  0.00    -0.206 F 
ATOM     89  C   UNL A   1      50.992  26.948  28.297  1.00  0.00     0.060 A 
BRANCH  89  90
ATOM     90  S   UNL A   1      52.758  26.622  28.099  1.00  0.00     0.124 S 
ATOM     91  O   UNL A   1      53.252  27.930  27.683  1.00  0.00    -0.237 OA
ATOM     92  O   UNL A   1      53.151  26.190  29.436  1.00  0.00    -0.237 OA
ATOM     93  O   UNL A   1      52.796  25.581  27.075  1.00  0.00    -0.744 OA
ENDBRANCH  89  90
ENDBRANCH  57  82
ENDBRANCH  31  32
ENDBRANCH  24  26
ENDBRANCH  23  24
ENDBRANCH   1  23
TORSDOF 16
ENDMDL
MODEL 3
REMARK VINA RESULT:     -11.4      6.106     11.388
REMARK SMILES Cc1occc1C(=O)N1[C@@H](C(=O)OCCOC(=O)c2ccc(-c3c4nc(c(-c5c(F)cc(S(=O)(=O)[O-])cc5F)c5ccc([nH]5)c(-c5c(F)cc(S(=O)(=O)[O-])cc5F)c5nc(c(-c6c(F)cc(S(=O)(=O)[O-])cc6F)c6ccc3[nH]6)C=C5)C=C4)cc2)C[C@@H]2CCCC[C@H]21
REMARK SMILES IDX 15 1 14 2 13 3 11 4 12 5 10 6 9 7 91 8 85 9 86 10 90 11
REMARK SMILES IDX 87 12 89 13 88 14 7 15 8 16 6 17 1 18 2 19 3 20 4 21 5 22
REMARK SMILES IDX 16 23 17 24 18 25 19 26 20 27 84 28 21 29 83 30 22 31 23 32
REMARK SMILES IDX 24 33 77 34 25 35 82 36 76 37 78 38 26 39 81 40 75 41 74 42
REMARK SMILES IDX 27 44 61 45 40 46 60 47 41 48 44 49 59 50 79 51 42 52 43 53
REMARK SMILES IDX 58 55 80 56 45 57 28 58 29 59 38 60 30 61 31 62 37 63 39 64
REMARK SMILES IDX 32 65 33 66 34 67 35 68 36 69 62 70 63 71 72 72 64 73 65 74
REMARK SMILES IDX 71 75 73 76 66 77 67 78 68 79 69 80 70 81 46 82 47 83 56 84
REMARK SMILES IDX 48 85 49 86 55 87 57 88 50 89 51 90 52 91 53 92 54 93
REMARK H PARENT 78 43 44 54
REMARK Flexibility Score: inf
ROOT
ATOM      1  C   UNL A   1      43.685  25.604  24.903  1.00  0.00     0.275 C 
ENDROOT
BRANCH   1   2
ATOM      2  C   UNL A   1      45.077  25.762  25.497  1.00  0.00     0.274 C 
BRANCH   2   3
ATOM      3  O   UNL A   1      45.858  24.579  25.225  1.00  0.00    -0.461 OA
BRANCH   3   4
ATOM      4  C   UNL A   1      46.227  23.853  26.314  1.00  0.00     0.329 C 
ATOM      5  O   UNL A   1      47.338  23.904  26.835  1.00  0.00    -0.250 OA
BRANCH   4   6
ATOM      6  C   UNL A   1      45.160  22.846  26.762  1.00  0.00     0.196 C 
ATOM      7  N   UNL A   1      44.132  22.364  25.806  1.00  0.00    -0.321 N 
ATOM      8  C   UNL A   1      42.939  22.077  26.604  1.00  0.00     0.089 C 
ATOM      9  C   UNL A   1      44.367  23.376  27.980  1.00  0.00     0.043 C 
ATOM     10  C   UNL A   1      42.918  23.297  27.521  1.00  0.00     0.014 C 
ATOM     11  C   UNL A   1      41.570  21.847  25.983  1.00  0.00     0.025 C 
ATOM     12  C   UNL A   1      41.869  23.218  28.616  1.00  0.00     0.006 C 
ATOM     13  C   UNL A   1      40.495  21.751  27.077  1.00  0.00     0.002 C 
ATOM     14  C   UNL A   1      40.494  22.984  27.986  1.00  0.00     0.000 C 
BRANCH   7  15
ATOM     15  C   UNL A   1      44.575  21.519  24.796  1.00  0.00     0.258 C 
ATOM     16  O   UNL A   1      44.486  21.866  23.616  1.00  0.00    -0.269 OA
BRANCH  15  17
ATOM     17  C   UNL A   1      45.052  20.173  25.124  1.00  0.00     0.081 A 
ATOM     18  C   UNL A   1      42.999  18.539  25.627  1.00  0.00     0.088 C 
ATOM     19  C   UNL A   1      44.395  18.992  25.449  1.00  0.00     0.113 A 
ATOM     20  O   UNL A   1      45.298  17.977  25.614  1.00  0.00    -0.469 OA
ATOM     21  C   UNL A   1      46.525  18.468  25.347  1.00  0.00     0.196 A 
ATOM     22  C   UNL A   1      46.438  19.798  25.039  1.00  0.00     0.056 A 
ENDBRANCH  15  17
ENDBRANCH   7  15
ENDBRANCH   4   6
ENDBRANCH   3   4
ENDBRANCH   2   3
ENDBRANCH   1   2
BRANCH   1  23
ATOM     23  O   UNL A   1      42.877  26.705  25.350  1.00  0.00    -0.458 OA
BRANCH  23  24
ATOM     24  C   UNL A   1      41.663  26.370  25.838  1.00  0.00     0.338 C 
ATOM     25  O   UNL A   1      40.866  25.583  25.344  1.00  0.00    -0.246 OA
BRANCH  24  26
ATOM     26  C   UNL A   1      41.400  27.093  27.098  1.00  0.00     0.060 A 
ATOM     27  C   UNL A   1      42.101  28.253  27.435  1.00  0.00     0.016 A 
ATOM     28  C   UNL A   1      40.480  26.553  28.000  1.00  0.00     0.016 A 
ATOM     29  C   UNL A   1      41.907  28.848  28.684  1.00  0.00     0.010 A 
ATOM     30  C   UNL A   1      40.225  27.201  29.211  1.00  0.00     0.010 A 
ATOM     31  C   UNL A   1      40.939  28.356  29.573  1.00  0.00    -0.014 A 
BRANCH  31  32
ATOM     32  C   UNL A   1      40.621  29.058  30.849  1.00  0.00     0.031 A 
ATOM     33  C   UNL A   1      39.504  30.066  30.920  1.00  0.00     0.074 A 
ATOM     34  C   UNL A   1      41.380  28.838  31.943  1.00  0.00     0.049 A 
ATOM     35  N   UNL A   1      39.248  30.951  31.850  1.00  0.00    -0.248 NA
ATOM     36  C   UNL A   1      38.558  30.091  29.793  1.00  0.00     0.031 C 
ATOM     37  C   UNL A   1      42.480  27.874  32.036  1.00  0.00     0.029 A 
ATOM     38  N   UNL A   1      41.350  29.421  33.188  1.00  0.00    -0.354 N 
ATOM     39  C   UNL A   1      38.150  31.675  31.399  1.00  0.00     0.074 A 
ATOM     40  C   UNL A   1      37.781  31.117  30.114  1.00  0.00     0.031 C 
ATOM     41  C   UNL A   1      42.993  27.906  33.273  1.00  0.00     0.029 A 
ATOM     42  C   UNL A   1      42.332  28.961  34.033  1.00  0.00     0.049 A 
ATOM     43  H   UNL A   1      40.690  30.102  33.449  1.00  0.00     0.167 HD
ATOM     44  C   UNL A   1      37.516  32.713  31.999  1.00  0.00     0.037 A 
ATOM     45  C   UNL A   1      42.709  29.371  35.259  1.00  0.00     0.037 A 
ATOM     46  C   UNL A   1      37.861  33.237  33.296  1.00  0.00     0.049 A 
ATOM     47  C   UNL A   1      42.021  30.547  35.887  1.00  0.00     0.074 A 
ATOM     48  C   UNL A   1      37.265  34.277  33.992  1.00  0.00     0.029 A 
ATOM     49  N   UNL A   1      38.883  32.757  34.101  1.00  0.00    -0.354 N 
ATOM     50  N   UNL A   1      41.031  31.265  35.417  1.00  0.00    -0.248 NA
ATOM     51  C   UNL A   1      42.525  30.988  37.195  1.00  0.00     0.031 C 
ATOM     52  C   UNL A   1      37.946  34.444  35.204  1.00  0.00     0.029 A 
ATOM     53  C   UNL A   1      38.945  33.487  35.278  1.00  0.00     0.049 A 
ATOM     54  H   UNL A   1      39.479  32.008  33.869  1.00  0.00     0.167 HD
ATOM     55  C   UNL A   1      40.795  32.249  36.368  1.00  0.00     0.074 A 
ATOM     56  C   UNL A   1      41.731  32.020  37.451  1.00  0.00     0.031 C 
ATOM     57  C   UNL A   1      39.889  33.257  36.341  1.00  0.00     0.037 A 
BRANCH  44  58
ATOM     58  C   UNL A   1      36.398  33.380  31.247  1.00  0.00     0.058 A 
ATOM     59  C   UNL A   1      35.064  33.293  31.669  1.00  0.00     0.135 A 
ATOM     60  C   UNL A   1      36.678  34.163  30.114  1.00  0.00     0.135 A 
ATOM     61  F   UNL A   1      34.741  32.546  32.738  1.00  0.00    -0.206 F 
ATOM     62  C   UNL A   1      34.041  33.943  30.985  1.00  0.00     0.059 A 
ATOM     63  C   UNL A   1      35.674  34.837  29.425  1.00  0.00     0.059 A 
ATOM     64  F   UNL A   1      37.938  34.281  29.670  1.00  0.00    -0.206 F 
ATOM     65  C   UNL A   1      34.356  34.711  29.861  1.00  0.00     0.060 A 
BRANCH  65  66
ATOM     66  S   UNL A   1      33.021  35.554  28.984  1.00  0.00     0.124 S 
ATOM     67  O   UNL A   1      32.434  34.454  28.226  1.00  0.00    -0.237 OA
ATOM     68  O   UNL A   1      32.207  36.076  30.075  1.00  0.00    -0.237 OA
ATOM     69  O   UNL A   1      33.721  36.560  28.190  1.00  0.00    -0.744 OA
ENDBRANCH  65  66
ENDBRANCH  44  58
BRANCH  45  70
ATOM     70  C   UNL A   1      43.836  28.686  35.942  1.00  0.00     0.058 A 
ATOM     71  C   UNL A   1      43.608  27.563  36.749  1.00  0.00     0.135 A 
ATOM     72  C   UNL A   1      45.163  29.103  35.752  1.00  0.00     0.135 A 
ATOM     73  F   UNL A   1      42.356  27.138  36.969  1.00  0.00    -0.206 F 
ATOM     74  C   UNL A   1      44.661  26.867  37.335  1.00  0.00     0.059 A 
ATOM     75  C   UNL A   1      46.231  28.408  36.308  1.00  0.00     0.059 A 
ATOM     76  F   UNL A   1      45.430  30.166  34.978  1.00  0.00    -0.206 F 
ATOM     77  C   UNL A   1      45.969  27.291  37.100  1.00  0.00     0.060 A 
BRANCH  77  78
ATOM     78  S   UNL A   1      47.337  26.325  37.776  1.00  0.00     0.124 S 
ATOM     79  O   UNL A   1      47.128  26.486  39.209  1.00  0.00    -0.237 OA
ATOM     80  O   UNL A   1      47.076  24.994  37.237  1.00  0.00    -0.237 OA
ATOM     81  O   UNL A   1      48.515  26.991  37.227  1.00  0.00    -0.744 OA
ENDBRANCH  77  78
ENDBRANCH  45  70
BRANCH  57  82
ATOM     82  C   UNL A   1      39.865  34.184  37.521  1.00  0.00     0.058 A 
ATOM     83  C   UNL A   1      40.579  35.392  37.514  1.00  0.00     0.135 A 
ATOM     84  C   UNL A   1      39.099  33.877  38.656  1.00  0.00     0.135 A 
ATOM     85  F   UNL A   1      41.335  35.723  36.454  1.00  0.00    -0.206 F 
ATOM     86  C   UNL A   1      40.549  36.258  38.601  1.00  0.00     0.059 A 
ATOM     87  C   UNL A   1      39.041  34.736  39.748  1.00  0.00     0.059 A 
ATOM     88  F   UNL A   1      38.396  32.735  38.708  1.00  0.00    -0.206 F 
ATOM     89  C   UNL A   1      39.778  35.921  39.715  1.00  0.00     0.060 A 
BRANCH  89  90
ATOM     90  S   UNL A   1      39.724  37.063  41.113  1.00  0.00     0.124 S 
ATOM     91  O   UNL A   1      38.948  38.168  40.558  1.00  0.00    -0.237 OA
ATOM     92  O   UNL A   1      39.055  36.272  42.141  1.00  0.00    -0.237 OA
ATOM     93  O   UNL A   1      41.132  37.350  41.369  1.00  0.00    -0.744 OA
ENDBRANCH  89  90
ENDBRANCH  57  82
ENDBRANCH  31  32
ENDBRANCH  24  26
ENDBRANCH  23  24
ENDBRANCH   1  23
TORSDOF 16
ENDMDL
