MODEL 1
REMARK VINA RESULT:     -12.5      0.000      0.000
REMARK SMILES O=C(OCCOC(=O)[C@H]1CN(C(=O)C[C@H]2NC(=O)c3ccccc32)C[C@@H]1c1ccc(F)cc1)c1ccc(-c2c3nc(c(-c4c(F)cc(S(=O)(=O)[O-])cc4F)c4ccc([nH]4)c(-c4c(F)cc(S(=O)(=O)[O-])cc4F)c4nc(c(-c5c(F)cc(S(=O)(=O)[O-])cc5F)c5ccc2[nH]5)C=C4)C=C3)cc1
REMARK SMILES IDX 4 1 3 2 2 3 1 4 34 5 35 6 99 7 36 8 98 9 37 10 38 11 39 12
REMARK SMILES IDX 92 13 40 14 97 15 91 16 93 17 41 18 96 19 90 20 89 21 42 23
REMARK SMILES IDX 76 24 55 25 75 26 56 27 59 28 74 29 94 30 57 31 58 32 73 34
REMARK SMILES IDX 95 35 60 36 43 37 44 38 53 39 45 40 46 41 52 42 54 43 47 44
REMARK SMILES IDX 48 45 49 46 50 47 51 48 77 49 78 50 87 51 79 52 80 53 86 54
REMARK SMILES IDX 88 55 81 56 82 57 83 58 84 59 85 60 61 61 62 62 71 63 63 64
REMARK SMILES IDX 64 65 70 66 72 67 65 68 66 69 67 70 68 71 69 72 5 73 6 74
REMARK SMILES IDX 7 75 8 76 9 77 10 78 26 79 11 80 25 81 27 82 28 83 33 84
REMARK SMILES IDX 29 85 32 86 30 87 31 88 12 89 13 90 14 91 15 92 16 93 24 94
REMARK SMILES IDX 17 95 19 97 23 98 18 99 20 100 22 101 21 102
REMARK H PARENT 93 22 59 33 16 96
REMARK Flexibility Score: inf
ROOT
ATOM      1  C   UNL A   1      33.657  30.020  27.080  1.00  0.00     0.275 C 
ENDROOT
BRANCH   1   2
ATOM      2  O   UNL A   1      33.879  31.004  28.096  1.00  0.00    -0.458 OA
BRANCH   2   3
ATOM      3  C   UNL A   1      34.936  31.154  28.926  1.00  0.00     0.338 C 
ATOM      4  O   UNL A   1      34.900  32.074  29.742  1.00  0.00    -0.246 OA
BRANCH   3   5
ATOM      5  C   UNL A   1      36.214  30.368  28.813  1.00  0.00     0.060 A 
ATOM      6  C   UNL A   1      37.011  30.195  27.674  1.00  0.00     0.016 A 
ATOM      7  C   UNL A   1      36.731  29.896  30.026  1.00  0.00     0.016 A 
ATOM      8  C   UNL A   1      38.347  29.783  27.759  1.00  0.00     0.010 A 
ATOM      9  C   UNL A   1      38.071  29.509  30.115  1.00  0.00     0.010 A 
ATOM     10  C   UNL A   1      38.915  29.496  28.990  1.00  0.00    -0.014 A 
BRANCH  10  11
ATOM     11  C   UNL A   1      40.316  29.007  29.099  1.00  0.00     0.031 A 
ATOM     12  C   UNL A   1      41.331  30.010  29.564  1.00  0.00     0.074 A 
ATOM     13  C   UNL A   1      40.696  27.745  28.793  1.00  0.00     0.049 A 
ATOM     14  N   UNL A   1      42.633  29.932  29.584  1.00  0.00    -0.248 NA
ATOM     15  C   UNL A   1      40.804  31.312  30.020  1.00  0.00     0.031 C 
ATOM     16  C   UNL A   1      39.818  26.660  28.342  1.00  0.00     0.029 A 
ATOM     17  N   UNL A   1      41.943  27.160  28.792  1.00  0.00    -0.354 N 
ATOM     18  C   UNL A   1      43.053  31.173  30.034  1.00  0.00     0.074 A 
ATOM     19  C   UNL A   1      41.902  32.037  30.090  1.00  0.00     0.031 C 
ATOM     20  C   UNL A   1      40.555  25.564  28.075  1.00  0.00     0.029 A 
ATOM     21  C   UNL A   1      41.959  25.854  28.345  1.00  0.00     0.049 A 
ATOM     22  H   UNL A   1      42.754  27.634  29.086  1.00  0.00     0.167 HD
ATOM     23  C   UNL A   1      44.267  31.536  30.499  1.00  0.00     0.037 A 
ATOM     24  C   UNL A   1      42.991  24.998  28.178  1.00  0.00     0.037 A 
ATOM     25  C   UNL A   1      45.379  30.641  30.561  1.00  0.00     0.049 A 
ATOM     26  C   UNL A   1      44.368  25.447  28.611  1.00  0.00     0.074 A 
ATOM     27  C   UNL A   1      46.637  30.877  31.075  1.00  0.00     0.029 A 
ATOM     28  N   UNL A   1      45.353  29.329  30.113  1.00  0.00    -0.354 N 
ATOM     29  N   UNL A   1      44.735  26.604  29.111  1.00  0.00    -0.248 NA
ATOM     30  C   UNL A   1      45.463  24.471  28.499  1.00  0.00     0.031 C 
ATOM     31  C   UNL A   1      47.390  29.714  30.899  1.00  0.00     0.029 A 
ATOM     32  C   UNL A   1      46.583  28.742  30.324  1.00  0.00     0.049 A 
ATOM     33  H   UNL A   1      44.575  28.885  29.707  1.00  0.00     0.167 HD
ATOM     34  C   UNL A   1      46.085  26.477  29.422  1.00  0.00     0.074 A 
ATOM     35  C   UNL A   1      46.474  25.134  29.047  1.00  0.00     0.031 C 
ATOM     36  C   UNL A   1      46.926  27.386  29.977  1.00  0.00     0.037 A 
BRANCH  23  37
ATOM     37  C   UNL A   1      44.394  32.926  31.042  1.00  0.00     0.058 A 
ATOM     38  C   UNL A   1      44.153  33.186  32.396  1.00  0.00     0.135 A 
ATOM     39  C   UNL A   1      44.799  33.998  30.222  1.00  0.00     0.135 A 
ATOM     40  F   UNL A   1      43.786  32.194  33.222  1.00  0.00    -0.206 F 
ATOM     41  C   UNL A   1      44.309  34.462  32.923  1.00  0.00     0.059 A 
ATOM     42  C   UNL A   1      44.997  35.272  30.737  1.00  0.00     0.059 A 
ATOM     43  F   UNL A   1      45.085  33.788  28.927  1.00  0.00    -0.206 F 
ATOM     44  C   UNL A   1      44.736  35.496  32.087  1.00  0.00     0.060 A 
BRANCH  44  45
ATOM     45  S   UNL A   1      44.981  37.135  32.799  1.00  0.00     0.124 S 
ATOM     46  O   UNL A   1      46.376  37.396  32.466  1.00  0.00    -0.237 OA
ATOM     47  O   UNL A   1      43.991  37.931  32.081  1.00  0.00    -0.237 OA
ATOM     48  O   UNL A   1      44.699  36.932  34.218  1.00  0.00    -0.744 OA
ENDBRANCH  44  45
ENDBRANCH  23  37
BRANCH  24  49
ATOM     49  C   UNL A   1      42.777  23.617  27.645  1.00  0.00     0.058 A 
ATOM     50  C   UNL A   1      42.511  22.531  28.495  1.00  0.00     0.135 A 
ATOM     51  C   UNL A   1      42.802  23.360  26.265  1.00  0.00     0.135 A 
ATOM     52  F   UNL A   1      42.473  22.710  29.823  1.00  0.00    -0.206 F 
ATOM     53  C   UNL A   1      42.284  21.246  27.998  1.00  0.00     0.059 A 
ATOM     54  C   UNL A   1      42.557  22.089  25.743  1.00  0.00     0.059 A 
ATOM     55  F   UNL A   1      43.034  24.362  25.404  1.00  0.00    -0.206 F 
ATOM     56  C   UNL A   1      42.307  21.035  26.619  1.00  0.00     0.060 A 
BRANCH  56  57
ATOM     57  S   UNL A   1      42.008  19.365  25.991  1.00  0.00     0.124 S 
ATOM     58  O   UNL A   1      42.407  18.545  27.130  1.00  0.00    -0.237 OA
ATOM     59  O   UNL A   1      40.579  19.399  25.700  1.00  0.00    -0.237 OA
ATOM     60  O   UNL A   1      42.881  19.280  24.825  1.00  0.00    -0.744 OA
ENDBRANCH  56  57
ENDBRANCH  24  49
BRANCH  36  61
ATOM     61  C   UNL A   1      48.336  26.966  30.272  1.00  0.00     0.058 A 
ATOM     62  C   UNL A   1      48.662  26.444  31.535  1.00  0.00     0.135 A 
ATOM     63  C   UNL A   1      49.381  27.238  29.379  1.00  0.00     0.135 A 
ATOM     64  F   UNL A   1      47.695  26.180  32.430  1.00  0.00    -0.206 F 
ATOM     65  C   UNL A   1      49.982  26.252  31.921  1.00  0.00     0.059 A 
ATOM     66  C   UNL A   1      50.709  27.021  29.732  1.00  0.00     0.059 A 
ATOM     67  F   UNL A   1      49.117  27.730  28.158  1.00  0.00    -0.206 F 
ATOM     68  C   UNL A   1      50.999  26.555  31.015  1.00  0.00     0.060 A 
BRANCH  68  69
ATOM     69  S   UNL A   1      52.709  26.340  31.549  1.00  0.00     0.124 S 
ATOM     70  O   UNL A   1      52.660  25.029  32.186  1.00  0.00    -0.237 OA
ATOM     71  O   UNL A   1      53.435  26.406  30.285  1.00  0.00    -0.237 OA
ATOM     72  O   UNL A   1      52.927  27.468  32.450  1.00  0.00    -0.744 OA
ENDBRANCH  68  69
ENDBRANCH  36  61
ENDBRANCH  10  11
ENDBRANCH   3   5
ENDBRANCH   2   3
ENDBRANCH   1   2
BRANCH   1  73
ATOM     73  C   UNL A   1      32.179  29.667  26.844  1.00  0.00     0.274 C 
BRANCH  73  74
ATOM     74  O   UNL A   1      31.918  28.322  26.379  1.00  0.00    -0.462 OA
BRANCH  74  75
ATOM     75  C   UNL A   1      32.390  28.029  25.133  1.00  0.00     0.311 C 
ATOM     76  O   UNL A   1      33.261  27.189  24.938  1.00  0.00    -0.252 OA
BRANCH  75  77
ATOM     77  C   UNL A   1      31.785  28.926  24.043  1.00  0.00     0.128 C 
ATOM     78  C   UNL A   1      32.295  28.373  22.730  1.00  0.00     0.135 C 
ATOM     79  C   UNL A   1      30.262  28.795  23.831  1.00  0.00     0.055 C 
ATOM     80  N   UNL A   1      31.361  27.282  22.413  1.00  0.00    -0.341 N 
ATOM     81  C   UNL A   1      30.102  27.470  23.090  1.00  0.00     0.128 C 
BRANCH  79  82
ATOM     82  C   UNL A   1      29.464  29.892  23.122  1.00  0.00    -0.042 A 
ATOM     83  C   UNL A   1      29.284  31.124  23.795  1.00  0.00     0.007 A 
ATOM     84  C   UNL A   1      28.930  29.780  21.832  1.00  0.00     0.007 A 
ATOM     85  C   UNL A   1      28.665  32.216  23.183  1.00  0.00     0.039 A 
ATOM     86  C   UNL A   1      28.297  30.875  21.221  1.00  0.00     0.039 A 
ATOM     87  C   UNL A   1      28.185  32.084  21.893  1.00  0.00     0.123 A 
ATOM     88  F   UNL A   1      27.599  33.129  21.296  1.00  0.00    -0.207 F 
ENDBRANCH  79  82
BRANCH  80  89
ATOM     89  C   UNL A   1      31.598  26.082  21.789  1.00  0.00     0.225 C 
ATOM     90  O   UNL A   1      31.735  25.980  20.568  1.00  0.00    -0.275 OA
BRANCH  89  91
ATOM     91  C   UNL A   1      31.724  24.874  22.662  1.00  0.00     0.130 C 
BRANCH  91  92
ATOM     92  C   UNL A   1      33.058  24.177  22.400  1.00  0.00     0.123 C 
ATOM     93  N   UNL A   1      34.143  24.675  23.221  1.00  0.00    -0.345 N 
ATOM     94  C   UNL A   1      32.958  22.765  22.891  1.00  0.00    -0.012 A 
ATOM     95  C   UNL A   1      34.448  23.857  24.284  1.00  0.00     0.252 C 
ATOM     96  H   UNL A   1      34.617  25.517  23.034  1.00  0.00     0.164 HD
ATOM     97  C   UNL A   1      33.726  22.607  24.048  1.00  0.00     0.045 A 
ATOM     98  C   UNL A   1      32.208  21.715  22.397  1.00  0.00     0.007 A 
ATOM     99  O   UNL A   1      35.155  24.122  25.229  1.00  0.00    -0.269 OA
ATOM    100  C   UNL A   1      33.769  21.431  24.764  1.00  0.00     0.014 A 
ATOM    101  C   UNL A   1      32.254  20.503  23.091  1.00  0.00     0.000 A 
ATOM    102  C   UNL A   1      33.021  20.364  24.265  1.00  0.00     0.001 A 
ENDBRANCH  91  92
ENDBRANCH  89  91
ENDBRANCH  80  89
ENDBRANCH  75  77
ENDBRANCH  74  75
ENDBRANCH  73  74
ENDBRANCH   1  73
TORSDOF 18
ENDMDL
MODEL 2
REMARK VINA RESULT:     -12.5      2.071      4.508
REMARK SMILES O=C(OCCOC(=O)[C@H]1CN(C(=O)C[C@H]2NC(=O)c3ccccc32)C[C@@H]1c1ccc(F)cc1)c1ccc(-c2c3nc(c(-c4c(F)cc(S(=O)(=O)[O-])cc4F)c4ccc([nH]4)c(-c4c(F)cc(S(=O)(=O)[O-])cc4F)c4nc(c(-c5c(F)cc(S(=O)(=O)[O-])cc5F)c5ccc2[nH]5)C=C4)C=C3)cc1
REMARK SMILES IDX 4 1 3 2 2 3 1 4 34 5 35 6 99 7 36 8 98 9 37 10 38 11 39 12
REMARK SMILES IDX 92 13 40 14 97 15 91 16 93 17 41 18 96 19 90 20 89 21 42 23
REMARK SMILES IDX 76 24 55 25 75 26 56 27 59 28 74 29 94 30 57 31 58 32 73 34
REMARK SMILES IDX 95 35 60 36 43 37 44 38 53 39 45 40 46 41 52 42 54 43 47 44
REMARK SMILES IDX 48 45 49 46 50 47 51 48 77 49 78 50 87 51 79 52 80 53 86 54
REMARK SMILES IDX 88 55 81 56 82 57 83 58 84 59 85 60 61 61 62 62 71 63 63 64
REMARK SMILES IDX 64 65 70 66 72 67 65 68 66 69 67 70 68 71 69 72 5 73 6 74
REMARK SMILES IDX 7 75 8 76 9 77 10 78 26 79 11 80 25 81 27 82 28 83 33 84
REMARK SMILES IDX 29 85 32 86 30 87 31 88 12 89 13 90 14 91 15 92 16 93 24 94
REMARK SMILES IDX 17 95 19 97 23 98 18 99 20 100 22 101 21 102
REMARK H PARENT 93 22 59 33 16 96
REMARK Flexibility Score: inf
ROOT
ATOM      1  C   UNL A   1      32.918  29.989  27.106  1.00  0.00     0.275 C 
ENDROOT
BRANCH   1   2
ATOM      2  O   UNL A   1      33.685  31.097  27.589  1.00  0.00    -0.458 OA
BRANCH   2   3
ATOM      3  C   UNL A   1      34.621  31.129  28.564  1.00  0.00     0.338 C 
ATOM      4  O   UNL A   1      34.476  31.945  29.474  1.00  0.00    -0.246 OA
BRANCH   3   5
ATOM      5  C   UNL A   1      35.904  30.344  28.527  1.00  0.00     0.060 A 
ATOM      6  C   UNL A   1      36.744  30.134  27.426  1.00  0.00     0.016 A 
ATOM      7  C   UNL A   1      36.376  29.915  29.774  1.00  0.00     0.016 A 
ATOM      8  C   UNL A   1      38.077  29.729  27.576  1.00  0.00     0.010 A 
ATOM      9  C   UNL A   1      37.711  29.535  29.928  1.00  0.00     0.010 A 
ATOM     10  C   UNL A   1      38.598  29.486  28.837  1.00  0.00    -0.014 A 
BRANCH  10  11
ATOM     11  C   UNL A   1      39.994  29.005  29.016  1.00  0.00     0.031 A 
ATOM     12  C   UNL A   1      40.977  30.011  29.540  1.00  0.00     0.074 A 
ATOM     13  C   UNL A   1      40.398  27.748  28.722  1.00  0.00     0.049 A 
ATOM     14  N   UNL A   1      42.276  29.941  29.628  1.00  0.00    -0.248 NA
ATOM     15  C   UNL A   1      40.418  31.306  29.977  1.00  0.00     0.031 C 
ATOM     16  C   UNL A   1      39.552  26.661  28.218  1.00  0.00     0.029 A 
ATOM     17  N   UNL A   1      41.648  27.171  28.782  1.00  0.00    -0.354 N 
ATOM     18  C   UNL A   1      42.665  31.181  30.109  1.00  0.00     0.074 A 
ATOM     19  C   UNL A   1      41.506  32.038  30.109  1.00  0.00     0.031 C 
ATOM     20  C   UNL A   1      40.309  25.571  27.982  1.00  0.00     0.029 A 
ATOM     21  C   UNL A   1      41.695  25.868  28.327  1.00  0.00     0.049 A 
ATOM     22  H   UNL A   1      42.439  27.647  29.122  1.00  0.00     0.167 HD
ATOM     23  C   UNL A   1      43.849  31.549  30.638  1.00  0.00     0.037 A 
ATOM     24  C   UNL A   1      42.740  25.020  28.210  1.00  0.00     0.037 A 
ATOM     25  C   UNL A   1      44.963  30.660  30.753  1.00  0.00     0.049 A 
ATOM     26  C   UNL A   1      44.090  25.474  28.718  1.00  0.00     0.074 A 
ATOM     27  C   UNL A   1      46.191  30.900  31.334  1.00  0.00     0.029 A 
ATOM     28  N   UNL A   1      44.969  29.352  30.295  1.00  0.00    -0.354 N 
ATOM     29  N   UNL A   1      44.422  26.630  29.244  1.00  0.00    -0.248 NA
ATOM     30  C   UNL A   1      45.196  24.506  28.656  1.00  0.00     0.031 C 
ATOM     31  C   UNL A   1      46.960  29.744  31.190  1.00  0.00     0.029 A 
ATOM     32  C   UNL A   1      46.190  28.771  30.567  1.00  0.00     0.049 A 
ATOM     33  H   UNL A   1      44.216  28.906  29.846  1.00  0.00     0.167 HD
ATOM     34  C   UNL A   1      45.755  26.509  29.625  1.00  0.00     0.074 A 
ATOM     35  C   UNL A   1      46.172  25.171  29.262  1.00  0.00     0.031 C 
ATOM     36  C   UNL A   1      46.560  27.419  30.229  1.00  0.00     0.037 A 
BRANCH  23  37
ATOM     37  C   UNL A   1      43.938  32.936  31.197  1.00  0.00     0.058 A 
ATOM     38  C   UNL A   1      43.597  33.189  32.530  1.00  0.00     0.135 A 
ATOM     39  C   UNL A   1      44.407  34.010  30.416  1.00  0.00     0.135 A 
ATOM     40  F   UNL A   1      43.166  32.195  33.321  1.00  0.00    -0.206 F 
ATOM     41  C   UNL A   1      43.716  34.462  33.075  1.00  0.00     0.059 A 
ATOM     42  C   UNL A   1      44.569  35.281  30.951  1.00  0.00     0.059 A 
ATOM     43  F   UNL A   1      44.789  33.806  29.145  1.00  0.00    -0.206 F 
ATOM     44  C   UNL A   1      44.207  35.500  32.278  1.00  0.00     0.060 A 
BRANCH  44  45
ATOM     45  S   UNL A   1      44.402  37.134  33.016  1.00  0.00     0.124 S 
ATOM     46  O   UNL A   1      44.141  38.005  31.877  1.00  0.00    -0.237 OA
ATOM     47  O   UNL A   1      43.382  37.120  34.060  1.00  0.00    -0.237 OA
ATOM     48  O   UNL A   1      45.781  37.124  33.499  1.00  0.00    -0.744 OA
ENDBRANCH  44  45
ENDBRANCH  23  37
BRANCH  24  49
ATOM     49  C   UNL A   1      42.564  23.642  27.657  1.00  0.00     0.058 A 
ATOM     50  C   UNL A   1      42.601  23.390  26.276  1.00  0.00     0.135 A 
ATOM     51  C   UNL A   1      42.389  22.536  28.504  1.00  0.00     0.135 A 
ATOM     52  F   UNL A   1      42.767  24.402  25.412  1.00  0.00    -0.206 F 
ATOM     53  C   UNL A   1      42.465  22.100  25.758  1.00  0.00     0.059 A 
ATOM     54  C   UNL A   1      42.272  21.235  28.013  1.00  0.00     0.059 A 
ATOM     55  F   UNL A   1      42.363  22.713  29.834  1.00  0.00    -0.206 F 
ATOM     56  C   UNL A   1      42.302  21.028  26.636  1.00  0.00     0.060 A 
BRANCH  56  57
ATOM     57  S   UNL A   1      42.130  19.362  25.950  1.00  0.00     0.124 S 
ATOM     58  O   UNL A   1      42.973  19.445  24.761  1.00  0.00    -0.237 OA
ATOM     59  O   UNL A   1      42.638  18.531  27.035  1.00  0.00    -0.237 OA
ATOM     60  O   UNL A   1      40.698  19.249  25.693  1.00  0.00    -0.744 OA
ENDBRANCH  56  57
ENDBRANCH  24  49
BRANCH  36  61
ATOM     61  C   UNL A   1      47.955  27.006  30.595  1.00  0.00     0.058 A 
ATOM     62  C   UNL A   1      48.207  26.423  31.848  1.00  0.00     0.135 A 
ATOM     63  C   UNL A   1      49.051  27.341  29.789  1.00  0.00     0.135 A 
ATOM     64  F   UNL A   1      47.189  26.096  32.661  1.00  0.00    -0.206 F 
ATOM     65  C   UNL A   1      49.502  26.231  32.310  1.00  0.00     0.059 A 
ATOM     66  C   UNL A   1      50.357  27.127  30.217  1.00  0.00     0.059 A 
ATOM     67  F   UNL A   1      48.859  27.894  28.581  1.00  0.00    -0.206 F 
ATOM     68  C   UNL A   1      50.571  26.597  31.491  1.00  0.00     0.060 A 
BRANCH  68  69
ATOM     69  S   UNL A   1      52.246  26.381  32.126  1.00  0.00     0.124 S 
ATOM     70  O   UNL A   1      52.593  27.741  32.523  1.00  0.00    -0.237 OA
ATOM     71  O   UNL A   1      52.039  25.434  33.217  1.00  0.00    -0.237 OA
ATOM     72  O   UNL A   1      52.978  25.855  30.978  1.00  0.00    -0.744 OA
ENDBRANCH  68  69
ENDBRANCH  36  61
ENDBRANCH  10  11
ENDBRANCH   3   5
ENDBRANCH   2   3
ENDBRANCH   1   2
BRANCH   1  73
ATOM     73  C   UNL A   1      33.402  29.413  25.765  1.00  0.00     0.274 C 
BRANCH  73  74
ATOM     74  O   UNL A   1      32.982  28.059  25.472  1.00  0.00    -0.462 OA
BRANCH  74  75
ATOM     75  C   UNL A   1      33.764  27.382  24.582  1.00  0.00     0.311 C 
ATOM     76  O   UNL A   1      34.024  27.817  23.466  1.00  0.00    -0.252 OA
BRANCH  75  77
ATOM     77  C   UNL A   1      34.187  25.998  25.097  1.00  0.00     0.128 C 
ATOM     78  C   UNL A   1      33.134  25.601  26.110  1.00  0.00     0.135 C 
ATOM     79  C   UNL A   1      34.060  24.836  24.089  1.00  0.00     0.055 C 
ATOM     80  N   UNL A   1      32.055  25.018  25.297  1.00  0.00    -0.341 N 
ATOM     81  C   UNL A   1      32.559  24.560  24.026  1.00  0.00     0.128 C 
BRANCH  79  82
ATOM     82  C   UNL A   1      34.826  23.526  24.291  1.00  0.00    -0.042 A 
ATOM     83  C   UNL A   1      36.224  23.600  24.500  1.00  0.00     0.007 A 
ATOM     84  C   UNL A   1      34.237  22.256  24.323  1.00  0.00     0.007 A 
ATOM     85  C   UNL A   1      36.986  22.468  24.800  1.00  0.00     0.039 A 
ATOM     86  C   UNL A   1      35.005  21.117  24.614  1.00  0.00     0.039 A 
ATOM     87  C   UNL A   1      36.365  21.234  24.865  1.00  0.00     0.123 A 
ATOM     88  F   UNL A   1      37.087  20.146  25.161  1.00  0.00    -0.207 F 
ENDBRANCH  79  82
BRANCH  80  89
ATOM     89  C   UNL A   1      30.696  25.063  25.486  1.00  0.00     0.225 C 
ATOM     90  O   UNL A   1      30.047  24.097  25.889  1.00  0.00    -0.275 OA
BRANCH  89  91
ATOM     91  C   UNL A   1      30.014  26.367  25.216  1.00  0.00     0.130 C 
BRANCH  91  92
ATOM     92  C   UNL A   1      29.311  26.318  23.862  1.00  0.00     0.123 C 
ATOM     93  N   UNL A   1      27.867  26.385  23.955  1.00  0.00    -0.345 N 
ATOM     94  C   UNL A   1      29.605  27.592  23.130  1.00  0.00    -0.012 A 
ATOM     95  C   UNL A   1      27.353  27.626  23.662  1.00  0.00     0.252 C 
ATOM     96  H   UNL A   1      27.307  25.614  24.204  1.00  0.00     0.164 HD
ATOM     97  C   UNL A   1      28.458  28.390  23.083  1.00  0.00     0.045 A 
ATOM     98  C   UNL A   1      30.797  28.043  22.598  1.00  0.00     0.007 A 
ATOM     99  O   UNL A   1      26.224  28.014  23.857  1.00  0.00    -0.269 OA
ATOM    100  C   UNL A   1      28.447  29.654  22.535  1.00  0.00     0.014 A 
ATOM    101  C   UNL A   1      30.807  29.312  22.013  1.00  0.00     0.000 A 
ATOM    102  C   UNL A   1      29.646  30.112  21.986  1.00  0.00     0.001 A 
ENDBRANCH  91  92
ENDBRANCH  89  91
ENDBRANCH  80  89
ENDBRANCH  75  77
ENDBRANCH  74  75
ENDBRANCH  73  74
ENDBRANCH   1  73
TORSDOF 18
ENDMDL
MODEL 3
REMARK VINA RESULT:     -12.3      5.101     11.020
REMARK SMILES O=C(OCCOC(=O)[C@H]1CN(C(=O)C[C@H]2NC(=O)c3ccccc32)C[C@@H]1c1ccc(F)cc1)c1ccc(-c2c3nc(c(-c4c(F)cc(S(=O)(=O)[O-])cc4F)c4ccc([nH]4)c(-c4c(F)cc(S(=O)(=O)[O-])cc4F)c4nc(c(-c5c(F)cc(S(=O)(=O)[O-])cc5F)c5ccc2[nH]5)C=C4)C=C3)cc1
REMARK SMILES IDX 4 1 3 2 2 3 1 4 34 5 35 6 99 7 36 8 98 9 37 10 38 11 39 12
REMARK SMILES IDX 92 13 40 14 97 15 91 16 93 17 41 18 96 19 90 20 89 21 42 23
REMARK SMILES IDX 76 24 55 25 75 26 56 27 59 28 74 29 94 30 57 31 58 32 73 34
REMARK SMILES IDX 95 35 60 36 43 37 44 38 53 39 45 40 46 41 52 42 54 43 47 44
REMARK SMILES IDX 48 45 49 46 50 47 51 48 77 49 78 50 87 51 79 52 80 53 86 54
REMARK SMILES IDX 88 55 81 56 82 57 83 58 84 59 85 60 61 61 62 62 71 63 63 64
REMARK SMILES IDX 64 65 70 66 72 67 65 68 66 69 67 70 68 71 69 72 5 73 6 74
REMARK SMILES IDX 7 75 8 76 9 77 10 78 26 79 11 80 25 81 27 82 28 83 33 84
REMARK SMILES IDX 29 85 32 86 30 87 31 88 12 89 13 90 14 91 15 92 16 93 24 94
REMARK SMILES IDX 17 95 19 97 23 98 18 99 20 100 22 101 21 102
REMARK H PARENT 93 22 59 33 16 96
REMARK Flexibility Score: inf
ROOT
ATOM      1  C   UNL A   1      39.167  22.540  26.280  1.00  0.00     0.275 C 
ENDROOT
BRANCH   1   2
ATOM      2  O   UNL A   1      40.188  23.021  27.161  1.00  0.00    -0.458 OA
BRANCH   2   3
ATOM      3  C   UNL A   1      40.846  24.201  27.145  1.00  0.00     0.338 C 
ATOM      4  O   UNL A   1      41.928  24.249  26.560  1.00  0.00    -0.246 OA
BRANCH   3   5
ATOM      5  C   UNL A   1      40.419  25.415  27.926  1.00  0.00     0.060 A 
ATOM      6  C   UNL A   1      39.275  25.558  28.721  1.00  0.00     0.016 A 
ATOM      7  C   UNL A   1      41.361  26.450  27.979  1.00  0.00     0.016 A 
ATOM      8  C   UNL A   1      39.167  26.562  29.692  1.00  0.00     0.010 A 
ATOM      9  C   UNL A   1      41.266  27.437  28.964  1.00  0.00     0.010 A 
ATOM     10  C   UNL A   1      40.192  27.477  29.871  1.00  0.00    -0.014 A 
BRANCH  10  11
ATOM     11  C   UNL A   1      40.076  28.583  30.860  1.00  0.00     0.031 A 
ATOM     12  C   UNL A   1      40.940  28.468  32.082  1.00  0.00     0.074 A 
ATOM     13  C   UNL A   1      39.244  29.639  30.711  1.00  0.00     0.049 A 
ATOM     14  N   UNL A   1      40.926  29.168  33.182  1.00  0.00    -0.248 NA
ATOM     15  C   UNL A   1      41.925  27.367  32.086  1.00  0.00     0.031 C 
ATOM     16  C   UNL A   1      38.357  29.890  29.570  1.00  0.00     0.029 A 
ATOM     17  N   UNL A   1      38.987  30.702  31.548  1.00  0.00    -0.354 N 
ATOM     18  C   UNL A   1      41.881  28.573  33.991  1.00  0.00     0.074 A 
ATOM     19  C   UNL A   1      42.311  27.358  33.347  1.00  0.00     0.031 C 
ATOM     20  C   UNL A   1      37.634  31.004  29.797  1.00  0.00     0.029 A 
ATOM     21  C   UNL A   1      38.008  31.562  31.092  1.00  0.00     0.049 A 
ATOM     22  H   UNL A   1      39.462  30.838  32.399  1.00  0.00     0.167 HD
ATOM     23  C   UNL A   1      42.461  29.056  35.109  1.00  0.00     0.037 A 
ATOM     24  C   UNL A   1      37.482  32.670  31.659  1.00  0.00     0.037 A 
ATOM     25  C   UNL A   1      42.124  30.322  35.679  1.00  0.00     0.049 A 
ATOM     26  C   UNL A   1      38.072  33.153  32.964  1.00  0.00     0.074 A 
ATOM     27  C   UNL A   1      42.692  30.946  36.770  1.00  0.00     0.029 A 
ATOM     28  N   UNL A   1      41.141  31.165  35.184  1.00  0.00    -0.354 N 
ATOM     29  N   UNL A   1      39.034  32.616  33.678  1.00  0.00    -0.248 NA
ATOM     30  C   UNL A   1      37.542  34.406  33.523  1.00  0.00     0.031 C 
ATOM     31  C   UNL A   1      42.021  32.155  36.963  1.00  0.00     0.029 A 
ATOM     32  C   UNL A   1      41.073  32.304  35.959  1.00  0.00     0.049 A 
ATOM     33  H   UNL A   1      40.578  30.979  34.399  1.00  0.00     0.167 HD
ATOM     34  C   UNL A   1      39.260  33.491  34.737  1.00  0.00     0.074 A 
ATOM     35  C   UNL A   1      38.330  34.589  34.574  1.00  0.00     0.031 C 
ATOM     36  C   UNL A   1      40.162  33.400  35.746  1.00  0.00     0.037 A 
BRANCH  23  37
ATOM     37  C   UNL A   1      43.565  28.236  35.705  1.00  0.00     0.058 A 
ATOM     38  C   UNL A   1      44.901  28.500  35.383  1.00  0.00     0.135 A 
ATOM     39  C   UNL A   1      43.295  27.213  36.634  1.00  0.00     0.135 A 
ATOM     40  F   UNL A   1      45.210  29.479  34.520  1.00  0.00    -0.206 F 
ATOM     41  C   UNL A   1      45.937  27.777  35.962  1.00  0.00     0.059 A 
ATOM     42  C   UNL A   1      44.317  26.505  37.253  1.00  0.00     0.059 A 
ATOM     43  F   UNL A   1      42.032  26.954  37.009  1.00  0.00    -0.206 F 
ATOM     44  C   UNL A   1      45.635  26.786  36.898  1.00  0.00     0.060 A 
BRANCH  44  45
ATOM     45  S   UNL A   1      46.994  25.893  37.676  1.00  0.00     0.124 S 
ATOM     46  O   UNL A   1      46.281  24.983  38.565  1.00  0.00    -0.237 OA
ATOM     47  O   UNL A   1      47.654  25.280  36.527  1.00  0.00    -0.237 OA
ATOM     48  O   UNL A   1      47.759  26.948  38.336  1.00  0.00    -0.744 OA
ENDBRANCH  44  45
ENDBRANCH  23  37
BRANCH  24  49
ATOM     49  C   UNL A   1      36.392  33.443  30.989  1.00  0.00     0.058 A 
ATOM     50  C   UNL A   1      36.621  34.172  29.810  1.00  0.00     0.135 A 
ATOM     51  C   UNL A   1      35.083  33.444  31.497  1.00  0.00     0.135 A 
ATOM     52  F   UNL A   1      37.849  34.210  29.271  1.00  0.00    -0.206 F 
ATOM     53  C   UNL A   1      35.599  34.872  29.166  1.00  0.00     0.059 A 
ATOM     54  C   UNL A   1      34.040  34.118  30.862  1.00  0.00     0.059 A 
ATOM     55  F   UNL A   1      34.801  32.752  32.611  1.00  0.00    -0.206 F 
ATOM     56  C   UNL A   1      34.309  34.838  29.700  1.00  0.00     0.060 A 
BRANCH  56  57
ATOM     57  S   UNL A   1      32.995  35.748  28.853  1.00  0.00     0.124 S 
ATOM     58  O   UNL A   1      32.422  34.713  27.998  1.00  0.00    -0.237 OA
ATOM     59  O   UNL A   1      32.162  36.189  29.966  1.00  0.00    -0.237 OA
ATOM     60  O   UNL A   1      33.714  36.807  28.152  1.00  0.00    -0.744 OA
ENDBRANCH  56  57
ENDBRANCH  24  49
BRANCH  36  61
ATOM     61  C   UNL A   1      40.244  34.528  36.733  1.00  0.00     0.058 A 
ATOM     62  C   UNL A   1      41.241  35.508  36.596  1.00  0.00     0.135 A 
ATOM     63  C   UNL A   1      39.459  34.541  37.893  1.00  0.00     0.135 A 
ATOM     64  F   UNL A   1      42.027  35.527  35.506  1.00  0.00    -0.206 F 
ATOM     65  C   UNL A   1      41.489  36.434  37.599  1.00  0.00     0.059 A 
ATOM     66  C   UNL A   1      39.667  35.481  38.897  1.00  0.00     0.059 A 
ATOM     67  F   UNL A   1      38.489  33.629  38.065  1.00  0.00    -0.206 F 
ATOM     68  C   UNL A   1      40.704  36.405  38.752  1.00  0.00     0.060 A 
BRANCH  68  69
ATOM     69  S   UNL A   1      41.069  37.589  40.064  1.00  0.00     0.124 S 
ATOM     70  O   UNL A   1      39.907  38.468  40.005  1.00  0.00    -0.237 OA
ATOM     71  O   UNL A   1      41.155  36.726  41.238  1.00  0.00    -0.237 OA
ATOM     72  O   UNL A   1      42.331  38.187  39.639  1.00  0.00    -0.744 OA
ENDBRANCH  68  69
ENDBRANCH  36  61
ENDBRANCH  10  11
ENDBRANCH   3   5
ENDBRANCH   2   3
ENDBRANCH   1   2
BRANCH   1  73
ATOM     73  C   UNL A   1      38.190  23.619  25.786  1.00  0.00     0.274 C 
BRANCH  73  74
ATOM     74  O   UNL A   1      36.796  23.232  25.733  1.00  0.00    -0.462 OA
BRANCH  74  75
ATOM     75  C   UNL A   1      36.473  22.333  24.759  1.00  0.00     0.311 C 
ATOM     76  O   UNL A   1      36.634  22.564  23.567  1.00  0.00    -0.252 OA
BRANCH  75  77
ATOM     77  C   UNL A   1      35.806  21.067  25.319  1.00  0.00     0.128 C 
ATOM     78  C   UNL A   1      35.108  21.501  26.590  1.00  0.00     0.135 C 
ATOM     79  C   UNL A   1      34.608  20.523  24.512  1.00  0.00     0.055 C 
ATOM     80  N   UNL A   1      33.817  22.031  26.128  1.00  0.00    -0.341 N 
ATOM     81  C   UNL A   1      33.471  21.490  24.837  1.00  0.00     0.128 C 
BRANCH  79  82
ATOM     82  C   UNL A   1      34.131  19.079  24.679  1.00  0.00    -0.042 A 
ATOM     83  C   UNL A   1      32.868  18.862  25.283  1.00  0.00     0.007 A 
ATOM     84  C   UNL A   1      34.837  17.951  24.243  1.00  0.00     0.007 A 
ATOM     85  C   UNL A   1      32.305  17.587  25.379  1.00  0.00     0.039 A 
ATOM     86  C   UNL A   1      34.275  16.668  24.350  1.00  0.00     0.039 A 
ATOM     87  C   UNL A   1      33.012  16.500  24.900  1.00  0.00     0.123 A 
ATOM     88  F   UNL A   1      32.475  15.276  24.979  1.00  0.00    -0.207 F 
ENDBRANCH  79  82
BRANCH  80  89
ATOM     89  C   UNL A   1      33.069  23.070  26.625  1.00  0.00     0.225 C 
ATOM     90  O   UNL A   1      32.161  22.908  27.441  1.00  0.00    -0.275 OA
BRANCH  89  91
ATOM     91  C   UNL A   1      33.426  24.448  26.162  1.00  0.00     0.130 C 
BRANCH  91  92
ATOM     92  C   UNL A   1      32.176  25.176  25.676  1.00  0.00     0.123 C 
ATOM     93  N   UNL A   1      31.394  25.763  26.744  1.00  0.00    -0.345 N 
ATOM     94  C   UNL A   1      32.603  26.404  24.931  1.00  0.00    -0.012 A 
ATOM     95  C   UNL A   1      31.575  27.121  26.876  1.00  0.00     0.252 C 
ATOM     96  H   UNL A   1      30.790  25.241  27.320  1.00  0.00     0.164 HD
ATOM     97  C   UNL A   1      32.310  27.545  25.684  1.00  0.00     0.045 A 
ATOM     98  C   UNL A   1      33.250  26.512  23.716  1.00  0.00     0.007 A 
ATOM     99  O   UNL A   1      31.216  27.819  27.797  1.00  0.00    -0.269 OA
ATOM    100  C   UNL A   1      32.655  28.816  25.284  1.00  0.00     0.014 A 
ATOM    101  C   UNL A   1      33.590  27.794  23.274  1.00  0.00     0.000 A 
ATOM    102  C   UNL A   1      33.301  28.934  24.052  1.00  0.00     0.001 A 
ENDBRANCH  91  92
ENDBRANCH  89  91
ENDBRANCH  80  89
ENDBRANCH  75  77
ENDBRANCH  74  75
ENDBRANCH  73  74
ENDBRANCH   1  73
TORSDOF 18
ENDMDL
