MODEL 1
REMARK VINA RESULT:     -11.9      0.000      0.000
REMARK SMILES CC(C)COc1cccc(C(=O)Nc2ccc(O)c(C(=O)OCCOC(=O)c3ccc(-c4c5nc(c(-c6c(F)cc(S(=O)(=O)[O-])cc6F)c6ccc([nH]6)c(-c6c(F)cc(S(=O)(=O)[O-])cc6F)c6nc(c(-c7c(F)cc(S(=O)(=O)[O-])cc7F)c7ccc4[nH]7)C=C6)C=C5)cc3)c2)c1
REMARK SMILES IDX 23 1 22 2 20 3 21 4 19 5 14 6 15 7 94 8 16 9 17 10 13 11
REMARK SMILES IDX 11 12 12 13 10 15 6 16 7 17 95 18 8 19 9 20 5 21 4 22 2 23
REMARK SMILES IDX 1 24 3 25 18 26 24 28 25 29 26 30 27 31 28 32 29 33 93 34
REMARK SMILES IDX 30 35 92 36 31 37 32 38 33 39 86 40 34 41 91 42 85 43 87 44
REMARK SMILES IDX 35 45 90 46 84 47 83 48 36 50 70 51 49 52 69 53 50 54 53 55
REMARK SMILES IDX 68 56 88 57 51 58 52 59 67 61 89 62 54 63 37 64 38 65 47 66
REMARK SMILES IDX 39 67 40 68 46 69 48 70 41 71 42 72 43 73 44 74 45 75 71 76
REMARK SMILES IDX 72 77 81 78 73 79 74 80 80 81 82 82 75 83 76 84 77 85 78 86
REMARK SMILES IDX 79 87 55 88 56 89 65 90 57 91 58 92 64 93 66 94 59 95 60 96
REMARK SMILES IDX 61 97 62 98 63 99
REMARK H PARENT 13 14 18 27 87 49 53 60
REMARK Flexibility Score: inf
ROOT
ATOM      1  C   UNL A   1      31.965  30.015  26.290  1.00  0.00     0.275 C 
ENDROOT
BRANCH   1   2
ATOM      2  O   UNL A   1      32.287  29.505  24.980  1.00  0.00    -0.458 OA
BRANCH   2   3
ATOM      3  C   UNL A   1      31.204  29.055  24.304  1.00  0.00     0.342 C 
ATOM      4  O   UNL A   1      30.264  29.742  23.936  1.00  0.00    -0.246 OA
BRANCH   3   5
ATOM      5  C   UNL A   1      31.207  27.590  24.143  1.00  0.00     0.103 A 
ATOM      6  C   UNL A   1      30.606  25.496  25.179  1.00  0.00     0.042 A 
ATOM      7  C   UNL A   1      30.497  24.900  23.916  1.00  0.00     0.030 A 
ATOM      8  C   UNL A   1      31.077  26.806  25.293  1.00  0.00     0.045 A 
ATOM      9  C   UNL A   1      30.689  25.664  22.764  1.00  0.00     0.049 A 
ATOM     10  C   UNL A   1      30.992  27.017  22.886  1.00  0.00     0.130 A 
BRANCH   6  11
ATOM     11  N   UNL A   1      30.107  24.768  26.273  1.00  0.00    -0.322 N 
ATOM     12  C   UNL A   1      30.402  23.499  26.748  1.00  0.00     0.255 C 
ATOM     13  O   UNL A   1      29.655  23.009  27.597  1.00  0.00    -0.269 OA
ATOM     14  H   UNL A   1      29.423  25.244  26.797  1.00  0.00     0.170 HD
BRANCH  12  15
ATOM     15  C   UNL A   1      31.636  22.738  26.367  1.00  0.00     0.043 A 
ATOM     16  C   UNL A   1      34.047  22.411  26.418  1.00  0.00     0.120 A 
ATOM     17  C   UNL A   1      33.938  21.379  25.495  1.00  0.00     0.046 A 
ATOM     18  C   UNL A   1      32.898  23.034  26.886  1.00  0.00     0.060 A 
ATOM     19  C   UNL A   1      32.672  20.975  25.057  1.00  0.00     0.005 A 
ATOM     20  C   UNL A   1      31.527  21.663  25.478  1.00  0.00     0.014 A 
BRANCH  16  21
ATOM     21  O   UNL A   1      35.262  22.991  26.645  1.00  0.00    -0.493 OA
BRANCH  21  22
ATOM     22  C   UNL A   1      35.687  23.992  25.710  1.00  0.00     0.232 C 
BRANCH  22  23
ATOM     23  C   UNL A   1      36.992  23.635  24.957  1.00  0.00     0.020 C 
ATOM     24  C   UNL A   1      37.839  22.582  25.680  1.00  0.00     0.011 C 
ATOM     25  C   UNL A   1      36.689  23.127  23.546  1.00  0.00     0.011 C 
ENDBRANCH  22  23
ENDBRANCH  21  22
ENDBRANCH  16  21
ENDBRANCH  12  15
ENDBRANCH   6  11
BRANCH  10  26
ATOM     26  O   UNL A   1      31.041  27.773  21.756  1.00  0.00    -0.507 OA
ATOM     27  H   UNL A   1      31.427  27.427  20.976  1.00  0.00     0.293 HD
ENDBRANCH  10  26
ENDBRANCH   3   5
ENDBRANCH   2   3
ENDBRANCH   1   2
BRANCH   1  28
ATOM     28  C   UNL A   1      33.110  30.845  26.874  1.00  0.00     0.275 C 
BRANCH  28  29
ATOM     29  O   UNL A   1      33.926  30.064  27.768  1.00  0.00    -0.458 OA
BRANCH  29  30
ATOM     30  C   UNL A   1      34.735  30.777  28.591  1.00  0.00     0.338 C 
ATOM     31  O   UNL A   1      34.460  31.818  29.156  1.00  0.00    -0.246 OA
BRANCH  30  32
ATOM     32  C   UNL A   1      36.072  30.149  28.688  1.00  0.00     0.060 A 
ATOM     33  C   UNL A   1      36.579  29.712  29.910  1.00  0.00     0.016 A 
ATOM     34  C   UNL A   1      36.892  30.144  27.560  1.00  0.00     0.016 A 
ATOM     35  C   UNL A   1      37.932  29.396  30.036  1.00  0.00     0.010 A 
ATOM     36  C   UNL A   1      38.214  29.701  27.665  1.00  0.00     0.010 A 
ATOM     37  C   UNL A   1      38.767  29.358  28.912  1.00  0.00    -0.014 A 
BRANCH  37  38
ATOM     38  C   UNL A   1      40.210  28.986  29.017  1.00  0.00     0.031 A 
ATOM     39  C   UNL A   1      41.235  30.041  29.356  1.00  0.00     0.074 A 
ATOM     40  C   UNL A   1      40.621  27.724  28.774  1.00  0.00     0.049 A 
ATOM     41  N   UNL A   1      42.532  30.023  29.187  1.00  0.00    -0.248 NA
ATOM     42  C   UNL A   1      40.727  31.288  29.952  1.00  0.00     0.031 C 
ATOM     43  C   UNL A   1      39.750  26.575  28.516  1.00  0.00     0.029 A 
ATOM     44  N   UNL A   1      41.889  27.196  28.685  1.00  0.00    -0.354 N 
ATOM     45  C   UNL A   1      42.987  31.276  29.585  1.00  0.00     0.074 A 
ATOM     46  C   UNL A   1      41.828  32.027  30.016  1.00  0.00     0.031 C 
ATOM     47  C   UNL A   1      40.501  25.483  28.315  1.00  0.00     0.029 A 
ATOM     48  C   UNL A   1      41.904  25.875  28.302  1.00  0.00     0.049 A 
ATOM     49  H   UNL A   1      42.704  27.714  28.876  1.00  0.00     0.167 HD
ATOM     50  C   UNL A   1      44.255  31.754  29.578  1.00  0.00     0.037 A 
ATOM     51  C   UNL A   1      42.916  25.080  27.900  1.00  0.00     0.037 A 
ATOM     52  C   UNL A   1      45.405  30.973  29.192  1.00  0.00     0.049 A 
ATOM     53  C   UNL A   1      44.304  25.648  27.822  1.00  0.00     0.074 A 
ATOM     54  C   UNL A   1      46.734  31.358  29.155  1.00  0.00     0.029 A 
ATOM     55  N   UNL A   1      45.363  29.647  28.789  1.00  0.00    -0.354 N 
ATOM     56  N   UNL A   1      44.716  26.856  28.125  1.00  0.00    -0.248 NA
ATOM     57  C   UNL A   1      45.362  24.758  27.325  1.00  0.00     0.031 C 
ATOM     58  C   UNL A   1      47.489  30.280  28.683  1.00  0.00     0.029 A 
ATOM     59  C   UNL A   1      46.638  29.204  28.484  1.00  0.00     0.049 A 
ATOM     60  H   UNL A   1      44.545  29.100  28.727  1.00  0.00     0.167 HD
ATOM     61  C   UNL A   1      46.085  26.861  27.884  1.00  0.00     0.074 A 
ATOM     62  C   UNL A   1      46.432  25.537  27.412  1.00  0.00     0.031 C 
ATOM     63  C   UNL A   1      46.973  27.872  28.042  1.00  0.00     0.037 A 
BRANCH  50  64
ATOM     64  C   UNL A   1      44.473  33.198  29.949  1.00  0.00     0.058 A 
ATOM     65  C   UNL A   1      44.785  33.601  31.256  1.00  0.00     0.135 A 
ATOM     66  C   UNL A   1      44.412  34.194  28.958  1.00  0.00     0.135 A 
ATOM     67  F   UNL A   1      44.843  32.696  32.246  1.00  0.00    -0.206 F 
ATOM     68  C   UNL A   1      45.002  34.939  31.573  1.00  0.00     0.059 A 
ATOM     69  C   UNL A   1      44.655  35.534  29.247  1.00  0.00     0.059 A 
ATOM     70  F   UNL A   1      44.120  33.867  27.688  1.00  0.00    -0.206 F 
ATOM     71  C   UNL A   1      44.935  35.899  30.561  1.00  0.00     0.060 A 
BRANCH  71  72
ATOM     72  S   UNL A   1      45.221  37.630  30.988  1.00  0.00     0.124 S 
ATOM     73  O   UNL A   1      46.013  38.084  29.848  1.00  0.00    -0.237 OA
ATOM     74  O   UNL A   1      43.864  38.160  31.067  1.00  0.00    -0.237 OA
ATOM     75  O   UNL A   1      45.937  37.555  32.258  1.00  0.00    -0.744 OA
ENDBRANCH  71  72
ENDBRANCH  50  64
BRANCH  51  76
ATOM     76  C   UNL A   1      42.633  23.682  27.472  1.00  0.00     0.058 A 
ATOM     77  C   UNL A   1      42.362  23.378  26.131  1.00  0.00     0.135 A 
ATOM     78  C   UNL A   1      42.656  22.619  28.390  1.00  0.00     0.135 A 
ATOM     79  F   UNL A   1      42.317  24.358  25.217  1.00  0.00    -0.206 F 
ATOM     80  C   UNL A   1      42.118  22.072  25.716  1.00  0.00     0.059 A 
ATOM     81  C   UNL A   1      42.449  21.302  27.995  1.00  0.00     0.059 A 
ATOM     82  F   UNL A   1      42.923  22.854  29.686  1.00  0.00    -0.206 F 
ATOM     83  C   UNL A   1      42.171  21.041  26.654  1.00  0.00     0.060 A 
BRANCH  83  84
ATOM     84  S   UNL A   1      41.910  19.344  26.094  1.00  0.00     0.124 S 
ATOM     85  O   UNL A   1      42.806  19.272  24.946  1.00  0.00    -0.237 OA
ATOM     86  O   UNL A   1      42.309  18.571  27.267  1.00  0.00    -0.237 OA
ATOM     87  O   UNL A   1      40.483  19.307  25.786  1.00  0.00    -0.744 OA
ENDBRANCH  83  84
ENDBRANCH  51  76
BRANCH  63  88
ATOM     88  C   UNL A   1      48.422  27.579  27.772  1.00  0.00     0.058 A 
ATOM     89  C   UNL A   1      49.261  27.022  28.747  1.00  0.00     0.135 A 
ATOM     90  C   UNL A   1      48.950  27.782  26.486  1.00  0.00     0.135 A 
ATOM     91  F   UNL A   1      48.809  26.821  29.995  1.00  0.00    -0.206 F 
ATOM     92  C   UNL A   1      50.577  26.674  28.456  1.00  0.00     0.059 A 
ATOM     93  C   UNL A   1      50.253  27.418  26.166  1.00  0.00     0.059 A 
ATOM     94  F   UNL A   1      48.185  28.311  25.517  1.00  0.00    -0.206 F 
ATOM     95  C   UNL A   1      51.061  26.866  27.160  1.00  0.00     0.060 A 
BRANCH  95  96
ATOM     96  S   UNL A   1      52.744  26.339  26.777  1.00  0.00     0.124 S 
ATOM     97  O   UNL A   1      52.589  24.891  26.701  1.00  0.00    -0.237 OA
ATOM     98  O   UNL A   1      53.001  27.017  25.510  1.00  0.00    -0.237 OA
ATOM     99  O   UNL A   1      53.521  26.829  27.912  1.00  0.00    -0.744 OA
ENDBRANCH  95  96
ENDBRANCH  63  88
ENDBRANCH  37  38
ENDBRANCH  30  32
ENDBRANCH  29  30
ENDBRANCH  28  29
ENDBRANCH   1  28
TORSDOF 20
ENDMDL
MODEL 2
REMARK VINA RESULT:     -11.7      1.176      2.282
REMARK SMILES CC(C)COc1cccc(C(=O)Nc2ccc(O)c(C(=O)OCCOC(=O)c3ccc(-c4c5nc(c(-c6c(F)cc(S(=O)(=O)[O-])cc6F)c6ccc([nH]6)c(-c6c(F)cc(S(=O)(=O)[O-])cc6F)c6nc(c(-c7c(F)cc(S(=O)(=O)[O-])cc7F)c7ccc4[nH]7)C=C6)C=C5)cc3)c2)c1
REMARK SMILES IDX 23 1 22 2 20 3 21 4 19 5 14 6 15 7 94 8 16 9 17 10 13 11
REMARK SMILES IDX 11 12 12 13 10 15 6 16 7 17 95 18 8 19 9 20 5 21 4 22 2 23
REMARK SMILES IDX 1 24 3 25 18 26 24 28 25 29 26 30 27 31 28 32 29 33 93 34
REMARK SMILES IDX 30 35 92 36 31 37 32 38 33 39 86 40 34 41 91 42 85 43 87 44
REMARK SMILES IDX 35 45 90 46 84 47 83 48 36 50 70 51 49 52 69 53 50 54 53 55
REMARK SMILES IDX 68 56 88 57 51 58 52 59 67 61 89 62 54 63 37 64 38 65 47 66
REMARK SMILES IDX 39 67 40 68 46 69 48 70 41 71 42 72 43 73 44 74 45 75 71 76
REMARK SMILES IDX 72 77 81 78 73 79 74 80 80 81 82 82 75 83 76 84 77 85 78 86
REMARK SMILES IDX 79 87 55 88 56 89 65 90 57 91 58 92 64 93 66 94 59 95 60 96
REMARK SMILES IDX 61 97 62 98 63 99
REMARK H PARENT 13 14 18 27 87 49 53 60
REMARK Flexibility Score: inf
ROOT
ATOM      1  C   UNL A   1      33.118  29.604  25.359  1.00  0.00     0.275 C 
ENDROOT
BRANCH   1   2
ATOM      2  O   UNL A   1      31.713  29.397  25.611  1.00  0.00    -0.458 OA
BRANCH   2   3
ATOM      3  C   UNL A   1      31.030  28.999  24.512  1.00  0.00     0.342 C 
ATOM      4  O   UNL A   1      30.368  29.727  23.789  1.00  0.00    -0.246 OA
BRANCH   3   5
ATOM      5  C   UNL A   1      31.067  27.538  24.322  1.00  0.00     0.103 A 
ATOM      6  C   UNL A   1      30.442  25.414  25.280  1.00  0.00     0.042 A 
ATOM      7  C   UNL A   1      30.416  24.843  24.001  1.00  0.00     0.030 A 
ATOM      8  C   UNL A   1      30.883  26.729  25.447  1.00  0.00     0.045 A 
ATOM      9  C   UNL A   1      30.662  25.634  22.877  1.00  0.00     0.049 A 
ATOM     10  C   UNL A   1      30.934  26.988  23.044  1.00  0.00     0.130 A 
BRANCH   6  11
ATOM     11  N   UNL A   1      29.892  24.656  26.328  1.00  0.00    -0.322 N 
ATOM     12  C   UNL A   1      30.213  23.402  26.826  1.00  0.00     0.255 C 
ATOM     13  O   UNL A   1      29.424  22.869  27.610  1.00  0.00    -0.269 OA
ATOM     14  H   UNL A   1      29.143  25.093  26.793  1.00  0.00     0.170 HD
BRANCH  12  15
ATOM     15  C   UNL A   1      31.513  22.708  26.549  1.00  0.00     0.043 A 
ATOM     16  C   UNL A   1      32.833  21.028  25.386  1.00  0.00     0.120 A 
ATOM     17  C   UNL A   1      33.932  21.326  26.180  1.00  0.00     0.046 A 
ATOM     18  C   UNL A   1      31.662  21.758  25.537  1.00  0.00     0.060 A 
ATOM     19  C   UNL A   1      33.849  22.364  27.113  1.00  0.00     0.005 A 
ATOM     20  C   UNL A   1      32.638  23.042  27.309  1.00  0.00     0.014 A 
BRANCH  16  21
ATOM     21  O   UNL A   1      32.807  19.861  24.676  1.00  0.00    -0.493 OA
BRANCH  21  22
ATOM     22  C   UNL A   1      32.908  18.644  25.426  1.00  0.00     0.232 C 
BRANCH  22  23
ATOM     23  C   UNL A   1      33.407  17.435  24.596  1.00  0.00     0.020 C 
ATOM     24  C   UNL A   1      32.852  16.094  25.087  1.00  0.00     0.011 C 
ATOM     25  C   UNL A   1      33.045  17.597  23.118  1.00  0.00     0.011 C 
ENDBRANCH  22  23
ENDBRANCH  21  22
ENDBRANCH  16  21
ENDBRANCH  12  15
ENDBRANCH   6  11
BRANCH  10  26
ATOM     26  O   UNL A   1      31.036  27.768  21.934  1.00  0.00    -0.507 OA
ATOM     27  H   UNL A   1      30.466  27.624  21.205  1.00  0.00     0.293 HD
ENDBRANCH  10  26
ENDBRANCH   3   5
ENDBRANCH   2   3
ENDBRANCH   1   2
BRANCH   1  28
ATOM     28  C   UNL A   1      33.988  28.617  26.140  1.00  0.00     0.275 C 
BRANCH  28  29
ATOM     29  O   UNL A   1      33.923  28.865  27.558  1.00  0.00    -0.458 OA
BRANCH  29  30
ATOM     30  C   UNL A   1      34.416  30.062  27.963  1.00  0.00     0.338 C 
ATOM     31  O   UNL A   1      33.803  31.109  28.045  1.00  0.00    -0.246 OA
BRANCH  30  32
ATOM     32  C   UNL A   1      35.863  29.964  28.255  1.00  0.00     0.060 A 
ATOM     33  C   UNL A   1      36.818  30.184  27.264  1.00  0.00     0.016 A 
ATOM     34  C   UNL A   1      36.263  29.490  29.504  1.00  0.00     0.016 A 
ATOM     35  C   UNL A   1      38.146  29.810  27.473  1.00  0.00     0.010 A 
ATOM     36  C   UNL A   1      37.617  29.239  29.751  1.00  0.00     0.010 A 
ATOM     37  C   UNL A   1      38.574  29.357  28.728  1.00  0.00    -0.014 A 
BRANCH  37  38
ATOM     38  C   UNL A   1      39.998  28.985  28.986  1.00  0.00     0.031 A 
ATOM     39  C   UNL A   1      40.973  30.032  29.466  1.00  0.00     0.074 A 
ATOM     40  C   UNL A   1      40.439  27.730  28.760  1.00  0.00     0.049 A 
ATOM     41  N   UNL A   1      42.281  30.021  29.444  1.00  0.00    -0.248 NA
ATOM     42  C   UNL A   1      40.396  31.263  30.031  1.00  0.00     0.031 C 
ATOM     43  C   UNL A   1      39.608  26.587  28.376  1.00  0.00     0.029 A 
ATOM     44  N   UNL A   1      41.711  27.207  28.801  1.00  0.00    -0.354 N 
ATOM     45  C   UNL A   1      42.682  31.264  29.923  1.00  0.00     0.074 A 
ATOM     46  C   UNL A   1      41.478  32.002  30.238  1.00  0.00     0.031 C 
ATOM     47  C   UNL A   1      40.382  25.501  28.233  1.00  0.00     0.029 A 
ATOM     48  C   UNL A   1      41.775  25.896  28.389  1.00  0.00     0.049 A 
ATOM     49  H   UNL A   1      42.497  27.721  29.097  1.00  0.00     0.167 HD
ATOM     50  C   UNL A   1      43.941  31.744  30.072  1.00  0.00     0.037 A 
ATOM     51  C   UNL A   1      42.830  25.113  28.084  1.00  0.00     0.037 A 
ATOM     52  C   UNL A   1      45.130  30.975  29.799  1.00  0.00     0.049 A 
ATOM     53  C   UNL A   1      44.215  25.685  28.178  1.00  0.00     0.074 A 
ATOM     54  C   UNL A   1      46.453  31.363  29.922  1.00  0.00     0.029 A 
ATOM     55  N   UNL A   1      45.140  29.659  29.360  1.00  0.00    -0.354 N 
ATOM     56  N   UNL A   1      44.585  26.886  28.557  1.00  0.00    -0.248 NA
ATOM     57  C   UNL A   1      45.327  24.809  27.783  1.00  0.00     0.031 C 
ATOM     58  C   UNL A   1      47.261  30.298  29.512  1.00  0.00     0.029 A 
ATOM     59  C   UNL A   1      46.444  29.226  29.191  1.00  0.00     0.049 A 
ATOM     60  H   UNL A   1      44.337  29.113  29.192  1.00  0.00     0.167 HD
ATOM     61  C   UNL A   1      45.972  26.898  28.473  1.00  0.00     0.074 A 
ATOM     62  C   UNL A   1      46.377  25.588  28.010  1.00  0.00     0.031 C 
ATOM     63  C   UNL A   1      46.832  27.907  28.756  1.00  0.00     0.037 A 
BRANCH  50  64
ATOM     64  C   UNL A   1      44.109  33.178  30.501  1.00  0.00     0.058 A 
ATOM     65  C   UNL A   1      44.148  34.239  29.583  1.00  0.00     0.135 A 
ATOM     66  C   UNL A   1      44.184  33.499  31.868  1.00  0.00     0.135 A 
ATOM     67  F   UNL A   1      44.094  33.993  28.264  1.00  0.00    -0.206 F 
ATOM     68  C   UNL A   1      44.284  35.560  30.001  1.00  0.00     0.059 A 
ATOM     69  C   UNL A   1      44.289  34.814  32.310  1.00  0.00     0.059 A 
ATOM     70  F   UNL A   1      44.148  32.525  32.792  1.00  0.00    -0.206 F 
ATOM     71  C   UNL A   1      44.353  35.837  31.368  1.00  0.00     0.060 A 
BRANCH  71  72
ATOM     72  S   UNL A   1      44.527  37.556  31.895  1.00  0.00     0.124 S 
ATOM     73  O   UNL A   1      44.138  38.272  30.683  1.00  0.00    -0.237 OA
ATOM     74  O   UNL A   1      43.585  37.638  33.007  1.00  0.00    -0.237 OA
ATOM     75  O   UNL A   1      45.936  37.661  32.261  1.00  0.00    -0.744 OA
ENDBRANCH  71  72
ENDBRANCH  50  64
BRANCH  51  76
ATOM     76  C   UNL A   1      42.604  23.726  27.592  1.00  0.00     0.058 A 
ATOM     77  C   UNL A   1      42.500  23.454  26.221  1.00  0.00     0.135 A 
ATOM     78  C   UNL A   1      42.515  22.641  28.481  1.00  0.00     0.135 A 
ATOM     79  F   UNL A   1      42.567  24.455  25.331  1.00  0.00    -0.206 F 
ATOM     80  C   UNL A   1      42.311  22.159  25.748  1.00  0.00     0.059 A 
ATOM     81  C   UNL A   1      42.359  21.335  28.032  1.00  0.00     0.059 A 
ATOM     82  F   UNL A   1      42.619  22.845  29.805  1.00  0.00    -0.206 F 
ATOM     83  C   UNL A   1      42.249  21.105  26.662  1.00  0.00     0.060 A 
BRANCH  83  84
ATOM     84  S   UNL A   1      42.061  19.423  26.034  1.00  0.00     0.124 S 
ATOM     85  O   UNL A   1      40.625  19.360  25.787  1.00  0.00    -0.237 OA
ATOM     86  O   UNL A   1      42.913  19.443  24.848  1.00  0.00    -0.237 OA
ATOM     87  O   UNL A   1      42.551  18.597  27.133  1.00  0.00    -0.744 OA
ENDBRANCH  83  84
ENDBRANCH  51  76
BRANCH  63  88
ATOM     88  C   UNL A   1      48.304  27.623  28.644  1.00  0.00     0.058 A 
ATOM     89  C   UNL A   1      49.039  27.954  27.496  1.00  0.00     0.135 A 
ATOM     90  C   UNL A   1      49.001  27.092  29.741  1.00  0.00     0.135 A 
ATOM     91  F   UNL A   1      48.418  28.452  26.415  1.00  0.00    -0.206 F 
ATOM     92  C   UNL A   1      50.416  27.767  27.440  1.00  0.00     0.059 A 
ATOM     93  C   UNL A   1      50.381  26.921  29.717  1.00  0.00     0.059 A 
ATOM     94  F   UNL A   1      48.343  26.762  30.865  1.00  0.00    -0.206 F 
ATOM     95  C   UNL A   1      51.080  27.260  28.560  1.00  0.00     0.060 A 
BRANCH  95  96
ATOM     96  S   UNL A   1      52.876  27.095  28.500  1.00  0.00     0.124 S 
ATOM     97  O   UNL A   1      53.205  26.941  29.913  1.00  0.00    -0.237 OA
ATOM     98  O   UNL A   1      53.051  25.904  27.675  1.00  0.00    -0.237 OA
ATOM     99  O   UNL A   1      53.313  28.345  27.887  1.00  0.00    -0.744 OA
ENDBRANCH  95  96
ENDBRANCH  63  88
ENDBRANCH  37  38
ENDBRANCH  30  32
ENDBRANCH  29  30
ENDBRANCH  28  29
ENDBRANCH   1  28
TORSDOF 20
ENDMDL
MODEL 3
REMARK VINA RESULT:     -11.6      1.476      2.541
REMARK SMILES CC(C)COc1cccc(C(=O)Nc2ccc(O)c(C(=O)OCCOC(=O)c3ccc(-c4c5nc(c(-c6c(F)cc(S(=O)(=O)[O-])cc6F)c6ccc([nH]6)c(-c6c(F)cc(S(=O)(=O)[O-])cc6F)c6nc(c(-c7c(F)cc(S(=O)(=O)[O-])cc7F)c7ccc4[nH]7)C=C6)C=C5)cc3)c2)c1
REMARK SMILES IDX 23 1 22 2 20 3 21 4 19 5 14 6 15 7 94 8 16 9 17 10 13 11
REMARK SMILES IDX 11 12 12 13 10 15 6 16 7 17 95 18 8 19 9 20 5 21 4 22 2 23
REMARK SMILES IDX 1 24 3 25 18 26 24 28 25 29 26 30 27 31 28 32 29 33 93 34
REMARK SMILES IDX 30 35 92 36 31 37 32 38 33 39 86 40 34 41 91 42 85 43 87 44
REMARK SMILES IDX 35 45 90 46 84 47 83 48 36 50 70 51 49 52 69 53 50 54 53 55
REMARK SMILES IDX 68 56 88 57 51 58 52 59 67 61 89 62 54 63 37 64 38 65 47 66
REMARK SMILES IDX 39 67 40 68 46 69 48 70 41 71 42 72 43 73 44 74 45 75 71 76
REMARK SMILES IDX 72 77 81 78 73 79 74 80 80 81 82 82 75 83 76 84 77 85 78 86
REMARK SMILES IDX 79 87 55 88 56 89 65 90 57 91 58 92 64 93 66 94 59 95 60 96
REMARK SMILES IDX 61 97 62 98 63 99
REMARK H PARENT 13 14 18 27 87 49 53 60
REMARK Flexibility Score: inf
ROOT
ATOM      1  C   UNL A   1      31.927  29.322  25.828  1.00  0.00     0.275 C 
ENDROOT
BRANCH   1   2
ATOM      2  O   UNL A   1      32.511  28.012  25.983  1.00  0.00    -0.458 OA
BRANCH   2   3
ATOM      3  C   UNL A   1      31.588  27.024  26.053  1.00  0.00     0.342 C 
ATOM      4  O   UNL A   1      30.958  26.716  27.052  1.00  0.00    -0.246 OA
BRANCH   3   5
ATOM      5  C   UNL A   1      31.488  26.254  24.801  1.00  0.00     0.103 A 
ATOM      6  C   UNL A   1      32.713  24.908  23.217  1.00  0.00     0.042 A 
ATOM      7  C   UNL A   1      31.529  24.253  22.854  1.00  0.00     0.030 A 
ATOM      8  C   UNL A   1      32.669  25.988  24.103  1.00  0.00     0.045 A 
ATOM      9  C   UNL A   1      30.333  24.561  23.505  1.00  0.00     0.049 A 
ATOM     10  C   UNL A   1      30.332  25.523  24.510  1.00  0.00     0.130 A 
BRANCH   6  11
ATOM     11  N   UNL A   1      33.918  24.349  22.755  1.00  0.00    -0.322 N 
ATOM     12  C   UNL A   1      34.823  23.486  23.354  1.00  0.00     0.255 C 
ATOM     13  O   UNL A   1      35.919  23.327  22.813  1.00  0.00    -0.269 OA
ATOM     14  H   UNL A   1      34.165  24.620  21.842  1.00  0.00     0.170 HD
BRANCH  12  15
ATOM     15  C   UNL A   1      34.502  22.656  24.560  1.00  0.00     0.043 A 
ATOM     16  C   UNL A   1      33.585  20.653  25.594  1.00  0.00     0.120 A 
ATOM     17  C   UNL A   1      33.770  21.205  26.854  1.00  0.00     0.046 A 
ATOM     18  C   UNL A   1      34.005  21.354  24.472  1.00  0.00     0.060 A 
ATOM     19  C   UNL A   1      34.387  22.454  26.977  1.00  0.00     0.005 A 
ATOM     20  C   UNL A   1      34.736  23.185  25.834  1.00  0.00     0.014 A 
BRANCH  16  21
ATOM     21  O   UNL A   1      32.753  19.580  25.440  1.00  0.00    -0.493 OA
BRANCH  21  22
ATOM     22  C   UNL A   1      32.737  18.952  24.152  1.00  0.00     0.232 C 
BRANCH  22  23
ATOM     23  C   UNL A   1      32.843  17.408  24.204  1.00  0.00     0.020 C 
ATOM     24  C   UNL A   1      33.998  16.852  23.367  1.00  0.00     0.011 C 
ATOM     25  C   UNL A   1      33.009  16.919  25.645  1.00  0.00     0.011 C 
ENDBRANCH  22  23
ENDBRANCH  21  22
ENDBRANCH  16  21
ENDBRANCH  12  15
ENDBRANCH   6  11
BRANCH  10  26
ATOM     26  O   UNL A   1      29.190  25.712  25.225  1.00  0.00    -0.507 OA
ATOM     27  H   UNL A   1      28.357  25.551  24.828  1.00  0.00     0.293 HD
ENDBRANCH  10  26
ENDBRANCH   3   5
ENDBRANCH   2   3
ENDBRANCH   1   2
BRANCH   1  28
ATOM     28  C   UNL A   1      32.565  30.344  26.771  1.00  0.00     0.275 C 
BRANCH  28  29
ATOM     29  O   UNL A   1      33.636  29.759  27.536  1.00  0.00    -0.458 OA
BRANCH  29  30
ATOM     30  C   UNL A   1      34.457  30.641  28.158  1.00  0.00     0.338 C 
ATOM     31  O   UNL A   1      34.186  31.782  28.480  1.00  0.00    -0.246 OA
BRANCH  30  32
ATOM     32  C   UNL A   1      35.801  30.056  28.363  1.00  0.00     0.060 A 
ATOM     33  C   UNL A   1      36.221  29.629  29.621  1.00  0.00     0.016 A 
ATOM     34  C   UNL A   1      36.710  30.083  27.305  1.00  0.00     0.016 A 
ATOM     35  C   UNL A   1      37.569  29.355  29.856  1.00  0.00     0.010 A 
ATOM     36  C   UNL A   1      38.033  29.681  27.516  1.00  0.00     0.010 A 
ATOM     37  C   UNL A   1      38.493  29.350  28.804  1.00  0.00    -0.014 A 
BRANCH  37  38
ATOM     38  C   UNL A   1      39.934  29.024  29.025  1.00  0.00     0.031 A 
ATOM     39  C   UNL A   1      40.888  30.103  29.475  1.00  0.00     0.074 A 
ATOM     40  C   UNL A   1      40.408  27.782  28.792  1.00  0.00     0.049 A 
ATOM     41  N   UNL A   1      42.195  30.132  29.419  1.00  0.00    -0.248 NA
ATOM     42  C   UNL A   1      40.288  31.318  30.052  1.00  0.00     0.031 C 
ATOM     43  C   UNL A   1      39.604  26.612  28.433  1.00  0.00     0.029 A 
ATOM     44  N   UNL A   1      41.697  27.299  28.801  1.00  0.00    -0.354 N 
ATOM     45  C   UNL A   1      42.569  31.389  29.883  1.00  0.00     0.074 A 
ATOM     46  C   UNL A   1      41.352  32.090  30.228  1.00  0.00     0.031 C 
ATOM     47  C   UNL A   1      40.407  25.550  28.274  1.00  0.00     0.029 A 
ATOM     48  C   UNL A   1      41.791  25.989  28.391  1.00  0.00     0.049 A 
ATOM     49  H   UNL A   1      42.474  27.839  29.073  1.00  0.00     0.167 HD
ATOM     50  C   UNL A   1      43.816  31.909  29.997  1.00  0.00     0.037 A 
ATOM     51  C   UNL A   1      42.861  25.238  28.061  1.00  0.00     0.037 A 
ATOM     52  C   UNL A   1      45.021  31.177  29.695  1.00  0.00     0.049 A 
ATOM     53  C   UNL A   1      44.231  25.854  28.116  1.00  0.00     0.074 A 
ATOM     54  C   UNL A   1      46.334  31.607  29.782  1.00  0.00     0.029 A 
ATOM     55  N   UNL A   1      45.061  29.860  29.260  1.00  0.00    -0.354 N 
ATOM     56  N   UNL A   1      44.572  27.067  28.481  1.00  0.00    -0.248 NA
ATOM     57  C   UNL A   1      45.358  25.012  27.694  1.00  0.00     0.031 C 
ATOM     58  C   UNL A   1      47.164  30.566  29.353  1.00  0.00     0.029 A 
ATOM     59  C   UNL A   1      46.373  29.467  29.058  1.00  0.00     0.049 A 
ATOM     60  H   UNL A   1      44.271  29.289  29.115  1.00  0.00     0.167 HD
ATOM     61  C   UNL A   1      45.956  27.123  28.360  1.00  0.00     0.074 A 
ATOM     62  C   UNL A   1      46.388  25.824  27.891  1.00  0.00     0.031 C 
ATOM     63  C   UNL A   1      46.790  28.159  28.617  1.00  0.00     0.037 A 
BRANCH  50  64
ATOM     64  C   UNL A   1      43.950  33.350  30.416  1.00  0.00     0.058 A 
ATOM     65  C   UNL A   1      44.258  33.725  31.733  1.00  0.00     0.135 A 
ATOM     66  C   UNL A   1      43.812  34.375  29.464  1.00  0.00     0.135 A 
ATOM     67  F   UNL A   1      44.388  32.790  32.688  1.00  0.00    -0.206 F 
ATOM     68  C   UNL A   1      44.397  35.062  32.096  1.00  0.00     0.059 A 
ATOM     69  C   UNL A   1      43.976  35.716  29.797  1.00  0.00     0.059 A 
ATOM     70  F   UNL A   1      43.519  34.076  28.187  1.00  0.00    -0.206 F 
ATOM     71  C   UNL A   1      44.254  36.051  31.120  1.00  0.00     0.060 A 
BRANCH  71  72
ATOM     72  S   UNL A   1      44.440  37.780  31.606  1.00  0.00     0.124 S 
ATOM     73  O   UNL A   1      43.405  37.908  32.628  1.00  0.00    -0.237 OA
ATOM     74  O   UNL A   1      45.816  37.822  32.091  1.00  0.00    -0.237 OA
ATOM     75  O   UNL A   1      44.192  38.512  30.368  1.00  0.00    -0.744 OA
ENDBRANCH  71  72
ENDBRANCH  50  64
BRANCH  51  76
ATOM     76  C   UNL A   1      42.666  23.843  27.579  1.00  0.00     0.058 A 
ATOM     77  C   UNL A   1      42.569  22.774  28.481  1.00  0.00     0.135 A 
ATOM     78  C   UNL A   1      42.546  23.554  26.209  1.00  0.00     0.135 A 
ATOM     79  F   UNL A   1      42.689  22.995  29.798  1.00  0.00    -0.206 F 
ATOM     80  C   UNL A   1      42.366  21.469  28.043  1.00  0.00     0.059 A 
ATOM     81  C   UNL A   1      42.309  22.264  25.749  1.00  0.00     0.059 A 
ATOM     82  F   UNL A   1      42.621  24.543  25.304  1.00  0.00    -0.206 F 
ATOM     83  C   UNL A   1      42.229  21.226  26.676  1.00  0.00     0.060 A 
BRANCH  83  84
ATOM     84  S   UNL A   1      41.908  19.537  26.123  1.00  0.00     0.124 S 
ATOM     85  O   UNL A   1      42.809  19.424  24.983  1.00  0.00    -0.237 OA
ATOM     86  O   UNL A   1      42.268  18.756  27.303  1.00  0.00    -0.237 OA
ATOM     87  O   UNL A   1      40.483  19.553  25.805  1.00  0.00    -0.744 OA
ENDBRANCH  83  84
ENDBRANCH  51  76
BRANCH  63  88
ATOM     88  C   UNL A   1      48.267  27.922  28.466  1.00  0.00     0.058 A 
ATOM     89  C   UNL A   1      49.068  27.522  29.545  1.00  0.00     0.135 A 
ATOM     90  C   UNL A   1      48.867  28.013  27.200  1.00  0.00     0.135 A 
ATOM     91  F   UNL A   1      48.546  27.433  30.780  1.00  0.00    -0.206 F 
ATOM     92  C   UNL A   1      50.416  27.220  29.374  1.00  0.00     0.059 A 
ATOM     93  C   UNL A   1      50.204  27.691  27.000  1.00  0.00     0.059 A 
ATOM     94  F   UNL A   1      48.141  28.389  26.134  1.00  0.00    -0.206 F 
ATOM     95  C   UNL A   1      50.972  27.297  28.095  1.00  0.00     0.060 A 
BRANCH  95  96
ATOM     96  S   UNL A   1      52.701  26.828  27.873  1.00  0.00     0.124 S 
ATOM     97  O   UNL A   1      53.311  28.107  27.528  1.00  0.00    -0.237 OA
ATOM     98  O   UNL A   1      53.048  26.294  29.186  1.00  0.00    -0.237 OA
ATOM     99  O   UNL A   1      52.652  25.844  26.796  1.00  0.00    -0.744 OA
ENDBRANCH  95  96
ENDBRANCH  63  88
ENDBRANCH  37  38
ENDBRANCH  30  32
ENDBRANCH  29  30
ENDBRANCH  28  29
ENDBRANCH   1  28
TORSDOF 20
ENDMDL
