MODEL 1
REMARK VINA RESULT:     -11.4      0.000      0.000
REMARK SMILES CS(=O)(=O)c1ccc(N2N=C(C(=O)OCCOC(=O)c3ccc(-c4c5nc(c(-c6c(F)cc(S(=O)(=O)[O-])cc6F)c6ccc([nH]6)c(-c6c(F)cc(S(=O)(=O)[O-])cc6F)c6nc(c(-c7c(F)cc(S(=O)(=O)[O-])cc7F)c7ccc4[nH]7)C=C6)C=C5)cc3)C[C@H]2c2ccco2)cc1
REMARK SMILES IDX 16 1 15 2 14 3 12 4 13 5 11 6 9 7 10 8 87 9 86 10 8 11 5 12
REMARK SMILES IDX 6 13 94 14 7 15 93 16 2 17 1 18 3 19 4 20 88 21 89 22 92 23
REMARK SMILES IDX 90 24 91 25 17 26 18 27 19 28 20 29 21 30 85 31 22 32 84 33
REMARK SMILES IDX 23 34 24 35 25 36 78 37 26 38 83 39 77 40 79 41 27 42 82 43
REMARK SMILES IDX 76 44 75 45 28 47 62 48 41 49 61 50 42 51 45 52 60 53 80 54
REMARK SMILES IDX 43 55 44 56 59 58 81 59 46 60 29 61 30 62 39 63 31 64 32 65
REMARK SMILES IDX 38 66 40 67 33 68 34 69 35 70 36 71 37 72 63 73 64 74 73 75
REMARK SMILES IDX 65 76 66 77 72 78 74 79 67 80 68 81 69 82 70 83 71 84 47 85
REMARK SMILES IDX 48 86 57 87 49 88 50 89 56 90 58 91 51 92 52 93 53 94 54 95
REMARK SMILES IDX 55 96
REMARK H PARENT 79 46 45 57
REMARK Flexibility Score: inf
ROOT
ATOM      1  C   UNL A   1      32.862  28.748  26.320  1.00  0.00     0.275 C 
ENDROOT
BRANCH   1   2
ATOM      2  C   UNL A   1      33.226  27.604  25.368  1.00  0.00     0.275 C 
BRANCH   2   3
ATOM      3  O   UNL A   1      33.505  26.418  26.131  1.00  0.00    -0.458 OA
BRANCH   3   4
ATOM      4  C   UNL A   1      32.738  25.342  25.863  1.00  0.00     0.354 C 
ATOM      5  O   UNL A   1      31.524  25.277  25.873  1.00  0.00    -0.245 OA
BRANCH   4   6
ATOM      6  C   UNL A   1      33.621  24.187  25.461  1.00  0.00     0.148 C 
ATOM      7  N   UNL A   1      34.421  22.232  25.338  1.00  0.00    -0.254 N 
ATOM      8  N   UNL A   1      33.389  22.965  25.832  1.00  0.00    -0.169 NA
ATOM      9  C   UNL A   1      35.433  23.020  24.631  1.00  0.00     0.180 C 
ATOM     10  C   UNL A   1      34.769  24.398  24.530  1.00  0.00     0.101 C 
BRANCH   7  11
ATOM     11  C   UNL A   1      34.296  20.862  25.163  1.00  0.00     0.060 A 
ATOM     12  C   UNL A   1      34.079  18.097  24.750  1.00  0.00     0.067 A 
ATOM     13  C   UNL A   1      32.928  18.853  24.983  1.00  0.00     0.022 A 
ATOM     14  C   UNL A   1      35.334  18.705  24.713  1.00  0.00     0.022 A 
ATOM     15  C   UNL A   1      33.045  20.232  25.191  1.00  0.00     0.029 A 
ATOM     16  C   UNL A   1      35.435  20.082  24.922  1.00  0.00     0.029 A 
BRANCH  12  17
ATOM     17  S   UNL A   1      33.924  16.355  24.423  1.00  0.00     0.175 S 
ATOM     18  C   UNL A   1      32.464  15.877  25.312  1.00  0.00     0.163 C 
ATOM     19  O   UNL A   1      35.064  15.695  25.033  1.00  0.00    -0.224 OA
ATOM     20  O   UNL A   1      33.675  16.222  23.000  1.00  0.00    -0.224 OA
ENDBRANCH  12  17
ENDBRANCH   7  11
BRANCH   9  21
ATOM     21  C   UNL A   1      36.765  23.060  25.323  1.00  0.00     0.128 A 
ATOM     22  C   UNL A   1      37.365  24.002  26.137  1.00  0.00     0.048 A 
ATOM     23  O   UNL A   1      37.623  22.016  25.120  1.00  0.00    -0.467 OA
ATOM     24  C   UNL A   1      38.656  23.507  26.441  1.00  0.00     0.042 A 
ATOM     25  C   UNL A   1      38.765  22.298  25.797  1.00  0.00     0.195 A 
ENDBRANCH   9  21
ENDBRANCH   4   6
ENDBRANCH   3   4
ENDBRANCH   2   3
ENDBRANCH   1   2
BRANCH   1  26
ATOM     26  O   UNL A   1      33.699  28.729  27.493  1.00  0.00    -0.458 OA
BRANCH  26  27
ATOM     27  C   UNL A   1      34.248  29.919  27.843  1.00  0.00     0.338 C 
ATOM     28  O   UNL A   1      33.662  30.985  27.948  1.00  0.00    -0.246 OA
BRANCH  27  29
ATOM     29  C   UNL A   1      35.675  29.736  28.184  1.00  0.00     0.060 A 
ATOM     30  C   UNL A   1      36.617  29.896  27.162  1.00  0.00     0.016 A 
ATOM     31  C   UNL A   1      36.090  29.376  29.471  1.00  0.00     0.016 A 
ATOM     32  C   UNL A   1      37.971  29.689  27.414  1.00  0.00     0.010 A 
ATOM     33  C   UNL A   1      37.446  29.157  29.723  1.00  0.00     0.010 A 
ATOM     34  C   UNL A   1      38.390  29.298  28.692  1.00  0.00    -0.014 A 
BRANCH  34  35
ATOM     35  C   UNL A   1      39.816  28.995  28.937  1.00  0.00     0.031 A 
ATOM     36  C   UNL A   1      40.702  30.035  29.557  1.00  0.00     0.074 A 
ATOM     37  C   UNL A   1      40.308  27.785  28.621  1.00  0.00     0.049 A 
ATOM     38  N   UNL A   1      41.977  29.968  29.838  1.00  0.00    -0.248 NA
ATOM     39  C   UNL A   1      40.068  31.314  29.914  1.00  0.00     0.031 C 
ATOM     40  C   UNL A   1      39.535  26.684  28.048  1.00  0.00     0.029 A 
ATOM     41  N   UNL A   1      41.577  27.283  28.739  1.00  0.00    -0.354 N 
ATOM     42  C   UNL A   1      42.302  31.192  30.406  1.00  0.00     0.074 A 
ATOM     43  C   UNL A   1      41.089  31.984  30.431  1.00  0.00     0.031 C 
ATOM     44  C   UNL A   1      40.352  25.633  27.857  1.00  0.00     0.029 A 
ATOM     45  C   UNL A   1      41.701  25.995  28.284  1.00  0.00     0.049 A 
ATOM     46  H   UNL A   1      42.329  27.798  29.114  1.00  0.00     0.167 HD
ATOM     47  C   UNL A   1      43.503  31.621  30.860  1.00  0.00     0.037 A 
ATOM     48  C   UNL A   1      42.786  25.200  28.210  1.00  0.00     0.037 A 
ATOM     49  C   UNL A   1      44.716  30.852  30.814  1.00  0.00     0.049 A 
ATOM     50  C   UNL A   1      44.118  25.713  28.674  1.00  0.00     0.074 A 
ATOM     51  C   UNL A   1      45.987  31.213  31.229  1.00  0.00     0.029 A 
ATOM     52  N   UNL A   1      44.809  29.562  30.313  1.00  0.00    -0.354 N 
ATOM     53  N   UNL A   1      44.410  26.878  29.200  1.00  0.00    -0.248 NA
ATOM     54  C   UNL A   1      45.266  24.809  28.524  1.00  0.00     0.031 C 
ATOM     55  C   UNL A   1      46.853  30.142  30.966  1.00  0.00     0.029 A 
ATOM     56  C   UNL A   1      46.117  29.115  30.397  1.00  0.00     0.049 A 
ATOM     57  H   UNL A   1      44.057  29.042  29.952  1.00  0.00     0.167 HD
ATOM     58  C   UNL A   1      45.780  26.852  29.436  1.00  0.00     0.074 A 
ATOM     59  C   UNL A   1      46.255  25.551  29.007  1.00  0.00     0.031 C 
ATOM     60  C   UNL A   1      46.571  27.822  29.955  1.00  0.00     0.037 A 
BRANCH  47  61
ATOM     61  C   UNL A   1      43.547  33.006  31.427  1.00  0.00     0.058 A 
ATOM     62  C   UNL A   1      43.753  34.118  30.597  1.00  0.00     0.135 A 
ATOM     63  C   UNL A   1      43.422  33.220  32.807  1.00  0.00     0.135 A 
ATOM     64  F   UNL A   1      43.898  33.956  29.272  1.00  0.00    -0.206 F 
ATOM     65  C   UNL A   1      43.858  35.402  31.123  1.00  0.00     0.059 A 
ATOM     66  C   UNL A   1      43.521  34.495  33.354  1.00  0.00     0.059 A 
ATOM     67  F   UNL A   1      43.240  32.182  33.638  1.00  0.00    -0.206 F 
ATOM     68  C   UNL A   1      43.758  35.577  32.504  1.00  0.00     0.060 A 
BRANCH  68  69
ATOM     69  S   UNL A   1      43.945  37.232  33.203  1.00  0.00     0.124 S 
ATOM     70  O   UNL A   1      42.747  37.332  34.030  1.00  0.00    -0.237 OA
ATOM     71  O   UNL A   1      45.208  37.138  33.928  1.00  0.00    -0.237 OA
ATOM     72  O   UNL A   1      43.970  38.089  32.022  1.00  0.00    -0.744 OA
ENDBRANCH  68  69
ENDBRANCH  47  61
BRANCH  48  73
ATOM     73  C   UNL A   1      42.648  23.833  27.657  1.00  0.00     0.058 A 
ATOM     74  C   UNL A   1      42.658  23.615  26.273  1.00  0.00     0.135 A 
ATOM     75  C   UNL A   1      42.549  22.721  28.505  1.00  0.00     0.135 A 
ATOM     76  F   UNL A   1      42.750  24.655  25.430  1.00  0.00    -0.206 F 
ATOM     77  C   UNL A   1      42.580  22.333  25.741  1.00  0.00     0.059 A 
ATOM     78  C   UNL A   1      42.475  21.429  27.997  1.00  0.00     0.059 A 
ATOM     79  F   UNL A   1      42.545  22.887  29.837  1.00  0.00    -0.206 F 
ATOM     80  C   UNL A   1      42.488  21.245  26.612  1.00  0.00     0.060 A 
BRANCH  80  81
ATOM     81  S   UNL A   1      42.459  19.566  25.947  1.00  0.00     0.124 S 
ATOM     82  O   UNL A   1      41.124  19.506  25.365  1.00  0.00    -0.237 OA
ATOM     83  O   UNL A   1      43.568  19.574  24.996  1.00  0.00    -0.237 OA
ATOM     84  O   UNL A   1      42.673  18.747  27.136  1.00  0.00    -0.744 OA
ENDBRANCH  80  81
ENDBRANCH  48  73
BRANCH  60  85
ATOM     85  C   UNL A   1      48.034  27.519  30.069  1.00  0.00     0.058 A 
ATOM     86  C   UNL A   1      48.918  27.855  29.034  1.00  0.00     0.135 A 
ATOM     87  C   UNL A   1      48.562  26.938  31.232  1.00  0.00     0.135 A 
ATOM     88  F   UNL A   1      48.455  28.409  27.902  1.00  0.00    -0.206 F 
ATOM     89  C   UNL A   1      50.285  27.622  29.145  1.00  0.00     0.059 A 
ATOM     90  C   UNL A   1      49.925  26.700  31.366  1.00  0.00     0.059 A 
ATOM     91  F   UNL A   1      47.750  26.601  32.246  1.00  0.00    -0.206 F 
ATOM     92  C   UNL A   1      50.779  27.040  30.315  1.00  0.00     0.060 A 
BRANCH  92  93
ATOM     93  S   UNL A   1      52.557  26.774  30.488  1.00  0.00     0.124 S 
ATOM     94  O   UNL A   1      53.021  28.116  30.829  1.00  0.00    -0.237 OA
ATOM     95  O   UNL A   1      52.636  25.787  31.561  1.00  0.00    -0.237 OA
ATOM     96  O   UNL A   1      52.948  26.286  29.170  1.00  0.00    -0.744 OA
ENDBRANCH  92  93
ENDBRANCH  60  85
ENDBRANCH  34  35
ENDBRANCH  27  29
ENDBRANCH  26  27
ENDBRANCH   1  26
TORSDOF 17
ENDMDL
MODEL 2
REMARK VINA RESULT:     -11.3      5.264     10.898
REMARK SMILES CS(=O)(=O)c1ccc(N2N=C(C(=O)OCCOC(=O)c3ccc(-c4c5nc(c(-c6c(F)cc(S(=O)(=O)[O-])cc6F)c6ccc([nH]6)c(-c6c(F)cc(S(=O)(=O)[O-])cc6F)c6nc(c(-c7c(F)cc(S(=O)(=O)[O-])cc7F)c7ccc4[nH]7)C=C6)C=C5)cc3)C[C@H]2c2ccco2)cc1
REMARK SMILES IDX 16 1 15 2 14 3 12 4 13 5 11 6 9 7 10 8 87 9 86 10 8 11 5 12
REMARK SMILES IDX 6 13 94 14 7 15 93 16 2 17 1 18 3 19 4 20 88 21 89 22 92 23
REMARK SMILES IDX 90 24 91 25 17 26 18 27 19 28 20 29 21 30 85 31 22 32 84 33
REMARK SMILES IDX 23 34 24 35 25 36 78 37 26 38 83 39 77 40 79 41 27 42 82 43
REMARK SMILES IDX 76 44 75 45 28 47 62 48 41 49 61 50 42 51 45 52 60 53 80 54
REMARK SMILES IDX 43 55 44 56 59 58 81 59 46 60 29 61 30 62 39 63 31 64 32 65
REMARK SMILES IDX 38 66 40 67 33 68 34 69 35 70 36 71 37 72 63 73 64 74 73 75
REMARK SMILES IDX 65 76 66 77 72 78 74 79 67 80 68 81 69 82 70 83 71 84 47 85
REMARK SMILES IDX 48 86 57 87 49 88 50 89 56 90 58 91 51 92 52 93 53 94 54 95
REMARK SMILES IDX 55 96
REMARK H PARENT 79 46 45 57
REMARK Flexibility Score: inf
ROOT
ATOM      1  C   UNL A   1      37.796  24.506  26.199  1.00  0.00     0.275 C 
ENDROOT
BRANCH   1   2
ATOM      2  C   UNL A   1      37.040  23.558  25.264  1.00  0.00     0.275 C 
BRANCH   2   3
ATOM      3  O   UNL A   1      35.627  23.792  25.385  1.00  0.00    -0.458 OA
BRANCH   3   4
ATOM      4  C   UNL A   1      35.009  24.287  24.293  1.00  0.00     0.354 C 
ATOM      5  O   UNL A   1      35.131  23.919  23.141  1.00  0.00    -0.245 OA
BRANCH   4   6
ATOM      6  C   UNL A   1      34.045  25.370  24.714  1.00  0.00     0.148 C 
ATOM      7  N   UNL A   1      32.671  26.975  24.603  1.00  0.00    -0.254 N 
ATOM      8  N   UNL A   1      33.363  26.072  23.861  1.00  0.00    -0.169 NA
ATOM      9  C   UNL A   1      32.942  26.904  26.041  1.00  0.00     0.180 C 
ATOM     10  C   UNL A   1      33.769  25.619  26.160  1.00  0.00     0.101 C 
BRANCH   7  11
ATOM     11  C   UNL A   1      31.535  27.587  24.095  1.00  0.00     0.060 A 
ATOM     12  C   UNL A   1      29.239  28.867  23.119  1.00  0.00     0.067 A 
ATOM     13  C   UNL A   1      29.243  27.480  23.276  1.00  0.00     0.022 A 
ATOM     14  C   UNL A   1      30.364  29.623  23.451  1.00  0.00     0.022 A 
ATOM     15  C   UNL A   1      30.393  26.847  23.760  1.00  0.00     0.029 A 
ATOM     16  C   UNL A   1      31.505  28.979  23.933  1.00  0.00     0.029 A 
BRANCH  12  17
ATOM     17  S   UNL A   1      27.756  29.677  22.563  1.00  0.00     0.175 S 
ATOM     18  C   UNL A   1      27.767  31.233  23.417  1.00  0.00     0.163 C 
ATOM     19  O   UNL A   1      26.629  28.901  23.049  1.00  0.00    -0.224 OA
ATOM     20  O   UNL A   1      27.922  29.917  21.143  1.00  0.00    -0.224 OA
ENDBRANCH  12  17
ENDBRANCH   7  11
BRANCH   9  21
ATOM     21  C   UNL A   1      33.649  28.110  26.586  1.00  0.00     0.128 A 
ATOM     22  C   UNL A   1      34.984  28.463  26.639  1.00  0.00     0.048 A 
ATOM     23  O   UNL A   1      32.896  29.069  27.204  1.00  0.00    -0.467 OA
ATOM     24  C   UNL A   1      35.047  29.698  27.329  1.00  0.00     0.042 A 
ATOM     25  C   UNL A   1      33.751  30.022  27.653  1.00  0.00     0.195 A 
ENDBRANCH   9  21
ENDBRANCH   4   6
ENDBRANCH   3   4
ENDBRANCH   2   3
ENDBRANCH   1   2
BRANCH   1  26
ATOM     26  O   UNL A   1      38.949  23.858  26.770  1.00  0.00    -0.458 OA
BRANCH  26  27
ATOM     27  C   UNL A   1      40.118  24.537  26.666  1.00  0.00     0.338 C 
ATOM     28  O   UNL A   1      40.954  24.411  25.785  1.00  0.00    -0.246 OA
BRANCH  27  29
ATOM     29  C   UNL A   1      40.210  25.551  27.738  1.00  0.00     0.060 A 
ATOM     30  C   UNL A   1      39.306  25.462  28.802  1.00  0.00     0.016 A 
ATOM     31  C   UNL A   1      41.138  26.597  27.692  1.00  0.00     0.016 A 
ATOM     32  C   UNL A   1      39.315  26.417  29.816  1.00  0.00     0.010 A 
ATOM     33  C   UNL A   1      41.141  27.563  28.701  1.00  0.00     0.010 A 
ATOM     34  C   UNL A   1      40.220  27.484  29.760  1.00  0.00    -0.014 A 
BRANCH  34  35
ATOM     35  C   UNL A   1      40.171  28.543  30.789  1.00  0.00     0.031 A 
ATOM     36  C   UNL A   1      41.115  28.493  31.954  1.00  0.00     0.074 A 
ATOM     37  C   UNL A   1      39.295  29.556  30.669  1.00  0.00     0.049 A 
ATOM     38  N   UNL A   1      41.221  29.316  32.964  1.00  0.00    -0.248 NA
ATOM     39  C   UNL A   1      42.072  27.375  31.979  1.00  0.00     0.031 C 
ATOM     40  C   UNL A   1      38.354  29.730  29.563  1.00  0.00     0.029 A 
ATOM     41  N   UNL A   1      39.058  30.628  31.488  1.00  0.00    -0.354 N 
ATOM     42  C   UNL A   1      42.253  28.819  33.748  1.00  0.00     0.074 A 
ATOM     43  C   UNL A   1      42.744  27.623  33.095  1.00  0.00     0.031 C 
ATOM     44  C   UNL A   1      37.633  30.844  29.777  1.00  0.00     0.029 A 
ATOM     45  C   UNL A   1      38.056  31.450  31.037  1.00  0.00     0.049 A 
ATOM     46  H   UNL A   1      39.558  30.792  32.321  1.00  0.00     0.167 HD
ATOM     47  C   UNL A   1      42.743  29.312  34.910  1.00  0.00     0.037 A 
ATOM     48  C   UNL A   1      37.532  32.562  31.587  1.00  0.00     0.037 A 
ATOM     49  C   UNL A   1      42.244  30.482  35.578  1.00  0.00     0.049 A 
ATOM     50  C   UNL A   1      38.058  33.062  32.900  1.00  0.00     0.074 A 
ATOM     51  C   UNL A   1      42.662  31.043  36.772  1.00  0.00     0.029 A 
ATOM     52  N   UNL A   1      41.203  31.270  35.108  1.00  0.00    -0.354 N 
ATOM     53  N   UNL A   1      39.029  32.575  33.635  1.00  0.00    -0.248 NA
ATOM     54  C   UNL A   1      37.410  34.255  33.465  1.00  0.00     0.031 C 
ATOM     55  C   UNL A   1      41.864  32.167  37.031  1.00  0.00     0.029 A 
ATOM     56  C   UNL A   1      40.957  32.306  35.992  1.00  0.00     0.049 A 
ATOM     57  H   UNL A   1      40.713  31.115  34.269  1.00  0.00     0.167 HD
ATOM     58  C   UNL A   1      39.103  33.397  34.754  1.00  0.00     0.074 A 
ATOM     59  C   UNL A   1      38.088  34.418  34.594  1.00  0.00     0.031 C 
ATOM     60  C   UNL A   1      39.935  33.306  35.820  1.00  0.00     0.037 A 
BRANCH  47  61
ATOM     61  C   UNL A   1      43.873  28.552  35.533  1.00  0.00     0.058 A 
ATOM     62  C   UNL A   1      45.206  28.860  35.223  1.00  0.00     0.135 A 
ATOM     63  C   UNL A   1      43.624  27.489  36.412  1.00  0.00     0.135 A 
ATOM     64  F   UNL A   1      45.489  29.858  34.370  1.00  0.00    -0.206 F 
ATOM     65  C   UNL A   1      46.259  28.119  35.749  1.00  0.00     0.059 A 
ATOM     66  C   UNL A   1      44.661  26.736  36.951  1.00  0.00     0.059 A 
ATOM     67  F   UNL A   1      42.362  27.150  36.723  1.00  0.00    -0.206 F 
ATOM     68  C   UNL A   1      45.975  27.048  36.598  1.00  0.00     0.060 A 
BRANCH  68  69
ATOM     69  S   UNL A   1      47.332  26.045  37.244  1.00  0.00     0.124 S 
ATOM     70  O   UNL A   1      48.045  25.703  36.018  1.00  0.00    -0.237 OA
ATOM     71  O   UNL A   1      48.021  26.969  38.140  1.00  0.00    -0.237 OA
ATOM     72  O   UNL A   1      46.642  24.941  37.903  1.00  0.00    -0.744 OA
ENDBRANCH  68  69
ENDBRANCH  47  61
BRANCH  48  73
ATOM     73  C   UNL A   1      36.430  33.266  30.891  1.00  0.00     0.058 A 
ATOM     74  C   UNL A   1      35.110  33.160  31.348  1.00  0.00     0.135 A 
ATOM     75  C   UNL A   1      36.689  34.090  29.786  1.00  0.00     0.135 A 
ATOM     76  F   UNL A   1      34.824  32.381  32.401  1.00  0.00    -0.206 F 
ATOM     77  C   UNL A   1      34.074  33.856  30.734  1.00  0.00     0.059 A 
ATOM     78  C   UNL A   1      35.671  34.799  29.159  1.00  0.00     0.059 A 
ATOM     79  F   UNL A   1      37.941  34.223  29.324  1.00  0.00    -0.206 F 
ATOM     80  C   UNL A   1      34.364  34.672  29.639  1.00  0.00     0.060 A 
BRANCH  80  81
ATOM     81  S   UNL A   1      33.047  35.641  28.871  1.00  0.00     0.124 S 
ATOM     82  O   UNL A   1      33.812  36.639  28.133  1.00  0.00    -0.237 OA
ATOM     83  O   UNL A   1      32.344  34.651  28.061  1.00  0.00    -0.237 OA
ATOM     84  O   UNL A   1      32.301  36.136  30.025  1.00  0.00    -0.744 OA
ENDBRANCH  80  81
ENDBRANCH  48  73
BRANCH  60  85
ATOM     85  C   UNL A   1      39.768  34.327  36.903  1.00  0.00     0.058 A 
ATOM     86  C   UNL A   1      39.015  34.038  38.050  1.00  0.00     0.135 A 
ATOM     87  C   UNL A   1      40.399  35.577  36.820  1.00  0.00     0.135 A 
ATOM     88  F   UNL A   1      38.391  32.855  38.169  1.00  0.00    -0.206 F 
ATOM     89  C   UNL A   1      38.889  34.959  39.085  1.00  0.00     0.059 A 
ATOM     90  C   UNL A   1      40.290  36.511  37.843  1.00  0.00     0.059 A 
ATOM     91  F   UNL A   1      41.128  35.894  35.739  1.00  0.00    -0.206 F 
ATOM     92  C   UNL A   1      39.528  36.196  38.971  1.00  0.00     0.060 A 
BRANCH  92  93
ATOM     93  S   UNL A   1      39.408  37.383  40.328  1.00  0.00     0.124 S 
ATOM     94  O   UNL A   1      38.615  36.637  41.299  1.00  0.00    -0.237 OA
ATOM     95  O   UNL A   1      40.805  37.604  40.690  1.00  0.00    -0.237 OA
ATOM     96  O   UNL A   1      38.742  38.525  39.710  1.00  0.00    -0.744 OA
ENDBRANCH  92  93
ENDBRANCH  60  85
ENDBRANCH  34  35
ENDBRANCH  27  29
ENDBRANCH  26  27
ENDBRANCH   1  26
TORSDOF 17
ENDMDL
MODEL 3
REMARK VINA RESULT:     -11.2      2.288      3.047
REMARK SMILES CS(=O)(=O)c1ccc(N2N=C(C(=O)OCCOC(=O)c3ccc(-c4c5nc(c(-c6c(F)cc(S(=O)(=O)[O-])cc6F)c6ccc([nH]6)c(-c6c(F)cc(S(=O)(=O)[O-])cc6F)c6nc(c(-c7c(F)cc(S(=O)(=O)[O-])cc7F)c7ccc4[nH]7)C=C6)C=C5)cc3)C[C@H]2c2ccco2)cc1
REMARK SMILES IDX 16 1 15 2 14 3 12 4 13 5 11 6 9 7 10 8 87 9 86 10 8 11 5 12
REMARK SMILES IDX 6 13 94 14 7 15 93 16 2 17 1 18 3 19 4 20 88 21 89 22 92 23
REMARK SMILES IDX 90 24 91 25 17 26 18 27 19 28 20 29 21 30 85 31 22 32 84 33
REMARK SMILES IDX 23 34 24 35 25 36 78 37 26 38 83 39 77 40 79 41 27 42 82 43
REMARK SMILES IDX 76 44 75 45 28 47 62 48 41 49 61 50 42 51 45 52 60 53 80 54
REMARK SMILES IDX 43 55 44 56 59 58 81 59 46 60 29 61 30 62 39 63 31 64 32 65
REMARK SMILES IDX 38 66 40 67 33 68 34 69 35 70 36 71 37 72 63 73 64 74 73 75
REMARK SMILES IDX 65 76 66 77 72 78 74 79 67 80 68 81 69 82 70 83 71 84 47 85
REMARK SMILES IDX 48 86 57 87 49 88 50 89 56 90 58 91 51 92 52 93 53 94 54 95
REMARK SMILES IDX 55 96
REMARK H PARENT 79 46 45 57
REMARK Flexibility Score: inf
ROOT
ATOM      1  C   UNL A   1      32.948  29.034  25.595  1.00  0.00     0.275 C 
ENDROOT
BRANCH   1   2
ATOM      2  C   UNL A   1      32.587  27.614  25.150  1.00  0.00     0.275 C 
BRANCH   2   3
ATOM      3  O   UNL A   1      33.424  26.669  25.838  1.00  0.00    -0.458 OA
BRANCH   3   4
ATOM      4  C   UNL A   1      32.853  25.492  26.162  1.00  0.00     0.354 C 
ATOM      5  O   UNL A   1      31.783  25.313  26.712  1.00  0.00    -0.245 OA
BRANCH   4   6
ATOM      6  C   UNL A   1      33.724  24.362  25.669  1.00  0.00     0.148 C 
ATOM      7  N   UNL A   1      34.499  22.414  25.385  1.00  0.00    -0.254 N 
ATOM      8  N   UNL A   1      33.474  23.116  25.933  1.00  0.00    -0.169 NA
ATOM      9  C   UNL A   1      35.526  23.246  24.754  1.00  0.00     0.180 C 
ATOM     10  C   UNL A   1      34.882  24.636  24.766  1.00  0.00     0.101 C 
BRANCH   7  11
ATOM     11  C   UNL A   1      34.358  21.066  25.093  1.00  0.00     0.060 A 
ATOM     12  C   UNL A   1      34.030  18.333  24.555  1.00  0.00     0.067 A 
ATOM     13  C   UNL A   1      35.315  18.861  24.694  1.00  0.00     0.022 A 
ATOM     14  C   UNL A   1      32.907  19.151  24.689  1.00  0.00     0.022 A 
ATOM     15  C   UNL A   1      35.472  20.225  24.959  1.00  0.00     0.029 A 
ATOM     16  C   UNL A   1      33.078  20.512  24.954  1.00  0.00     0.029 A 
BRANCH  12  17
ATOM     17  S   UNL A   1      33.830  16.587  24.280  1.00  0.00     0.175 S 
ATOM     18  C   UNL A   1      35.130  15.849  25.236  1.00  0.00     0.163 C 
ATOM     19  O   UNL A   1      34.098  16.334  22.876  1.00  0.00    -0.224 OA
ATOM     20  O   UNL A   1      32.552  16.220  24.860  1.00  0.00    -0.224 OA
ENDBRANCH  12  17
ENDBRANCH   7  11
BRANCH   9  21
ATOM     21  C   UNL A   1      36.853  23.208  25.455  1.00  0.00     0.128 A 
ATOM     22  C   UNL A   1      37.472  24.083  26.328  1.00  0.00     0.048 A 
ATOM     23  O   UNL A   1      37.686  22.156  25.195  1.00  0.00    -0.467 OA
ATOM     24  C   UNL A   1      38.747  23.537  26.609  1.00  0.00     0.042 A 
ATOM     25  C   UNL A   1      38.829  22.366  25.894  1.00  0.00     0.195 A 
ENDBRANCH   9  21
ENDBRANCH   4   6
ENDBRANCH   3   4
ENDBRANCH   2   3
ENDBRANCH   1   2
BRANCH   1  26
ATOM     26  O   UNL A   1      34.219  29.054  26.274  1.00  0.00    -0.458 OA
BRANCH  26  27
ATOM     27  C   UNL A   1      34.354  29.997  27.240  1.00  0.00     0.338 C 
ATOM     28  O   UNL A   1      33.523  30.833  27.559  1.00  0.00    -0.246 OA
BRANCH  27  29
ATOM     29  C   UNL A   1      35.641  29.818  27.944  1.00  0.00     0.060 A 
ATOM     30  C   UNL A   1      36.819  29.974  27.205  1.00  0.00     0.016 A 
ATOM     31  C   UNL A   1      35.704  29.464  29.297  1.00  0.00     0.016 A 
ATOM     32  C   UNL A   1      38.060  29.770  27.805  1.00  0.00     0.010 A 
ATOM     33  C   UNL A   1      36.947  29.247  29.897  1.00  0.00     0.010 A 
ATOM     34  C   UNL A   1      38.128  29.385  29.149  1.00  0.00    -0.014 A 
BRANCH  34  35
ATOM     35  C   UNL A   1      39.440  29.085  29.761  1.00  0.00     0.031 A 
ATOM     36  C   UNL A   1      39.906  29.876  30.947  1.00  0.00     0.074 A 
ATOM     37  C   UNL A   1      40.200  28.094  29.265  1.00  0.00     0.049 A 
ATOM     38  N   UNL A   1      41.026  29.775  31.615  1.00  0.00    -0.248 NA
ATOM     39  C   UNL A   1      38.989  30.909  31.453  1.00  0.00     0.031 C 
ATOM     40  C   UNL A   1      39.836  27.234  28.139  1.00  0.00     0.029 A 
ATOM     41  N   UNL A   1      41.437  27.646  29.647  1.00  0.00    -0.354 N 
ATOM     42  C   UNL A   1      40.952  30.730  32.620  1.00  0.00     0.074 A 
ATOM     43  C   UNL A   1      39.675  31.399  32.476  1.00  0.00     0.031 C 
ATOM     44  C   UNL A   1      40.835  26.363  27.916  1.00  0.00     0.029 A 
ATOM     45  C   UNL A   1      41.908  26.614  28.875  1.00  0.00     0.049 A 
ATOM     46  H   UNL A   1      41.940  28.028  30.403  1.00  0.00     0.167 HD
ATOM     47  C   UNL A   1      41.867  31.026  33.573  1.00  0.00     0.037 A 
ATOM     48  C   UNL A   1      43.080  25.952  28.931  1.00  0.00     0.037 A 
ATOM     49  C   UNL A   1      43.146  30.385  33.706  1.00  0.00     0.049 A 
ATOM     50  C   UNL A   1      44.100  26.330  29.965  1.00  0.00     0.074 A 
ATOM     51  C   UNL A   1      44.148  30.635  34.627  1.00  0.00     0.029 A 
ATOM     52  N   UNL A   1      43.602  29.366  32.883  1.00  0.00    -0.354 N 
ATOM     53  N   UNL A   1      44.018  27.242  30.903  1.00  0.00    -0.248 NA
ATOM     54  C   UNL A   1      45.373  25.598  29.940  1.00  0.00     0.031 C 
ATOM     55  C   UNL A   1      45.220  29.773  34.352  1.00  0.00     0.029 A 
ATOM     56  C   UNL A   1      44.876  28.983  33.266  1.00  0.00     0.049 A 
ATOM     57  H   UNL A   1      43.095  28.973  32.138  1.00  0.00     0.167 HD
ATOM     58  C   UNL A   1      45.234  27.201  31.576  1.00  0.00     0.074 A 
ATOM     59  C   UNL A   1      46.028  26.165  30.946  1.00  0.00     0.031 C 
ATOM     60  C   UNL A   1      45.653  27.958  32.619  1.00  0.00     0.037 A 
BRANCH  47  61
ATOM     61  C   UNL A   1      41.502  32.117  34.532  1.00  0.00     0.058 A 
ATOM     62  C   UNL A   1      40.882  31.824  35.755  1.00  0.00     0.135 A 
ATOM     63  C   UNL A   1      41.739  33.461  34.212  1.00  0.00     0.135 A 
ATOM     64  F   UNL A   1      40.619  30.550  36.092  1.00  0.00    -0.206 F 
ATOM     65  C   UNL A   1      40.484  32.835  36.624  1.00  0.00     0.059 A 
ATOM     66  C   UNL A   1      41.351  34.488  35.066  1.00  0.00     0.059 A 
ATOM     67  F   UNL A   1      42.315  33.787  33.044  1.00  0.00    -0.206 F 
ATOM     68  C   UNL A   1      40.707  34.164  36.262  1.00  0.00     0.060 A 
BRANCH  68  69
ATOM     69  S   UNL A   1      40.147  35.487  37.357  1.00  0.00     0.124 S 
ATOM     70  O   UNL A   1      41.278  35.600  38.272  1.00  0.00    -0.237 OA
ATOM     71  O   UNL A   1      39.958  36.608  36.442  1.00  0.00    -0.237 OA
ATOM     72  O   UNL A   1      38.921  34.943  37.933  1.00  0.00    -0.744 OA
ENDBRANCH  68  69
ENDBRANCH  47  61
BRANCH  48  73
ATOM     73  C   UNL A   1      43.349  24.869  27.957  1.00  0.00     0.058 A 
ATOM     74  C   UNL A   1      43.999  25.139  26.746  1.00  0.00     0.135 A 
ATOM     75  C   UNL A   1      43.000  23.542  28.244  1.00  0.00     0.135 A 
ATOM     76  F   UNL A   1      44.347  26.397  26.437  1.00  0.00    -0.206 F 
ATOM     77  C   UNL A   1      44.302  24.124  25.846  1.00  0.00     0.059 A 
ATOM     78  C   UNL A   1      43.297  22.509  27.362  1.00  0.00     0.059 A 
ATOM     79  F   UNL A   1      42.383  23.242  29.398  1.00  0.00    -0.206 F 
ATOM     80  C   UNL A   1      43.946  22.811  26.162  1.00  0.00     0.060 A 
BRANCH  80  81
ATOM     81  S   UNL A   1      44.395  21.468  25.042  1.00  0.00     0.124 S 
ATOM     82  O   UNL A   1      43.368  20.479  25.345  1.00  0.00    -0.237 OA
ATOM     83  O   UNL A   1      44.305  22.096  23.727  1.00  0.00    -0.237 OA
ATOM     84  O   UNL A   1      45.750  21.132  25.472  1.00  0.00    -0.744 OA
ENDBRANCH  80  81
ENDBRANCH  48  73
BRANCH  60  85
ATOM     85  C   UNL A   1      47.040  27.707  33.128  1.00  0.00     0.058 A 
ATOM     86  C   UNL A   1      47.275  26.744  34.120  1.00  0.00     0.135 A 
ATOM     87  C   UNL A   1      48.140  28.392  32.591  1.00  0.00     0.135 A 
ATOM     88  F   UNL A   1      46.251  26.069  34.663  1.00  0.00    -0.206 F 
ATOM     89  C   UNL A   1      48.563  26.468  34.569  1.00  0.00     0.059 A 
ATOM     90  C   UNL A   1      49.435  28.129  33.023  1.00  0.00     0.059 A 
ATOM     91  F   UNL A   1      47.959  29.322  31.640  1.00  0.00    -0.206 F 
ATOM     92  C   UNL A   1      49.637  27.168  34.016  1.00  0.00     0.060 A 
BRANCH  92  93
ATOM     93  S   UNL A   1      51.317  26.786  34.560  1.00  0.00     0.124 S 
ATOM     94  O   UNL A   1      51.150  25.439  35.096  1.00  0.00    -0.237 OA
ATOM     95  O   UNL A   1      52.089  26.883  33.325  1.00  0.00    -0.237 OA
ATOM     96  O   UNL A   1      51.591  27.828  35.544  1.00  0.00    -0.744 OA
ENDBRANCH  92  93
ENDBRANCH  60  85
ENDBRANCH  34  35
ENDBRANCH  27  29
ENDBRANCH  26  27
ENDBRANCH   1  26
TORSDOF 17
ENDMDL
