MODEL 1
REMARK VINA RESULT:     -11.0      0.000      0.000
REMARK SMILES C[C@H]1OCC[C@H]1C(=O)N1CCCC[C@@H]1CC(=O)OCCOC(=O)c1ccc(-c2c3nc(c(-c4c(F)cc(S(=O)(=O)[O-])cc4F)c4ccc([nH]4)c(-c4c(F)cc(S(=O)(=O)[O-])cc4F)c4nc(c(-c5c(F)cc(S(=O)(=O)[O-])cc5F)c5ccc2[nH]5)C=C4)C=C3)cc1
REMARK SMILES IDX 19 1 18 2 16 3 17 4 15 5 14 6 9 7 10 8 11 9 13 10 12 11 7 12
REMARK SMILES IDX 8 13 6 14 1 15 2 16 3 17 4 18 5 19 20 20 21 21 22 22 23 23
REMARK SMILES IDX 24 24 25 25 89 26 26 27 88 28 27 29 28 30 29 31 82 32 30 33
REMARK SMILES IDX 87 34 81 35 83 36 31 37 86 38 80 39 79 40 32 42 66 43 45 44
REMARK SMILES IDX 65 45 46 46 49 47 64 48 84 49 47 50 48 51 63 53 85 54 50 55
REMARK SMILES IDX 33 56 34 57 43 58 35 59 36 60 42 61 44 62 37 63 38 64 39 65
REMARK SMILES IDX 40 66 41 67 67 68 68 69 77 70 69 71 70 72 76 73 78 74 71 75
REMARK SMILES IDX 72 76 73 77 74 78 75 79 51 80 52 81 61 82 53 83 54 84 60 85
REMARK SMILES IDX 62 86 55 87 56 88 57 89 58 90 59 91
REMARK H PARENT 83 41 49 52
REMARK Flexibility Score: inf
ROOT
ATOM      1  C   UNL A   1      33.070  30.528  27.094  1.00  0.00     0.274 C 
ENDROOT
BRANCH   1   2
ATOM      2  O   UNL A   1      33.105  29.108  27.332  1.00  0.00    -0.462 OA
BRANCH   2   3
ATOM      3  C   UNL A   1      31.895  28.498  27.337  1.00  0.00     0.307 C 
ATOM      4  O   UNL A   1      31.465  27.823  28.267  1.00  0.00    -0.252 OA
BRANCH   3   5
ATOM      5  C   UNL A   1      31.107  28.668  26.067  1.00  0.00     0.147 C 
BRANCH   5   6
ATOM      6  C   UNL A   1      31.564  27.942  24.797  1.00  0.00     0.096 C 
ATOM      7  N   UNL A   1      31.328  28.745  23.560  1.00  0.00    -0.339 N 
ATOM      8  C   UNL A   1      31.736  28.096  22.317  1.00  0.00     0.120 C 
ATOM      9  C   UNL A   1      31.084  26.722  22.167  1.00  0.00     0.022 C 
ATOM     10  C   UNL A   1      30.907  26.556  24.665  1.00  0.00     0.026 C 
ATOM     11  C   UNL A   1      31.357  25.850  23.387  1.00  0.00     0.004 C 
BRANCH   7  12
ATOM     12  C   UNL A   1      30.270  29.645  23.482  1.00  0.00     0.228 C 
ATOM     13  O   UNL A   1      30.140  30.548  24.312  1.00  0.00    -0.274 OA
BRANCH  12  14
ATOM     14  C   UNL A   1      29.340  29.566  22.252  1.00  0.00     0.109 C 
ATOM     15  C   UNL A   1      27.795  27.834  23.513  1.00  0.00     0.039 C 
ATOM     16  C   UNL A   1      27.947  29.032  22.591  1.00  0.00     0.127 C 
ATOM     17  O   UNL A   1      27.235  30.169  23.106  1.00  0.00    -0.378 OA
ATOM     18  C   UNL A   1      27.757  31.340  22.455  1.00  0.00     0.161 C 
ATOM     19  C   UNL A   1      28.928  30.881  21.606  1.00  0.00     0.044 C 
ENDBRANCH  12  14
ENDBRANCH   7  12
ENDBRANCH   5   6
ENDBRANCH   3   5
ENDBRANCH   2   3
ENDBRANCH   1   2
BRANCH   1  20
ATOM     20  C   UNL A   1      34.277  31.230  27.715  1.00  0.00     0.275 C 
BRANCH  20  21
ATOM     21  O   UNL A   1      35.146  30.308  28.397  1.00  0.00    -0.458 OA
BRANCH  21  22
ATOM     22  C   UNL A   1      36.132  30.881  29.123  1.00  0.00     0.338 C 
ATOM     23  O   UNL A   1      36.035  31.839  29.877  1.00  0.00    -0.246 OA
BRANCH  22  24
ATOM     24  C   UNL A   1      37.393  30.158  28.919  1.00  0.00     0.060 A 
ATOM     25  C   UNL A   1      38.217  29.926  30.016  1.00  0.00     0.016 A 
ATOM     26  C   UNL A   1      37.831  29.850  27.629  1.00  0.00     0.016 A 
ATOM     27  C   UNL A   1      39.511  29.440  29.820  1.00  0.00     0.010 A 
ATOM     28  C   UNL A   1      39.115  29.318  27.443  1.00  0.00     0.010 A 
ATOM     29  C   UNL A   1      39.984  29.140  28.534  1.00  0.00    -0.014 A 
BRANCH  29  30
ATOM     30  C   UNL A   1      41.398  28.709  28.332  1.00  0.00     0.031 A 
ATOM     31  C   UNL A   1      42.523  29.705  28.471  1.00  0.00     0.074 A 
ATOM     32  C   UNL A   1      41.693  27.423  28.054  1.00  0.00     0.049 A 
ATOM     33  N   UNL A   1      43.791  29.568  28.177  1.00  0.00    -0.248 NA
ATOM     34  C   UNL A   1      42.173  31.031  29.007  1.00  0.00     0.031 C 
ATOM     35  C   UNL A   1      40.721  26.334  27.947  1.00  0.00     0.029 A 
ATOM     36  N   UNL A   1      42.901  26.813  27.817  1.00  0.00    -0.354 N 
ATOM     37  C   UNL A   1      44.380  30.801  28.436  1.00  0.00     0.074 A 
ATOM     38  C   UNL A   1      43.330  31.673  28.921  1.00  0.00     0.031 C 
ATOM     39  C   UNL A   1      41.371  25.187  27.695  1.00  0.00     0.029 A 
ATOM     40  C   UNL A   1      42.797  25.469  27.551  1.00  0.00     0.049 A 
ATOM     41  H   UNL A   1      43.760  27.294  27.836  1.00  0.00     0.167 HD
ATOM     42  C   UNL A   1      45.673  31.175  28.279  1.00  0.00     0.037 A 
ATOM     43  C   UNL A   1      43.732  24.567  27.194  1.00  0.00     0.037 A 
ATOM     44  C   UNL A   1      46.732  30.295  27.853  1.00  0.00     0.049 A 
ATOM     45  C   UNL A   1      45.159  25.005  27.014  1.00  0.00     0.074 A 
ATOM     46  C   UNL A   1      48.072  30.588  27.664  1.00  0.00     0.029 A 
ATOM     47  N   UNL A   1      46.575  28.947  27.570  1.00  0.00    -0.354 N 
ATOM     48  N   UNL A   1      45.682  26.195  27.184  1.00  0.00    -0.248 NA
ATOM     49  C   UNL A   1      46.118  23.982  26.572  1.00  0.00     0.031 C 
ATOM     50  C   UNL A   1      48.723  29.421  27.249  1.00  0.00     0.029 A 
ATOM     51  C   UNL A   1      47.794  28.396  27.207  1.00  0.00     0.049 A 
ATOM     52  H   UNL A   1      45.724  28.455  27.619  1.00  0.00     0.167 HD
ATOM     53  C   UNL A   1      47.029  26.064  26.868  1.00  0.00     0.074 A 
ATOM     54  C   UNL A   1      47.247  24.675  26.520  1.00  0.00     0.031 C 
ATOM     55  C   UNL A   1      47.998  27.013  26.860  1.00  0.00     0.037 A 
BRANCH  42  56
ATOM     56  C   UNL A   1      46.018  32.614  28.540  1.00  0.00     0.058 A 
ATOM     57  C   UNL A   1      46.454  33.056  29.797  1.00  0.00     0.135 A 
ATOM     58  C   UNL A   1      45.948  33.555  27.500  1.00  0.00     0.135 A 
ATOM     59  F   UNL A   1      46.521  32.201  30.829  1.00  0.00    -0.206 F 
ATOM     60  C   UNL A   1      46.790  34.389  30.020  1.00  0.00     0.059 A 
ATOM     61  C   UNL A   1      46.298  34.887  27.695  1.00  0.00     0.059 A 
ATOM     62  F   UNL A   1      45.536  33.180  26.278  1.00  0.00    -0.206 F 
ATOM     63  C   UNL A   1      46.706  35.297  28.963  1.00  0.00     0.060 A 
BRANCH  63  64
ATOM     64  S   UNL A   1      47.146  37.023  29.261  1.00  0.00     0.124 S 
ATOM     65  O   UNL A   1      48.318  36.879  30.119  1.00  0.00    -0.237 OA
ATOM     66  O   UNL A   1      47.405  37.521  27.914  1.00  0.00    -0.237 OA
ATOM     67  O   UNL A   1      45.957  37.569  29.909  1.00  0.00    -0.744 OA
ENDBRANCH  63  64
ENDBRANCH  42  56
BRANCH  43  68
ATOM     68  C   UNL A   1      43.337  23.158  26.939  1.00  0.00     0.058 A 
ATOM     69  C   UNL A   1      43.287  22.646  25.635  1.00  0.00     0.135 A 
ATOM     70  C   UNL A   1      43.018  22.292  27.997  1.00  0.00     0.135 A 
ATOM     71  F   UNL A   1      43.570  23.442  24.592  1.00  0.00    -0.206 F 
ATOM     72  C   UNL A   1      42.934  21.325  25.385  1.00  0.00     0.059 A 
ATOM     73  C   UNL A   1      42.684  20.961  27.773  1.00  0.00     0.059 A 
ATOM     74  F   UNL A   1      43.058  22.734  29.263  1.00  0.00    -0.206 F 
ATOM     75  C   UNL A   1      42.637  20.488  26.463  1.00  0.00     0.060 A 
BRANCH  75  76
ATOM     76  S   UNL A   1      42.243  18.754  26.145  1.00  0.00     0.124 S 
ATOM     77  O   UNL A   1      42.506  18.152  27.446  1.00  0.00    -0.237 OA
ATOM     78  O   UNL A   1      40.839  18.820  25.745  1.00  0.00    -0.237 OA
ATOM     79  O   UNL A   1      43.172  18.394  25.079  1.00  0.00    -0.744 OA
ENDBRANCH  75  76
ENDBRANCH  43  68
BRANCH  55  80
ATOM     80  C   UNL A   1      49.381  26.578  26.475  1.00  0.00     0.058 A 
ATOM     81  C   UNL A   1      49.834  26.674  25.149  1.00  0.00     0.135 A 
ATOM     82  C   UNL A   1      50.274  26.093  27.442  1.00  0.00     0.135 A 
ATOM     83  F   UNL A   1      49.015  27.126  24.187  1.00  0.00    -0.206 F 
ATOM     84  C   UNL A   1      51.121  26.285  24.793  1.00  0.00     0.059 A 
ATOM     85  C   UNL A   1      51.572  25.713  27.110  1.00  0.00     0.059 A 
ATOM     86  F   UNL A   1      49.891  25.990  28.724  1.00  0.00    -0.206 F 
ATOM     87  C   UNL A   1      51.982  25.801  25.781  1.00  0.00     0.060 A 
BRANCH  87  88
ATOM     88  S   UNL A   1      53.659  25.320  25.315  1.00  0.00     0.124 S 
ATOM     89  O   UNL A   1      53.619  23.877  25.528  1.00  0.00    -0.237 OA
ATOM     90  O   UNL A   1      53.740  25.754  23.924  1.00  0.00    -0.237 OA
ATOM     91  O   UNL A   1      54.496  26.070  26.247  1.00  0.00    -0.744 OA
ENDBRANCH  87  88
ENDBRANCH  55  80
ENDBRANCH  29  30
ENDBRANCH  22  24
ENDBRANCH  21  22
ENDBRANCH  20  21
ENDBRANCH   1  20
TORSDOF 17
ENDMDL
MODEL 2
REMARK VINA RESULT:     -10.9      1.420      2.700
REMARK SMILES C[C@H]1OCC[C@H]1C(=O)N1CCCC[C@@H]1CC(=O)OCCOC(=O)c1ccc(-c2c3nc(c(-c4c(F)cc(S(=O)(=O)[O-])cc4F)c4ccc([nH]4)c(-c4c(F)cc(S(=O)(=O)[O-])cc4F)c4nc(c(-c5c(F)cc(S(=O)(=O)[O-])cc5F)c5ccc2[nH]5)C=C4)C=C3)cc1
REMARK SMILES IDX 19 1 18 2 16 3 17 4 15 5 14 6 9 7 10 8 11 9 13 10 12 11 7 12
REMARK SMILES IDX 8 13 6 14 1 15 2 16 3 17 4 18 5 19 20 20 21 21 22 22 23 23
REMARK SMILES IDX 24 24 25 25 89 26 26 27 88 28 27 29 28 30 29 31 82 32 30 33
REMARK SMILES IDX 87 34 81 35 83 36 31 37 86 38 80 39 79 40 32 42 66 43 45 44
REMARK SMILES IDX 65 45 46 46 49 47 64 48 84 49 47 50 48 51 63 53 85 54 50 55
REMARK SMILES IDX 33 56 34 57 43 58 35 59 36 60 42 61 44 62 37 63 38 64 39 65
REMARK SMILES IDX 40 66 41 67 67 68 68 69 77 70 69 71 70 72 76 73 78 74 71 75
REMARK SMILES IDX 72 76 73 77 74 78 75 79 51 80 52 81 61 82 53 83 54 84 60 85
REMARK SMILES IDX 62 86 55 87 56 88 57 89 58 90 59 91
REMARK H PARENT 83 41 49 52
REMARK Flexibility Score: inf
ROOT
ATOM      1  C   UNL A   1      33.467  30.993  27.140  1.00  0.00     0.274 C 
ENDROOT
BRANCH   1   2
ATOM      2  O   UNL A   1      32.825  29.779  27.574  1.00  0.00    -0.462 OA
BRANCH   2   3
ATOM      3  C   UNL A   1      33.311  28.643  27.018  1.00  0.00     0.307 C 
ATOM      4  O   UNL A   1      34.424  28.543  26.514  1.00  0.00    -0.252 OA
BRANCH   3   5
ATOM      5  C   UNL A   1      32.346  27.490  27.015  1.00  0.00     0.147 C 
BRANCH   5   6
ATOM      6  C   UNL A   1      31.217  27.458  25.977  1.00  0.00     0.096 C 
ATOM      7  N   UNL A   1      30.579  26.112  25.865  1.00  0.00    -0.339 N 
ATOM      8  C   UNL A   1      29.503  26.022  24.881  1.00  0.00     0.120 C 
ATOM      9  C   UNL A   1      29.969  26.483  23.501  1.00  0.00     0.022 C 
ATOM     10  C   UNL A   1      31.701  27.935  24.596  1.00  0.00     0.026 C 
ATOM     11  C   UNL A   1      30.572  27.881  23.567  1.00  0.00     0.004 C 
BRANCH   7  12
ATOM     12  C   UNL A   1      31.306  24.952  26.111  1.00  0.00     0.228 C 
ATOM     13  O   UNL A   1      31.397  24.488  27.250  1.00  0.00    -0.274 OA
BRANCH  12  14
ATOM     14  C   UNL A   1      31.883  24.188  24.900  1.00  0.00     0.109 C 
ATOM     15  C   UNL A   1      34.294  25.125  25.439  1.00  0.00     0.039 C 
ATOM     16  C   UNL A   1      33.398  23.983  24.991  1.00  0.00     0.127 C 
ATOM     17  O   UNL A   1      33.561  22.837  25.842  1.00  0.00    -0.378 OA
ATOM     18  C   UNL A   1      32.418  21.987  25.650  1.00  0.00     0.161 C 
ATOM     19  C   UNL A   1      31.468  22.734  24.732  1.00  0.00     0.044 C 
ENDBRANCH  12  14
ENDBRANCH   7  12
ENDBRANCH   5   6
ENDBRANCH   3   5
ENDBRANCH   2   3
ENDBRANCH   1   2
BRANCH   1  20
ATOM     20  C   UNL A   1      34.285  31.629  28.263  1.00  0.00     0.275 C 
BRANCH  20  21
ATOM     21  O   UNL A   1      35.206  30.695  28.854  1.00  0.00    -0.458 OA
BRANCH  21  22
ATOM     22  C   UNL A   1      36.229  31.255  29.538  1.00  0.00     0.338 C 
ATOM     23  O   UNL A   1      36.175  32.212  30.298  1.00  0.00    -0.246 OA
BRANCH  22  24
ATOM     24  C   UNL A   1      37.472  30.519  29.278  1.00  0.00     0.060 A 
ATOM     25  C   UNL A   1      38.365  30.322  30.327  1.00  0.00     0.016 A 
ATOM     26  C   UNL A   1      37.824  30.163  27.975  1.00  0.00     0.016 A 
ATOM     27  C   UNL A   1      39.643  29.823  30.065  1.00  0.00     0.010 A 
ATOM     28  C   UNL A   1      39.092  29.618  27.726  1.00  0.00     0.010 A 
ATOM     29  C   UNL A   1      40.029  29.475  28.763  1.00  0.00    -0.014 A 
BRANCH  29  30
ATOM     30  C   UNL A   1      41.426  29.030  28.485  1.00  0.00     0.031 A 
ATOM     31  C   UNL A   1      42.569  30.011  28.580  1.00  0.00     0.074 A 
ATOM     32  C   UNL A   1      41.691  27.744  28.177  1.00  0.00     0.049 A 
ATOM     33  N   UNL A   1      43.820  29.863  28.221  1.00  0.00    -0.248 NA
ATOM     34  C   UNL A   1      42.263  31.333  29.149  1.00  0.00     0.031 C 
ATOM     35  C   UNL A   1      40.701  26.669  28.105  1.00  0.00     0.029 A 
ATOM     36  N   UNL A   1      42.878  27.123  27.872  1.00  0.00    -0.354 N 
ATOM     37  C   UNL A   1      44.435  31.085  28.465  1.00  0.00     0.074 A 
ATOM     38  C   UNL A   1      43.423  31.963  29.013  1.00  0.00     0.031 C 
ATOM     39  C   UNL A   1      41.324  25.517  27.807  1.00  0.00     0.029 A 
ATOM     40  C   UNL A   1      42.744  25.784  27.595  1.00  0.00     0.049 A 
ATOM     41  H   UNL A   1      43.743  27.593  27.854  1.00  0.00     0.167 HD
ATOM     42  C   UNL A   1      45.724  31.446  28.249  1.00  0.00     0.037 A 
ATOM     43  C   UNL A   1      43.649  24.875  27.181  1.00  0.00     0.037 A 
ATOM     44  C   UNL A   1      46.749  30.559  27.759  1.00  0.00     0.049 A 
ATOM     45  C   UNL A   1      45.070  25.299  26.935  1.00  0.00     0.074 A 
ATOM     46  C   UNL A   1      48.082  30.838  27.507  1.00  0.00     0.029 A 
ATOM     47  N   UNL A   1      46.562  29.216  27.467  1.00  0.00    -0.354 N 
ATOM     48  N   UNL A   1      45.616  26.480  27.093  1.00  0.00    -0.248 NA
ATOM     49  C   UNL A   1      45.993  24.270  26.433  1.00  0.00     0.031 C 
ATOM     50  C   UNL A   1      48.696  29.669  27.045  1.00  0.00     0.029 A 
ATOM     51  C   UNL A   1      47.754  28.655  27.037  1.00  0.00     0.049 A 
ATOM     52  H   UNL A   1      45.708  28.734  27.554  1.00  0.00     0.167 HD
ATOM     53  C   UNL A   1      46.944  26.338  26.709  1.00  0.00     0.074 A 
ATOM     54  C   UNL A   1      47.127  24.951  26.332  1.00  0.00     0.031 C 
ATOM     55  C   UNL A   1      47.923  27.275  26.664  1.00  0.00     0.037 A 
BRANCH  42  56
ATOM     56  C   UNL A   1      46.099  32.876  28.509  1.00  0.00     0.058 A 
ATOM     57  C   UNL A   1      46.612  33.296  29.745  1.00  0.00     0.135 A 
ATOM     58  C   UNL A   1      45.980  33.834  27.488  1.00  0.00     0.135 A 
ATOM     59  F   UNL A   1      46.729  32.425  30.760  1.00  0.00    -0.206 F 
ATOM     60  C   UNL A   1      46.975  34.621  29.967  1.00  0.00     0.059 A 
ATOM     61  C   UNL A   1      46.356  35.159  27.681  1.00  0.00     0.059 A 
ATOM     62  F   UNL A   1      45.494  33.481  26.287  1.00  0.00    -0.206 F 
ATOM     63  C   UNL A   1      46.840  35.546  28.930  1.00  0.00     0.060 A 
BRANCH  63  64
ATOM     64  S   UNL A   1      47.316  37.262  29.227  1.00  0.00     0.124 S 
ATOM     65  O   UNL A   1      48.762  37.199  29.038  1.00  0.00    -0.237 OA
ATOM     66  O   UNL A   1      46.574  37.980  28.195  1.00  0.00    -0.237 OA
ATOM     67  O   UNL A   1      46.872  37.505  30.596  1.00  0.00    -0.744 OA
ENDBRANCH  63  64
ENDBRANCH  42  56
BRANCH  43  68
ATOM     68  C   UNL A   1      43.224  23.474  26.929  1.00  0.00     0.058 A 
ATOM     69  C   UNL A   1      43.057  22.995  25.622  1.00  0.00     0.135 A 
ATOM     70  C   UNL A   1      42.994  22.585  27.990  1.00  0.00     0.135 A 
ATOM     71  F   UNL A   1      43.252  23.814  24.577  1.00  0.00    -0.206 F 
ATOM     72  C   UNL A   1      42.675  21.681  25.374  1.00  0.00     0.059 A 
ATOM     73  C   UNL A   1      42.633  21.261  27.765  1.00  0.00     0.059 A 
ATOM     74  F   UNL A   1      43.148  22.996  29.257  1.00  0.00    -0.206 F 
ATOM     75  C   UNL A   1      42.468  20.820  26.454  1.00  0.00     0.060 A 
BRANCH  75  76
ATOM     76  S   UNL A   1      42.036  19.096  26.131  1.00  0.00     0.124 S 
ATOM     77  O   UNL A   1      42.900  18.786  24.998  1.00  0.00    -0.237 OA
ATOM     78  O   UNL A   1      42.381  18.445  27.393  1.00  0.00    -0.237 OA
ATOM     79  O   UNL A   1      40.607  19.162  25.841  1.00  0.00    -0.744 OA
ENDBRANCH  75  76
ENDBRANCH  43  68
BRANCH  55  80
ATOM     80  C   UNL A   1      49.280  26.829  26.204  1.00  0.00     0.058 A 
ATOM     81  C   UNL A   1      49.684  26.978  24.867  1.00  0.00     0.135 A 
ATOM     82  C   UNL A   1      50.197  26.279  27.112  1.00  0.00     0.135 A 
ATOM     83  F   UNL A   1      48.839  27.493  23.961  1.00  0.00    -0.206 F 
ATOM     84  C   UNL A   1      50.947  26.578  24.443  1.00  0.00     0.059 A 
ATOM     85  C   UNL A   1      51.472  25.887  26.711  1.00  0.00     0.059 A 
ATOM     86  F   UNL A   1      49.861  26.123  28.401  1.00  0.00    -0.206 F 
ATOM     87  C   UNL A   1      51.833  26.029  25.372  1.00  0.00     0.060 A 
BRANCH  87  88
ATOM     88  S   UNL A   1      53.479  25.533  24.819  1.00  0.00     0.124 S 
ATOM     89  O   UNL A   1      54.333  26.276  25.740  1.00  0.00    -0.237 OA
ATOM     90  O   UNL A   1      53.454  24.086  25.004  1.00  0.00    -0.237 OA
ATOM     91  O   UNL A   1      53.515  25.979  23.430  1.00  0.00    -0.744 OA
ENDBRANCH  87  88
ENDBRANCH  55  80
ENDBRANCH  29  30
ENDBRANCH  22  24
ENDBRANCH  21  22
ENDBRANCH  20  21
ENDBRANCH   1  20
TORSDOF 17
ENDMDL
MODEL 3
REMARK VINA RESULT:     -10.9      6.781     12.110
REMARK SMILES C[C@H]1OCC[C@H]1C(=O)N1CCCC[C@@H]1CC(=O)OCCOC(=O)c1ccc(-c2c3nc(c(-c4c(F)cc(S(=O)(=O)[O-])cc4F)c4ccc([nH]4)c(-c4c(F)cc(S(=O)(=O)[O-])cc4F)c4nc(c(-c5c(F)cc(S(=O)(=O)[O-])cc5F)c5ccc2[nH]5)C=C4)C=C3)cc1
REMARK SMILES IDX 19 1 18 2 16 3 17 4 15 5 14 6 9 7 10 8 11 9 13 10 12 11 7 12
REMARK SMILES IDX 8 13 6 14 1 15 2 16 3 17 4 18 5 19 20 20 21 21 22 22 23 23
REMARK SMILES IDX 24 24 25 25 89 26 26 27 88 28 27 29 28 30 29 31 82 32 30 33
REMARK SMILES IDX 87 34 81 35 83 36 31 37 86 38 80 39 79 40 32 42 66 43 45 44
REMARK SMILES IDX 65 45 46 46 49 47 64 48 84 49 47 50 48 51 63 53 85 54 50 55
REMARK SMILES IDX 33 56 34 57 43 58 35 59 36 60 42 61 44 62 37 63 38 64 39 65
REMARK SMILES IDX 40 66 41 67 67 68 68 69 77 70 69 71 70 72 76 73 78 74 71 75
REMARK SMILES IDX 72 76 73 77 74 78 75 79 51 80 52 81 61 82 53 83 54 84 60 85
REMARK SMILES IDX 62 86 55 87 56 88 57 89 58 90 59 91
REMARK H PARENT 83 41 49 52
REMARK Flexibility Score: inf
ROOT
ATOM      1  C   UNL A   1      38.160  21.933  25.489  1.00  0.00     0.274 C 
ENDROOT
BRANCH   1   2
ATOM      2  O   UNL A   1      37.526  23.217  25.342  1.00  0.00    -0.462 OA
BRANCH   2   3
ATOM      3  C   UNL A   1      36.643  23.306  24.319  1.00  0.00     0.307 C 
ATOM      4  O   UNL A   1      36.893  22.990  23.161  1.00  0.00    -0.252 OA
BRANCH   3   5
ATOM      5  C   UNL A   1      35.307  23.884  24.698  1.00  0.00     0.147 C 
BRANCH   5   6
ATOM      6  C   UNL A   1      34.046  23.025  24.544  1.00  0.00     0.096 C 
ATOM      7  N   UNL A   1      32.800  23.844  24.462  1.00  0.00    -0.339 N 
ATOM      8  C   UNL A   1      31.566  23.074  24.325  1.00  0.00     0.120 C 
ATOM      9  C   UNL A   1      31.426  22.042  25.443  1.00  0.00     0.022 C 
ATOM     10  C   UNL A   1      33.925  21.984  25.672  1.00  0.00     0.026 C 
ATOM     11  C   UNL A   1      32.657  21.146  25.517  1.00  0.00     0.004 C 
BRANCH   7  12
ATOM     12  C   UNL A   1      32.707  25.073  25.106  1.00  0.00     0.228 C 
ATOM     13  O   UNL A   1      32.610  25.143  26.333  1.00  0.00    -0.274 OA
BRANCH  12  14
ATOM     14  C   UNL A   1      32.863  26.350  24.254  1.00  0.00     0.109 C 
ATOM     15  C   UNL A   1      30.307  26.242  23.595  1.00  0.00     0.039 C 
ATOM     16  C   UNL A   1      31.531  27.054  23.983  1.00  0.00     0.127 C 
ATOM     17  O   UNL A   1      31.279  27.828  25.168  1.00  0.00    -0.378 OA
ATOM     18  C   UNL A   1      32.552  28.210  25.716  1.00  0.00     0.161 C 
ATOM     19  C   UNL A   1      33.612  27.518  24.880  1.00  0.00     0.044 C 
ENDBRANCH  12  14
ENDBRANCH   7  12
ENDBRANCH   5   6
ENDBRANCH   3   5
ENDBRANCH   2   3
ENDBRANCH   1   2
BRANCH   1  20
ATOM     20  C   UNL A   1      39.534  22.057  26.145  1.00  0.00     0.275 C 
BRANCH  20  21
ATOM     21  O   UNL A   1      39.591  23.153  27.076  1.00  0.00    -0.458 OA
BRANCH  21  22
ATOM     22  C   UNL A   1      40.646  23.984  26.917  1.00  0.00     0.338 C 
ATOM     23  O   UNL A   1      41.626  23.809  26.208  1.00  0.00    -0.246 OA
BRANCH  22  24
ATOM     24  C   UNL A   1      40.449  25.204  27.710  1.00  0.00     0.060 A 
ATOM     25  C   UNL A   1      41.459  26.161  27.726  1.00  0.00     0.016 A 
ATOM     26  C   UNL A   1      39.343  25.329  28.553  1.00  0.00     0.016 A 
ATOM     27  C   UNL A   1      41.396  27.219  28.635  1.00  0.00     0.010 A 
ATOM     28  C   UNL A   1      39.263  26.420  29.430  1.00  0.00     0.010 A 
ATOM     29  C   UNL A   1      40.306  27.359  29.507  1.00  0.00    -0.014 A 
BRANCH  29  30
ATOM     30  C   UNL A   1      40.296  28.441  30.534  1.00  0.00     0.031 A 
ATOM     31  C   UNL A   1      41.294  28.424  31.666  1.00  0.00     0.074 A 
ATOM     32  C   UNL A   1      39.420  29.463  30.450  1.00  0.00     0.049 A 
ATOM     33  N   UNL A   1      41.344  29.174  32.738  1.00  0.00    -0.248 NA
ATOM     34  C   UNL A   1      42.376  27.430  31.581  1.00  0.00     0.031 C 
ATOM     35  C   UNL A   1      38.435  29.649  29.384  1.00  0.00     0.029 A 
ATOM     36  N   UNL A   1      39.222  30.543  31.276  1.00  0.00    -0.354 N 
ATOM     37  C   UNL A   1      42.422  28.707  33.482  1.00  0.00     0.074 A 
ATOM     38  C   UNL A   1      43.006  27.614  32.734  1.00  0.00     0.031 C 
ATOM     39  C   UNL A   1      37.759  30.788  29.603  1.00  0.00     0.029 A 
ATOM     40  C   UNL A   1      38.210  31.375  30.862  1.00  0.00     0.049 A 
ATOM     41  H   UNL A   1      39.755  30.705  32.088  1.00  0.00     0.167 HD
ATOM     42  C   UNL A   1      42.880  29.144  34.680  1.00  0.00     0.037 A 
ATOM     43  C   UNL A   1      37.674  32.467  31.443  1.00  0.00     0.037 A 
ATOM     44  C   UNL A   1      42.339  30.269  35.400  1.00  0.00     0.049 A 
ATOM     45  C   UNL A   1      38.189  32.928  32.778  1.00  0.00     0.074 A 
ATOM     46  C   UNL A   1      42.739  30.783  36.623  1.00  0.00     0.029 A 
ATOM     47  N   UNL A   1      41.297  31.068  34.955  1.00  0.00    -0.354 N 
ATOM     48  N   UNL A   1      39.156  32.424  33.506  1.00  0.00    -0.248 NA
ATOM     49  C   UNL A   1      37.525  34.094  33.380  1.00  0.00     0.031 C 
ATOM     50  C   UNL A   1      41.925  31.881  36.925  1.00  0.00     0.029 A 
ATOM     51  C   UNL A   1      41.039  32.068  35.879  1.00  0.00     0.049 A 
ATOM     52  H   UNL A   1      40.811  30.942  34.107  1.00  0.00     0.167 HD
ATOM     53  C   UNL A   1      39.214  33.208  34.652  1.00  0.00     0.074 A 
ATOM     54  C   UNL A   1      38.202  34.235  34.511  1.00  0.00     0.031 C 
ATOM     55  C   UNL A   1      40.029  33.083  35.729  1.00  0.00     0.037 A 
BRANCH  42  56
ATOM     56  C   UNL A   1      44.010  28.384  35.313  1.00  0.00     0.058 A 
ATOM     57  C   UNL A   1      43.785  27.292  36.165  1.00  0.00     0.135 A 
ATOM     58  C   UNL A   1      45.341  28.731  35.027  1.00  0.00     0.135 A 
ATOM     59  F   UNL A   1      42.533  26.931  36.484  1.00  0.00    -0.206 F 
ATOM     60  C   UNL A   1      44.842  26.583  36.728  1.00  0.00     0.059 A 
ATOM     61  C   UNL A   1      46.412  28.024  35.563  1.00  0.00     0.059 A 
ATOM     62  F   UNL A   1      45.608  29.768  34.217  1.00  0.00    -0.206 F 
ATOM     63  C   UNL A   1      46.152  26.959  36.424  1.00  0.00     0.060 A 
BRANCH  63  64
ATOM     64  S   UNL A   1      47.516  26.032  37.159  1.00  0.00     0.124 S 
ATOM     65  O   UNL A   1      47.222  26.162  38.582  1.00  0.00    -0.237 OA
ATOM     66  O   UNL A   1      47.333  24.698  36.594  1.00  0.00    -0.237 OA
ATOM     67  O   UNL A   1      48.701  26.747  36.694  1.00  0.00    -0.744 OA
ENDBRANCH  63  64
ENDBRANCH  42  56
BRANCH  43  68
ATOM     68  C   UNL A   1      36.552  33.178  30.779  1.00  0.00     0.058 A 
ATOM     69  C   UNL A   1      35.239  33.058  31.255  1.00  0.00     0.135 A 
ATOM     70  C   UNL A   1      36.774  34.006  29.668  1.00  0.00     0.135 A 
ATOM     71  F   UNL A   1      34.977  32.266  32.307  1.00  0.00    -0.206 F 
ATOM     72  C   UNL A   1      34.182  33.731  30.652  1.00  0.00     0.059 A 
ATOM     73  C   UNL A   1      35.737  34.707  29.062  1.00  0.00     0.059 A 
ATOM     74  F   UNL A   1      38.015  34.159  29.181  1.00  0.00    -0.206 F 
ATOM     75  C   UNL A   1      34.443  34.557  29.557  1.00  0.00     0.060 A 
BRANCH  75  76
ATOM     76  S   UNL A   1      33.082  35.484  28.814  1.00  0.00     0.124 S 
ATOM     77  O   UNL A   1      33.802  36.479  28.029  1.00  0.00    -0.237 OA
ATOM     78  O   UNL A   1      32.381  34.454  28.051  1.00  0.00    -0.237 OA
ATOM     79  O   UNL A   1      32.358  35.994  29.974  1.00  0.00    -0.744 OA
ENDBRANCH  75  76
ENDBRANCH  43  68
BRANCH  55  80
ATOM     80  C   UNL A   1      39.868  34.088  36.832  1.00  0.00     0.058 A 
ATOM     81  C   UNL A   1      39.092  33.807  37.968  1.00  0.00     0.135 A 
ATOM     82  C   UNL A   1      40.520  35.329  36.770  1.00  0.00     0.135 A 
ATOM     83  F   UNL A   1      38.444  32.637  38.070  1.00  0.00    -0.206 F 
ATOM     84  C   UNL A   1      38.954  34.732  38.998  1.00  0.00     0.059 A 
ATOM     85  C   UNL A   1      40.408  36.262  37.796  1.00  0.00     0.059 A 
ATOM     86  F   UNL A   1      41.278  35.641  35.707  1.00  0.00    -0.206 F 
ATOM     87  C   UNL A   1      39.613  35.960  38.900  1.00  0.00     0.060 A 
BRANCH  87  88
ATOM     88  S   UNL A   1      39.447  37.147  40.252  1.00  0.00     0.124 S 
ATOM     89  O   UNL A   1      40.817  37.216  40.750  1.00  0.00    -0.237 OA
ATOM     90  O   UNL A   1      38.960  38.341  39.568  1.00  0.00    -0.237 OA
ATOM     91  O   UNL A   1      38.485  36.509  41.144  1.00  0.00    -0.744 OA
ENDBRANCH  87  88
ENDBRANCH  55  80
ENDBRANCH  29  30
ENDBRANCH  22  24
ENDBRANCH  21  22
ENDBRANCH  20  21
ENDBRANCH   1  20
TORSDOF 17
ENDMDL
