MODEL 1
REMARK VINA RESULT:     -11.0      0.000      0.000
REMARK SMILES CC[NH2+][C@@]1(C(=O)OCCOC(=O)c2ccc(-c3c4nc(c(-c5c(F)cc(S(=O)(=O)[O-])cc5F)c5ccc([nH]5)c(-c5c(F)cc(S(=O)(=O)[O-])cc5F)c5nc(c(-c6c(F)cc(S(=O)(=O)[O-])cc6F)c6ccc3[nH]6)C=C5)C=C4)cc2)CCC[C@@H](Sc2ncc(C)cn2)C1
REMARK SMILES IDX 9 1 8 2 7 3 5 4 6 5 4 6 79 7 91 8 80 9 82 10 81 11 3 12 2 15
REMARK SMILES IDX 1 16 83 17 84 18 85 19 90 20 86 21 89 22 87 23 88 24 10 25
REMARK SMILES IDX 11 26 12 27 13 28 14 29 78 30 15 31 77 32 16 33 17 34 18 35
REMARK SMILES IDX 71 36 19 37 76 38 70 39 72 40 20 41 75 42 69 43 68 44 21 46
REMARK SMILES IDX 55 47 34 48 54 49 35 50 38 51 53 52 73 53 36 54 37 55 52 57
REMARK SMILES IDX 74 58 39 59 22 60 23 61 32 62 24 63 25 64 31 65 33 66 26 67
REMARK SMILES IDX 27 68 28 69 29 70 30 71 56 72 57 73 66 74 58 75 59 76 65 77
REMARK SMILES IDX 67 78 60 79 61 80 62 81 63 82 64 83 40 84 41 85 50 86 42 87
REMARK SMILES IDX 43 88 49 89 51 90 44 91 45 92 46 93 47 94 48 95
REMARK H PARENT 3 13 3 14 72 45 38 56
REMARK Flexibility Score: inf
ROOT
ATOM      1  C   UNL A   1      38.242  23.845  25.720  1.00  0.00     0.275 C 
ENDROOT
BRANCH   1   2
ATOM      2  C   UNL A   1      37.099  22.839  25.639  1.00  0.00     0.274 C 
BRANCH   2   3
ATOM      3  O   UNL A   1      35.905  23.467  25.130  1.00  0.00    -0.457 OA
BRANCH   3   4
ATOM      4  C   UNL A   1      35.439  22.996  23.940  1.00  0.00     0.368 C 
ATOM      5  O   UNL A   1      36.087  23.030  22.898  1.00  0.00    -0.245 OA
BRANCH   4   6
ATOM      6  C   UNL A   1      33.976  22.428  24.034  1.00  0.00     0.195 C 
ATOM      7  C   UNL A   1      33.356  22.648  22.634  1.00  0.00     0.081 C 
ATOM      8  C   UNL A   1      33.127  23.103  25.137  1.00  0.00     0.096 C 
ATOM      9  C   UNL A   1      33.079  24.124  22.355  1.00  0.00     0.008 C 
ATOM     10  C   UNL A   1      32.629  24.520  24.811  1.00  0.00     0.061 C 
ATOM     11  C   UNL A   1      32.099  24.678  23.382  1.00  0.00     0.015 C 
BRANCH   6  12
ATOM     12  N   UNL A   1      34.131  20.973  24.347  1.00  0.00    -0.332 N 
ATOM     13  H   UNL A   1      34.306  20.491  23.466  1.00  0.00     0.347 HD
ATOM     14  H   UNL A   1      34.890  20.939  25.029  1.00  0.00     0.347 HD
BRANCH  12  15
ATOM     15  C   UNL A   1      33.018  20.290  25.004  1.00  0.00     0.257 C 
ATOM     16  C   UNL A   1      32.585  19.099  24.159  1.00  0.00     0.071 C 
ENDBRANCH  12  15
ENDBRANCH   6  12
BRANCH  10  17
ATOM     17  S   UNL A   1      31.399  25.121  26.055  1.00  0.00    -0.083 SA
BRANCH  17  18
ATOM     18  C   UNL A   1      32.114  26.681  26.524  1.00  0.00     0.187 A 
ATOM     19  N   UNL A   1      31.359  27.529  27.239  1.00  0.00    -0.231 NA
ATOM     20  N   UNL A   1      33.363  26.939  26.104  1.00  0.00    -0.231 NA
ATOM     21  C   UNL A   1      31.891  28.736  27.509  1.00  0.00     0.119 A 
ATOM     22  C   UNL A   1      33.855  28.154  26.418  1.00  0.00     0.119 A 
ATOM     23  C   UNL A   1      33.149  29.121  27.104  1.00  0.00    -0.014 A 
ATOM     24  C   UNL A   1      33.725  30.454  27.429  1.00  0.00     0.048 C 
ENDBRANCH  17  18
ENDBRANCH  10  17
ENDBRANCH   4   6
ENDBRANCH   3   4
ENDBRANCH   2   3
ENDBRANCH   1   2
BRANCH   1  25
ATOM     25  O   UNL A   1      39.193  23.423  26.711  1.00  0.00    -0.458 OA
BRANCH  25  26
ATOM     26  C   UNL A   1      40.330  24.152  26.772  1.00  0.00     0.338 C 
ATOM     27  O   UNL A   1      41.395  23.909  26.230  1.00  0.00    -0.246 OA
BRANCH  26  28
ATOM     28  C   UNL A   1      40.116  25.351  27.598  1.00  0.00     0.060 A 
ATOM     29  C   UNL A   1      40.888  26.489  27.379  1.00  0.00     0.016 A 
ATOM     30  C   UNL A   1      39.255  25.285  28.693  1.00  0.00     0.016 A 
ATOM     31  C   UNL A   1      40.893  27.512  28.324  1.00  0.00     0.010 A 
ATOM     32  C   UNL A   1      39.179  26.365  29.577  1.00  0.00     0.010 A 
ATOM     33  C   UNL A   1      40.034  27.473  29.434  1.00  0.00    -0.014 A 
BRANCH  33  34
ATOM     34  C   UNL A   1      40.060  28.555  30.461  1.00  0.00     0.031 A 
ATOM     35  C   UNL A   1      41.094  28.537  31.562  1.00  0.00     0.074 A 
ATOM     36  C   UNL A   1      39.171  29.568  30.415  1.00  0.00     0.049 A 
ATOM     37  N   UNL A   1      41.153  29.257  32.654  1.00  0.00    -0.248 NA
ATOM     38  C   UNL A   1      42.194  27.569  31.427  1.00  0.00     0.031 C 
ATOM     39  C   UNL A   1      38.133  29.744  29.397  1.00  0.00     0.029 A 
ATOM     40  N   UNL A   1      39.006  30.652  31.243  1.00  0.00    -0.354 N 
ATOM     41  C   UNL A   1      42.241  28.774  33.372  1.00  0.00     0.074 A 
ATOM     42  C   UNL A   1      42.829  27.713  32.582  1.00  0.00     0.031 C 
ATOM     43  C   UNL A   1      37.481  30.894  29.625  1.00  0.00     0.029 A 
ATOM     44  C   UNL A   1      37.990  31.492  30.854  1.00  0.00     0.049 A 
ATOM     45  H   UNL A   1      39.562  30.812  32.039  1.00  0.00     0.167 HD
ATOM     46  C   UNL A   1      42.701  29.172  34.583  1.00  0.00     0.037 A 
ATOM     47  C   UNL A   1      37.492  32.601  31.435  1.00  0.00     0.037 A 
ATOM     48  C   UNL A   1      42.168  30.282  35.329  1.00  0.00     0.049 A 
ATOM     49  C   UNL A   1      38.051  33.058  32.751  1.00  0.00     0.074 A 
ATOM     50  C   UNL A   1      42.565  30.763  36.567  1.00  0.00     0.029 A 
ATOM     51  N   UNL A   1      41.143  31.109  34.892  1.00  0.00    -0.354 N 
ATOM     52  N   UNL A   1      39.011  32.524  33.466  1.00  0.00    -0.248 NA
ATOM     53  C   UNL A   1      37.438  34.250  33.353  1.00  0.00     0.031 C 
ATOM     54  C   UNL A   1      41.775  31.876  36.879  1.00  0.00     0.029 A 
ATOM     55  C   UNL A   1      40.901  32.101  35.828  1.00  0.00     0.049 A 
ATOM     56  H   UNL A   1      40.660  31.005  34.040  1.00  0.00     0.167 HD
ATOM     57  C   UNL A   1      39.108  33.305  34.610  1.00  0.00     0.074 A 
ATOM     58  C   UNL A   1      38.131  34.367  34.478  1.00  0.00     0.031 C 
ATOM     59  C   UNL A   1      39.921  33.146  35.682  1.00  0.00     0.037 A 
BRANCH  46  60
ATOM     60  C   UNL A   1      43.817  28.376  35.198  1.00  0.00     0.058 A 
ATOM     61  C   UNL A   1      45.165  28.708  35.002  1.00  0.00     0.135 A 
ATOM     62  C   UNL A   1      43.525  27.277  36.022  1.00  0.00     0.135 A 
ATOM     63  F   UNL A   1      45.499  29.738  34.208  1.00  0.00    -0.206 F 
ATOM     64  C   UNL A   1      46.188  27.962  35.583  1.00  0.00     0.059 A 
ATOM     65  C   UNL A   1      44.530  26.529  36.628  1.00  0.00     0.059 A 
ATOM     66  F   UNL A   1      42.250  26.917  36.243  1.00  0.00    -0.206 F 
ATOM     67  C   UNL A   1      45.860  26.871  36.389  1.00  0.00     0.060 A 
BRANCH  67  68
ATOM     68  S   UNL A   1      47.190  25.906  37.141  1.00  0.00     0.124 S 
ATOM     69  O   UNL A   1      46.983  26.184  38.558  1.00  0.00    -0.237 OA
ATOM     70  O   UNL A   1      46.878  24.546  36.711  1.00  0.00    -0.237 OA
ATOM     71  O   UNL A   1      48.396  26.482  36.556  1.00  0.00    -0.744 OA
ENDBRANCH  67  68
ENDBRANCH  46  60
BRANCH  47  72
ATOM     72  C   UNL A   1      36.376  33.331  30.782  1.00  0.00     0.058 A 
ATOM     73  C   UNL A   1      35.081  33.291  31.317  1.00  0.00     0.135 A 
ATOM     74  C   UNL A   1      36.594  34.121  29.643  1.00  0.00     0.135 A 
ATOM     75  F   UNL A   1      34.825  32.540  32.399  1.00  0.00    -0.206 F 
ATOM     76  C   UNL A   1      34.039  34.016  30.750  1.00  0.00     0.059 A 
ATOM     77  C   UNL A   1      35.572  34.872  29.071  1.00  0.00     0.059 A 
ATOM     78  F   UNL A   1      37.819  34.199  29.102  1.00  0.00    -0.206 F 
ATOM     79  C   UNL A   1      34.295  34.809  29.629  1.00  0.00     0.060 A 
BRANCH  79  80
ATOM     80  S   UNL A   1      32.966  35.824  28.946  1.00  0.00     0.124 S 
ATOM     81  O   UNL A   1      32.324  34.887  28.031  1.00  0.00    -0.237 OA
ATOM     82  O   UNL A   1      32.199  36.182  30.134  1.00  0.00    -0.237 OA
ATOM     83  O   UNL A   1      33.687  36.929  28.320  1.00  0.00    -0.744 OA
ENDBRANCH  79  80
ENDBRANCH  47  72
BRANCH  59  84
ATOM     84  C   UNL A   1      39.785  34.145  36.791  1.00  0.00     0.058 A 
ATOM     85  C   UNL A   1      40.363  35.420  36.694  1.00  0.00     0.135 A 
ATOM     86  C   UNL A   1      39.055  33.837  37.948  1.00  0.00     0.135 A 
ATOM     87  F   UNL A   1      41.075  35.758  35.607  1.00  0.00    -0.206 F 
ATOM     88  C   UNL A   1      40.242  36.350  37.720  1.00  0.00     0.059 A 
ATOM     89  C   UNL A   1      38.910  34.756  38.982  1.00  0.00     0.059 A 
ATOM     90  F   UNL A   1      38.480  32.632  38.083  1.00  0.00    -0.206 F 
ATOM     91  C   UNL A   1      39.519  36.007  38.864  1.00  0.00     0.060 A 
BRANCH  91  92
ATOM     92  S   UNL A   1      39.355  37.220  40.190  1.00  0.00     0.124 S 
ATOM     93  O   UNL A   1      38.553  36.486  41.162  1.00  0.00    -0.237 OA
ATOM     94  O   UNL A   1      40.742  37.466  40.571  1.00  0.00    -0.237 OA
ATOM     95  O   UNL A   1      38.684  38.341  39.539  1.00  0.00    -0.744 OA
ENDBRANCH  91  92
ENDBRANCH  59  84
ENDBRANCH  33  34
ENDBRANCH  26  28
ENDBRANCH  25  26
ENDBRANCH   1  25
TORSDOF 18
ENDMDL
MODEL 2
REMARK VINA RESULT:     -10.9      6.761     12.147
REMARK SMILES CC[NH2+][C@@]1(C(=O)OCCOC(=O)c2ccc(-c3c4nc(c(-c5c(F)cc(S(=O)(=O)[O-])cc5F)c5ccc([nH]5)c(-c5c(F)cc(S(=O)(=O)[O-])cc5F)c5nc(c(-c6c(F)cc(S(=O)(=O)[O-])cc6F)c6ccc3[nH]6)C=C5)C=C4)cc2)CCC[C@@H](Sc2ncc(C)cn2)C1
REMARK SMILES IDX 9 1 8 2 7 3 5 4 6 5 4 6 79 7 91 8 80 9 82 10 81 11 3 12 2 15
REMARK SMILES IDX 1 16 83 17 84 18 85 19 90 20 86 21 89 22 87 23 88 24 10 25
REMARK SMILES IDX 11 26 12 27 13 28 14 29 78 30 15 31 77 32 16 33 17 34 18 35
REMARK SMILES IDX 71 36 19 37 76 38 70 39 72 40 20 41 75 42 69 43 68 44 21 46
REMARK SMILES IDX 55 47 34 48 54 49 35 50 38 51 53 52 73 53 36 54 37 55 52 57
REMARK SMILES IDX 74 58 39 59 22 60 23 61 32 62 24 63 25 64 31 65 33 66 26 67
REMARK SMILES IDX 27 68 28 69 29 70 30 71 56 72 57 73 66 74 58 75 59 76 65 77
REMARK SMILES IDX 67 78 60 79 61 80 62 81 63 82 64 83 40 84 41 85 50 86 42 87
REMARK SMILES IDX 43 88 49 89 51 90 44 91 45 92 46 93 47 94 48 95
REMARK H PARENT 3 13 3 14 72 45 38 56
REMARK Flexibility Score: inf
ROOT
ATOM      1  C   UNL A   1      34.213  29.032  27.540  1.00  0.00     0.275 C 
ENDROOT
BRANCH   1   2
ATOM      2  C   UNL A   1      33.926  28.352  26.206  1.00  0.00     0.274 C 
BRANCH   2   3
ATOM      3  O   UNL A   1      33.448  27.008  26.415  1.00  0.00    -0.457 OA
BRANCH   3   4
ATOM      4  C   UNL A   1      32.097  26.856  26.496  1.00  0.00     0.368 C 
ATOM      5  O   UNL A   1      31.423  27.281  27.430  1.00  0.00    -0.245 OA
BRANCH   4   6
ATOM      6  C   UNL A   1      31.494  26.057  25.283  1.00  0.00     0.195 C 
ATOM      7  C   UNL A   1      30.612  24.953  25.912  1.00  0.00     0.081 C 
ATOM      8  C   UNL A   1      32.571  25.454  24.351  1.00  0.00     0.096 C 
ATOM      9  C   UNL A   1      31.447  23.869  26.589  1.00  0.00     0.008 C 
ATOM     10  C   UNL A   1      33.293  24.212  24.897  1.00  0.00     0.061 C 
ATOM     11  C   UNL A   1      32.363  23.199  25.572  1.00  0.00     0.015 C 
BRANCH   6  12
ATOM     12  N   UNL A   1      30.675  27.050  24.518  1.00  0.00    -0.332 N 
ATOM     13  H   UNL A   1      29.948  26.529  24.028  1.00  0.00     0.347 HD
ATOM     14  H   UNL A   1      30.348  27.709  25.226  1.00  0.00     0.347 HD
BRANCH  12  15
ATOM     15  C   UNL A   1      31.356  27.883  23.530  1.00  0.00     0.257 C 
ATOM     16  C   UNL A   1      30.376  28.905  22.967  1.00  0.00     0.071 C 
ENDBRANCH  12  15
ENDBRANCH   6  12
BRANCH  10  17
ATOM     17  S   UNL A   1      34.345  23.404  23.608  1.00  0.00    -0.083 SA
BRANCH  17  18
ATOM     18  C   UNL A   1      35.826  23.063  24.531  1.00  0.00     0.187 A 
ATOM     19  N   UNL A   1      36.239  23.979  25.420  1.00  0.00    -0.231 NA
ATOM     20  N   UNL A   1      36.472  21.917  24.260  1.00  0.00    -0.231 NA
ATOM     21  C   UNL A   1      37.407  23.737  26.044  1.00  0.00     0.119 A 
ATOM     22  C   UNL A   1      37.626  21.715  24.927  1.00  0.00     0.119 A 
ATOM     23  C   UNL A   1      38.169  22.612  25.823  1.00  0.00    -0.014 A 
ATOM     24  C   UNL A   1      39.449  22.356  26.538  1.00  0.00     0.048 C 
ENDBRANCH  17  18
ENDBRANCH  10  17
ENDBRANCH   4   6
ENDBRANCH   3   4
ENDBRANCH   2   3
ENDBRANCH   1   2
BRANCH   1  25
ATOM     25  O   UNL A   1      35.449  29.760  27.460  1.00  0.00    -0.458 OA
BRANCH  25  26
ATOM     26  C   UNL A   1      36.041  30.033  28.644  1.00  0.00     0.338 C 
ATOM     27  O   UNL A   1      35.494  30.336  29.692  1.00  0.00    -0.246 OA
BRANCH  26  28
ATOM     28  C   UNL A   1      37.500  29.894  28.522  1.00  0.00     0.060 A 
ATOM     29  C   UNL A   1      38.089  29.855  27.261  1.00  0.00     0.016 A 
ATOM     30  C   UNL A   1      38.262  29.643  29.663  1.00  0.00     0.016 A 
ATOM     31  C   UNL A   1      39.414  29.443  27.130  1.00  0.00     0.010 A 
ATOM     32  C   UNL A   1      39.621  29.341  29.532  1.00  0.00     0.010 A 
ATOM     33  C   UNL A   1      40.204  29.187  28.262  1.00  0.00    -0.014 A 
BRANCH  33  34
ATOM     34  C   UNL A   1      41.614  28.718  28.120  1.00  0.00     0.031 A 
ATOM     35  C   UNL A   1      42.762  29.679  28.321  1.00  0.00     0.074 A 
ATOM     36  C   UNL A   1      41.884  27.431  27.821  1.00  0.00     0.049 A 
ATOM     37  N   UNL A   1      44.031  29.523  28.040  1.00  0.00    -0.248 NA
ATOM     38  C   UNL A   1      42.436  30.995  28.894  1.00  0.00     0.031 C 
ATOM     39  C   UNL A   1      40.887  26.375  27.628  1.00  0.00     0.029 A 
ATOM     40  N   UNL A   1      43.083  26.787  27.638  1.00  0.00    -0.354 N 
ATOM     41  C   UNL A   1      44.638  30.742  28.322  1.00  0.00     0.074 A 
ATOM     42  C   UNL A   1      43.602  31.623  28.817  1.00  0.00     0.031 C 
ATOM     43  C   UNL A   1      41.514  25.209  27.414  1.00  0.00     0.029 A 
ATOM     44  C   UNL A   1      42.952  25.447  27.363  1.00  0.00     0.049 A 
ATOM     45  H   UNL A   1      43.954  27.241  27.699  1.00  0.00     0.167 HD
ATOM     46  C   UNL A   1      45.937  31.096  28.172  1.00  0.00     0.037 A 
ATOM     47  C   UNL A   1      43.878  24.514  27.065  1.00  0.00     0.037 A 
ATOM     48  C   UNL A   1      46.982  30.195  27.760  1.00  0.00     0.049 A 
ATOM     49  C   UNL A   1      45.319  24.914  26.956  1.00  0.00     0.074 A 
ATOM     50  C   UNL A   1      48.330  30.460  27.576  1.00  0.00     0.029 A 
ATOM     51  N   UNL A   1      46.803  28.845  27.499  1.00  0.00    -0.354 N 
ATOM     52  N   UNL A   1      45.859  26.097  27.124  1.00  0.00    -0.248 NA
ATOM     53  C   UNL A   1      46.274  23.859  26.588  1.00  0.00     0.031 C 
ATOM     54  C   UNL A   1      48.963  29.269  27.199  1.00  0.00     0.029 A 
ATOM     55  C   UNL A   1      48.015  28.261  27.167  1.00  0.00     0.049 A 
ATOM     56  H   UNL A   1      45.941  28.371  27.544  1.00  0.00     0.167 HD
ATOM     57  C   UNL A   1      47.214  25.933  26.866  1.00  0.00     0.074 A 
ATOM     58  C   UNL A   1      47.418  24.531  26.564  1.00  0.00     0.031 C 
ATOM     59  C   UNL A   1      48.198  26.865  26.863  1.00  0.00     0.037 A 
BRANCH  46  60
ATOM     60  C   UNL A   1      46.298  32.533  28.419  1.00  0.00     0.058 A 
ATOM     61  C   UNL A   1      46.240  33.502  27.407  1.00  0.00     0.135 A 
ATOM     62  C   UNL A   1      46.682  32.950  29.705  1.00  0.00     0.135 A 
ATOM     63  F   UNL A   1      45.897  33.152  26.156  1.00  0.00    -0.206 F 
ATOM     64  C   UNL A   1      46.573  34.831  27.654  1.00  0.00     0.059 A 
ATOM     65  C   UNL A   1      47.001  34.277  29.979  1.00  0.00     0.059 A 
ATOM     66  F   UNL A   1      46.753  32.063  30.710  1.00  0.00    -0.206 F 
ATOM     67  C   UNL A   1      46.959  35.207  28.942  1.00  0.00     0.060 A 
BRANCH  67  68
ATOM     68  S   UNL A   1      47.390  36.933  29.258  1.00  0.00     0.124 S 
ATOM     69  O   UNL A   1      46.828  37.591  28.084  1.00  0.00    -0.237 OA
ATOM     70  O   UNL A   1      46.711  37.204  30.522  1.00  0.00    -0.237 OA
ATOM     71  O   UNL A   1      48.847  36.908  29.329  1.00  0.00    -0.744 OA
ENDBRANCH  67  68
ENDBRANCH  46  60
BRANCH  47  72
ATOM     72  C   UNL A   1      43.450  23.114  26.815  1.00  0.00     0.058 A 
ATOM     73  C   UNL A   1      43.522  22.559  25.530  1.00  0.00     0.135 A 
ATOM     74  C   UNL A   1      43.011  22.290  27.863  1.00  0.00     0.135 A 
ATOM     75  F   UNL A   1      43.925  23.314  24.496  1.00  0.00    -0.206 F 
ATOM     76  C   UNL A   1      43.180  21.233  25.291  1.00  0.00     0.059 A 
ATOM     77  C   UNL A   1      42.685  20.954  27.653  1.00  0.00     0.059 A 
ATOM     78  F   UNL A   1      42.938  22.774  29.113  1.00  0.00    -0.206 F 
ATOM     79  C   UNL A   1      42.768  20.436  26.361  1.00  0.00     0.060 A 
BRANCH  79  80
ATOM     80  S   UNL A   1      42.413  18.688  26.071  1.00  0.00     0.124 S 
ATOM     81  O   UNL A   1      40.992  18.729  25.744  1.00  0.00    -0.237 OA
ATOM     82  O   UNL A   1      43.313  18.361  24.970  1.00  0.00    -0.237 OA
ATOM     83  O   UNL A   1      42.752  18.069  27.349  1.00  0.00    -0.744 OA
ENDBRANCH  79  80
ENDBRANCH  47  72
BRANCH  59  84
ATOM     84  C   UNL A   1      49.578  26.392  26.523  1.00  0.00     0.058 A 
ATOM     85  C   UNL A   1      50.435  25.882  27.512  1.00  0.00     0.135 A 
ATOM     86  C   UNL A   1      50.043  26.427  25.200  1.00  0.00     0.135 A 
ATOM     87  F   UNL A   1      50.036  25.833  28.792  1.00  0.00    -0.206 F 
ATOM     88  C   UNL A   1      51.718  25.444  27.202  1.00  0.00     0.059 A 
ATOM     89  C   UNL A   1      51.318  25.982  24.866  1.00  0.00     0.059 A 
ATOM     90  F   UNL A   1      49.258  26.902  24.221  1.00  0.00    -0.206 F 
ATOM     91  C   UNL A   1      52.153  25.504  25.877  1.00  0.00     0.060 A 
BRANCH  91  92
ATOM     92  S   UNL A   1      53.816  24.925  25.477  1.00  0.00     0.124 S 
ATOM     93  O   UNL A   1      54.158  25.778  24.344  1.00  0.00    -0.237 OA
ATOM     94  O   UNL A   1      54.550  25.187  26.711  1.00  0.00    -0.237 OA
ATOM     95  O   UNL A   1      53.613  23.514  25.165  1.00  0.00    -0.744 OA
ENDBRANCH  91  92
ENDBRANCH  59  84
ENDBRANCH  33  34
ENDBRANCH  26  28
ENDBRANCH  25  26
ENDBRANCH   1  25
TORSDOF 18
ENDMDL
MODEL 3
REMARK VINA RESULT:     -10.8      2.032      2.643
REMARK SMILES CC[NH2+][C@@]1(C(=O)OCCOC(=O)c2ccc(-c3c4nc(c(-c5c(F)cc(S(=O)(=O)[O-])cc5F)c5ccc([nH]5)c(-c5c(F)cc(S(=O)(=O)[O-])cc5F)c5nc(c(-c6c(F)cc(S(=O)(=O)[O-])cc6F)c6ccc3[nH]6)C=C5)C=C4)cc2)CCC[C@@H](Sc2ncc(C)cn2)C1
REMARK SMILES IDX 9 1 8 2 7 3 5 4 6 5 4 6 79 7 91 8 80 9 82 10 81 11 3 12 2 15
REMARK SMILES IDX 1 16 83 17 84 18 85 19 90 20 86 21 89 22 87 23 88 24 10 25
REMARK SMILES IDX 11 26 12 27 13 28 14 29 78 30 15 31 77 32 16 33 17 34 18 35
REMARK SMILES IDX 71 36 19 37 76 38 70 39 72 40 20 41 75 42 69 43 68 44 21 46
REMARK SMILES IDX 55 47 34 48 54 49 35 50 38 51 53 52 73 53 36 54 37 55 52 57
REMARK SMILES IDX 74 58 39 59 22 60 23 61 32 62 24 63 25 64 31 65 33 66 26 67
REMARK SMILES IDX 27 68 28 69 29 70 30 71 56 72 57 73 66 74 58 75 59 76 65 77
REMARK SMILES IDX 67 78 60 79 61 80 62 81 63 82 64 83 40 84 41 85 50 86 42 87
REMARK SMILES IDX 43 88 49 89 51 90 44 91 45 92 46 93 47 94 48 95
REMARK H PARENT 3 13 3 14 72 45 38 56
REMARK Flexibility Score: inf
ROOT
ATOM      1  C   UNL A   1      37.771  21.380  25.034  1.00  0.00     0.275 C 
ENDROOT
BRANCH   1   2
ATOM      2  C   UNL A   1      36.353  21.093  25.516  1.00  0.00     0.274 C 
BRANCH   2   3
ATOM      3  O   UNL A   1      35.392  21.820  24.725  1.00  0.00    -0.457 OA
BRANCH   3   4
ATOM      4  C   UNL A   1      34.568  22.665  25.406  1.00  0.00     0.368 C 
ATOM      5  O   UNL A   1      34.945  23.372  26.336  1.00  0.00    -0.245 OA
BRANCH   4   6
ATOM      6  C   UNL A   1      33.082  22.621  24.894  1.00  0.00     0.195 C 
ATOM      7  C   UNL A   1      33.174  22.702  23.352  1.00  0.00     0.081 C 
ATOM      8  C   UNL A   1      32.204  23.758  25.466  1.00  0.00     0.096 C 
ATOM      9  C   UNL A   1      33.606  24.087  22.875  1.00  0.00     0.008 C 
ATOM     10  C   UNL A   1      32.445  25.148  24.855  1.00  0.00     0.061 C 
ATOM     11  C   UNL A   1      32.600  25.138  23.331  1.00  0.00     0.015 C 
BRANCH   6  12
ATOM     12  N   UNL A   1      32.542  21.300  25.346  1.00  0.00    -0.332 N 
ATOM     13  H   UNL A   1      33.146  20.968  26.098  1.00  0.00     0.347 HD
ATOM     14  H   UNL A   1      31.576  21.497  25.609  1.00  0.00     0.347 HD
BRANCH  12  15
ATOM     15  C   UNL A   1      32.443  20.226  24.361  1.00  0.00     0.257 C 
ATOM     16  C   UNL A   1      32.742  18.892  25.033  1.00  0.00     0.071 C 
ENDBRANCH  12  15
ENDBRANCH   6  12
BRANCH  10  17
ATOM     17  S   UNL A   1      31.164  26.369  25.392  1.00  0.00    -0.083 SA
BRANCH  17  18
ATOM     18  C   UNL A   1      32.177  27.641  26.112  1.00  0.00     0.187 A 
ATOM     19  N   UNL A   1      31.562  28.655  26.738  1.00  0.00    -0.231 NA
ATOM     20  N   UNL A   1      33.506  27.534  25.957  1.00  0.00    -0.231 NA
ATOM     21  C   UNL A   1      32.345  29.649  27.200  1.00  0.00     0.119 A 
ATOM     22  C   UNL A   1      34.246  28.545  26.455  1.00  0.00     0.119 A 
ATOM     23  C   UNL A   1      33.716  29.659  27.071  1.00  0.00    -0.014 A 
ATOM     24  C   UNL A   1      34.564  30.760  27.605  1.00  0.00     0.048 C 
ENDBRANCH  17  18
ENDBRANCH  10  17
ENDBRANCH   4   6
ENDBRANCH   3   4
ENDBRANCH   2   3
ENDBRANCH   1   2
BRANCH   1  25
ATOM     25  O   UNL A   1      38.150  22.715  25.405  1.00  0.00    -0.458 OA
BRANCH  25  26
ATOM     26  C   UNL A   1      39.366  22.834  25.983  1.00  0.00     0.338 C 
ATOM     27  O   UNL A   1      40.294  22.044  25.925  1.00  0.00    -0.246 OA
BRANCH  26  28
ATOM     28  C   UNL A   1      39.453  24.107  26.715  1.00  0.00     0.060 A 
ATOM     29  C   UNL A   1      40.233  25.144  26.208  1.00  0.00     0.016 A 
ATOM     30  C   UNL A   1      38.885  24.210  27.984  1.00  0.00     0.016 A 
ATOM     31  C   UNL A   1      40.547  26.232  27.021  1.00  0.00     0.010 A 
ATOM     32  C   UNL A   1      39.112  25.356  28.751  1.00  0.00     0.010 A 
ATOM     33  C   UNL A   1      39.987  26.361  28.301  1.00  0.00    -0.014 A 
BRANCH  33  34
ATOM     34  C   UNL A   1      40.347  27.511  29.181  1.00  0.00     0.031 A 
ATOM     35  C   UNL A   1      41.659  27.518  29.929  1.00  0.00     0.074 A 
ATOM     36  C   UNL A   1      39.513  28.563  29.315  1.00  0.00     0.049 A 
ATOM     37  N   UNL A   1      42.060  28.309  30.892  1.00  0.00    -0.248 NA
ATOM     38  C   UNL A   1      42.642  26.487  29.558  1.00  0.00     0.031 C 
ATOM     39  C   UNL A   1      38.225  28.719  28.634  1.00  0.00     0.029 A 
ATOM     40  N   UNL A   1      39.631  29.709  30.061  1.00  0.00    -0.354 N 
ATOM     41  C   UNL A   1      43.298  27.824  31.297  1.00  0.00     0.074 A 
ATOM     42  C   UNL A   1      43.595  26.680  30.460  1.00  0.00     0.031 C 
ATOM     43  C   UNL A   1      37.703  29.914  28.948  1.00  0.00     0.029 A 
ATOM     44  C   UNL A   1      38.570  30.571  29.919  1.00  0.00     0.049 A 
ATOM     45  H   UNL A   1      40.403  29.897  30.643  1.00  0.00     0.167 HD
ATOM     46  C   UNL A   1      44.107  28.283  32.282  1.00  0.00     0.037 A 
ATOM     47  C   UNL A   1      38.298  31.743  30.527  1.00  0.00     0.037 A 
ATOM     48  C   UNL A   1      43.850  29.469  33.057  1.00  0.00     0.049 A 
ATOM     49  C   UNL A   1      39.234  32.262  31.577  1.00  0.00     0.074 A 
ATOM     50  C   UNL A   1      44.609  30.015  34.079  1.00  0.00     0.029 A 
ATOM     51  N   UNL A   1      42.766  30.314  32.872  1.00  0.00    -0.354 N 
ATOM     52  N   UNL A   1      40.348  31.732  32.021  1.00  0.00    -0.248 NA
ATOM     53  C   UNL A   1      38.861  33.524  32.232  1.00  0.00     0.031 C 
ATOM     54  C   UNL A   1      43.979  31.187  34.516  1.00  0.00     0.029 A 
ATOM     55  C   UNL A   1      42.841  31.381  33.752  1.00  0.00     0.049 A 
ATOM     56  H   UNL A   1      42.049  30.175  32.212  1.00  0.00     0.167 HD
ATOM     57  C   UNL A   1      40.801  32.587  33.018  1.00  0.00     0.074 A 
ATOM     58  C   UNL A   1      39.860  33.686  33.090  1.00  0.00     0.031 C 
ATOM     59  C   UNL A   1      41.891  32.462  33.814  1.00  0.00     0.037 A 
BRANCH  46  60
ATOM     60  C   UNL A   1      45.332  27.476  32.607  1.00  0.00     0.058 A 
ATOM     61  C   UNL A   1      45.316  26.445  33.557  1.00  0.00     0.135 A 
ATOM     62  C   UNL A   1      46.537  27.726  31.929  1.00  0.00     0.135 A 
ATOM     63  F   UNL A   1      44.195  26.178  34.246  1.00  0.00    -0.206 F 
ATOM     64  C   UNL A   1      46.460  25.703  33.843  1.00  0.00     0.059 A 
ATOM     65  C   UNL A   1      47.687  26.985  32.185  1.00  0.00     0.059 A 
ATOM     66  F   UNL A   1      46.606  28.702  31.010  1.00  0.00    -0.206 F 
ATOM     67  C   UNL A   1      47.642  25.985  33.155  1.00  0.00     0.060 A 
BRANCH  67  68
ATOM     68  S   UNL A   1      49.123  25.021  33.529  1.00  0.00     0.124 S 
ATOM     69  O   UNL A   1      49.815  25.903  34.464  1.00  0.00    -0.237 OA
ATOM     70  O   UNL A   1      48.570  23.798  34.105  1.00  0.00    -0.237 OA
ATOM     71  O   UNL A   1      49.759  24.861  32.226  1.00  0.00    -0.744 OA
ENDBRANCH  67  68
ENDBRANCH  46  60
BRANCH  47  72
ATOM     72  C   UNL A   1      37.060  32.481  30.171  1.00  0.00     0.058 A 
ATOM     73  C   UNL A   1      35.868  32.269  30.878  1.00  0.00     0.135 A 
ATOM     74  C   UNL A   1      37.057  33.447  29.153  1.00  0.00     0.135 A 
ATOM     75  F   UNL A   1      35.822  31.346  31.852  1.00  0.00    -0.206 F 
ATOM     76  C   UNL A   1      34.716  32.994  30.595  1.00  0.00     0.059 A 
ATOM     77  C   UNL A   1      35.924  34.200  28.866  1.00  0.00     0.059 A 
ATOM     78  F   UNL A   1      38.177  33.693  28.456  1.00  0.00    -0.206 F 
ATOM     79  C   UNL A   1      34.756  33.963  29.590  1.00  0.00     0.060 A 
BRANCH  79  80
ATOM     80  S   UNL A   1      33.289  34.971  29.282  1.00  0.00     0.124 S 
ATOM     81  O   UNL A   1      32.688  35.026  30.610  1.00  0.00    -0.237 OA
ATOM     82  O   UNL A   1      33.861  36.219  28.789  1.00  0.00    -0.237 OA
ATOM     83  O   UNL A   1      32.558  34.192  28.287  1.00  0.00    -0.744 OA
ENDBRANCH  79  80
ENDBRANCH  47  72
BRANCH  59  84
ATOM     84  C   UNL A   1      42.117  33.543  34.827  1.00  0.00     0.058 A 
ATOM     85  C   UNL A   1      42.833  34.706  34.500  1.00  0.00     0.135 A 
ATOM     86  C   UNL A   1      41.600  33.429  36.126  1.00  0.00     0.135 A 
ATOM     87  F   UNL A   1      43.351  34.857  33.271  1.00  0.00    -0.206 F 
ATOM     88  C   UNL A   1      43.049  35.711  35.436  1.00  0.00     0.059 A 
ATOM     89  C   UNL A   1      41.792  34.428  37.075  1.00  0.00     0.059 A 
ATOM     90  F   UNL A   1      40.905  32.338  36.482  1.00  0.00    -0.206 F 
ATOM     91  C   UNL A   1      42.529  35.560  36.724  1.00  0.00     0.060 A 
BRANCH  91  92
ATOM     92  S   UNL A   1      42.802  36.871  37.934  1.00  0.00     0.124 S 
ATOM     93  O   UNL A   1      41.434  37.230  38.290  1.00  0.00    -0.237 OA
ATOM     94  O   UNL A   1      43.570  36.192  38.973  1.00  0.00    -0.237 OA
ATOM     95  O   UNL A   1      43.540  37.878  37.177  1.00  0.00    -0.744 OA
ENDBRANCH  91  92
ENDBRANCH  59  84
ENDBRANCH  33  34
ENDBRANCH  26  28
ENDBRANCH  25  26
ENDBRANCH   1  25
TORSDOF 18
ENDMDL
