MODEL 1
REMARK VINA RESULT:     -12.8      0.000      0.000
REMARK SMILES C[C@]12CC[C@@H]3[C@@H](CCC4=C/C(=N\OCC(=O)N5CCC[C@@H]5C(=O)OCCOC(=O)c5ccc(-c6c7nc(c(-c8c(F)cc(S(=O)(=O)[O-])cc8F)c8ccc([nH]8)c(-c8c(F)cc(S(=O)(=O)[O-])cc8F)c8nc(c(-c9c(F)cc(S(=O)(=O)[O-])cc9F)c9ccc6[nH]9)C=C8)C=C7)cc5)CC[C@@]43C)[C@@H]1CC[C@@H]2O
REMARK SMILES IDX 25 1 24 2 22 3 23 4 21 5 17 6 18 7 19 8 20 9 15 10 16 11
REMARK SMILES IDX 14 12 13 13 12 14 1 15 2 16 3 17 100 18 103 19 4 20 6 21
REMARK SMILES IDX 101 22 102 23 5 24 7 25 98 26 8 27 9 28 97 29 99 30 10 31
REMARK SMILES IDX 96 32 11 33 104 34 26 36 27 37 28 38 29 39 30 40 31 41 95 42
REMARK SMILES IDX 32 43 94 44 33 45 34 46 35 47 88 48 36 49 93 50 87 51 89 52
REMARK SMILES IDX 37 53 92 54 86 55 85 56 38 58 72 59 51 60 71 61 52 62 55 63
REMARK SMILES IDX 70 64 90 65 53 66 54 67 69 69 91 70 56 71 39 72 40 73 49 74
REMARK SMILES IDX 41 75 42 76 48 77 50 78 43 79 44 80 45 81 46 82 47 83 73 84
REMARK SMILES IDX 74 85 83 86 75 87 76 88 82 89 84 90 77 91 78 92 79 93 80 94
REMARK SMILES IDX 81 95 57 96 58 97 67 98 59 99 60 100 66 101 68 102 61 103
REMARK SMILES IDX 62 104 63 105 64 106 65 107
REMARK H PARENT 104 35 89 57 55 68
REMARK Flexibility Score: inf
ROOT
ATOM      1  C   UNL A   1      35.148  32.615  32.395  1.00  0.00     0.274 C 
ENDROOT
BRANCH   1   2
ATOM      2  O   UNL A   1      35.677  33.937  32.294  1.00  0.00    -0.461 OA
BRANCH   2   3
ATOM      3  C   UNL A   1      34.775  34.866  31.889  1.00  0.00     0.328 C 
ATOM      4  O   UNL A   1      34.503  35.887  32.513  1.00  0.00    -0.250 OA
BRANCH   3   5
ATOM      5  C   UNL A   1      34.079  34.459  30.587  1.00  0.00     0.195 C 
ATOM      6  N   UNL A   1      34.868  34.492  29.353  1.00  0.00    -0.326 N 
ATOM      7  C   UNL A   1      34.295  35.407  28.377  1.00  0.00     0.120 C 
ATOM      8  C   UNL A   1      33.327  36.279  29.142  1.00  0.00     0.024 C 
ATOM      9  C   UNL A   1      32.902  35.418  30.325  1.00  0.00     0.039 C 
BRANCH   6  10
ATOM     10  C   UNL A   1      35.887  33.657  28.946  1.00  0.00     0.264 C 
ATOM     11  O   UNL A   1      37.057  33.941  29.246  1.00  0.00    -0.271 OA
BRANCH  10  12
ATOM     12  C   UNL A   1      35.660  32.460  27.983  1.00  0.00     0.363 C 
BRANCH  12  13
ATOM     13  O   UNL A   1      34.475  31.682  27.852  1.00  0.00    -0.385 OA
BRANCH  13  14
ATOM     14  N   UNL A   1      34.859  30.353  27.601  1.00  0.00    -0.091 NA
ATOM     15  C   UNL A   1      31.100  24.020  23.126  1.00  0.00     0.014 C 
ATOM     16  C   UNL A   1      32.120  25.135  23.567  1.00  0.00    -0.003 C 
ATOM     17  C   UNL A   1      32.348  24.830  25.034  1.00  0.00     0.010 C 
ATOM     18  C   UNL A   1      31.606  26.562  23.164  1.00  0.00     0.001 C 
ATOM     19  C   UNL A   1      33.401  25.270  22.717  1.00  0.00     0.120 C 
ATOM     20  C   UNL A   1      31.177  25.365  25.854  1.00  0.00     0.005 C 
ATOM     21  C   UNL A   1      30.480  27.081  24.044  1.00  0.00    -0.003 C 
ATOM     22  C   UNL A   1      31.552  26.375  21.615  1.00  0.00     0.007 C 
ATOM     23  C   UNL A   1      32.810  25.479  21.321  1.00  0.00     0.032 C 
ATOM     24  C   UNL A   1      30.818  26.835  25.532  1.00  0.00     0.002 C 
ATOM     25  C   UNL A   1      30.092  28.570  23.910  1.00  0.00     0.008 C 
ATOM     26  C   UNL A   1      31.828  27.830  26.242  1.00  0.00    -0.008 C 
ATOM     27  C   UNL A   1      31.037  29.624  24.510  1.00  0.00     0.032 C 
ATOM     28  C   UNL A   1      31.942  29.231  25.649  1.00  0.00    -0.062 C 
ATOM     29  C   UNL A   1      33.297  27.309  26.269  1.00  0.00     0.018 C 
ATOM     30  C   UNL A   1      31.226  27.874  27.672  1.00  0.00     0.016 C 
ATOM     31  C   UNL A   1      32.916  30.102  26.019  1.00  0.00     0.027 C 
ATOM     32  C   UNL A   1      34.433  28.201  26.735  1.00  0.00     0.061 C 
ATOM     33  C   UNL A   1      34.071  29.659  26.846  1.00  0.00     0.080 C 
BRANCH  19  34
ATOM     34  O   UNL A   1      34.371  24.275  22.888  1.00  0.00    -0.393 OA
ATOM     35  H   UNL A   1      34.044  23.609  23.513  1.00  0.00     0.210 HD
ENDBRANCH  19  34
ENDBRANCH  13  14
ENDBRANCH  12  13
ENDBRANCH  10  12
ENDBRANCH   6  10
ENDBRANCH   3   5
ENDBRANCH   2   3
ENDBRANCH   1   2
BRANCH   1  36
ATOM     36  C   UNL A   1      36.256  31.584  32.643  1.00  0.00     0.275 C 
BRANCH  36  37
ATOM     37  O   UNL A   1      37.048  31.457  31.482  1.00  0.00    -0.458 OA
BRANCH  37  38
ATOM     38  C   UNL A   1      37.138  30.161  31.106  1.00  0.00     0.338 C 
ATOM     39  O   UNL A   1      36.279  29.321  31.001  1.00  0.00    -0.246 OA
BRANCH  38  40
ATOM     40  C   UNL A   1      38.463  30.106  30.529  1.00  0.00     0.060 A 
ATOM     41  C   UNL A   1      38.584  30.393  29.170  1.00  0.00     0.016 A 
ATOM     42  C   UNL A   1      39.548  29.868  31.360  1.00  0.00     0.016 A 
ATOM     43  C   UNL A   1      39.824  30.322  28.586  1.00  0.00     0.010 A 
ATOM     44  C   UNL A   1      40.797  29.837  30.783  1.00  0.00     0.010 A 
ATOM     45  C   UNL A   1      40.917  30.001  29.391  1.00  0.00    -0.014 A 
BRANCH  45  46
ATOM     46  C   UNL A   1      42.175  29.633  28.749  1.00  0.00     0.031 A 
ATOM     47  C   UNL A   1      42.290  28.231  28.240  1.00  0.00     0.074 A 
ATOM     48  C   UNL A   1      43.142  30.553  28.641  1.00  0.00     0.049 A 
ATOM     49  N   UNL A   1      43.351  27.588  27.851  1.00  0.00    -0.248 NA
ATOM     50  C   UNL A   1      41.048  27.431  28.200  1.00  0.00     0.031 C 
ATOM     51  C   UNL A   1      43.032  31.953  29.065  1.00  0.00     0.029 A 
ATOM     52  N   UNL A   1      44.408  30.447  28.151  1.00  0.00    -0.354 N 
ATOM     53  C   UNL A   1      42.920  26.295  27.583  1.00  0.00     0.074 A 
ATOM     54  C   UNL A   1      41.506  26.236  27.866  1.00  0.00     0.031 C 
ATOM     55  C   UNL A   1      44.191  32.577  28.810  1.00  0.00     0.029 A 
ATOM     56  C   UNL A   1      45.138  31.600  28.291  1.00  0.00     0.049 A 
ATOM     57  H   UNL A   1      44.763  29.627  27.737  1.00  0.00     0.167 HD
ATOM     58  C   UNL A   1      43.667  25.261  27.143  1.00  0.00     0.037 A 
ATOM     59  C   UNL A   1      46.448  31.806  28.075  1.00  0.00     0.037 A 
ATOM     60  C   UNL A   1      45.065  25.404  26.840  1.00  0.00     0.049 A 
ATOM     61  C   UNL A   1      47.257  30.629  27.603  1.00  0.00     0.074 A 
ATOM     62  C   UNL A   1      45.947  24.453  26.366  1.00  0.00     0.029 A 
ATOM     63  N   UNL A   1      45.778  26.590  26.975  1.00  0.00    -0.354 N 
ATOM     64  N   UNL A   1      46.863  29.395  27.381  1.00  0.00    -0.248 NA
ATOM     65  C   UNL A   1      48.680  30.865  27.356  1.00  0.00     0.031 C 
ATOM     66  C   UNL A   1      47.206  25.053  26.266  1.00  0.00     0.029 A 
ATOM     67  C   UNL A   1      47.094  26.394  26.609  1.00  0.00     0.049 A 
ATOM     68  H   UNL A   1      45.400  27.444  27.286  1.00  0.00     0.167 HD
ATOM     69  C   UNL A   1      47.985  28.710  26.939  1.00  0.00     0.074 A 
ATOM     70  C   UNL A   1      49.068  29.677  26.912  1.00  0.00     0.031 C 
ATOM     71  C   UNL A   1      48.123  27.406  26.589  1.00  0.00     0.037 A 
BRANCH  58  72
ATOM     72  C   UNL A   1      43.010  23.917  27.005  1.00  0.00     0.058 A 
ATOM     73  C   UNL A   1      42.595  23.407  25.765  1.00  0.00     0.135 A 
ATOM     74  C   UNL A   1      42.823  23.109  28.138  1.00  0.00     0.135 A 
ATOM     75  F   UNL A   1      42.714  24.149  24.652  1.00  0.00    -0.206 F 
ATOM     76  C   UNL A   1      42.019  22.145  25.653  1.00  0.00     0.059 A 
ATOM     77  C   UNL A   1      42.278  21.832  28.046  1.00  0.00     0.059 A 
ATOM     78  F   UNL A   1      43.178  23.556  29.353  1.00  0.00    -0.206 F 
ATOM     79  C   UNL A   1      41.877  21.359  26.798  1.00  0.00     0.060 A 
BRANCH  79  80
ATOM     80  S   UNL A   1      41.191  19.698  26.626  1.00  0.00     0.124 S 
ATOM     81  O   UNL A   1      42.150  19.076  25.719  1.00  0.00    -0.237 OA
ATOM     82  O   UNL A   1      41.212  19.212  28.002  1.00  0.00    -0.237 OA
ATOM     83  O   UNL A   1      39.864  19.934  26.067  1.00  0.00    -0.744 OA
ENDBRANCH  79  80
ENDBRANCH  58  72
BRANCH  59  84
ATOM     84  C   UNL A   1      47.051  33.135  28.340  1.00  0.00     0.058 A 
ATOM     85  C   UNL A   1      47.615  33.438  29.587  1.00  0.00     0.135 A 
ATOM     86  C   UNL A   1      47.100  34.126  27.344  1.00  0.00     0.135 A 
ATOM     87  F   UNL A   1      47.603  32.522  30.569  1.00  0.00    -0.206 F 
ATOM     88  C   UNL A   1      48.173  34.684  29.851  1.00  0.00     0.059 A 
ATOM     89  C   UNL A   1      47.684  35.366  27.572  1.00  0.00     0.059 A 
ATOM     90  F   UNL A   1      46.601  33.880  26.122  1.00  0.00    -0.206 F 
ATOM     91  C   UNL A   1      48.201  35.642  28.837  1.00  0.00     0.060 A 
BRANCH  91  92
ATOM     92  S   UNL A   1      48.936  37.254  29.188  1.00  0.00     0.124 S 
ATOM     93  O   UNL A   1      50.093  37.245  28.302  1.00  0.00    -0.237 OA
ATOM     94  O   UNL A   1      47.858  38.167  28.825  1.00  0.00    -0.237 OA
ATOM     95  O   UNL A   1      49.234  37.182  30.616  1.00  0.00    -0.744 OA
ENDBRANCH  91  92
ENDBRANCH  59  84
BRANCH  71  96
ATOM     96  C   UNL A   1      49.473  26.985  26.092  1.00  0.00     0.058 A 
ATOM     97  C   UNL A   1      50.428  26.409  26.942  1.00  0.00     0.135 A 
ATOM     98  C   UNL A   1      49.791  27.123  24.732  1.00  0.00     0.135 A 
ATOM     99  F   UNL A   1      50.169  26.264  28.252  1.00  0.00    -0.206 F 
ATOM    100  C   UNL A   1      51.669  26.014  26.465  1.00  0.00     0.059 A 
ATOM    101  C   UNL A   1      51.012  26.699  24.226  1.00  0.00     0.059 A 
ATOM    102  F   UNL A   1      48.902  27.657  23.878  1.00  0.00    -0.206 F 
ATOM    103  C   UNL A   1      51.950  26.160  25.104  1.00  0.00     0.060 A 
BRANCH 103 104
ATOM    104  S   UNL A   1      53.558  25.619  24.495  1.00  0.00     0.124 S 
ATOM    105  O   UNL A   1      53.528  24.195  24.815  1.00  0.00    -0.237 OA
ATOM    106  O   UNL A   1      53.481  25.953  23.077  1.00  0.00    -0.237 OA
ATOM    107  O   UNL A   1      54.502  26.417  25.273  1.00  0.00    -0.744 OA
ENDBRANCH 103 104
ENDBRANCH  71  96
ENDBRANCH  45  46
ENDBRANCH  38  40
ENDBRANCH  37  38
ENDBRANCH  36  37
ENDBRANCH   1  36
TORSDOF 19
ENDMDL
MODEL 2
REMARK VINA RESULT:     -12.7      1.105      8.024
REMARK SMILES C[C@]12CC[C@@H]3[C@@H](CCC4=C/C(=N\OCC(=O)N5CCC[C@@H]5C(=O)OCCOC(=O)c5ccc(-c6c7nc(c(-c8c(F)cc(S(=O)(=O)[O-])cc8F)c8ccc([nH]8)c(-c8c(F)cc(S(=O)(=O)[O-])cc8F)c8nc(c(-c9c(F)cc(S(=O)(=O)[O-])cc9F)c9ccc6[nH]9)C=C8)C=C7)cc5)CC[C@@]43C)[C@@H]1CC[C@@H]2O
REMARK SMILES IDX 25 1 24 2 22 3 23 4 21 5 17 6 18 7 19 8 20 9 15 10 16 11
REMARK SMILES IDX 14 12 13 13 12 14 1 15 2 16 3 17 100 18 103 19 4 20 6 21
REMARK SMILES IDX 101 22 102 23 5 24 7 25 98 26 8 27 9 28 97 29 99 30 10 31
REMARK SMILES IDX 96 32 11 33 104 34 26 36 27 37 28 38 29 39 30 40 31 41 95 42
REMARK SMILES IDX 32 43 94 44 33 45 34 46 35 47 88 48 36 49 93 50 87 51 89 52
REMARK SMILES IDX 37 53 92 54 86 55 85 56 38 58 72 59 51 60 71 61 52 62 55 63
REMARK SMILES IDX 70 64 90 65 53 66 54 67 69 69 91 70 56 71 39 72 40 73 49 74
REMARK SMILES IDX 41 75 42 76 48 77 50 78 43 79 44 80 45 81 46 82 47 83 73 84
REMARK SMILES IDX 74 85 83 86 75 87 76 88 82 89 84 90 77 91 78 92 79 93 80 94
REMARK SMILES IDX 81 95 57 96 58 97 67 98 59 99 60 100 66 101 68 102 61 103
REMARK SMILES IDX 62 104 63 105 64 106 65 107
REMARK H PARENT 104 35 89 57 55 68
REMARK Flexibility Score: inf
ROOT
ATOM      1  C   UNL A   1      35.300  32.223  32.220  1.00  0.00     0.274 C 
ENDROOT
BRANCH   1   2
ATOM      2  O   UNL A   1      36.101  33.390  32.046  1.00  0.00    -0.461 OA
BRANCH   2   3
ATOM      3  C   UNL A   1      35.430  34.556  32.226  1.00  0.00     0.328 C 
ATOM      4  O   UNL A   1      35.818  35.479  32.934  1.00  0.00    -0.250 OA
BRANCH   3   5
ATOM      5  C   UNL A   1      34.088  34.562  31.489  1.00  0.00     0.195 C 
ATOM      6  N   UNL A   1      34.100  34.842  30.050  1.00  0.00    -0.326 N 
ATOM      7  C   UNL A   1      33.315  36.024  29.730  1.00  0.00     0.120 C 
ATOM      8  C   UNL A   1      33.105  36.752  31.038  1.00  0.00     0.024 C 
ATOM      9  C   UNL A   1      33.188  35.656  32.092  1.00  0.00     0.039 C 
BRANCH   6  10
ATOM     10  C   UNL A   1      34.546  34.053  29.011  1.00  0.00     0.264 C 
ATOM     11  O   UNL A   1      35.761  34.018  28.759  1.00  0.00    -0.271 OA
BRANCH  10  12
ATOM     12  C   UNL A   1      33.584  33.330  28.030  1.00  0.00     0.363 C 
BRANCH  12  13
ATOM     13  O   UNL A   1      33.870  32.177  27.247  1.00  0.00    -0.385 OA
BRANCH  13  14
ATOM     14  N   UNL A   1      33.080  31.120  27.732  1.00  0.00    -0.091 NA
ATOM     15  C   UNL A   1      30.792  23.575  24.255  1.00  0.00     0.014 C 
ATOM     16  C   UNL A   1      31.462  24.642  25.197  1.00  0.00    -0.003 C 
ATOM     17  C   UNL A   1      30.306  25.554  25.559  1.00  0.00     0.010 C 
ATOM     18  C   UNL A   1      32.735  25.268  24.526  1.00  0.00     0.001 C 
ATOM     19  C   UNL A   1      32.266  24.094  26.395  1.00  0.00     0.120 C 
ATOM     20  C   UNL A   1      30.038  26.519  24.406  1.00  0.00     0.005 C 
ATOM     21  C   UNL A   1      32.422  26.267  23.424  1.00  0.00    -0.003 C 
ATOM     22  C   UNL A   1      33.595  23.974  24.378  1.00  0.00     0.007 C 
ATOM     23  C   UNL A   1      33.260  23.172  25.688  1.00  0.00     0.032 C 
ATOM     24  C   UNL A   1      31.310  27.234  23.891  1.00  0.00     0.002 C 
ATOM     25  C   UNL A   1      33.582  27.137  22.893  1.00  0.00     0.008 C 
ATOM     26  C   UNL A   1      31.714  28.427  24.854  1.00  0.00    -0.008 C 
ATOM     27  C   UNL A   1      34.095  28.286  23.779  1.00  0.00     0.032 C 
ATOM     28  C   UNL A   1      33.165  28.894  24.795  1.00  0.00    -0.062 C 
ATOM     29  C   UNL A   1      31.476  28.115  26.363  1.00  0.00     0.018 C 
ATOM     30  C   UNL A   1      30.748  29.534  24.356  1.00  0.00     0.016 C 
ATOM     31  C   UNL A   1      33.693  29.749  25.710  1.00  0.00     0.027 C 
ATOM     32  C   UNL A   1      31.977  29.056  27.443  1.00  0.00     0.061 C 
ATOM     33  C   UNL A   1      32.957  30.091  26.958  1.00  0.00     0.080 C 
BRANCH  19  34
ATOM     34  O   UNL A   1      31.521  23.578  27.462  1.00  0.00    -0.393 OA
ATOM     35  H   UNL A   1      30.674  24.047  27.522  1.00  0.00     0.210 HD
ENDBRANCH  19  34
ENDBRANCH  13  14
ENDBRANCH  12  13
ENDBRANCH  10  12
ENDBRANCH   6  10
ENDBRANCH   3   5
ENDBRANCH   2   3
ENDBRANCH   1   2
BRANCH   1  36
ATOM     36  C   UNL A   1      36.015  30.968  31.704  1.00  0.00     0.275 C 
BRANCH  36  37
ATOM     37  O   UNL A   1      36.717  31.280  30.521  1.00  0.00    -0.458 OA
BRANCH  37  38
ATOM     38  C   UNL A   1      36.695  30.235  29.664  1.00  0.00     0.338 C 
ATOM     39  O   UNL A   1      35.775  29.751  29.051  1.00  0.00    -0.246 OA
BRANCH  38  40
ATOM     40  C   UNL A   1      38.102  30.041  29.389  1.00  0.00     0.060 A 
ATOM     41  C   UNL A   1      38.471  29.805  28.065  1.00  0.00     0.016 A 
ATOM     42  C   UNL A   1      39.015  30.191  30.422  1.00  0.00     0.016 A 
ATOM     43  C   UNL A   1      39.795  29.589  27.775  1.00  0.00     0.010 A 
ATOM     44  C   UNL A   1      40.347  30.016  30.125  1.00  0.00     0.010 A 
ATOM     45  C   UNL A   1      40.719  29.654  28.818  1.00  0.00    -0.014 A 
BRANCH  45  46
ATOM     46  C   UNL A   1      42.067  29.142  28.591  1.00  0.00     0.031 A 
ATOM     47  C   UNL A   1      43.187  30.132  28.659  1.00  0.00     0.074 A 
ATOM     48  C   UNL A   1      42.234  27.836  28.349  1.00  0.00     0.049 A 
ATOM     49  N   UNL A   1      44.422  29.996  28.274  1.00  0.00    -0.248 NA
ATOM     50  C   UNL A   1      42.863  31.471  29.194  1.00  0.00     0.031 C 
ATOM     51  C   UNL A   1      41.166  26.830  28.348  1.00  0.00     0.029 A 
ATOM     52  N   UNL A   1      43.360  27.132  28.048  1.00  0.00    -0.354 N 
ATOM     53  C   UNL A   1      45.004  31.244  28.460  1.00  0.00     0.074 A 
ATOM     54  C   UNL A   1      43.989  32.130  28.976  1.00  0.00     0.031 C 
ATOM     55  C   UNL A   1      41.697  25.633  28.062  1.00  0.00     0.029 A 
ATOM     56  C   UNL A   1      43.114  25.810  27.777  1.00  0.00     0.049 A 
ATOM     57  H   UNL A   1      44.261  27.531  28.027  1.00  0.00     0.167 HD
ATOM     58  C   UNL A   1      46.282  31.592  28.206  1.00  0.00     0.037 A 
ATOM     59  C   UNL A   1      43.946  24.874  27.292  1.00  0.00     0.037 A 
ATOM     60  C   UNL A   1      47.253  30.644  27.732  1.00  0.00     0.049 A 
ATOM     61  C   UNL A   1      45.359  25.298  27.002  1.00  0.00     0.074 A 
ATOM     62  C   UNL A   1      48.589  30.844  27.451  1.00  0.00     0.029 A 
ATOM     63  N   UNL A   1      46.980  29.303  27.482  1.00  0.00    -0.354 N 
ATOM     64  N   UNL A   1      45.907  26.485  27.143  1.00  0.00    -0.248 NA
ATOM     65  C   UNL A   1      46.264  24.269  26.488  1.00  0.00     0.031 C 
ATOM     66  C   UNL A   1      49.111  29.635  26.979  1.00  0.00     0.029 A 
ATOM     67  C   UNL A   1      48.119  28.665  27.034  1.00  0.00     0.049 A 
ATOM     68  H   UNL A   1      46.103  28.873  27.606  1.00  0.00     0.167 HD
ATOM     69  C   UNL A   1      47.233  26.340  26.761  1.00  0.00     0.074 A 
ATOM     70  C   UNL A   1      47.402  24.944  26.400  1.00  0.00     0.031 C 
ATOM     71  C   UNL A   1      48.225  27.264  26.705  1.00  0.00     0.037 A 
BRANCH  58  72
ATOM     72  C   UNL A   1      46.679  33.029  28.396  1.00  0.00     0.058 A 
ATOM     73  C   UNL A   1      47.220  33.507  29.600  1.00  0.00     0.135 A 
ATOM     74  C   UNL A   1      46.544  33.939  27.335  1.00  0.00     0.135 A 
ATOM     75  F   UNL A   1      47.339  32.692  30.661  1.00  0.00    -0.206 F 
ATOM     76  C   UNL A   1      47.613  34.834  29.745  1.00  0.00     0.059 A 
ATOM     77  C   UNL A   1      46.958  35.263  27.448  1.00  0.00     0.059 A 
ATOM     78  F   UNL A   1      46.009  33.544  26.169  1.00  0.00    -0.206 F 
ATOM     79  C   UNL A   1      47.491  35.702  28.659  1.00  0.00     0.060 A 
BRANCH  79  80
ATOM     80  S   UNL A   1      48.067  37.402  28.842  1.00  0.00     0.124 S 
ATOM     81  O   UNL A   1      47.470  37.779  30.120  1.00  0.00    -0.237 OA
ATOM     82  O   UNL A   1      49.517  37.238  28.843  1.00  0.00    -0.237 OA
ATOM     83  O   UNL A   1      47.516  38.077  27.671  1.00  0.00    -0.744 OA
ENDBRANCH  79  80
ENDBRANCH  58  72
BRANCH  59  84
ATOM     84  C   UNL A   1      43.453  23.500  27.024  1.00  0.00     0.058 A 
ATOM     85  C   UNL A   1      43.215  23.060  25.715  1.00  0.00     0.135 A 
ATOM     86  C   UNL A   1      43.234  22.587  28.070  1.00  0.00     0.135 A 
ATOM     87  F   UNL A   1      43.420  23.890  24.681  1.00  0.00    -0.206 F 
ATOM     88  C   UNL A   1      42.743  21.778  25.452  1.00  0.00     0.059 A 
ATOM     89  C   UNL A   1      42.796  21.290  27.830  1.00  0.00     0.059 A 
ATOM     90  F   UNL A   1      43.473  22.946  29.341  1.00  0.00    -0.206 F 
ATOM     91  C   UNL A   1      42.535  20.901  26.518  1.00  0.00     0.060 A 
BRANCH  91  92
ATOM     92  S   UNL A   1      41.930  19.238  26.163  1.00  0.00     0.124 S 
ATOM     93  O   UNL A   1      40.510  19.486  25.939  1.00  0.00    -0.237 OA
ATOM     94  O   UNL A   1      42.709  18.873  24.985  1.00  0.00    -0.237 OA
ATOM     95  O   UNL A   1      42.256  18.496  27.378  1.00  0.00    -0.744 OA
ENDBRANCH  91  92
ENDBRANCH  59  84
BRANCH  71  96
ATOM     96  C   UNL A   1      49.581  26.768  26.300  1.00  0.00     0.058 A 
ATOM     97  C   UNL A   1      50.053  26.895  24.986  1.00  0.00     0.135 A 
ATOM     98  C   UNL A   1      50.432  26.198  27.260  1.00  0.00     0.135 A 
ATOM     99  F   UNL A   1      49.270  27.428  24.033  1.00  0.00    -0.206 F 
ATOM    100  C   UNL A   1      51.314  26.441  24.628  1.00  0.00     0.059 A 
ATOM    101  C   UNL A   1      51.711  25.772  26.932  1.00  0.00     0.059 A 
ATOM    102  F   UNL A   1      50.027  26.068  28.534  1.00  0.00    -0.206 F 
ATOM    103  C   UNL A   1      52.137  25.885  25.610  1.00  0.00     0.060 A 
BRANCH 103 104
ATOM    104  S   UNL A   1      53.783  25.323  25.135  1.00  0.00     0.124 S 
ATOM    105  O   UNL A   1      54.608  25.923  26.179  1.00  0.00    -0.237 OA
ATOM    106  O   UNL A   1      53.644  23.871  25.191  1.00  0.00    -0.237 OA
ATOM    107  O   UNL A   1      53.959  25.880  23.797  1.00  0.00    -0.744 OA
ENDBRANCH 103 104
ENDBRANCH  71  96
ENDBRANCH  45  46
ENDBRANCH  38  40
ENDBRANCH  37  38
ENDBRANCH  36  37
ENDBRANCH   1  36
TORSDOF 19
ENDMDL
MODEL 3
REMARK VINA RESULT:     -12.7      0.797      1.552
REMARK SMILES C[C@]12CC[C@@H]3[C@@H](CCC4=C/C(=N\OCC(=O)N5CCC[C@@H]5C(=O)OCCOC(=O)c5ccc(-c6c7nc(c(-c8c(F)cc(S(=O)(=O)[O-])cc8F)c8ccc([nH]8)c(-c8c(F)cc(S(=O)(=O)[O-])cc8F)c8nc(c(-c9c(F)cc(S(=O)(=O)[O-])cc9F)c9ccc6[nH]9)C=C8)C=C7)cc5)CC[C@@]43C)[C@@H]1CC[C@@H]2O
REMARK SMILES IDX 25 1 24 2 22 3 23 4 21 5 17 6 18 7 19 8 20 9 15 10 16 11
REMARK SMILES IDX 14 12 13 13 12 14 1 15 2 16 3 17 100 18 103 19 4 20 6 21
REMARK SMILES IDX 101 22 102 23 5 24 7 25 98 26 8 27 9 28 97 29 99 30 10 31
REMARK SMILES IDX 96 32 11 33 104 34 26 36 27 37 28 38 29 39 30 40 31 41 95 42
REMARK SMILES IDX 32 43 94 44 33 45 34 46 35 47 88 48 36 49 93 50 87 51 89 52
REMARK SMILES IDX 37 53 92 54 86 55 85 56 38 58 72 59 51 60 71 61 52 62 55 63
REMARK SMILES IDX 70 64 90 65 53 66 54 67 69 69 91 70 56 71 39 72 40 73 49 74
REMARK SMILES IDX 41 75 42 76 48 77 50 78 43 79 44 80 45 81 46 82 47 83 73 84
REMARK SMILES IDX 74 85 83 86 75 87 76 88 82 89 84 90 77 91 78 92 79 93 80 94
REMARK SMILES IDX 81 95 57 96 58 97 67 98 59 99 60 100 66 101 68 102 61 103
REMARK SMILES IDX 62 104 63 105 64 106 65 107
REMARK H PARENT 104 35 89 57 55 68
REMARK Flexibility Score: inf
ROOT
ATOM      1  C   UNL A   1      37.096  32.566  32.463  1.00  0.00     0.274 C 
ENDROOT
BRANCH   1   2
ATOM      2  O   UNL A   1      36.631  33.542  31.531  1.00  0.00    -0.461 OA
BRANCH   2   3
ATOM      3  C   UNL A   1      35.778  34.454  32.063  1.00  0.00     0.328 C 
ATOM      4  O   UNL A   1      36.093  35.296  32.898  1.00  0.00    -0.250 OA
BRANCH   3   5
ATOM      5  C   UNL A   1      34.348  34.268  31.547  1.00  0.00     0.195 C 
ATOM      6  N   UNL A   1      34.039  34.758  30.201  1.00  0.00    -0.326 N 
ATOM      7  C   UNL A   1      32.992  35.768  30.227  1.00  0.00     0.120 C 
ATOM      8  C   UNL A   1      32.888  36.223  31.664  1.00  0.00     0.024 C 
ATOM      9  C   UNL A   1      33.377  35.028  32.471  1.00  0.00     0.039 C 
BRANCH   6  10
ATOM     10  C   UNL A   1      34.432  34.256  28.978  1.00  0.00     0.264 C 
ATOM     11  O   UNL A   1      34.654  35.044  28.045  1.00  0.00    -0.271 OA
BRANCH  10  12
ATOM     12  C   UNL A   1      34.452  32.737  28.659  1.00  0.00     0.363 C 
BRANCH  12  13
ATOM     13  O   UNL A   1      33.742  32.073  27.620  1.00  0.00    -0.385 OA
BRANCH  13  14
ATOM     14  N   UNL A   1      34.314  30.800  27.452  1.00  0.00    -0.091 NA
ATOM     15  C   UNL A   1      31.573  23.753  23.319  1.00  0.00     0.014 C 
ATOM     16  C   UNL A   1      32.417  25.024  23.704  1.00  0.00    -0.003 C 
ATOM     17  C   UNL A   1      32.657  24.839  25.190  1.00  0.00     0.010 C 
ATOM     18  C   UNL A   1      31.714  26.338  23.212  1.00  0.00     0.001 C 
ATOM     19  C   UNL A   1      33.682  25.291  22.862  1.00  0.00     0.120 C 
ATOM     20  C   UNL A   1      31.406  25.249  25.964  1.00  0.00     0.005 C 
ATOM     21  C   UNL A   1      30.509  26.742  24.047  1.00  0.00    -0.003 C 
ATOM     22  C   UNL A   1      31.718  26.057  21.677  1.00  0.00     0.007 C 
ATOM     23  C   UNL A   1      33.095  25.333  21.450  1.00  0.00     0.032 C 
ATOM     24  C   UNL A   1      30.851  26.631  25.550  1.00  0.00     0.002 C 
ATOM     25  C   UNL A   1      29.919  28.150  23.821  1.00  0.00     0.008 C 
ATOM     26  C   UNL A   1      31.696  27.799  26.212  1.00  0.00    -0.008 C 
ATOM     27  C   UNL A   1      30.694  29.361  24.368  1.00  0.00     0.032 C 
ATOM     28  C   UNL A   1      31.622  29.165  25.537  1.00  0.00    -0.062 C 
ATOM     29  C   UNL A   1      33.222  27.494  26.286  1.00  0.00     0.018 C 
ATOM     30  C   UNL A   1      31.066  27.839  27.629  1.00  0.00     0.016 C 
ATOM     31  C   UNL A   1      32.456  30.186  25.866  1.00  0.00     0.027 C 
ATOM     32  C   UNL A   1      34.212  28.563  26.711  1.00  0.00     0.061 C 
ATOM     33  C   UNL A   1      33.647  29.959  26.731  1.00  0.00     0.080 C 
BRANCH  19  34
ATOM     34  O   UNL A   1      34.779  24.455  23.103  1.00  0.00    -0.393 OA
ATOM     35  H   UNL A   1      34.488  23.529  23.096  1.00  0.00     0.210 HD
ENDBRANCH  19  34
ENDBRANCH  13  14
ENDBRANCH  12  13
ENDBRANCH  10  12
ENDBRANCH   6  10
ENDBRANCH   3   5
ENDBRANCH   2   3
ENDBRANCH   1   2
BRANCH   1  36
ATOM     36  C   UNL A   1      36.279  31.272  32.376  1.00  0.00     0.275 C 
BRANCH  36  37
ATOM     37  O   UNL A   1      36.906  30.379  31.482  1.00  0.00    -0.458 OA
BRANCH  37  38
ATOM     38  C   UNL A   1      37.625  29.454  32.158  1.00  0.00     0.338 C 
ATOM     39  O   UNL A   1      37.264  28.604  32.934  1.00  0.00    -0.246 OA
BRANCH  38  40
ATOM     40  C   UNL A   1      38.897  29.501  31.470  1.00  0.00     0.060 A 
ATOM     41  C   UNL A   1      38.893  29.915  30.140  1.00  0.00     0.016 A 
ATOM     42  C   UNL A   1      40.056  29.226  32.182  1.00  0.00     0.016 A 
ATOM     43  C   UNL A   1      40.079  29.943  29.450  1.00  0.00     0.010 A 
ATOM     44  C   UNL A   1      41.251  29.294  31.503  1.00  0.00     0.010 A 
ATOM     45  C   UNL A   1      41.246  29.590  30.128  1.00  0.00    -0.014 A 
BRANCH  45  46
ATOM     46  C   UNL A   1      42.454  29.328  29.352  1.00  0.00     0.031 A 
ATOM     47  C   UNL A   1      42.567  27.983  28.708  1.00  0.00     0.074 A 
ATOM     48  C   UNL A   1      43.381  30.290  29.249  1.00  0.00     0.049 A 
ATOM     49  N   UNL A   1      43.609  27.417  28.174  1.00  0.00    -0.248 NA
ATOM     50  C   UNL A   1      41.351  27.143  28.698  1.00  0.00     0.031 C 
ATOM     51  C   UNL A   1      43.266  31.641  29.808  1.00  0.00     0.029 A 
ATOM     52  N   UNL A   1      44.602  30.276  28.647  1.00  0.00    -0.354 N 
ATOM     53  C   UNL A   1      43.195  26.138  27.825  1.00  0.00     0.074 A 
ATOM     54  C   UNL A   1      41.814  26.001  28.218  1.00  0.00     0.031 C 
ATOM     55  C   UNL A   1      44.379  32.328  29.515  1.00  0.00     0.029 A 
ATOM     56  C   UNL A   1      45.307  31.438  28.831  1.00  0.00     0.049 A 
ATOM     57  H   UNL A   1      44.944  29.510  28.131  1.00  0.00     0.167 HD
ATOM     58  C   UNL A   1      43.932  25.177  27.231  1.00  0.00     0.037 A 
ATOM     59  C   UNL A   1      46.586  31.712  28.527  1.00  0.00     0.037 A 
ATOM     60  C   UNL A   1      45.293  25.398  26.827  1.00  0.00     0.049 A 
ATOM     61  C   UNL A   1      47.386  30.614  27.882  1.00  0.00     0.074 A 
ATOM     62  C   UNL A   1      46.159  24.528  26.195  1.00  0.00     0.029 A 
ATOM     63  N   UNL A   1      45.980  26.594  27.010  1.00  0.00    -0.354 N 
ATOM     64  N   UNL A   1      47.011  29.390  27.581  1.00  0.00    -0.248 NA
ATOM     65  C   UNL A   1      48.775  30.924  27.540  1.00  0.00     0.031 C 
ATOM     66  C   UNL A   1      47.386  25.181  26.046  1.00  0.00     0.029 A 
ATOM     67  C   UNL A   1      47.265  26.481  26.519  1.00  0.00     0.049 A 
ATOM     68  H   UNL A   1      45.604  27.401  27.430  1.00  0.00     0.167 HD
ATOM     69  C   UNL A   1      48.111  28.790  26.986  1.00  0.00     0.074 A 
ATOM     70  C   UNL A   1      49.158  29.796  26.957  1.00  0.00     0.031 C 
ATOM     71  C   UNL A   1      48.257  27.529  26.507  1.00  0.00     0.037 A 
BRANCH  58  72
ATOM     72  C   UNL A   1      43.306  23.827  27.024  1.00  0.00     0.058 A 
ATOM     73  C   UNL A   1      42.745  23.437  25.798  1.00  0.00     0.135 A 
ATOM     74  C   UNL A   1      43.298  22.891  28.072  1.00  0.00     0.135 A 
ATOM     75  F   UNL A   1      42.691  24.302  24.772  1.00  0.00    -0.206 F 
ATOM     76  C   UNL A   1      42.200  22.169  25.617  1.00  0.00     0.059 A 
ATOM     77  C   UNL A   1      42.787  21.608  27.904  1.00  0.00     0.059 A 
ATOM     78  F   UNL A   1      43.798  23.217  29.274  1.00  0.00    -0.206 F 
ATOM     79  C   UNL A   1      42.238  21.256  26.672  1.00  0.00     0.060 A 
BRANCH  79  80
ATOM     80  S   UNL A   1      41.589  19.594  26.400  1.00  0.00     0.124 S 
ATOM     81  O   UNL A   1      41.832  18.967  27.696  1.00  0.00    -0.237 OA
ATOM     82  O   UNL A   1      40.191  19.858  26.076  1.00  0.00    -0.237 OA
ATOM     83  O   UNL A   1      42.401  19.087  25.299  1.00  0.00    -0.744 OA
ENDBRANCH  79  80
ENDBRANCH  58  72
BRANCH  59  84
ATOM     84  C   UNL A   1      47.170  33.034  28.862  1.00  0.00     0.058 A 
ATOM     85  C   UNL A   1      47.133  34.094  27.947  1.00  0.00     0.135 A 
ATOM     86  C   UNL A   1      47.757  33.275  30.117  1.00  0.00     0.135 A 
ATOM     87  F   UNL A   1      46.574  33.919  26.740  1.00  0.00    -0.206 F 
ATOM     88  C   UNL A   1      47.686  35.335  28.246  1.00  0.00     0.059 A 
ATOM     89  C   UNL A   1      48.285  34.516  30.452  1.00  0.00     0.059 A 
ATOM     90  F   UNL A   1      47.795  32.303  31.042  1.00  0.00    -0.206 F 
ATOM     91  C   UNL A   1      48.262  35.534  29.502  1.00  0.00     0.060 A 
BRANCH  91  92
ATOM     92  S   UNL A   1      48.971  37.151  29.881  1.00  0.00     0.124 S 
ATOM     93  O   UNL A   1      48.950  37.792  28.572  1.00  0.00    -0.237 OA
ATOM     94  O   UNL A   1      48.028  37.674  30.864  1.00  0.00    -0.237 OA
ATOM     95  O   UNL A   1      50.294  36.824  30.403  1.00  0.00    -0.744 OA
ENDBRANCH  91  92
ENDBRANCH  59  84
BRANCH  71  96
ATOM     96  C   UNL A   1      49.571  27.205  25.862  1.00  0.00     0.058 A 
ATOM     97  C   UNL A   1      49.774  27.353  24.483  1.00  0.00     0.135 A 
ATOM     98  C   UNL A   1      50.652  26.785  26.652  1.00  0.00     0.135 A 
ATOM     99  F   UNL A   1      48.765  27.745  23.687  1.00  0.00    -0.206 F 
ATOM    100  C   UNL A   1      51.000  27.060  23.901  1.00  0.00     0.059 A 
ATOM    101  C   UNL A   1      51.897  26.524  26.097  1.00  0.00     0.059 A 
ATOM    102  F   UNL A   1      50.508  26.643  27.980  1.00  0.00    -0.206 F 
ATOM    103  C   UNL A   1      52.056  26.649  24.718  1.00  0.00     0.060 A 
BRANCH 103 104
ATOM    104  S   UNL A   1      53.649  26.297  23.952  1.00  0.00     0.124 S 
ATOM    105  O   UNL A   1      53.255  26.018  22.575  1.00  0.00    -0.237 OA
ATOM    106  O   UNL A   1      54.378  27.543  24.164  1.00  0.00    -0.237 OA
ATOM    107  O   UNL A   1      54.143  25.150  24.708  1.00  0.00    -0.744 OA
ENDBRANCH 103 104
ENDBRANCH  71  96
ENDBRANCH  45  46
ENDBRANCH  38  40
ENDBRANCH  37  38
ENDBRANCH  36  37
ENDBRANCH   1  36
TORSDOF 19
ENDMDL
