MODEL 1
REMARK VINA RESULT:     -12.7      0.000      0.000
REMARK SMILES O=C(OCCOC(=O)[C@@H]1CN(c2ncccn2)CCN1C(=O)C1CCOCC1)c1ccc(-c2c3nc(c(-c4c(F)cc(S(=O)(=O)[O-])cc4F)c4ccc([nH]4)c(-c4c(F)cc(S(=O)(=O)[O-])cc4F)c4nc(c(-c5c(F)cc(S(=O)(=O)[O-])cc5F)c5ccc2[nH]5)C=C4)C=C3)cc1
REMARK SMILES IDX 4 1 3 2 2 3 1 4 29 5 30 6 94 7 31 8 93 9 32 10 33 11 34 12
REMARK SMILES IDX 87 13 35 14 92 15 86 16 88 17 36 18 91 19 85 20 84 21 37 23
REMARK SMILES IDX 71 24 50 25 70 26 51 27 54 28 69 29 89 30 52 31 53 32 68 34
REMARK SMILES IDX 90 35 55 36 38 37 39 38 48 39 40 40 41 41 47 42 49 43 42 44
REMARK SMILES IDX 43 45 44 46 45 47 46 48 72 49 73 50 82 51 74 52 75 53 81 54
REMARK SMILES IDX 83 55 76 56 77 57 78 58 79 59 80 60 56 61 57 62 66 63 58 64
REMARK SMILES IDX 59 65 65 66 67 67 60 68 61 69 62 70 63 71 64 72 5 73 6 74
REMARK SMILES IDX 7 75 8 76 9 77 10 78 20 79 11 80 19 81 18 82 21 83 22 84
REMARK SMILES IDX 23 85 24 86 28 87 25 88 27 89 26 90 12 91 13 92 17 93 14 94
REMARK SMILES IDX 16 95 15 96
REMARK H PARENT 88 22 54 33
REMARK Flexibility Score: inf
ROOT
ATOM      1  C   UNL A   1      38.108  22.518  25.808  1.00  0.00     0.275 C 
ENDROOT
BRANCH   1   2
ATOM      2  O   UNL A   1      39.517  22.809  25.911  1.00  0.00    -0.458 OA
BRANCH   2   3
ATOM      3  C   UNL A   1      40.241  23.036  27.039  1.00  0.00     0.338 C 
ATOM      4  O   UNL A   1      40.813  22.106  27.599  1.00  0.00    -0.246 OA
BRANCH   3   5
ATOM      5  C   UNL A   1      40.297  24.374  27.712  1.00  0.00     0.060 A 
ATOM      6  C   UNL A   1      38.902  25.144  28.626  1.00  0.00     0.016 A 
ATOM      7  C   UNL A   1      41.923  25.196  27.759  1.00  0.00     0.016 A 
ATOM      8  C   UNL A   1      39.128  26.647  29.584  1.00  0.00     0.010 A 
ATOM      9  C   UNL A   1      42.154  26.730  28.727  1.00  0.00     0.010 A 
ATOM     10  C   UNL A   1      40.741  27.424  29.703  1.00  0.00    -0.014 A 
BRANCH  10  11
ATOM     11  C   UNL A   1      40.836  28.542  30.702  1.00  0.00     0.031 A 
ATOM     12  C   UNL A   1      41.653  28.359  31.944  1.00  0.00     0.074 A 
ATOM     13  C   UNL A   1      40.179  29.718  30.498  1.00  0.00     0.049 A 
ATOM     14  N   UNL A   1      41.711  29.124  33.000  1.00  0.00    -0.248 NA
ATOM     15  C   UNL A   1      42.575  27.218  31.988  1.00  0.00     0.031 C 
ATOM     16  C   UNL A   1      39.501  30.157  29.273  1.00  0.00     0.029 A 
ATOM     17  N   UNL A   1      39.861  30.743  31.367  1.00  0.00    -0.354 N 
ATOM     18  C   UNL A   1      42.698  28.574  33.808  1.00  0.00     0.074 A 
ATOM     19  C   UNL A   1      43.172  27.378  33.158  1.00  0.00     0.031 C 
ATOM     20  C   UNL A   1      38.690  31.196  29.512  1.00  0.00     0.029 A 
ATOM     21  C   UNL A   1      38.841  31.561  30.898  1.00  0.00     0.049 A 
ATOM     22  H   UNL A   1      40.312  30.881  32.231  1.00  0.00     0.167 HD
ATOM     23  C   UNL A   1      43.190  29.054  34.970  1.00  0.00     0.037 A 
ATOM     24  C   UNL A   1      38.073  32.474  31.520  1.00  0.00     0.037 A 
ATOM     25  C   UNL A   1      42.691  30.244  35.599  1.00  0.00     0.049 A 
ATOM     26  C   UNL A   1      38.459  32.836  32.910  1.00  0.00     0.074 A 
ATOM     27  C   UNL A   1      43.116  30.844  36.767  1.00  0.00     0.029 A 
ATOM     28  N   UNL A   1      41.630  30.997  35.116  1.00  0.00    -0.354 N 
ATOM     29  N   UNL A   1      39.414  32.321  33.641  1.00  0.00    -0.248 NA
ATOM     30  C   UNL A   1      37.727  33.944  33.530  1.00  0.00     0.031 C 
ATOM     31  C   UNL A   1      42.254  31.910  37.038  1.00  0.00     0.029 A 
ATOM     32  C   UNL A   1      41.340  32.018  36.001  1.00  0.00     0.049 A 
ATOM     33  H   UNL A   1      41.156  30.830  34.270  1.00  0.00     0.167 HD
ATOM     34  C   UNL A   1      39.441  33.080  34.793  1.00  0.00     0.074 A 
ATOM     35  C   UNL A   1      38.396  34.081  34.665  1.00  0.00     0.031 C 
ATOM     36  C   UNL A   1      40.278  32.977  35.848  1.00  0.00     0.037 A 
BRANCH  23  37
ATOM     37  C   UNL A   1      44.280  28.276  35.644  1.00  0.00     0.058 A 
ATOM     38  C   UNL A   1      44.011  27.310  36.627  1.00  0.00     0.135 A 
ATOM     39  C   UNL A   1      45.618  28.477  35.270  1.00  0.00     0.135 A 
ATOM     40  F   UNL A   1      42.752  27.103  37.048  1.00  0.00    -0.206 F 
ATOM     41  C   UNL A   1      45.031  26.566  37.213  1.00  0.00     0.059 A 
ATOM     42  C   UNL A   1      46.650  27.727  35.823  1.00  0.00     0.059 A 
ATOM     43  F   UNL A   1      45.930  29.405  34.353  1.00  0.00    -0.206 F 
ATOM     44  C   UNL A   1      46.347  26.772  36.792  1.00  0.00     0.060 A 
BRANCH  44  45
ATOM     45  S   UNL A   1      47.649  25.744  37.503  1.00  0.00     0.124 S 
ATOM     46  O   UNL A   1      47.255  25.697  38.907  1.00  0.00    -0.237 OA
ATOM     47  O   UNL A   1      47.496  24.498  36.759  1.00  0.00    -0.237 OA
ATOM     48  O   UNL A   1      48.869  26.494  37.220  1.00  0.00    -0.744 OA
ENDBRANCH  44  45
ENDBRANCH  23  37
BRANCH  24  49
ATOM     49  C   UNL A   1      36.875  33.095  30.891  1.00  0.00     0.058 A 
ATOM     50  C   UNL A   1      36.973  34.093  29.911  1.00  0.00     0.135 A 
ATOM     51  C   UNL A   1      35.593  32.770  31.356  1.00  0.00     0.135 A 
ATOM     52  F   UNL A   1      38.180  34.482  29.473  1.00  0.00    -0.206 F 
ATOM     53  C   UNL A   1      35.844  34.737  29.400  1.00  0.00     0.059 A 
ATOM     54  C   UNL A   1      34.454  33.413  30.876  1.00  0.00     0.059 A 
ATOM     55  F   UNL A   1      35.440  31.842  32.314  1.00  0.00    -0.206 F 
ATOM     56  C   UNL A   1      34.585  34.386  29.887  1.00  0.00     0.060 A 
BRANCH  56  57
ATOM     57  S   UNL A   1      33.099  35.131  29.175  1.00  0.00     0.124 S 
ATOM     58  O   UNL A   1      32.727  34.149  28.164  1.00  0.00    -0.237 OA
ATOM     59  O   UNL A   1      32.209  35.230  30.328  1.00  0.00    -0.237 OA
ATOM     60  O   UNL A   1      33.592  36.411  28.667  1.00  0.00    -0.744 OA
ENDBRANCH  56  57
ENDBRANCH  24  49
BRANCH  36  61
ATOM     61  C   UNL A   1      40.093  33.978  36.936  1.00  0.00     0.058 A 
ATOM     62  C   UNL A   1      40.663  35.256  36.850  1.00  0.00     0.135 A 
ATOM     63  C   UNL A   1      39.295  33.669  38.046  1.00  0.00     0.135 A 
ATOM     64  F   UNL A   1      41.457  35.577  35.817  1.00  0.00    -0.206 F 
ATOM     65  C   UNL A   1      40.446  36.200  37.838  1.00  0.00     0.059 A 
ATOM     66  C   UNL A   1      39.032  34.612  39.026  1.00  0.00     0.059 A 
ATOM     67  F   UNL A   1      38.740  32.451  38.166  1.00  0.00    -0.206 F 
ATOM     68  C   UNL A   1      39.616  35.873  38.913  1.00  0.00     0.060 A 
BRANCH  68  69
ATOM     69  S   UNL A   1      39.274  37.145  40.141  1.00  0.00     0.124 S 
ATOM     70  O   UNL A   1      38.521  38.116  39.354  1.00  0.00    -0.237 OA
ATOM     71  O   UNL A   1      38.510  36.407  41.141  1.00  0.00    -0.237 OA
ATOM     72  O   UNL A   1      40.603  37.574  40.565  1.00  0.00    -0.744 OA
ENDBRANCH  68  69
ENDBRANCH  36  61
ENDBRANCH  10  11
ENDBRANCH   3   5
ENDBRANCH   2   3
ENDBRANCH   1   2
BRANCH   1  73
ATOM     73  C   UNL A   1      37.175  23.743  25.819  1.00  0.00     0.274 C 
BRANCH  73  74
ATOM     74  O   UNL A   1      36.346  23.806  24.647  1.00  0.00    -0.460 OA
BRANCH  74  75
ATOM     75  C   UNL A   1      35.119  24.332  24.876  1.00  0.00     0.330 C 
ATOM     76  O   UNL A   1      34.959  25.349  25.541  1.00  0.00    -0.250 OA
BRANCH  75  77
ATOM     77  C   UNL A   1      33.942  23.477  24.296  1.00  0.00     0.214 C 
ATOM     78  C   UNL A   1      32.742  24.352  24.753  1.00  0.00     0.157 C 
ATOM     79  N   UNL A   1      33.482  21.763  24.097  1.00  0.00    -0.325 N 
ATOM     80  N   UNL A   1      31.757  24.388  23.715  1.00  0.00    -0.336 N 
ATOM     81  C   UNL A   1      32.161  22.125  22.962  1.00  0.00     0.142 C 
ATOM     82  C   UNL A   1      31.114  23.183  23.327  1.00  0.00     0.141 C 
BRANCH  79  83
ATOM     83  C   UNL A   1      34.302  20.010  24.590  1.00  0.00     0.226 C 
ATOM     84  O   UNL A   1      35.472  19.701  25.033  1.00  0.00    -0.275 OA
BRANCH  83  85
ATOM     85  C   UNL A   1      33.679  18.292  24.580  1.00  0.00     0.083 C 
ATOM     86  C   UNL A   1      32.781  17.676  25.693  1.00  0.00     0.042 C 
ATOM     87  C   UNL A   1      34.209  17.302  23.503  1.00  0.00     0.042 C 
ATOM     88  C   UNL A   1      32.755  16.156  25.716  1.00  0.00     0.161 C 
ATOM     89  C   UNL A   1      34.227  15.829  23.891  1.00  0.00     0.161 C 
ATOM     90  O   UNL A   1      33.972  15.589  25.266  1.00  0.00    -0.381 OA
ENDBRANCH  83  85
ENDBRANCH  79  83
BRANCH  80  91
ATOM     91  C   UNL A   1      31.153  25.564  23.398  1.00  0.00     0.225 A 
ATOM     92  N   UNL A   1      31.584  26.264  22.345  1.00  0.00    -0.221 NA
ATOM     93  N   UNL A   1      30.169  25.959  24.219  1.00  0.00    -0.221 NA
ATOM     94  C   UNL A   1      30.975  27.443  22.119  1.00  0.00     0.117 A 
ATOM     95  C   UNL A   1      29.615  27.156  23.967  1.00  0.00     0.117 A 
ATOM     96  C   UNL A   1      29.984  27.953  22.917  1.00  0.00     0.040 A 
ENDBRANCH  80  91
ENDBRANCH  75  77
ENDBRANCH  74  75
ENDBRANCH  73  74
ENDBRANCH   1  73
TORSDOF 17
ENDMDL
MODEL 2
REMARK VINA RESULT:     -12.7      1.402      4.178
REMARK SMILES O=C(OCCOC(=O)[C@@H]1CN(c2ncccn2)CCN1C(=O)C1CCOCC1)c1ccc(-c2c3nc(c(-c4c(F)cc(S(=O)(=O)[O-])cc4F)c4ccc([nH]4)c(-c4c(F)cc(S(=O)(=O)[O-])cc4F)c4nc(c(-c5c(F)cc(S(=O)(=O)[O-])cc5F)c5ccc2[nH]5)C=C4)C=C3)cc1
REMARK SMILES IDX 4 1 3 2 2 3 1 4 29 5 30 6 94 7 31 8 93 9 32 10 33 11 34 12
REMARK SMILES IDX 87 13 35 14 92 15 86 16 88 17 36 18 91 19 85 20 84 21 37 23
REMARK SMILES IDX 71 24 50 25 70 26 51 27 54 28 69 29 89 30 52 31 53 32 68 34
REMARK SMILES IDX 90 35 55 36 38 37 39 38 48 39 40 40 41 41 47 42 49 43 42 44
REMARK SMILES IDX 43 45 44 46 45 47 46 48 72 49 73 50 82 51 74 52 75 53 81 54
REMARK SMILES IDX 83 55 76 56 77 57 78 58 79 59 80 60 56 61 57 62 66 63 58 64
REMARK SMILES IDX 59 65 65 66 67 67 60 68 61 69 62 70 63 71 64 72 5 73 6 74
REMARK SMILES IDX 7 75 8 76 9 77 10 78 20 79 11 80 19 81 18 82 21 83 22 84
REMARK SMILES IDX 23 85 24 86 28 87 25 88 27 89 26 90 12 91 13 92 17 93 14 94
REMARK SMILES IDX 16 95 15 96
REMARK H PARENT 88 22 54 33
REMARK Flexibility Score: inf
ROOT
ATOM      1  C   UNL A   1      38.255  23.510  25.904  1.00  0.00     0.275 C 
ENDROOT
BRANCH   1   2
ATOM      2  O   UNL A   1      39.344  22.720  26.425  1.00  0.00    -0.458 OA
BRANCH   2   3
ATOM      3  C   UNL A   1      40.328  23.116  27.276  1.00  0.00     0.338 C 
ATOM      4  O   UNL A   1      41.206  22.327  27.609  1.00  0.00    -0.246 OA
BRANCH   3   5
ATOM      5  C   UNL A   1      40.343  24.467  27.927  1.00  0.00     0.060 A 
ATOM      6  C   UNL A   1      38.924  25.207  28.831  1.00  0.00     0.016 A 
ATOM      7  C   UNL A   1      41.941  25.339  27.960  1.00  0.00     0.016 A 
ATOM      8  C   UNL A   1      39.104  26.732  29.763  1.00  0.00     0.010 A 
ATOM      9  C   UNL A   1      42.125  26.895  28.902  1.00  0.00     0.010 A 
ATOM     10  C   UNL A   1      40.691  27.560  29.869  1.00  0.00    -0.014 A 
BRANCH  10  11
ATOM     11  C   UNL A   1      40.753  28.696  30.849  1.00  0.00     0.031 A 
ATOM     12  C   UNL A   1      41.534  28.541  32.117  1.00  0.00     0.074 A 
ATOM     13  C   UNL A   1      40.096  29.866  30.606  1.00  0.00     0.049 A 
ATOM     14  N   UNL A   1      41.558  29.325  33.161  1.00  0.00    -0.248 NA
ATOM     15  C   UNL A   1      42.460  27.406  32.208  1.00  0.00     0.031 C 
ATOM     16  C   UNL A   1      39.450  30.278  29.354  1.00  0.00     0.029 A 
ATOM     17  N   UNL A   1      39.747  30.904  31.446  1.00  0.00    -0.354 N 
ATOM     18  C   UNL A   1      42.525  28.795  34.006  1.00  0.00     0.074 A 
ATOM     19  C   UNL A   1      43.023  27.591  33.392  1.00  0.00     0.031 C 
ATOM     20  C   UNL A   1      38.627  31.316  29.551  1.00  0.00     0.029 A 
ATOM     21  C   UNL A   1      38.736  31.707  30.934  1.00  0.00     0.049 A 
ATOM     22  H   UNL A   1      40.172  31.060  32.320  1.00  0.00     0.167 HD
ATOM     23  C   UNL A   1      42.980  29.299  35.173  1.00  0.00     0.037 A 
ATOM     24  C   UNL A   1      37.946  32.627  31.516  1.00  0.00     0.037 A 
ATOM     25  C   UNL A   1      42.458  30.497  35.765  1.00  0.00     0.049 A 
ATOM     26  C   UNL A   1      38.290  33.017  32.910  1.00  0.00     0.074 A 
ATOM     27  C   UNL A   1      42.845  31.121  36.934  1.00  0.00     0.029 A 
ATOM     28  N   UNL A   1      41.407  31.236  35.239  1.00  0.00    -0.354 N 
ATOM     29  N   UNL A   1      39.227  32.520  33.677  1.00  0.00    -0.248 NA
ATOM     30  C   UNL A   1      37.535  34.131  33.489  1.00  0.00     0.031 C 
ATOM     31  C   UNL A   1      41.971  32.186  37.161  1.00  0.00     0.029 A 
ATOM     32  C   UNL A   1      41.087  32.270  36.096  1.00  0.00     0.049 A 
ATOM     33  H   UNL A   1      40.958  31.050  34.383  1.00  0.00     0.167 HD
ATOM     34  C   UNL A   1      39.217  33.300  34.816  1.00  0.00     0.074 A 
ATOM     35  C   UNL A   1      38.171  34.292  34.639  1.00  0.00     0.031 C 
ATOM     36  C   UNL A   1      40.024  33.221  35.896  1.00  0.00     0.037 A 
BRANCH  23  37
ATOM     37  C   UNL A   1      44.055  28.540  35.892  1.00  0.00     0.058 A 
ATOM     38  C   UNL A   1      43.765  27.467  36.751  1.00  0.00     0.135 A 
ATOM     39  C   UNL A   1      45.403  28.871  35.686  1.00  0.00     0.135 A 
ATOM     40  F   UNL A   1      42.491  27.131  37.010  1.00  0.00    -0.206 F 
ATOM     41  C   UNL A   1      44.777  26.745  37.377  1.00  0.00     0.059 A 
ATOM     42  C   UNL A   1      46.431  28.147  36.281  1.00  0.00     0.059 A 
ATOM     43  F   UNL A   1      45.731  29.902  34.894  1.00  0.00    -0.206 F 
ATOM     44  C   UNL A   1      46.108  27.084  37.123  1.00  0.00     0.060 A 
BRANCH  44  45
ATOM     45  S   UNL A   1      47.409  26.088  37.880  1.00  0.00     0.124 S 
ATOM     46  O   UNL A   1      46.775  24.774  37.945  1.00  0.00    -0.237 OA
ATOM     47  O   UNL A   1      48.496  26.219  36.916  1.00  0.00    -0.237 OA
ATOM     48  O   UNL A   1      47.633  26.739  39.167  1.00  0.00    -0.744 OA
ENDBRANCH  44  45
ENDBRANCH  23  37
BRANCH  24  49
ATOM     49  C   UNL A   1      36.764  33.229  30.842  1.00  0.00     0.058 A 
ATOM     50  C   UNL A   1      36.884  34.222  29.858  1.00  0.00     0.135 A 
ATOM     51  C   UNL A   1      35.470  32.894  31.266  1.00  0.00     0.135 A 
ATOM     52  F   UNL A   1      38.101  34.620  29.458  1.00  0.00    -0.206 F 
ATOM     53  C   UNL A   1      35.766  34.849  29.305  1.00  0.00     0.059 A 
ATOM     54  C   UNL A   1      34.342  33.521  30.743  1.00  0.00     0.059 A 
ATOM     55  F   UNL A   1      35.295  31.972  32.226  1.00  0.00    -0.206 F 
ATOM     56  C   UNL A   1      34.495  34.487  29.751  1.00  0.00     0.060 A 
BRANCH  56  57
ATOM     57  S   UNL A   1      33.026  35.210  28.984  1.00  0.00     0.124 S 
ATOM     58  O   UNL A   1      33.559  36.445  28.423  1.00  0.00    -0.237 OA
ATOM     59  O   UNL A   1      32.634  34.187  28.019  1.00  0.00    -0.237 OA
ATOM     60  O   UNL A   1      32.115  35.368  30.117  1.00  0.00    -0.744 OA
ENDBRANCH  56  57
ENDBRANCH  24  49
BRANCH  36  61
ATOM     61  C   UNL A   1      39.803  34.241  36.960  1.00  0.00     0.058 A 
ATOM     62  C   UNL A   1      39.052  33.943  38.104  1.00  0.00     0.135 A 
ATOM     63  C   UNL A   1      40.395  35.507  36.851  1.00  0.00     0.135 A 
ATOM     64  F   UNL A   1      38.446  32.752  38.228  1.00  0.00    -0.206 F 
ATOM     65  C   UNL A   1      38.892  34.877  39.114  1.00  0.00     0.059 A 
ATOM     66  C   UNL A   1      40.281  36.441  37.867  1.00  0.00     0.059 A 
ATOM     67  F   UNL A   1      41.114  35.830  35.764  1.00  0.00    -0.206 F 
ATOM     68  C   UNL A   1      39.524  36.116  38.992  1.00  0.00     0.060 A 
BRANCH  68  69
ATOM     69  S   UNL A   1      39.379  37.282  40.356  1.00  0.00     0.124 S 
ATOM     70  O   UNL A   1      40.776  37.637  40.587  1.00  0.00    -0.237 OA
ATOM     71  O   UNL A   1      38.543  38.329  39.777  1.00  0.00    -0.237 OA
ATOM     72  O   UNL A   1      38.748  36.495  41.411  1.00  0.00    -0.744 OA
ENDBRANCH  68  69
ENDBRANCH  36  61
ENDBRANCH  10  11
ENDBRANCH   3   5
ENDBRANCH   2   3
ENDBRANCH   1   2
BRANCH   1  73
ATOM     73  C   UNL A   1      36.874  22.828  25.924  1.00  0.00     0.274 C 
BRANCH  73  74
ATOM     74  O   UNL A   1      36.648  22.024  24.754  1.00  0.00    -0.460 OA
BRANCH  74  75
ATOM     75  C   UNL A   1      35.896  22.639  23.810  1.00  0.00     0.330 C 
ATOM     76  O   UNL A   1      36.376  23.052  22.760  1.00  0.00    -0.250 OA
BRANCH  75  77
ATOM     77  C   UNL A   1      34.398  22.844  24.222  1.00  0.00     0.214 C 
ATOM     78  C   UNL A   1      33.768  21.613  23.513  1.00  0.00     0.157 C 
ATOM     79  N   UNL A   1      33.221  24.169  24.433  1.00  0.00    -0.325 N 
ATOM     80  N   UNL A   1      32.766  21.039  24.358  1.00  0.00    -0.336 N 
ATOM     81  C   UNL A   1      32.047  23.150  25.296  1.00  0.00     0.142 C 
ATOM     82  C   UNL A   1      31.620  21.807  24.695  1.00  0.00     0.141 C 
BRANCH  79  83
ATOM     83  C   UNL A   1      33.261  26.152  24.190  1.00  0.00     0.226 C 
ATOM     84  O   UNL A   1      33.449  26.888  23.149  1.00  0.00    -0.275 OA
BRANCH  83  85
ATOM     85  C   UNL A   1      33.048  27.556  25.340  1.00  0.00     0.083 C 
ATOM     86  C   UNL A   1      34.211  28.456  25.853  1.00  0.00     0.042 C 
ATOM     87  C   UNL A   1      31.663  27.781  26.010  1.00  0.00     0.042 C 
ATOM     88  C   UNL A   1      33.890  29.249  27.110  1.00  0.00     0.161 C 
ATOM     89  C   UNL A   1      31.675  28.455  27.376  1.00  0.00     0.161 C 
ATOM     90  O   UNL A   1      32.967  28.579  27.949  1.00  0.00    -0.381 OA
ENDBRANCH  83  85
ENDBRANCH  79  83
BRANCH  80  91
ATOM     91  C   UNL A   1      32.693  19.689  24.499  1.00  0.00     0.225 A 
ATOM     92  N   UNL A   1      32.632  19.155  25.722  1.00  0.00    -0.221 NA
ATOM     93  N   UNL A   1      32.733  18.977  23.363  1.00  0.00    -0.221 NA
ATOM     94  C   UNL A   1      32.614  17.810  25.789  1.00  0.00     0.117 A 
ATOM     95  C   UNL A   1      32.742  17.640  23.486  1.00  0.00     0.117 A 
ATOM     96  C   UNL A   1      32.685  16.993  24.692  1.00  0.00     0.040 A 
ENDBRANCH  80  91
ENDBRANCH  75  77
ENDBRANCH  74  75
ENDBRANCH  73  74
ENDBRANCH   1  73
TORSDOF 17
ENDMDL
MODEL 3
REMARK VINA RESULT:     -12.6      6.602     11.793
REMARK SMILES O=C(OCCOC(=O)[C@@H]1CN(c2ncccn2)CCN1C(=O)C1CCOCC1)c1ccc(-c2c3nc(c(-c4c(F)cc(S(=O)(=O)[O-])cc4F)c4ccc([nH]4)c(-c4c(F)cc(S(=O)(=O)[O-])cc4F)c4nc(c(-c5c(F)cc(S(=O)(=O)[O-])cc5F)c5ccc2[nH]5)C=C4)C=C3)cc1
REMARK SMILES IDX 4 1 3 2 2 3 1 4 29 5 30 6 94 7 31 8 93 9 32 10 33 11 34 12
REMARK SMILES IDX 87 13 35 14 92 15 86 16 88 17 36 18 91 19 85 20 84 21 37 23
REMARK SMILES IDX 71 24 50 25 70 26 51 27 54 28 69 29 89 30 52 31 53 32 68 34
REMARK SMILES IDX 90 35 55 36 38 37 39 38 48 39 40 40 41 41 47 42 49 43 42 44
REMARK SMILES IDX 43 45 44 46 45 47 46 48 72 49 73 50 82 51 74 52 75 53 81 54
REMARK SMILES IDX 83 55 76 56 77 57 78 58 79 59 80 60 56 61 57 62 66 63 58 64
REMARK SMILES IDX 59 65 65 66 67 67 60 68 61 69 62 70 63 71 64 72 5 73 6 74
REMARK SMILES IDX 7 75 8 76 9 77 10 78 20 79 11 80 19 81 18 82 21 83 22 84
REMARK SMILES IDX 23 85 24 86 28 87 25 88 27 89 26 90 12 91 13 92 17 93 14 94
REMARK SMILES IDX 16 95 15 96
REMARK H PARENT 88 22 54 33
REMARK Flexibility Score: inf
ROOT
ATOM      1  C   UNL A   1      34.406  29.613  27.879  1.00  0.00     0.275 C 
ENDROOT
BRANCH   1   2
ATOM      2  O   UNL A   1      34.672  31.030  27.924  1.00  0.00    -0.458 OA
BRANCH   2   3
ATOM      3  C   UNL A   1      35.867  31.648  28.118  1.00  0.00     0.338 C 
ATOM      4  O   UNL A   1      35.939  32.873  28.078  1.00  0.00    -0.246 OA
BRANCH   3   5
ATOM      5  C   UNL A   1      37.153  30.896  28.281  1.00  0.00     0.060 A 
ATOM      6  C   UNL A   1      37.868  29.763  27.024  1.00  0.00     0.016 A 
ATOM      7  C   UNL A   1      38.142  31.280  29.762  1.00  0.00     0.016 A 
ATOM      8  C   UNL A   1      39.517  29.077  27.214  1.00  0.00     0.010 A 
ATOM      9  C   UNL A   1      39.818  30.577  29.963  1.00  0.00     0.010 A 
ATOM     10  C   UNL A   1      40.532  29.509  28.629  1.00  0.00    -0.014 A 
BRANCH  10  11
ATOM     11  C   UNL A   1      41.958  29.041  28.556  1.00  0.00     0.031 A 
ATOM     12  C   UNL A   1      43.061  30.044  28.412  1.00  0.00     0.074 A 
ATOM     13  C   UNL A   1      42.261  27.713  28.606  1.00  0.00     0.049 A 
ATOM     14  N   UNL A   1      44.323  29.834  28.151  1.00  0.00    -0.248 NA
ATOM     15  C   UNL A   1      42.734  31.453  28.661  1.00  0.00     0.031 C 
ATOM     16  C   UNL A   1      41.355  26.607  28.937  1.00  0.00     0.029 A 
ATOM     17  N   UNL A   1      43.410  27.030  28.262  1.00  0.00    -0.354 N 
ATOM     18  C   UNL A   1      44.936  31.078  28.242  1.00  0.00     0.074 A 
ATOM     19  C   UNL A   1      43.907  32.047  28.519  1.00  0.00     0.031 C 
ATOM     20  C   UNL A   1      41.878  25.427  28.577  1.00  0.00     0.029 A 
ATOM     21  C   UNL A   1      43.199  25.673  28.056  1.00  0.00     0.049 A 
ATOM     22  H   UNL A   1      44.290  27.461  28.171  1.00  0.00     0.167 HD
ATOM     23  C   UNL A   1      46.250  31.370  28.142  1.00  0.00     0.037 A 
ATOM     24  C   UNL A   1      43.960  24.729  27.471  1.00  0.00     0.037 A 
ATOM     25  C   UNL A   1      47.252  30.383  27.855  1.00  0.00     0.049 A 
ATOM     26  C   UNL A   1      45.353  25.117  27.123  1.00  0.00     0.074 A 
ATOM     27  C   UNL A   1      48.618  30.548  27.745  1.00  0.00     0.029 A 
ATOM     28  N   UNL A   1      46.982  29.045  27.604  1.00  0.00    -0.354 N 
ATOM     29  N   UNL A   1      45.917  26.292  27.245  1.00  0.00    -0.248 NA
ATOM     30  C   UNL A   1      46.232  24.051  26.636  1.00  0.00     0.031 C 
ATOM     31  C   UNL A   1      49.164  29.328  27.340  1.00  0.00     0.029 A 
ATOM     32  C   UNL A   1      48.149  28.387  27.270  1.00  0.00     0.049 A 
ATOM     33  H   UNL A   1      46.092  28.628  27.656  1.00  0.00     0.167 HD
ATOM     34  C   UNL A   1      47.240  26.098  26.905  1.00  0.00     0.074 A 
ATOM     35  C   UNL A   1      47.386  24.696  26.559  1.00  0.00     0.031 C 
ATOM     36  C   UNL A   1      48.249  26.996  26.909  1.00  0.00     0.037 A 
BRANCH  23  37
ATOM     37  C   UNL A   1      46.664  32.802  28.300  1.00  0.00     0.058 A 
ATOM     38  C   UNL A   1      46.642  33.710  27.228  1.00  0.00     0.135 A 
ATOM     39  C   UNL A   1      47.053  33.284  29.560  1.00  0.00     0.135 A 
ATOM     40  F   UNL A   1      46.311  33.294  25.995  1.00  0.00    -0.206 F 
ATOM     41  C   UNL A   1      46.988  35.047  27.402  1.00  0.00     0.059 A 
ATOM     42  C   UNL A   1      47.378  34.620  29.761  1.00  0.00     0.059 A 
ATOM     43  F   UNL A   1      47.113  32.452  30.610  1.00  0.00    -0.206 F 
ATOM     44  C   UNL A   1      47.340  35.496  28.677  1.00  0.00     0.060 A 
BRANCH  44  45
ATOM     45  S   UNL A   1      47.708  37.248  28.901  1.00  0.00     0.124 S 
ATOM     46  O   UNL A   1      49.148  37.221  29.131  1.00  0.00    -0.237 OA
ATOM     47  O   UNL A   1      47.280  37.817  27.628  1.00  0.00    -0.237 OA
ATOM     48  O   UNL A   1      46.897  37.622  30.056  1.00  0.00    -0.744 OA
ENDBRANCH  44  45
ENDBRANCH  23  37
BRANCH  24  49
ATOM     49  C   UNL A   1      43.461  23.364  27.150  1.00  0.00     0.058 A 
ATOM     50  C   UNL A   1      43.296  22.375  28.130  1.00  0.00     0.135 A 
ATOM     51  C   UNL A   1      43.250  22.993  25.814  1.00  0.00     0.135 A 
ATOM     52  F   UNL A   1      43.542  22.662  29.417  1.00  0.00    -0.206 F 
ATOM     53  C   UNL A   1      42.923  21.070  27.802  1.00  0.00     0.059 A 
ATOM     54  C   UNL A   1      42.897  21.693  25.463  1.00  0.00     0.059 A 
ATOM     55  F   UNL A   1      43.420  23.891  24.831  1.00  0.00    -0.206 F 
ATOM     56  C   UNL A   1      42.720  20.739  26.462  1.00  0.00     0.060 A 
BRANCH  56  57
ATOM     57  S   UNL A   1      42.141  19.085  26.016  1.00  0.00     0.124 S 
ATOM     58  O   UNL A   1      42.561  18.299  27.169  1.00  0.00    -0.237 OA
ATOM     59  O   UNL A   1      40.702  19.280  25.867  1.00  0.00    -0.237 OA
ATOM     60  O   UNL A   1      42.857  18.817  24.770  1.00  0.00    -0.744 OA
ENDBRANCH  56  57
ENDBRANCH  24  49
BRANCH  36  61
ATOM     61  C   UNL A   1      49.594  26.477  26.535  1.00  0.00     0.058 A 
ATOM     62  C   UNL A   1      50.047  26.526  25.210  1.00  0.00     0.135 A 
ATOM     63  C   UNL A   1      50.453  25.976  27.524  1.00  0.00     0.135 A 
ATOM     64  F   UNL A   1      49.242  26.972  24.233  1.00  0.00    -0.206 F 
ATOM     65  C   UNL A   1      51.318  26.090  24.875  1.00  0.00     0.059 A 
ATOM     66  C   UNL A   1      51.742  25.572  27.217  1.00  0.00     0.059 A 
ATOM     67  F   UNL A   1      50.048  25.906  28.803  1.00  0.00    -0.206 F 
ATOM     68  C   UNL A   1      52.162  25.630  25.888  1.00  0.00     0.060 A 
BRANCH  68  69
ATOM     69  S   UNL A   1      53.840  25.153  25.446  1.00  0.00     0.124 S 
ATOM     70  O   UNL A   1      53.716  23.703  25.348  1.00  0.00    -0.237 OA
ATOM     71  O   UNL A   1      54.038  25.861  24.185  1.00  0.00    -0.237 OA
ATOM     72  O   UNL A   1      54.639  25.642  26.565  1.00  0.00    -0.744 OA
ENDBRANCH  68  69
ENDBRANCH  36  61
ENDBRANCH  10  11
ENDBRANCH   3   5
ENDBRANCH   2   3
ENDBRANCH   1   2
BRANCH   1  73
ATOM     73  C   UNL A   1      33.299  29.176  26.901  1.00  0.00     0.274 C 
BRANCH  73  74
ATOM     74  O   UNL A   1      33.077  27.757  26.931  1.00  0.00    -0.460 OA
BRANCH  74  75
ATOM     75  C   UNL A   1      31.915  27.377  26.347  1.00  0.00     0.330 C 
ATOM     76  O   UNL A   1      30.894  27.176  26.995  1.00  0.00    -0.250 OA
BRANCH  75  77
ATOM     77  C   UNL A   1      32.027  27.139  24.802  1.00  0.00     0.214 C 
ATOM     78  C   UNL A   1      30.551  27.408  24.396  1.00  0.00     0.157 C 
ATOM     79  N   UNL A   1      32.846  26.041  23.658  1.00  0.00    -0.325 N 
ATOM     80  N   UNL A   1      30.523  28.131  23.161  1.00  0.00    -0.336 N 
ATOM     81  C   UNL A   1      32.485  27.054  22.241  1.00  0.00     0.142 C 
ATOM     82  C   UNL A   1      31.048  27.523  21.990  1.00  0.00     0.141 C 
BRANCH  79  83
ATOM     83  C   UNL A   1      34.066  24.468  23.829  1.00  0.00     0.226 C 
ATOM     84  O   UNL A   1      35.052  24.061  23.108  1.00  0.00    -0.275 OA
BRANCH  83  85
ATOM     85  C   UNL A   1      34.188  23.109  25.045  1.00  0.00     0.083 C 
ATOM     86  C   UNL A   1      33.574  21.692  24.844  1.00  0.00     0.042 C 
ATOM     87  C   UNL A   1      34.777  23.406  26.455  1.00  0.00     0.042 C 
ATOM     88  C   UNL A   1      33.406  20.889  26.124  1.00  0.00     0.161 C 
ATOM     89  C   UNL A   1      34.273  22.530  27.595  1.00  0.00     0.161 C 
ATOM     90  O   UNL A   1      33.165  21.713  27.251  1.00  0.00    -0.381 OA
ENDBRANCH  83  85
ENDBRANCH  79  83
BRANCH  80  91
ATOM     91  C   UNL A   1      29.665  29.175  23.009  1.00  0.00     0.225 A 
ATOM     92  N   UNL A   1      28.782  29.163  22.006  1.00  0.00    -0.221 NA
ATOM     93  N   UNL A   1      29.809  30.185  23.880  1.00  0.00    -0.221 NA
ATOM     94  C   UNL A   1      28.000  30.251  21.884  1.00  0.00     0.117 A 
ATOM     95  C   UNL A   1      29.025  31.259  23.696  1.00  0.00     0.117 A 
ATOM     96  C   UNL A   1      28.090  31.349  22.699  1.00  0.00     0.040 A 
ENDBRANCH  80  91
ENDBRANCH  75  77
ENDBRANCH  74  75
ENDBRANCH  73  74
ENDBRANCH   1  73
TORSDOF 17
ENDMDL
