MODEL 1
REMARK VINA RESULT:     -11.9      0.000      0.000
REMARK SMILES C[C@@H](C(=O)OCCOC(=O)c1ccc(-c2c3nc(c(-c4c(F)cc(S(=O)(=O)[O-])cc4F)c4ccc([nH]4)c(-c4c(F)cc(S(=O)(=O)[O-])cc4F)c4nc(c(-c5c(F)cc(S(=O)(=O)[O-])cc5F)c5ccc2[nH]5)C=C4)C=C3)cc1)c1ccc(Cc2ccoc2)cc1F
REMARK SMILES IDX 6 1 5 2 3 3 4 4 2 5 1 6 77 7 78 8 88 9 79 10 87 11 89 12
REMARK SMILES IDX 80 13 81 14 82 15 83 16 86 17 84 18 85 19 7 20 8 21 9 22
REMARK SMILES IDX 10 23 11 24 12 25 76 26 13 27 75 28 14 29 15 30 16 31 69 32
REMARK SMILES IDX 17 33 74 34 68 35 70 36 18 37 73 38 67 39 66 40 19 42 53 43
REMARK SMILES IDX 32 44 52 45 33 46 36 47 51 48 71 49 34 50 35 51 50 53 72 54
REMARK SMILES IDX 37 55 20 56 21 57 30 58 22 59 23 60 29 61 31 62 24 63 25 64
REMARK SMILES IDX 26 65 27 66 28 67 54 68 55 69 64 70 56 71 57 72 63 73 65 74
REMARK SMILES IDX 58 75 59 76 60 77 61 78 62 79 38 80 39 81 48 82 40 83 41 84
REMARK SMILES IDX 47 85 49 86 42 87 43 88 44 89 45 90 46 91
REMARK H PARENT 70 41 36 52
REMARK Flexibility Score: inf
ROOT
ATOM      1  C   UNL A   1      33.149  30.205  27.148  1.00  0.00     0.274 C 
ENDROOT
BRANCH   1   2
ATOM      2  O   UNL A   1      33.409  28.786  27.181  1.00  0.00    -0.462 OA
BRANCH   2   3
ATOM      3  C   UNL A   1      32.324  27.959  27.184  1.00  0.00     0.313 C 
ATOM      4  O   UNL A   1      31.548  27.854  28.125  1.00  0.00    -0.252 OA
BRANCH   3   5
ATOM      5  C   UNL A   1      32.246  27.121  25.902  1.00  0.00     0.129 C 
ATOM      6  C   UNL A   1      33.582  27.024  25.157  1.00  0.00     0.025 C 
BRANCH   5   7
ATOM      7  C   UNL A   1      31.166  27.622  24.955  1.00  0.00     0.002 A 
ATOM      8  C   UNL A   1      31.223  28.908  24.401  1.00  0.00     0.008 A 
ATOM      9  C   UNL A   1      30.095  26.801  24.588  1.00  0.00     0.127 A 
ATOM     10  C   UNL A   1      30.229  29.360  23.528  1.00  0.00     0.004 A 
ATOM     11  C   UNL A   1      29.102  27.241  23.709  1.00  0.00     0.043 A 
ATOM     12  F   UNL A   1      30.028  25.546  25.056  1.00  0.00    -0.207 F 
ATOM     13  C   UNL A   1      29.158  28.532  23.164  1.00  0.00    -0.041 A 
BRANCH  13  14
ATOM     14  C   UNL A   1      28.133  29.007  22.160  1.00  0.00     0.074 C 
BRANCH  14  15
ATOM     15  C   UNL A   1      28.108  30.494  22.193  1.00  0.00    -0.005 A 
ATOM     16  C   UNL A   1      28.398  31.409  21.139  1.00  0.00     0.046 A 
ATOM     17  C   UNL A   1      27.683  31.287  23.242  1.00  0.00     0.198 A 
ATOM     18  C   UNL A   1      28.169  32.670  21.634  1.00  0.00     0.195 A 
ATOM     19  O   UNL A   1      27.735  32.602  22.915  1.00  0.00    -0.472 OA
ENDBRANCH  14  15
ENDBRANCH  13  14
ENDBRANCH   5   7
ENDBRANCH   3   5
ENDBRANCH   2   3
ENDBRANCH   1   2
BRANCH   1  20
ATOM     20  C   UNL A   1      34.271  30.963  27.850  1.00  0.00     0.275 C 
BRANCH  20  21
ATOM     21  O   UNL A   1      35.038  30.041  28.641  1.00  0.00    -0.458 OA
BRANCH  21  22
ATOM     22  C   UNL A   1      36.073  30.561  29.337  1.00  0.00     0.338 C 
ATOM     23  O   UNL A   1      36.018  31.457  30.170  1.00  0.00    -0.246 OA
BRANCH  22  24
ATOM     24  C   UNL A   1      37.332  29.889  28.955  1.00  0.00     0.060 A 
ATOM     25  C   UNL A   1      38.146  29.300  29.922  1.00  0.00     0.016 A 
ATOM     26  C   UNL A   1      37.761  29.943  27.626  1.00  0.00     0.016 A 
ATOM     27  C   UNL A   1      39.430  28.876  29.578  1.00  0.00     0.010 A 
ATOM     28  C   UNL A   1      39.017  29.432  27.271  1.00  0.00     0.010 A 
ATOM     29  C   UNL A   1      39.896  28.947  28.252  1.00  0.00    -0.014 A 
BRANCH  29  30
ATOM     30  C   UNL A   1      41.318  28.600  27.932  1.00  0.00     0.031 A 
ATOM     31  C   UNL A   1      42.440  29.552  28.289  1.00  0.00     0.074 A 
ATOM     32  C   UNL A   1      41.629  27.393  27.413  1.00  0.00     0.049 A 
ATOM     33  N   UNL A   1      43.723  29.441  28.050  1.00  0.00    -0.248 NA
ATOM     34  C   UNL A   1      42.078  30.793  28.995  1.00  0.00     0.031 C 
ATOM     35  C   UNL A   1      40.662  26.350  27.067  1.00  0.00     0.029 A 
ATOM     36  N   UNL A   1      42.846  26.803  27.165  1.00  0.00    -0.354 N 
ATOM     37  C   UNL A   1      44.300  30.635  28.473  1.00  0.00     0.074 A 
ATOM     38  C   UNL A   1      43.237  31.437  29.035  1.00  0.00     0.031 C 
ATOM     39  C   UNL A   1      41.321  25.208  26.814  1.00  0.00     0.029 A 
ATOM     40  C   UNL A   1      42.757  25.457  26.882  1.00  0.00     0.049 A 
ATOM     41  H   UNL A   1      43.699  27.295  27.187  1.00  0.00     0.167 HD
ATOM     42  C   UNL A   1      45.590  31.036  28.370  1.00  0.00     0.037 A 
ATOM     43  C   UNL A   1      43.722  24.528  26.724  1.00  0.00     0.037 A 
ATOM     44  C   UNL A   1      46.663  30.205  27.888  1.00  0.00     0.049 A 
ATOM     45  C   UNL A   1      45.163  24.964  26.722  1.00  0.00     0.074 A 
ATOM     46  C   UNL A   1      47.988  30.542  27.668  1.00  0.00     0.029 A 
ATOM     47  N   UNL A   1      46.540  28.857  27.590  1.00  0.00    -0.354 N 
ATOM     48  N   UNL A   1      45.672  26.141  26.993  1.00  0.00    -0.248 NA
ATOM     49  C   UNL A   1      46.157  23.950  26.339  1.00  0.00     0.031 C 
ATOM     50  C   UNL A   1      48.662  29.402  27.216  1.00  0.00     0.029 A 
ATOM     51  C   UNL A   1      47.764  28.349  27.187  1.00  0.00     0.049 A 
ATOM     52  H   UNL A   1      45.706  28.338  27.655  1.00  0.00     0.167 HD
ATOM     53  C   UNL A   1      47.041  26.017  26.782  1.00  0.00     0.074 A 
ATOM     54  C   UNL A   1      47.289  24.634  26.431  1.00  0.00     0.031 C 
ATOM     55  C   UNL A   1      48.000  26.974  26.829  1.00  0.00     0.037 A 
BRANCH  42  56
ATOM     56  C   UNL A   1      45.905  32.469  28.700  1.00  0.00     0.058 A 
ATOM     57  C   UNL A   1      46.355  32.878  29.962  1.00  0.00     0.135 A 
ATOM     58  C   UNL A   1      45.783  33.449  27.699  1.00  0.00     0.135 A 
ATOM     59  F   UNL A   1      46.468  31.987  30.960  1.00  0.00    -0.206 F 
ATOM     60  C   UNL A   1      46.656  34.212  30.228  1.00  0.00     0.059 A 
ATOM     61  C   UNL A   1      46.098  34.782  27.934  1.00  0.00     0.059 A 
ATOM     62  F   UNL A   1      45.355  33.110  26.471  1.00  0.00    -0.206 F 
ATOM     63  C   UNL A   1      46.522  35.157  29.208  1.00  0.00     0.060 A 
BRANCH  63  64
ATOM     64  S   UNL A   1      46.912  36.885  29.560  1.00  0.00     0.124 S 
ATOM     65  O   UNL A   1      45.811  37.573  28.893  1.00  0.00    -0.237 OA
ATOM     66  O   UNL A   1      46.891  36.921  31.019  1.00  0.00    -0.237 OA
ATOM     67  O   UNL A   1      48.226  37.067  28.951  1.00  0.00    -0.744 OA
ENDBRANCH  63  64
ENDBRANCH  42  56
BRANCH  43  68
ATOM     68  C   UNL A   1      43.380  23.082  26.616  1.00  0.00     0.058 A 
ATOM     69  C   UNL A   1      43.438  22.447  25.362  1.00  0.00     0.135 A 
ATOM     70  C   UNL A   1      43.006  22.301  27.718  1.00  0.00     0.135 A 
ATOM     71  F   UNL A   1      43.771  23.153  24.272  1.00  0.00    -0.206 F 
ATOM     72  C   UNL A   1      43.143  21.097  25.205  1.00  0.00     0.059 A 
ATOM     73  C   UNL A   1      42.731  20.942  27.592  1.00  0.00     0.059 A 
ATOM     74  F   UNL A   1      42.931  22.853  28.940  1.00  0.00    -0.206 F 
ATOM     75  C   UNL A   1      42.793  20.351  26.330  1.00  0.00     0.060 A 
BRANCH  75  76
ATOM     76  S   UNL A   1      42.469  18.583  26.147  1.00  0.00     0.124 S 
ATOM     77  O   UNL A   1      41.056  18.582  25.788  1.00  0.00    -0.237 OA
ATOM     78  O   UNL A   1      43.397  18.195  25.090  1.00  0.00    -0.237 OA
ATOM     79  O   UNL A   1      42.788  18.057  27.472  1.00  0.00    -0.744 OA
ENDBRANCH  75  76
ENDBRANCH  43  68
BRANCH  55  80
ATOM     80  C   UNL A   1      49.393  26.575  26.436  1.00  0.00     0.058 A 
ATOM     81  C   UNL A   1      50.231  25.906  27.343  1.00  0.00     0.135 A 
ATOM     82  C   UNL A   1      49.878  26.802  25.139  1.00  0.00     0.135 A 
ATOM     83  F   UNL A   1      49.814  25.664  28.596  1.00  0.00    -0.206 F 
ATOM     84  C   UNL A   1      51.509  25.494  26.985  1.00  0.00     0.059 A 
ATOM     85  C   UNL A   1      51.147  26.379  24.752  1.00  0.00     0.059 A 
ATOM     86  F   UNL A   1      49.113  27.427  24.230  1.00  0.00    -0.206 F 
ATOM     87  C   UNL A   1      51.959  25.735  25.687  1.00  0.00     0.060 A 
BRANCH  87  88
ATOM     88  S   UNL A   1      53.605  25.155  25.223  1.00  0.00     0.124 S 
ATOM     89  O   UNL A   1      54.443  25.830  26.210  1.00  0.00    -0.237 OA
ATOM     90  O   UNL A   1      53.485  23.709  25.377  1.00  0.00    -0.237 OA
ATOM     91  O   UNL A   1      53.753  25.622  23.848  1.00  0.00    -0.744 OA
ENDBRANCH  87  88
ENDBRANCH  55  80
ENDBRANCH  29  30
ENDBRANCH  22  24
ENDBRANCH  21  22
ENDBRANCH  20  21
ENDBRANCH   1  20
TORSDOF 17
ENDMDL
MODEL 2
REMARK VINA RESULT:     -11.5      0.869      8.313
REMARK SMILES C[C@@H](C(=O)OCCOC(=O)c1ccc(-c2c3nc(c(-c4c(F)cc(S(=O)(=O)[O-])cc4F)c4ccc([nH]4)c(-c4c(F)cc(S(=O)(=O)[O-])cc4F)c4nc(c(-c5c(F)cc(S(=O)(=O)[O-])cc5F)c5ccc2[nH]5)C=C4)C=C3)cc1)c1ccc(Cc2ccoc2)cc1F
REMARK SMILES IDX 6 1 5 2 3 3 4 4 2 5 1 6 77 7 78 8 88 9 79 10 87 11 89 12
REMARK SMILES IDX 80 13 81 14 82 15 83 16 86 17 84 18 85 19 7 20 8 21 9 22
REMARK SMILES IDX 10 23 11 24 12 25 76 26 13 27 75 28 14 29 15 30 16 31 69 32
REMARK SMILES IDX 17 33 74 34 68 35 70 36 18 37 73 38 67 39 66 40 19 42 53 43
REMARK SMILES IDX 32 44 52 45 33 46 36 47 51 48 71 49 34 50 35 51 50 53 72 54
REMARK SMILES IDX 37 55 20 56 21 57 30 58 22 59 23 60 29 61 31 62 24 63 25 64
REMARK SMILES IDX 26 65 27 66 28 67 54 68 55 69 64 70 56 71 57 72 63 73 65 74
REMARK SMILES IDX 58 75 59 76 60 77 61 78 62 79 38 80 39 81 48 82 40 83 41 84
REMARK SMILES IDX 47 85 49 86 42 87 43 88 44 89 45 90 46 91
REMARK H PARENT 70 41 36 52
REMARK Flexibility Score: inf
ROOT
ATOM      1  C   UNL A   1      33.674  29.958  27.076  1.00  0.00     0.274 C 
ENDROOT
BRANCH   1   2
ATOM      2  O   UNL A   1      33.709  28.516  27.103  1.00  0.00    -0.462 OA
BRANCH   2   3
ATOM      3  C   UNL A   1      32.508  27.870  27.095  1.00  0.00     0.313 C 
ATOM      4  O   UNL A   1      31.699  27.920  28.013  1.00  0.00    -0.252 OA
BRANCH   3   5
ATOM      5  C   UNL A   1      32.335  27.009  25.837  1.00  0.00     0.129 C 
ATOM      6  C   UNL A   1      33.627  26.847  25.029  1.00  0.00     0.025 C 
BRANCH   5   7
ATOM      7  C   UNL A   1      31.228  27.531  24.934  1.00  0.00     0.002 A 
ATOM      8  C   UNL A   1      31.283  28.819  24.385  1.00  0.00     0.008 A 
ATOM      9  C   UNL A   1      30.133  26.728  24.603  1.00  0.00     0.127 A 
ATOM     10  C   UNL A   1      30.264  29.291  23.553  1.00  0.00     0.004 A 
ATOM     11  C   UNL A   1      29.114  27.188  23.764  1.00  0.00     0.043 A 
ATOM     12  F   UNL A   1      30.064  25.471  25.067  1.00  0.00    -0.207 F 
ATOM     13  C   UNL A   1      29.168  28.480  23.224  1.00  0.00    -0.041 A 
BRANCH  13  14
ATOM     14  C   UNL A   1      28.113  28.976  22.262  1.00  0.00     0.074 C 
BRANCH  14  15
ATOM     15  C   UNL A   1      28.108  30.463  22.307  1.00  0.00    -0.005 A 
ATOM     16  C   UNL A   1      28.460  31.382  21.275  1.00  0.00     0.046 A 
ATOM     17  C   UNL A   1      27.646  31.254  23.342  1.00  0.00     0.198 A 
ATOM     18  C   UNL A   1      28.227  32.642  21.770  1.00  0.00     0.195 A 
ATOM     19  O   UNL A   1      27.732  32.570  23.029  1.00  0.00    -0.472 OA
ENDBRANCH  14  15
ENDBRANCH  13  14
ENDBRANCH   5   7
ENDBRANCH   3   5
ENDBRANCH   2   3
ENDBRANCH   1   2
BRANCH   1  20
ATOM     20  C   UNL A   1      34.752  30.529  27.992  1.00  0.00     0.275 C 
BRANCH  20  21
ATOM     21  O   UNL A   1      35.660  29.478  28.361  1.00  0.00    -0.458 OA
BRANCH  21  22
ATOM     22  C   UNL A   1      36.334  29.644  29.520  1.00  0.00     0.338 C 
ATOM     23  O   UNL A   1      35.849  29.768  30.638  1.00  0.00    -0.246 OA
BRANCH  22  24
ATOM     24  C   UNL A   1      37.789  29.658  29.265  1.00  0.00     0.060 A 
ATOM     25  C   UNL A   1      38.283  29.749  27.964  1.00  0.00     0.016 A 
ATOM     26  C   UNL A   1      38.673  29.466  30.331  1.00  0.00     0.016 A 
ATOM     27  C   UNL A   1      39.640  29.532  27.724  1.00  0.00     0.010 A 
ATOM     28  C   UNL A   1      40.048  29.337  30.090  1.00  0.00     0.010 A 
ATOM     29  C   UNL A   1      40.545  29.307  28.778  1.00  0.00    -0.014 A 
BRANCH  29  30
ATOM     30  C   UNL A   1      41.971  28.954  28.485  1.00  0.00     0.031 A 
ATOM     31  C   UNL A   1      42.327  27.594  27.923  1.00  0.00     0.074 A 
ATOM     32  C   UNL A   1      42.948  29.877  28.624  1.00  0.00     0.049 A 
ATOM     33  N   UNL A   1      43.509  27.097  27.651  1.00  0.00    -0.248 NA
ATOM     34  C   UNL A   1      41.219  26.667  27.638  1.00  0.00     0.031 C 
ATOM     35  C   UNL A   1      42.752  31.245  29.104  1.00  0.00     0.029 A 
ATOM     36  N   UNL A   1      44.282  29.835  28.297  1.00  0.00    -0.354 N 
ATOM     37  C   UNL A   1      43.294  25.775  27.272  1.00  0.00     0.074 A 
ATOM     38  C   UNL A   1      41.865  25.560  27.295  1.00  0.00     0.031 C 
ATOM     39  C   UNL A   1      43.872  31.952  28.884  1.00  0.00     0.029 A 
ATOM     40  C   UNL A   1      44.898  31.067  28.342  1.00  0.00     0.049 A 
ATOM     41  H   UNL A   1      44.753  29.004  28.055  1.00  0.00     0.167 HD
ATOM     42  C   UNL A   1      44.207  24.822  26.967  1.00  0.00     0.037 A 
ATOM     43  C   UNL A   1      46.137  31.443  27.962  1.00  0.00     0.037 A 
ATOM     44  C   UNL A   1      45.624  25.060  26.862  1.00  0.00     0.049 A 
ATOM     45  C   UNL A   1      47.116  30.391  27.516  1.00  0.00     0.074 A 
ATOM     46  C   UNL A   1      46.641  24.146  26.639  1.00  0.00     0.029 A 
ATOM     47  N   UNL A   1      46.219  26.309  26.932  1.00  0.00    -0.354 N 
ATOM     48  N   UNL A   1      46.916  29.114  27.298  1.00  0.00    -0.248 NA
ATOM     49  C   UNL A   1      48.507  30.827  27.316  1.00  0.00     0.031 C 
ATOM     50  C   UNL A   1      47.855  24.842  26.597  1.00  0.00     0.029 A 
ATOM     51  C   UNL A   1      47.589  26.191  26.759  1.00  0.00     0.049 A 
ATOM     52  H   UNL A   1      45.740  27.155  27.083  1.00  0.00     0.167 HD
ATOM     53  C   UNL A   1      48.161  28.589  26.966  1.00  0.00     0.074 A 
ATOM     54  C   UNL A   1      49.092  29.697  26.943  1.00  0.00     0.031 C 
ATOM     55  C   UNL A   1      48.509  27.298  26.747  1.00  0.00     0.037 A 
BRANCH  42  56
ATOM     56  C   UNL A   1      43.718  23.409  26.813  1.00  0.00     0.058 A 
ATOM     57  C   UNL A   1      43.273  22.636  27.894  1.00  0.00     0.135 A 
ATOM     58  C   UNL A   1      43.665  22.834  25.531  1.00  0.00     0.135 A 
ATOM     59  F   UNL A   1      43.323  23.129  29.142  1.00  0.00    -0.206 F 
ATOM     60  C   UNL A   1      42.808  21.336  27.713  1.00  0.00     0.059 A 
ATOM     61  C   UNL A   1      43.185  21.546  25.323  1.00  0.00     0.059 A 
ATOM     62  F   UNL A   1      44.081  23.531  24.461  1.00  0.00    -0.206 F 
ATOM     63  C   UNL A   1      42.770  20.798  26.424  1.00  0.00     0.060 A 
BRANCH  63  64
ATOM     64  S   UNL A   1      42.168  19.111  26.197  1.00  0.00     0.124 S 
ATOM     65  O   UNL A   1      42.422  18.534  27.514  1.00  0.00    -0.237 OA
ATOM     66  O   UNL A   1      40.765  19.320  25.856  1.00  0.00    -0.237 OA
ATOM     67  O   UNL A   1      43.002  18.595  25.115  1.00  0.00    -0.744 OA
ENDBRANCH  63  64
ENDBRANCH  42  56
BRANCH  43  68
ATOM     68  C   UNL A   1      46.520  32.883  27.922  1.00  0.00     0.058 A 
ATOM     69  C   UNL A   1      46.209  33.652  26.786  1.00  0.00     0.135 A 
ATOM     70  C   UNL A   1      47.176  33.528  28.979  1.00  0.00     0.135 A 
ATOM     71  F   UNL A   1      45.598  33.079  25.739  1.00  0.00    -0.206 F 
ATOM     72  C   UNL A   1      46.529  35.002  26.700  1.00  0.00     0.059 A 
ATOM     73  C   UNL A   1      47.486  34.885  28.928  1.00  0.00     0.059 A 
ATOM     74  F   UNL A   1      47.500  32.845  30.088  1.00  0.00    -0.206 F 
ATOM     75  C   UNL A   1      47.166  35.611  27.780  1.00  0.00     0.060 A 
BRANCH  75  76
ATOM     76  S   UNL A   1      47.531  37.379  27.705  1.00  0.00     0.124 S 
ATOM     77  O   UNL A   1      46.276  37.955  28.173  1.00  0.00    -0.237 OA
ATOM     78  O   UNL A   1      48.670  37.510  28.608  1.00  0.00    -0.237 OA
ATOM     79  O   UNL A   1      47.837  37.587  26.291  1.00  0.00    -0.744 OA
ENDBRANCH  75  76
ENDBRANCH  43  68
BRANCH  55  80
ATOM     80  C   UNL A   1      49.965  27.004  26.523  1.00  0.00     0.058 A 
ATOM     81  C   UNL A   1      50.832  26.806  27.610  1.00  0.00     0.135 A 
ATOM     82  C   UNL A   1      50.489  26.858  25.229  1.00  0.00     0.135 A 
ATOM     83  F   UNL A   1      50.380  26.934  28.867  1.00  0.00    -0.206 F 
ATOM     84  C   UNL A   1      52.174  26.495  27.422  1.00  0.00     0.059 A 
ATOM     85  C   UNL A   1      51.824  26.526  25.019  1.00  0.00     0.059 A 
ATOM     86  F   UNL A   1      49.699  27.025  24.157  1.00  0.00    -0.206 F 
ATOM     87  C   UNL A   1      52.661  26.357  26.122  1.00  0.00     0.060 A 
BRANCH  87  88
ATOM     88  S   UNL A   1      54.396  25.908  25.895  1.00  0.00     0.124 S 
ATOM     89  O   UNL A   1      55.022  27.220  25.759  1.00  0.00    -0.237 OA
ATOM     90  O   UNL A   1      54.699  25.186  27.127  1.00  0.00    -0.237 OA
ATOM     91  O   UNL A   1      54.379  25.091  24.686  1.00  0.00    -0.744 OA
ENDBRANCH  87  88
ENDBRANCH  55  80
ENDBRANCH  29  30
ENDBRANCH  22  24
ENDBRANCH  21  22
ENDBRANCH  20  21
ENDBRANCH   1  20
TORSDOF 17
ENDMDL
MODEL 3
REMARK VINA RESULT:     -11.0      2.894      9.368
REMARK SMILES C[C@@H](C(=O)OCCOC(=O)c1ccc(-c2c3nc(c(-c4c(F)cc(S(=O)(=O)[O-])cc4F)c4ccc([nH]4)c(-c4c(F)cc(S(=O)(=O)[O-])cc4F)c4nc(c(-c5c(F)cc(S(=O)(=O)[O-])cc5F)c5ccc2[nH]5)C=C4)C=C3)cc1)c1ccc(Cc2ccoc2)cc1F
REMARK SMILES IDX 6 1 5 2 3 3 4 4 2 5 1 6 77 7 78 8 88 9 79 10 87 11 89 12
REMARK SMILES IDX 80 13 81 14 82 15 83 16 86 17 84 18 85 19 7 20 8 21 9 22
REMARK SMILES IDX 10 23 11 24 12 25 76 26 13 27 75 28 14 29 15 30 16 31 69 32
REMARK SMILES IDX 17 33 74 34 68 35 70 36 18 37 73 38 67 39 66 40 19 42 53 43
REMARK SMILES IDX 32 44 52 45 33 46 36 47 51 48 71 49 34 50 35 51 50 53 72 54
REMARK SMILES IDX 37 55 20 56 21 57 30 58 22 59 23 60 29 61 31 62 24 63 25 64
REMARK SMILES IDX 26 65 27 66 28 67 54 68 55 69 64 70 56 71 57 72 63 73 65 74
REMARK SMILES IDX 58 75 59 76 60 77 61 78 62 79 38 80 39 81 48 82 40 83 41 84
REMARK SMILES IDX 47 85 49 86 42 87 43 88 44 89 45 90 46 91
REMARK H PARENT 70 41 36 52
REMARK Flexibility Score: inf
ROOT
ATOM      1  C   UNL A   1      31.966  30.009  25.980  1.00  0.00     0.274 C 
ENDROOT
BRANCH   1   2
ATOM      2  O   UNL A   1      31.541  28.666  25.670  1.00  0.00    -0.462 OA
BRANCH   2   3
ATOM      3  C   UNL A   1      31.657  28.265  24.371  1.00  0.00     0.313 C 
ATOM      4  O   UNL A   1      30.703  28.000  23.651  1.00  0.00    -0.252 OA
BRANCH   3   5
ATOM      5  C   UNL A   1      33.124  28.108  23.954  1.00  0.00     0.129 C 
ATOM      6  C   UNL A   1      33.429  28.698  22.573  1.00  0.00     0.025 C 
BRANCH   5   7
ATOM      7  C   UNL A   1      33.582  26.659  24.005  1.00  0.00     0.002 A 
ATOM      8  C   UNL A   1      33.479  25.823  22.886  1.00  0.00     0.008 A 
ATOM      9  C   UNL A   1      34.146  26.125  25.168  1.00  0.00     0.127 A 
ATOM     10  C   UNL A   1      33.906  24.492  22.939  1.00  0.00     0.004 A 
ATOM     11  C   UNL A   1      34.584  24.799  25.228  1.00  0.00     0.043 A 
ATOM     12  F   UNL A   1      34.308  26.904  26.248  1.00  0.00    -0.207 F 
ATOM     13  C   UNL A   1      34.471  23.963  24.108  1.00  0.00    -0.041 A 
BRANCH  13  14
ATOM     14  C   UNL A   1      34.998  22.547  24.127  1.00  0.00     0.074 C 
BRANCH  14  15
ATOM     15  C   UNL A   1      33.882  21.642  24.513  1.00  0.00    -0.005 A 
ATOM     16  C   UNL A   1      33.955  20.314  25.025  1.00  0.00     0.046 A 
ATOM     17  C   UNL A   1      32.538  21.963  24.552  1.00  0.00     0.198 A 
ATOM     18  C   UNL A   1      32.666  19.922  25.295  1.00  0.00     0.195 A 
ATOM     19  O   UNL A   1      31.798  20.922  25.006  1.00  0.00    -0.472 OA
ENDBRANCH  14  15
ENDBRANCH  13  14
ENDBRANCH   5   7
ENDBRANCH   3   5
ENDBRANCH   2   3
ENDBRANCH   1   2
BRANCH   1  20
ATOM     20  C   UNL A   1      32.596  30.057  27.368  1.00  0.00     0.275 C 
BRANCH  20  21
ATOM     21  O   UNL A   1      34.021  29.921  27.243  1.00  0.00    -0.458 OA
BRANCH  21  22
ATOM     22  C   UNL A   1      34.773  30.648  28.098  1.00  0.00     0.338 C 
ATOM     23  O   UNL A   1      34.436  31.672  28.679  1.00  0.00    -0.246 OA
BRANCH  22  24
ATOM     24  C   UNL A   1      36.106  30.031  28.254  1.00  0.00     0.060 A 
ATOM     25  C   UNL A   1      36.501  29.490  29.477  1.00  0.00     0.016 A 
ATOM     26  C   UNL A   1      37.017  30.093  27.196  1.00  0.00     0.016 A 
ATOM     27  C   UNL A   1      37.833  29.122  29.671  1.00  0.00     0.010 A 
ATOM     28  C   UNL A   1      38.331  29.638  27.371  1.00  0.00     0.010 A 
ATOM     29  C   UNL A   1      38.776  29.203  28.629  1.00  0.00    -0.014 A 
BRANCH  29  30
ATOM     30  C   UNL A   1      40.223  28.919  28.897  1.00  0.00     0.031 A 
ATOM     31  C   UNL A   1      40.868  27.655  28.370  1.00  0.00     0.074 A 
ATOM     32  C   UNL A   1      40.995  29.832  29.525  1.00  0.00     0.049 A 
ATOM     33  N   UNL A   1      42.093  27.221  28.541  1.00  0.00    -0.248 NA
ATOM     34  C   UNL A   1      40.034  26.755  27.556  1.00  0.00     0.031 C 
ATOM     35  C   UNL A   1      40.529  31.118  30.042  1.00  0.00     0.029 A 
ATOM     36  N   UNL A   1      42.349  29.858  29.761  1.00  0.00    -0.354 N 
ATOM     37  C   UNL A   1      42.141  25.959  27.955  1.00  0.00     0.074 A 
ATOM     38  C   UNL A   1      40.839  25.717  27.374  1.00  0.00     0.031 C 
ATOM     39  C   UNL A   1      41.591  31.868  30.378  1.00  0.00     0.029 A 
ATOM     40  C   UNL A   1      42.807  31.084  30.195  1.00  0.00     0.049 A 
ATOM     41  H   UNL A   1      42.935  29.077  29.633  1.00  0.00     0.167 HD
ATOM     42  C   UNL A   1      43.166  25.073  27.934  1.00  0.00     0.037 A 
ATOM     43  C   UNL A   1      44.065  31.530  30.394  1.00  0.00     0.037 A 
ATOM     44  C   UNL A   1      44.486  25.348  28.438  1.00  0.00     0.049 A 
ATOM     45  C   UNL A   1      45.213  30.566  30.260  1.00  0.00     0.074 A 
ATOM     46  C   UNL A   1      45.570  24.491  28.538  1.00  0.00     0.029 A 
ATOM     47  N   UNL A   1      44.914  26.586  28.889  1.00  0.00    -0.354 N 
ATOM     48  N   UNL A   1      45.207  29.327  29.831  1.00  0.00    -0.248 NA
ATOM     49  C   UNL A   1      46.534  31.050  30.690  1.00  0.00     0.031 C 
ATOM     50  C   UNL A   1      46.648  25.208  29.070  1.00  0.00     0.029 A 
ATOM     51  C   UNL A   1      46.244  26.517  29.269  1.00  0.00     0.049 A 
ATOM     52  H   UNL A   1      44.356  27.396  28.932  1.00  0.00     0.167 HD
ATOM     53  C   UNL A   1      46.515  28.875  29.970  1.00  0.00     0.074 A 
ATOM     54  C   UNL A   1      47.298  29.992  30.455  1.00  0.00     0.031 C 
ATOM     55  C   UNL A   1      47.013  27.632  29.760  1.00  0.00     0.037 A 
BRANCH  42  56
ATOM     56  C   UNL A   1      42.879  23.685  27.431  1.00  0.00     0.058 A 
ATOM     57  C   UNL A   1      43.037  23.315  26.089  1.00  0.00     0.135 A 
ATOM     58  C   UNL A   1      42.470  22.694  28.340  1.00  0.00     0.135 A 
ATOM     59  F   UNL A   1      43.404  24.228  25.175  1.00  0.00    -0.206 F 
ATOM     60  C   UNL A   1      42.781  22.015  25.660  1.00  0.00     0.059 A 
ATOM     61  C   UNL A   1      42.230  21.384  27.940  1.00  0.00     0.059 A 
ATOM     62  F   UNL A   1      42.303  22.996  29.638  1.00  0.00    -0.206 F 
ATOM     63  C   UNL A   1      42.375  21.057  26.593  1.00  0.00     0.060 A 
BRANCH  63  64
ATOM     64  S   UNL A   1      42.044  19.374  26.029  1.00  0.00     0.124 S 
ATOM     65  O   UNL A   1      42.877  19.299  24.834  1.00  0.00    -0.237 OA
ATOM     66  O   UNL A   1      42.487  18.569  27.163  1.00  0.00    -0.237 OA
ATOM     67  O   UNL A   1      40.603  19.373  25.790  1.00  0.00    -0.744 OA
ENDBRANCH  63  64
ENDBRANCH  42  56
BRANCH  43  68
ATOM     68  C   UNL A   1      44.329  32.969  30.681  1.00  0.00     0.058 A 
ATOM     69  C   UNL A   1      44.414  33.406  32.015  1.00  0.00     0.135 A 
ATOM     70  C   UNL A   1      44.510  33.926  29.674  1.00  0.00     0.135 A 
ATOM     71  F   UNL A   1      44.228  32.534  33.016  1.00  0.00    -0.206 F 
ATOM     72  C   UNL A   1      44.672  34.733  32.340  1.00  0.00     0.059 A 
ATOM     73  C   UNL A   1      44.794  35.256  29.973  1.00  0.00     0.059 A 
ATOM     74  F   UNL A   1      44.438  33.568  28.382  1.00  0.00    -0.206 F 
ATOM     75  C   UNL A   1      44.864  35.652  31.310  1.00  0.00     0.060 A 
BRANCH  75  76
ATOM     76  S   UNL A   1      45.262  37.365  31.721  1.00  0.00     0.124 S 
ATOM     77  O   UNL A   1      46.242  37.189  32.785  1.00  0.00    -0.237 OA
ATOM     78  O   UNL A   1      45.777  37.886  30.458  1.00  0.00    -0.237 OA
ATOM     79  O   UNL A   1      43.970  37.909  32.131  1.00  0.00    -0.744 OA
ENDBRANCH  75  76
ENDBRANCH  43  68
BRANCH  55  80
ATOM     80  C   UNL A   1      48.454  27.397  30.109  1.00  0.00     0.058 A 
ATOM     81  C   UNL A   1      48.828  27.039  31.414  1.00  0.00     0.135 A 
ATOM     82  C   UNL A   1      49.461  27.469  29.134  1.00  0.00     0.135 A 
ATOM     83  F   UNL A   1      47.902  26.957  32.383  1.00  0.00    -0.206 F 
ATOM     84  C   UNL A   1      50.152  26.780  31.747  1.00  0.00     0.059 A 
ATOM     85  C   UNL A   1      50.792  27.192  29.440  1.00  0.00     0.059 A 
ATOM     86  F   UNL A   1      49.156  27.795  27.868  1.00  0.00    -0.206 F 
ATOM     87  C   UNL A   1      51.128  26.859  30.753  1.00  0.00     0.060 A 
BRANCH  87  88
ATOM     88  S   UNL A   1      52.838  26.476  31.191  1.00  0.00     0.124 S 
ATOM     89  O   UNL A   1      53.201  27.638  31.996  1.00  0.00    -0.237 OA
ATOM     90  O   UNL A   1      52.703  25.218  31.919  1.00  0.00    -0.237 OA
ATOM     91  O   UNL A   1      53.504  26.374  29.896  1.00  0.00    -0.744 OA
ENDBRANCH  87  88
ENDBRANCH  55  80
ENDBRANCH  29  30
ENDBRANCH  22  24
ENDBRANCH  21  22
ENDBRANCH  20  21
ENDBRANCH   1  20
TORSDOF 17
ENDMDL
