MODEL 1
REMARK VINA RESULT:      -9.9      0.000      0.000
REMARK SMILES CC[C@@H]1CCCN1C(=O)N1CC[C@@H](C(=O)OCCOC(=O)c2ccc(-c3c4nc(c(-c5c(F)cc(S(=O)(=O)[O-])cc5F)c5ccc([nH]5)c(-c5c(F)cc(S(=O)(=O)[O-])cc5F)c5nc(c(-c6c(F)cc(S(=O)(=O)[O-])cc6F)c6ccc3[nH]6)C=C5)C=C4)cc2)[C@@H]1C
REMARK SMILES IDX 17 1 16 2 14 3 15 4 13 5 10 6 11 7 88 8 12 9 89 10 8 11 9 12
REMARK SMILES IDX 7 13 3 14 4 15 5 16 6 17 2 18 1 19 18 20 19 21 20 22 21 23
REMARK SMILES IDX 22 24 23 25 87 26 24 27 86 28 25 29 26 30 27 31 80 32 28 33
REMARK SMILES IDX 85 34 79 35 81 36 29 37 84 38 78 39 77 40 30 42 64 43 43 44
REMARK SMILES IDX 63 45 44 46 47 47 62 48 82 49 45 50 46 51 61 53 83 54 48 55
REMARK SMILES IDX 31 56 32 57 41 58 33 59 34 60 40 61 42 62 35 63 36 64 37 65
REMARK SMILES IDX 38 66 39 67 65 68 66 69 75 70 67 71 68 72 74 73 76 74 69 75
REMARK SMILES IDX 70 76 71 77 72 78 73 79 49 80 50 81 59 82 51 83 52 84 58 85
REMARK SMILES IDX 60 86 53 87 54 88 55 89 56 90 57 91
REMARK H PARENT 81 41 47 52
REMARK Flexibility Score: inf
ROOT
ATOM      1  C   UNL A   1      42.125  21.268  27.490  1.00  0.00     0.274 C 
ENDROOT
BRANCH   1   2
ATOM      2  O   UNL A   1      43.188  21.970  26.813  1.00  0.00    -0.462 OA
BRANCH   2   3
ATOM      3  C   UNL A   1      43.428  21.620  25.517  1.00  0.00     0.311 C 
ATOM      4  O   UNL A   1      43.388  20.479  25.083  1.00  0.00    -0.252 OA
BRANCH   3   5
ATOM      5  C   UNL A   1      43.643  22.868  24.678  1.00  0.00     0.123 C 
ATOM      6  N   UNL A   1      45.353  24.425  25.347  1.00  0.00    -0.321 N 
ATOM      7  C   UNL A   1      45.977  23.233  24.823  1.00  0.00     0.122 C 
ATOM      8  C   UNL A   1      43.915  24.130  25.524  1.00  0.00     0.098 C 
ATOM      9  C   UNL A   1      44.920  22.707  23.865  1.00  0.00     0.039 C 
ATOM     10  C   UNL A   1      43.053  25.298  25.053  1.00  0.00     0.032 C 
BRANCH   6  11
ATOM     11  C   UNL A   1      45.957  25.337  26.171  1.00  0.00     0.320 C 
ATOM     12  O   UNL A   1      46.869  26.032  25.704  1.00  0.00    -0.248 OA
BRANCH  11  13
ATOM     13  N   UNL A   1      45.609  25.453  27.503  1.00  0.00    -0.322 N 
ATOM     14  C   UNL A   1      44.600  26.278  28.232  1.00  0.00     0.086 C 
ATOM     15  C   UNL A   1      44.709  25.751  29.678  1.00  0.00     0.027 C 
ATOM     16  C   UNL A   1      44.953  24.276  29.490  1.00  0.00     0.024 C 
ATOM     17  C   UNL A   1      45.907  24.260  28.311  1.00  0.00     0.122 C 
BRANCH  14  18
ATOM     18  C   UNL A   1      44.710  27.803  28.322  1.00  0.00     0.022 C 
ATOM     19  C   UNL A   1      44.149  28.505  27.090  1.00  0.00     0.006 C 
ENDBRANCH  14  18
ENDBRANCH  11  13
ENDBRANCH   6  11
ENDBRANCH   3   5
ENDBRANCH   2   3
ENDBRANCH   1   2
BRANCH   1  20
ATOM     20  C   UNL A   1      40.794  21.947  27.177  1.00  0.00     0.275 C 
BRANCH  20  21
ATOM     21  O   UNL A   1      40.963  23.374  27.269  1.00  0.00    -0.458 OA
BRANCH  21  22
ATOM     22  C   UNL A   1      39.872  24.116  26.966  1.00  0.00     0.338 C 
ATOM     23  O   UNL A   1      39.015  23.859  26.140  1.00  0.00    -0.246 OA
BRANCH  22  24
ATOM     24  C   UNL A   1      39.836  25.332  27.805  1.00  0.00     0.060 A 
ATOM     25  C   UNL A   1      40.765  26.351  27.608  1.00  0.00     0.016 A 
ATOM     26  C   UNL A   1      38.955  25.397  28.884  1.00  0.00     0.016 A 
ATOM     27  C   UNL A   1      40.913  27.352  28.568  1.00  0.00     0.010 A 
ATOM     28  C   UNL A   1      39.005  26.491  29.756  1.00  0.00     0.010 A 
ATOM     29  C   UNL A   1      40.013  27.466  29.640  1.00  0.00    -0.014 A 
BRANCH  29  30
ATOM     30  C   UNL A   1      40.113  28.595  30.619  1.00  0.00     0.031 A 
ATOM     31  C   UNL A   1      41.129  28.560  31.742  1.00  0.00     0.074 A 
ATOM     32  C   UNL A   1      39.278  29.655  30.530  1.00  0.00     0.049 A 
ATOM     33  N   UNL A   1      41.209  29.319  32.807  1.00  0.00    -0.248 NA
ATOM     34  C   UNL A   1      42.177  27.528  31.671  1.00  0.00     0.031 C 
ATOM     35  C   UNL A   1      38.252  29.850  29.501  1.00  0.00     0.029 A 
ATOM     36  N   UNL A   1      39.157  30.774  31.321  1.00  0.00    -0.354 N 
ATOM     37  C   UNL A   1      42.260  28.811  33.565  1.00  0.00     0.074 A 
ATOM     38  C   UNL A   1      42.799  27.686  32.832  1.00  0.00     0.031 C 
ATOM     39  C   UNL A   1      37.646  31.029  29.692  1.00  0.00     0.029 A 
ATOM     40  C   UNL A   1      38.151  31.626  30.920  1.00  0.00     0.049 A 
ATOM     41  H   UNL A   1      39.733  30.950  32.099  1.00  0.00     0.167 HD
ATOM     42  C   UNL A   1      42.728  29.240  34.763  1.00  0.00     0.037 A 
ATOM     43  C   UNL A   1      37.639  32.730  31.498  1.00  0.00     0.037 A 
ATOM     44  C   UNL A   1      42.251  30.415  35.449  1.00  0.00     0.049 A 
ATOM     45  C   UNL A   1      38.175  33.185  32.825  1.00  0.00     0.074 A 
ATOM     46  C   UNL A   1      42.706  30.956  36.642  1.00  0.00     0.029 A 
ATOM     47  N   UNL A   1      41.229  31.238  35.003  1.00  0.00    -0.354 N 
ATOM     48  N   UNL A   1      39.141  32.665  33.543  1.00  0.00    -0.248 NA
ATOM     49  C   UNL A   1      37.535  34.359  33.434  1.00  0.00     0.031 C 
ATOM     50  C   UNL A   1      41.937  32.088  36.933  1.00  0.00     0.029 A 
ATOM     51  C   UNL A   1      41.030  32.273  35.902  1.00  0.00     0.049 A 
ATOM     52  H   UNL A   1      40.721  31.107  34.171  1.00  0.00     0.167 HD
ATOM     53  C   UNL A   1      39.227  33.452  34.685  1.00  0.00     0.074 A 
ATOM     54  C   UNL A   1      38.235  34.498  34.551  1.00  0.00     0.031 C 
ATOM     55  C   UNL A   1      40.047  33.313  35.754  1.00  0.00     0.037 A 
BRANCH  42  56
ATOM     56  C   UNL A   1      43.804  28.437  35.443  1.00  0.00     0.058 A 
ATOM     57  C   UNL A   1      43.507  27.397  36.335  1.00  0.00     0.135 A 
ATOM     58  C   UNL A   1      45.152  28.647  35.105  1.00  0.00     0.135 A 
ATOM     59  F   UNL A   1      42.237  27.162  36.701  1.00  0.00    -0.206 F 
ATOM     60  C   UNL A   1      44.510  26.593  36.872  1.00  0.00     0.059 A 
ATOM     61  C   UNL A   1      46.168  27.843  35.614  1.00  0.00     0.059 A 
ATOM     62  F   UNL A   1      45.490  29.628  34.255  1.00  0.00    -0.206 F 
ATOM     63  C   UNL A   1      45.837  26.820  36.500  1.00  0.00     0.060 A 
BRANCH  63  64
ATOM     64  S   UNL A   1      47.121  25.738  37.166  1.00  0.00     0.124 S 
ATOM     65  O   UNL A   1      46.323  24.658  37.739  1.00  0.00    -0.237 OA
ATOM     66  O   UNL A   1      47.889  25.394  35.974  1.00  0.00    -0.237 OA
ATOM     67  O   UNL A   1      47.815  26.586  38.131  1.00  0.00    -0.744 OA
ENDBRANCH  63  64
ENDBRANCH  42  56
BRANCH  43  68
ATOM     68  C   UNL A   1      36.494  33.441  30.865  1.00  0.00     0.058 A 
ATOM     69  C   UNL A   1      36.676  34.236  29.725  1.00  0.00     0.135 A 
ATOM     70  C   UNL A   1      35.199  33.349  31.400  1.00  0.00     0.135 A 
ATOM     71  F   UNL A   1      37.897  34.364  29.183  1.00  0.00    -0.206 F 
ATOM     72  C   UNL A   1      35.619  34.934  29.149  1.00  0.00     0.059 A 
ATOM     73  C   UNL A   1      34.122  34.012  30.824  1.00  0.00     0.059 A 
ATOM     74  F   UNL A   1      34.970  32.590  32.482  1.00  0.00    -0.206 F 
ATOM     75  C   UNL A   1      34.345  34.818  29.709  1.00  0.00     0.060 A 
BRANCH  75  76
ATOM     76  S   UNL A   1      32.971  35.708  28.950  1.00  0.00     0.124 S 
ATOM     77  O   UNL A   1      33.671  36.768  28.234  1.00  0.00    -0.237 OA
ATOM     78  O   UNL A   1      32.352  34.679  28.120  1.00  0.00    -0.237 OA
ATOM     79  O   UNL A   1      32.178  36.136  30.099  1.00  0.00    -0.744 OA
ENDBRANCH  75  76
ENDBRANCH  43  68
BRANCH  55  80
ATOM     80  C   UNL A   1      39.927  34.335  36.848  1.00  0.00     0.058 A 
ATOM     81  C   UNL A   1      40.612  35.558  36.788  1.00  0.00     0.135 A 
ATOM     82  C   UNL A   1      39.094  34.099  37.953  1.00  0.00     0.135 A 
ATOM     83  F   UNL A   1      41.429  35.825  35.756  1.00  0.00    -0.206 F 
ATOM     84  C   UNL A   1      40.494  36.505  37.799  1.00  0.00     0.059 A 
ATOM     85  C   UNL A   1      38.943  35.043  38.965  1.00  0.00     0.059 A 
ATOM     86  F   UNL A   1      38.412  32.947  38.053  1.00  0.00    -0.206 F 
ATOM     87  C   UNL A   1      39.657  36.238  38.885  1.00  0.00     0.060 A 
BRANCH  87  88
ATOM     88  S   UNL A   1      39.489  37.484  40.180  1.00  0.00     0.124 S 
ATOM     89  O   UNL A   1      38.986  36.684  41.292  1.00  0.00    -0.237 OA
ATOM     90  O   UNL A   1      40.856  37.978  40.321  1.00  0.00    -0.237 OA
ATOM     91  O   UNL A   1      38.541  38.438  39.612  1.00  0.00    -0.744 OA
ENDBRANCH  87  88
ENDBRANCH  55  80
ENDBRANCH  29  30
ENDBRANCH  22  24
ENDBRANCH  21  22
ENDBRANCH  20  21
ENDBRANCH   1  20
TORSDOF 17
ENDMDL
MODEL 2
REMARK VINA RESULT:      -9.9      3.796      5.848
REMARK SMILES CC[C@@H]1CCCN1C(=O)N1CC[C@@H](C(=O)OCCOC(=O)c2ccc(-c3c4nc(c(-c5c(F)cc(S(=O)(=O)[O-])cc5F)c5ccc([nH]5)c(-c5c(F)cc(S(=O)(=O)[O-])cc5F)c5nc(c(-c6c(F)cc(S(=O)(=O)[O-])cc6F)c6ccc3[nH]6)C=C5)C=C4)cc2)[C@@H]1C
REMARK SMILES IDX 17 1 16 2 14 3 15 4 13 5 10 6 11 7 88 8 12 9 89 10 8 11 9 12
REMARK SMILES IDX 7 13 3 14 4 15 5 16 6 17 2 18 1 19 18 20 19 21 20 22 21 23
REMARK SMILES IDX 22 24 23 25 87 26 24 27 86 28 25 29 26 30 27 31 80 32 28 33
REMARK SMILES IDX 85 34 79 35 81 36 29 37 84 38 78 39 77 40 30 42 64 43 43 44
REMARK SMILES IDX 63 45 44 46 47 47 62 48 82 49 45 50 46 51 61 53 83 54 48 55
REMARK SMILES IDX 31 56 32 57 41 58 33 59 34 60 40 61 42 62 35 63 36 64 37 65
REMARK SMILES IDX 38 66 39 67 65 68 66 69 75 70 67 71 68 72 74 73 76 74 69 75
REMARK SMILES IDX 70 76 71 77 72 78 73 79 49 80 50 81 59 82 51 83 52 84 58 85
REMARK SMILES IDX 60 86 53 87 54 88 55 89 56 90 57 91
REMARK H PARENT 81 41 47 52
REMARK Flexibility Score: inf
ROOT
ATOM      1  C   UNL A   1      37.311  22.621  25.766  1.00  0.00     0.274 C 
ENDROOT
BRANCH   1   2
ATOM      2  O   UNL A   1      36.831  23.661  24.890  1.00  0.00    -0.462 OA
BRANCH   2   3
ATOM      3  C   UNL A   1      36.087  23.267  23.817  1.00  0.00     0.311 C 
ATOM      4  O   UNL A   1      36.545  22.940  22.732  1.00  0.00    -0.252 OA
BRANCH   3   5
ATOM      5  C   UNL A   1      34.621  23.192  24.206  1.00  0.00     0.123 C 
ATOM      6  N   UNL A   1      33.236  25.131  23.859  1.00  0.00    -0.321 N 
ATOM      7  C   UNL A   1      33.550  24.538  22.579  1.00  0.00     0.122 C 
ATOM      8  C   UNL A   1      34.101  24.485  24.870  1.00  0.00     0.098 C 
ATOM      9  C   UNL A   1      33.776  23.079  22.944  1.00  0.00     0.039 C 
ATOM     10  C   UNL A   1      33.317  24.168  26.140  1.00  0.00     0.032 C 
BRANCH   6  11
ATOM     11  C   UNL A   1      32.828  26.423  24.051  1.00  0.00     0.320 C 
ATOM     12  O   UNL A   1      33.682  27.266  24.357  1.00  0.00    -0.248 OA
BRANCH  11  13
ATOM     13  N   UNL A   1      31.496  26.785  23.963  1.00  0.00    -0.322 N 
ATOM     14  C   UNL A   1      30.728  27.650  23.021  1.00  0.00     0.086 C 
ATOM     15  C   UNL A   1      29.270  27.449  23.484  1.00  0.00     0.027 C 
ATOM     16  C   UNL A   1      29.231  25.995  23.878  1.00  0.00     0.024 C 
ATOM     17  C   UNL A   1      30.568  25.818  24.571  1.00  0.00     0.122 C 
BRANCH  14  18
ATOM     18  C   UNL A   1      30.949  29.164  22.944  1.00  0.00     0.022 C 
ATOM     19  C   UNL A   1      30.023  29.841  21.940  1.00  0.00     0.006 C 
ENDBRANCH  14  18
ENDBRANCH  11  13
ENDBRANCH   6  11
ENDBRANCH   3   5
ENDBRANCH   2   3
ENDBRANCH   1   2
BRANCH   1  20
ATOM     20  C   UNL A   1      38.835  22.669  25.816  1.00  0.00     0.275 C 
BRANCH  20  21
ATOM     21  O   UNL A   1      39.244  23.390  26.993  1.00  0.00    -0.458 OA
BRANCH  21  22
ATOM     22  C   UNL A   1      40.389  24.103  26.879  1.00  0.00     0.338 C 
ATOM     23  O   UNL A   1      41.358  23.833  26.194  1.00  0.00    -0.246 OA
BRANCH  22  24
ATOM     24  C   UNL A   1      40.315  25.318  27.718  1.00  0.00     0.060 A 
ATOM     25  C   UNL A   1      41.331  26.268  27.672  1.00  0.00     0.016 A 
ATOM     26  C   UNL A   1      39.290  25.446  28.654  1.00  0.00     0.016 A 
ATOM     27  C   UNL A   1      41.406  27.255  28.654  1.00  0.00     0.010 A 
ATOM     28  C   UNL A   1      39.287  26.533  29.536  1.00  0.00     0.010 A 
ATOM     29  C   UNL A   1      40.367  27.434  29.582  1.00  0.00    -0.014 A 
BRANCH  29  30
ATOM     30  C   UNL A   1      40.400  28.552  30.578  1.00  0.00     0.031 A 
ATOM     31  C   UNL A   1      41.380  28.534  31.732  1.00  0.00     0.074 A 
ATOM     32  C   UNL A   1      39.535  29.587  30.475  1.00  0.00     0.049 A 
ATOM     33  N   UNL A   1      41.402  29.281  32.808  1.00  0.00    -0.248 NA
ATOM     34  C   UNL A   1      42.462  27.537  31.682  1.00  0.00     0.031 C 
ATOM     35  C   UNL A   1      38.537  29.763  29.416  1.00  0.00     0.029 A 
ATOM     36  N   UNL A   1      39.353  30.690  31.275  1.00  0.00    -0.354 N 
ATOM     37  C   UNL A   1      42.445  28.796  33.593  1.00  0.00     0.074 A 
ATOM     38  C   UNL A   1      43.042  27.698  32.865  1.00  0.00     0.031 C 
ATOM     39  C   UNL A   1      37.887  30.920  29.602  1.00  0.00     0.029 A 
ATOM     40  C   UNL A   1      38.334  31.516  30.853  1.00  0.00     0.049 A 
ATOM     41  H   UNL A   1      39.898  30.874  32.073  1.00  0.00     0.167 HD
ATOM     42  C   UNL A   1      42.860  29.224  34.811  1.00  0.00     0.037 A 
ATOM     43  C   UNL A   1      37.769  32.595  31.427  1.00  0.00     0.037 A 
ATOM     44  C   UNL A   1      42.324  30.374  35.496  1.00  0.00     0.049 A 
ATOM     45  C   UNL A   1      38.248  33.049  32.776  1.00  0.00     0.074 A 
ATOM     46  C   UNL A   1      42.724  30.913  36.709  1.00  0.00     0.029 A 
ATOM     47  N   UNL A   1      41.291  31.170  35.027  1.00  0.00    -0.354 N 
ATOM     48  N   UNL A   1      39.207  32.551  33.518  1.00  0.00    -0.248 NA
ATOM     49  C   UNL A   1      37.552  34.195  33.378  1.00  0.00     0.031 C 
ATOM     50  C   UNL A   1      41.911  32.016  36.989  1.00  0.00     0.029 A 
ATOM     51  C   UNL A   1      41.032  32.186  35.932  1.00  0.00     0.049 A 
ATOM     52  H   UNL A   1      40.814  31.035  34.177  1.00  0.00     0.167 HD
ATOM     53  C   UNL A   1      39.231  33.325  34.672  1.00  0.00     0.074 A 
ATOM     54  C   UNL A   1      38.211  34.341  34.519  1.00  0.00     0.031 C 
ATOM     55  C   UNL A   1      40.021  33.197  35.765  1.00  0.00     0.037 A 
BRANCH  42  56
ATOM     56  C   UNL A   1      43.939  28.446  35.515  1.00  0.00     0.058 A 
ATOM     57  C   UNL A   1      43.647  27.385  36.384  1.00  0.00     0.135 A 
ATOM     58  C   UNL A   1      45.290  28.703  35.224  1.00  0.00     0.135 A 
ATOM     59  F   UNL A   1      42.374  27.105  36.706  1.00  0.00    -0.206 F 
ATOM     60  C   UNL A   1      44.658  26.606  36.943  1.00  0.00     0.059 A 
ATOM     61  C   UNL A   1      46.314  27.925  35.755  1.00  0.00     0.059 A 
ATOM     62  F   UNL A   1      45.624  29.706  34.397  1.00  0.00    -0.206 F 
ATOM     63  C   UNL A   1      45.988  26.880  36.617  1.00  0.00     0.060 A 
BRANCH  63  64
ATOM     64  S   UNL A   1      47.284  25.830  37.311  1.00  0.00     0.124 S 
ATOM     65  O   UNL A   1      46.559  24.583  37.534  1.00  0.00    -0.237 OA
ATOM     66  O   UNL A   1      48.273  25.804  36.238  1.00  0.00    -0.237 OA
ATOM     67  O   UNL A   1      47.692  26.544  38.517  1.00  0.00    -0.744 OA
ENDBRANCH  63  64
ENDBRANCH  42  56
BRANCH  43  68
ATOM     68  C   UNL A   1      36.623  33.278  30.767  1.00  0.00     0.058 A 
ATOM     69  C   UNL A   1      36.822  34.141  29.679  1.00  0.00     0.135 A 
ATOM     70  C   UNL A   1      35.308  33.091  31.221  1.00  0.00     0.135 A 
ATOM     71  F   UNL A   1      38.062  34.360  29.215  1.00  0.00    -0.206 F 
ATOM     72  C   UNL A   1      35.761  34.813  29.080  1.00  0.00     0.059 A 
ATOM     73  C   UNL A   1      34.228  33.726  30.619  1.00  0.00     0.059 A 
ATOM     74  F   UNL A   1      35.062  32.265  32.250  1.00  0.00    -0.206 F 
ATOM     75  C   UNL A   1      34.467  34.601  29.561  1.00  0.00     0.060 A 
BRANCH  75  76
ATOM     76  S   UNL A   1      33.089  35.457  28.770  1.00  0.00     0.124 S 
ATOM     77  O   UNL A   1      33.785  36.493  28.015  1.00  0.00    -0.237 OA
ATOM     78  O   UNL A   1      32.473  34.396  27.979  1.00  0.00    -0.237 OA
ATOM     79  O   UNL A   1      32.295  35.925  29.903  1.00  0.00    -0.744 OA
ENDBRANCH  75  76
ENDBRANCH  43  68
BRANCH  55  80
ATOM     80  C   UNL A   1      39.833  34.200  36.867  1.00  0.00     0.058 A 
ATOM     81  C   UNL A   1      39.130  33.878  38.039  1.00  0.00     0.135 A 
ATOM     82  C   UNL A   1      40.389  35.484  36.764  1.00  0.00     0.135 A 
ATOM     83  F   UNL A   1      38.571  32.666  38.181  1.00  0.00    -0.206 F 
ATOM     84  C   UNL A   1      38.964  34.806  39.061  1.00  0.00     0.059 A 
ATOM     85  C   UNL A   1      40.255  36.420  37.785  1.00  0.00     0.059 A 
ATOM     86  F   UNL A   1      41.077  35.837  35.666  1.00  0.00    -0.206 F 
ATOM     87  C   UNL A   1      39.529  36.075  38.924  1.00  0.00     0.060 A 
BRANCH  87  88
ATOM     88  S   UNL A   1      39.331  37.264  40.268  1.00  0.00     0.124 S 
ATOM     89  O   UNL A   1      38.584  36.478  41.246  1.00  0.00    -0.237 OA
ATOM     90  O   UNL A   1      40.714  37.570  40.624  1.00  0.00    -0.237 OA
ATOM     91  O   UNL A   1      38.593  38.359  39.647  1.00  0.00    -0.744 OA
ENDBRANCH  87  88
ENDBRANCH  55  80
ENDBRANCH  29  30
ENDBRANCH  22  24
ENDBRANCH  21  22
ENDBRANCH  20  21
ENDBRANCH   1  20
TORSDOF 17
ENDMDL
MODEL 3
REMARK VINA RESULT:      -9.8      3.372      5.257
REMARK SMILES CC[C@@H]1CCCN1C(=O)N1CC[C@@H](C(=O)OCCOC(=O)c2ccc(-c3c4nc(c(-c5c(F)cc(S(=O)(=O)[O-])cc5F)c5ccc([nH]5)c(-c5c(F)cc(S(=O)(=O)[O-])cc5F)c5nc(c(-c6c(F)cc(S(=O)(=O)[O-])cc6F)c6ccc3[nH]6)C=C5)C=C4)cc2)[C@@H]1C
REMARK SMILES IDX 17 1 16 2 14 3 15 4 13 5 10 6 11 7 88 8 12 9 89 10 8 11 9 12
REMARK SMILES IDX 7 13 3 14 4 15 5 16 6 17 2 18 1 19 18 20 19 21 20 22 21 23
REMARK SMILES IDX 22 24 23 25 87 26 24 27 86 28 25 29 26 30 27 31 80 32 28 33
REMARK SMILES IDX 85 34 79 35 81 36 29 37 84 38 78 39 77 40 30 42 64 43 43 44
REMARK SMILES IDX 63 45 44 46 47 47 62 48 82 49 45 50 46 51 61 53 83 54 48 55
REMARK SMILES IDX 31 56 32 57 41 58 33 59 34 60 40 61 42 62 35 63 36 64 37 65
REMARK SMILES IDX 38 66 39 67 65 68 66 69 75 70 67 71 68 72 74 73 76 74 69 75
REMARK SMILES IDX 70 76 71 77 72 78 73 79 49 80 50 81 59 82 51 83 52 84 58 85
REMARK SMILES IDX 60 86 53 87 54 88 55 89 56 90 57 91
REMARK H PARENT 81 41 47 52
REMARK Flexibility Score: inf
ROOT
ATOM      1  C   UNL A   1      39.838  21.121  26.134  1.00  0.00     0.274 C 
ENDROOT
BRANCH   1   2
ATOM      2  O   UNL A   1      38.567  21.803  26.148  1.00  0.00    -0.462 OA
BRANCH   2   3
ATOM      3  C   UNL A   1      37.692  21.494  25.149  1.00  0.00     0.311 C 
ATOM      4  O   UNL A   1      37.502  20.370  24.710  1.00  0.00    -0.252 OA
BRANCH   3   5
ATOM      5  C   UNL A   1      36.916  22.735  24.743  1.00  0.00     0.123 C 
ATOM      6  N   UNL A   1      34.580  22.870  25.309  1.00  0.00    -0.321 N 
ATOM      7  C   UNL A   1      35.368  23.020  26.511  1.00  0.00     0.122 C 
ATOM      8  C   UNL A   1      35.493  22.422  24.235  1.00  0.00     0.098 C 
ATOM      9  C   UNL A   1      36.669  23.594  25.975  1.00  0.00     0.039 C 
ATOM     10  C   UNL A   1      35.206  23.159  22.930  1.00  0.00     0.032 C 
BRANCH   6  11
ATOM     11  C   UNL A   1      33.263  22.497  25.270  1.00  0.00     0.320 C 
ATOM     12  O   UNL A   1      32.991  21.351  24.889  1.00  0.00    -0.248 OA
BRANCH  11  13
ATOM     13  N   UNL A   1      32.249  23.381  25.591  1.00  0.00    -0.322 N 
ATOM     14  C   UNL A   1      31.355  24.256  24.778  1.00  0.00     0.086 C 
ATOM     15  C   UNL A   1      30.390  24.834  25.835  1.00  0.00     0.027 C 
ATOM     16  C   UNL A   1      30.187  23.681  26.783  1.00  0.00     0.024 C 
ATOM     17  C   UNL A   1      31.582  23.093  26.871  1.00  0.00     0.122 C 
BRANCH  14  18
ATOM     18  C   UNL A   1      31.890  25.453  23.986  1.00  0.00     0.022 C 
ATOM     19  C   UNL A   1      32.128  25.125  22.517  1.00  0.00     0.006 C 
ENDBRANCH  14  18
ENDBRANCH  11  13
ENDBRANCH   6  11
ENDBRANCH   3   5
ENDBRANCH   2   3
ENDBRANCH   1   2
BRANCH   1  20
ATOM     20  C   UNL A   1      40.905  22.031  26.735  1.00  0.00     0.275 C 
BRANCH  20  21
ATOM     21  O   UNL A   1      40.389  23.373  26.808  1.00  0.00    -0.458 OA
BRANCH  21  22
ATOM     22  C   UNL A   1      41.263  24.358  26.493  1.00  0.00     0.338 C 
ATOM     23  O   UNL A   1      42.082  24.353  25.591  1.00  0.00    -0.246 OA
BRANCH  22  24
ATOM     24  C   UNL A   1      41.090  25.503  27.411  1.00  0.00     0.060 A 
ATOM     25  C   UNL A   1      42.030  26.530  27.440  1.00  0.00     0.016 A 
ATOM     26  C   UNL A   1      40.053  25.487  28.342  1.00  0.00     0.016 A 
ATOM     27  C   UNL A   1      42.021  27.451  28.487  1.00  0.00     0.010 A 
ATOM     28  C   UNL A   1      39.960  26.508  29.296  1.00  0.00     0.010 A 
ATOM     29  C   UNL A   1      40.966  27.484  29.414  1.00  0.00    -0.014 A 
BRANCH  29  30
ATOM     30  C   UNL A   1      40.905  28.532  30.483  1.00  0.00     0.031 A 
ATOM     31  C   UNL A   1      41.861  28.497  31.657  1.00  0.00     0.074 A 
ATOM     32  C   UNL A   1      39.977  29.514  30.429  1.00  0.00     0.049 A 
ATOM     33  N   UNL A   1      41.813  29.168  32.782  1.00  0.00    -0.248 NA
ATOM     34  C   UNL A   1      43.007  27.576  31.567  1.00  0.00     0.031 C 
ATOM     35  C   UNL A   1      38.992  29.698  29.360  1.00  0.00     0.029 A 
ATOM     36  N   UNL A   1      39.708  30.546  31.296  1.00  0.00    -0.354 N 
ATOM     37  C   UNL A   1      42.869  28.698  33.557  1.00  0.00     0.074 A 
ATOM     38  C   UNL A   1      43.551  27.693  32.772  1.00  0.00     0.031 C 
ATOM     39  C   UNL A   1      38.264  30.796  29.607  1.00  0.00     0.029 A 
ATOM     40  C   UNL A   1      38.646  31.332  30.906  1.00  0.00     0.049 A 
ATOM     41  H   UNL A   1      40.224  30.708  32.118  1.00  0.00     0.167 HD
ATOM     42  C   UNL A   1      43.231  29.067  34.811  1.00  0.00     0.037 A 
ATOM     43  C   UNL A   1      38.000  32.331  31.537  1.00  0.00     0.037 A 
ATOM     44  C   UNL A   1      42.607  30.130  35.558  1.00  0.00     0.049 A 
ATOM     45  C   UNL A   1      38.421  32.720  32.925  1.00  0.00     0.074 A 
ATOM     46  C   UNL A   1      42.946  30.609  36.814  1.00  0.00     0.029 A 
ATOM     47  N   UNL A   1      41.534  30.890  35.119  1.00  0.00    -0.354 N 
ATOM     48  N   UNL A   1      39.395  32.235  33.655  1.00  0.00    -0.248 NA
ATOM     49  C   UNL A   1      37.640  33.776  33.585  1.00  0.00     0.031 C 
ATOM     50  C   UNL A   1      42.057  31.637  37.148  1.00  0.00     0.029 A 
ATOM     51  C   UNL A   1      41.190  31.823  36.083  1.00  0.00     0.049 A 
ATOM     52  H   UNL A   1      41.084  30.783  34.250  1.00  0.00     0.167 HD
ATOM     53  C   UNL A   1      39.345  32.928  34.858  1.00  0.00     0.074 A 
ATOM     54  C   UNL A   1      38.264  33.885  34.749  1.00  0.00     0.031 C 
ATOM     55  C   UNL A   1      40.119  32.776  35.960  1.00  0.00     0.037 A 
BRANCH  42  56
ATOM     56  C   UNL A   1      44.343  28.312  35.488  1.00  0.00     0.058 A 
ATOM     57  C   UNL A   1      44.108  27.156  36.245  1.00  0.00     0.135 A 
ATOM     58  C   UNL A   1      45.679  28.699  35.279  1.00  0.00     0.135 A 
ATOM     59  F   UNL A   1      42.851  26.750  36.486  1.00  0.00    -0.206 F 
ATOM     60  C   UNL A   1      45.158  26.409  36.774  1.00  0.00     0.059 A 
ATOM     61  C   UNL A   1      46.743  27.956  35.781  1.00  0.00     0.059 A 
ATOM     62  F   UNL A   1      45.959  29.797  34.560  1.00  0.00    -0.206 F 
ATOM     63  C   UNL A   1      46.472  26.814  36.531  1.00  0.00     0.060 A 
BRANCH  63  64
ATOM     64  S   UNL A   1      47.824  25.808  37.182  1.00  0.00     0.124 S 
ATOM     65  O   UNL A   1      47.587  25.898  38.620  1.00  0.00    -0.237 OA
ATOM     66  O   UNL A   1      47.564  24.505  36.577  1.00  0.00    -0.237 OA
ATOM     67  O   UNL A   1      49.021  26.491  36.699  1.00  0.00    -0.744 OA
ENDBRANCH  63  64
ENDBRANCH  42  56
BRANCH  43  68
ATOM     68  C   UNL A   1      36.825  32.983  30.896  1.00  0.00     0.058 A 
ATOM     69  C   UNL A   1      36.991  33.953  29.896  1.00  0.00     0.135 A 
ATOM     70  C   UNL A   1      35.515  32.659  31.283  1.00  0.00     0.135 A 
ATOM     71  F   UNL A   1      38.223  34.305  29.500  1.00  0.00    -0.206 F 
ATOM     72  C   UNL A   1      35.900  34.595  29.318  1.00  0.00     0.059 A 
ATOM     73  C   UNL A   1      34.409  33.263  30.698  1.00  0.00     0.059 A 
ATOM     74  F   UNL A   1      35.303  31.727  32.225  1.00  0.00    -0.206 F 
ATOM     75  C   UNL A   1      34.612  34.245  29.730  1.00  0.00     0.060 A 
BRANCH  75  76
ATOM     76  S   UNL A   1      33.197  35.064  28.965  1.00  0.00     0.124 S 
ATOM     77  O   UNL A   1      32.350  35.323  30.123  1.00  0.00    -0.237 OA
ATOM     78  O   UNL A   1      33.809  36.235  28.347  1.00  0.00    -0.237 OA
ATOM     79  O   UNL A   1      32.700  34.059  28.028  1.00  0.00    -0.744 OA
ENDBRANCH  75  76
ENDBRANCH  43  68
BRANCH  55  80
ATOM     80  C   UNL A   1      39.845  33.686  37.122  1.00  0.00     0.058 A 
ATOM     81  C   UNL A   1      40.474  34.935  37.240  1.00  0.00     0.135 A 
ATOM     82  C   UNL A   1      38.920  33.319  38.111  1.00  0.00     0.135 A 
ATOM     83  F   UNL A   1      41.375  35.328  36.324  1.00  0.00    -0.206 F 
ATOM     84  C   UNL A   1      40.213  35.780  38.314  1.00  0.00     0.059 A 
ATOM     85  C   UNL A   1      38.627  34.158  39.182  1.00  0.00     0.059 A 
ATOM     86  F   UNL A   1      38.286  32.137  38.040  1.00  0.00    -0.206 F 
ATOM     87  C   UNL A   1      39.288  35.381  39.281  1.00  0.00     0.060 A 
BRANCH  87  88
ATOM     88  S   UNL A   1      38.936  36.496  40.656  1.00  0.00     0.124 S 
ATOM     89  O   UNL A   1      37.922  35.743  41.390  1.00  0.00    -0.237 OA
ATOM     90  O   UNL A   1      40.236  36.611  41.310  1.00  0.00    -0.237 OA
ATOM     91  O   UNL A   1      38.463  37.709  39.998  1.00  0.00    -0.744 OA
ENDBRANCH  87  88
ENDBRANCH  55  80
ENDBRANCH  29  30
ENDBRANCH  22  24
ENDBRANCH  21  22
ENDBRANCH  20  21
ENDBRANCH   1  20
TORSDOF 17
ENDMDL
