MODEL 1
REMARK VINA RESULT:     -11.3      0.000      0.000
REMARK SMILES O=C(N[C@@H](Cc1ccccc1)C(=O)N[C@@H](CS)C(=O)N[C@@H](CO)C(=O)OCCOC(=O)c1ccc(-c2c3nc(c(-c4c(F)cc(S(=O)(=O)[O-])cc4F)c4ccc([nH]4)c(-c4c(F)cc(S(=O)(=O)[O-])cc4F)c4nc(c(-c5c(F)cc(S(=O)(=O)[O-])cc5F)c5ccc2[nH]5)C=C4)C=C3)cc1)c1ccc(F)cc1
REMARK SMILES IDX 26 1 24 2 25 3 21 4 20 5 18 6 19 7 15 9 14 10 12 11 13 12
REMARK SMILES IDX 4 14 3 15 1 16 2 17 98 19 99 20 104 21 100 22 103 23 101 24
REMARK SMILES IDX 102 25 5 26 6 27 7 28 11 29 8 30 10 31 9 32 16 33 17 34
REMARK SMILES IDX 22 36 23 37 27 39 28 40 29 41 30 42 31 43 32 44 33 45 97 46
REMARK SMILES IDX 34 47 96 48 35 49 36 50 37 51 90 52 38 53 95 54 89 55 91 56
REMARK SMILES IDX 39 57 94 58 88 59 87 60 40 62 74 63 53 64 73 65 54 66 57 67
REMARK SMILES IDX 72 68 92 69 55 70 56 71 71 73 93 74 58 75 41 76 42 77 51 78
REMARK SMILES IDX 43 79 44 80 50 81 52 82 45 83 46 84 47 85 48 86 49 87 75 88
REMARK SMILES IDX 76 89 85 90 77 91 78 92 84 93 86 94 79 95 80 96 81 97 82 98
REMARK SMILES IDX 83 99 59 100 60 101 69 102 61 103 62 104 68 105 70 106
REMARK SMILES IDX 63 107 64 108 65 109 66 110 67 111
REMARK H PARENT 20 8 14 13 3 18 17 35 23 38 91 61 57 72
REMARK Flexibility Score: inf
ROOT
ATOM      1  O   UNL A   1      32.320  30.755  27.435  1.00  0.00    -0.460 OA
ENDROOT
BRANCH   1   2
ATOM      2  C   UNL A   1      31.590  30.890  26.293  1.00  0.00     0.331 C 
ATOM      3  O   UNL A   1      30.955  31.889  25.980  1.00  0.00    -0.250 OA
BRANCH   2   4
ATOM      4  C   UNL A   1      31.607  29.615  25.443  1.00  0.00     0.218 C 
BRANCH   4   5
ATOM      5  N   UNL A   1      32.368  29.729  24.187  1.00  0.00    -0.339 N 
ATOM      6  C   UNL A   1      32.660  28.669  23.380  1.00  0.00     0.244 C 
ATOM      7  O   UNL A   1      33.851  28.353  23.295  1.00  0.00    -0.273 OA
ATOM      8  H   UNL A   1      32.684  30.620  23.915  1.00  0.00     0.164 HD
BRANCH   6   9
ATOM      9  C   UNL A   1      31.552  27.925  22.573  1.00  0.00     0.181 C 
BRANCH   9  10
ATOM     10  N   UNL A   1      32.183  27.055  21.580  1.00  0.00    -0.342 N 
ATOM     11  C   UNL A   1      32.718  25.812  21.633  1.00  0.00     0.243 C 
ATOM     12  O   UNL A   1      33.154  25.377  20.558  1.00  0.00    -0.273 OA
ATOM     13  H   UNL A   1      32.229  27.459  20.683  1.00  0.00     0.164 HD
BRANCH  11  14
ATOM     14  C   UNL A   1      32.837  24.944  22.905  1.00  0.00     0.176 C 
BRANCH  14  15
ATOM     15  N   UNL A   1      33.340  25.694  24.052  1.00  0.00    -0.340 N 
ATOM     16  O   UNL A   1      34.414  25.997  25.997  1.00  0.00    -0.269 OA
ATOM     17  C   UNL A   1      34.258  25.305  24.998  1.00  0.00     0.251 C 
ATOM     18  H   UNL A   1      32.974  26.601  24.163  1.00  0.00     0.164 HD
BRANCH  17  19
ATOM     19  C   UNL A   1      35.015  24.045  24.830  1.00  0.00     0.040 A 
ATOM     20  C   UNL A   1      35.104  23.124  25.883  1.00  0.00     0.017 A 
ATOM     21  C   UNL A   1      35.640  23.782  23.605  1.00  0.00     0.017 A 
ATOM     22  C   UNL A   1      35.872  21.968  25.728  1.00  0.00     0.040 A 
ATOM     23  C   UNL A   1      36.407  22.622  23.455  1.00  0.00     0.040 A 
ATOM     24  C   UNL A   1      36.524  21.733  24.521  1.00  0.00     0.123 A 
ATOM     25  F   UNL A   1      37.280  20.635  24.385  1.00  0.00    -0.207 F 
ENDBRANCH  17  19
ENDBRANCH  14  15
BRANCH  14  26
ATOM     26  C   UNL A   1      31.675  23.980  23.222  1.00  0.00     0.070 C 
BRANCH  26  27
ATOM     27  C   UNL A   1      31.976  22.660  23.888  1.00  0.00    -0.045 A 
ATOM     28  C   UNL A   1      31.683  22.437  25.242  1.00  0.00     0.004 A 
ATOM     29  C   UNL A   1      32.558  21.621  23.146  1.00  0.00     0.004 A 
ATOM     30  C   UNL A   1      31.886  21.179  25.814  1.00  0.00     0.000 A 
ATOM     31  C   UNL A   1      32.774  20.368  23.724  1.00  0.00     0.000 A 
ATOM     32  C   UNL A   1      32.422  20.142  25.052  1.00  0.00     0.000 A 
ENDBRANCH  26  27
ENDBRANCH  14  26
ENDBRANCH  11  14
ENDBRANCH   9  10
BRANCH   9  33
ATOM     33  C   UNL A   1      30.406  27.280  23.356  1.00  0.00     0.101 C 
BRANCH  33  34
ATOM     34  S   UNL A   1      28.806  28.149  23.216  1.00  0.00    -0.177 SA
ATOM     35  H   UNL A   1      28.433  28.205  21.910  1.00  0.00     0.102 HD
ENDBRANCH  33  34
ENDBRANCH   9  33
ENDBRANCH   6   9
ENDBRANCH   4   5
BRANCH   4  36
ATOM     36  C   UNL A   1      32.175  28.476  26.307  1.00  0.00     0.193 C 
BRANCH  36  37
ATOM     37  O   UNL A   1      31.301  28.185  27.404  1.00  0.00    -0.394 OA
ATOM     38  H   UNL A   1      31.481  27.289  27.731  1.00  0.00     0.210 HD
ENDBRANCH  36  37
ENDBRANCH   4  36
ENDBRANCH   2   4
ENDBRANCH   1   2
BRANCH   1  39
ATOM     39  C   UNL A   1      33.441  31.649  27.584  1.00  0.00     0.274 C 
BRANCH  39  40
ATOM     40  C   UNL A   1      34.730  30.845  27.470  1.00  0.00     0.275 C 
BRANCH  40  41
ATOM     41  O   UNL A   1      35.790  31.602  28.081  1.00  0.00    -0.458 OA
BRANCH  41  42
ATOM     42  C   UNL A   1      36.201  31.164  29.295  1.00  0.00     0.338 C 
ATOM     43  O   UNL A   1      35.636  31.342  30.361  1.00  0.00    -0.246 OA
BRANCH  42  44
ATOM     44  C   UNL A   1      37.460  30.397  29.160  1.00  0.00     0.060 A 
ATOM     45  C   UNL A   1      38.189  30.004  30.281  1.00  0.00     0.016 A 
ATOM     46  C   UNL A   1      37.978  30.155  27.885  1.00  0.00     0.016 A 
ATOM     47  C   UNL A   1      39.471  29.467  30.121  1.00  0.00     0.010 A 
ATOM     48  C   UNL A   1      39.224  29.528  27.737  1.00  0.00     0.010 A 
ATOM     49  C   UNL A   1      40.021  29.216  28.853  1.00  0.00    -0.014 A 
BRANCH  49  50
ATOM     50  C   UNL A   1      41.427  28.712  28.686  1.00  0.00     0.031 A 
ATOM     51  C   UNL A   1      42.604  29.622  28.972  1.00  0.00     0.074 A 
ATOM     52  C   UNL A   1      41.699  27.442  28.311  1.00  0.00     0.049 A 
ATOM     53  N   UNL A   1      43.855  29.504  28.600  1.00  0.00    -0.248 NA
ATOM     54  C   UNL A   1      42.329  30.838  29.753  1.00  0.00     0.031 C 
ATOM     55  C   UNL A   1      40.712  26.395  28.047  1.00  0.00     0.029 A 
ATOM     56  N   UNL A   1      42.905  26.810  28.101  1.00  0.00    -0.354 N 
ATOM     57  C   UNL A   1      44.490  30.670  29.019  1.00  0.00     0.074 A 
ATOM     58  C   UNL A   1      43.490  31.475  29.688  1.00  0.00     0.031 C 
ATOM     59  C   UNL A   1      41.347  25.240  27.797  1.00  0.00     0.029 A 
ATOM     60  C   UNL A   1      42.783  25.488  27.743  1.00  0.00     0.049 A 
ATOM     61  H   UNL A   1      43.773  27.263  28.199  1.00  0.00     0.167 HD
ATOM     62  C   UNL A   1      45.783  31.043  28.848  1.00  0.00     0.037 A 
ATOM     63  C   UNL A   1      43.701  24.582  27.351  1.00  0.00     0.037 A 
ATOM     64  C   UNL A   1      46.810  30.191  28.301  1.00  0.00     0.049 A 
ATOM     65  C   UNL A   1      45.135  24.994  27.187  1.00  0.00     0.074 A 
ATOM     66  C   UNL A   1      48.147  30.481  28.087  1.00  0.00     0.029 A 
ATOM     67  N   UNL A   1      46.626  28.869  27.931  1.00  0.00    -0.354 N 
ATOM     68  N   UNL A   1      45.684  26.162  27.414  1.00  0.00    -0.248 NA
ATOM     69  C   UNL A   1      46.065  23.980  26.670  1.00  0.00     0.031 C 
ATOM     70  C   UNL A   1      48.769  29.337  27.571  1.00  0.00     0.029 A 
ATOM     71  C   UNL A   1      47.825  28.327  27.493  1.00  0.00     0.049 A 
ATOM     72  H   UNL A   1      45.770  28.385  27.972  1.00  0.00     0.167 HD
ATOM     73  C   UNL A   1      47.020  26.030  27.051  1.00  0.00     0.074 A 
ATOM     74  C   UNL A   1      47.203  24.659  26.620  1.00  0.00     0.031 C 
ATOM     75  C   UNL A   1      48.000  26.966  27.058  1.00  0.00     0.037 A 
BRANCH  62  76
ATOM     76  C   UNL A   1      46.161  32.455  29.204  1.00  0.00     0.058 A 
ATOM     77  C   UNL A   1      46.045  33.523  28.303  1.00  0.00     0.135 A 
ATOM     78  C   UNL A   1      46.607  32.745  30.506  1.00  0.00     0.135 A 
ATOM     79  F   UNL A   1      45.635  33.308  27.043  1.00  0.00    -0.206 F 
ATOM     80  C   UNL A   1      46.381  34.824  28.672  1.00  0.00     0.059 A 
ATOM     81  C   UNL A   1      46.922  34.040  30.905  1.00  0.00     0.059 A 
ATOM     82  F   UNL A   1      46.731  31.761  31.411  1.00  0.00    -0.206 F 
ATOM     83  C   UNL A   1      46.821  35.072  29.974  1.00  0.00     0.060 A 
BRANCH  83  84
ATOM     84  S   UNL A   1      47.244  36.762  30.446  1.00  0.00     0.124 S 
ATOM     85  O   UNL A   1      46.264  37.023  31.497  1.00  0.00    -0.237 OA
ATOM     86  O   UNL A   1      48.628  36.630  30.892  1.00  0.00    -0.237 OA
ATOM     87  O   UNL A   1      47.058  37.517  29.212  1.00  0.00    -0.744 OA
ENDBRANCH  83  84
ENDBRANCH  62  76
BRANCH  63  88
ATOM     88  C   UNL A   1      43.262  23.203  27.002  1.00  0.00     0.058 A 
ATOM     89  C   UNL A   1      43.287  22.747  25.677  1.00  0.00     0.135 A 
ATOM     90  C   UNL A   1      42.869  22.296  28.000  1.00  0.00     0.135 A 
ATOM     91  F   UNL A   1      43.633  23.584  24.686  1.00  0.00    -0.206 F 
ATOM     92  C   UNL A   1      42.961  21.434  25.353  1.00  0.00     0.059 A 
ATOM     93  C   UNL A   1      42.567  20.973  27.704  1.00  0.00     0.059 A 
ATOM     94  F   UNL A   1      42.832  22.684  29.284  1.00  0.00    -0.206 F 
ATOM     95  C   UNL A   1      42.617  20.550  26.377  1.00  0.00     0.060 A 
BRANCH  95  96
ATOM     96  S   UNL A   1      42.318  18.813  25.977  1.00  0.00     0.124 S 
ATOM     97  O   UNL A   1      43.128  18.646  24.776  1.00  0.00    -0.237 OA
ATOM     98  O   UNL A   1      42.801  18.129  27.173  1.00  0.00    -0.237 OA
ATOM     99  O   UNL A   1      40.873  18.763  25.781  1.00  0.00    -0.744 OA
ENDBRANCH  95  96
ENDBRANCH  63  88
BRANCH  75 100
ATOM    100  C   UNL A   1      49.361  26.539  26.593  1.00  0.00     0.058 A 
ATOM    101  C   UNL A   1      50.249  25.871  27.450  1.00  0.00     0.135 A 
ATOM    102  C   UNL A   1      49.774  26.779  25.272  1.00  0.00     0.135 A 
ATOM    103  F   UNL A   1      49.903  25.625  28.723  1.00  0.00    -0.206 F 
ATOM    104  C   UNL A   1      51.512  25.475  27.020  1.00  0.00     0.059 A 
ATOM    105  C   UNL A   1      51.026  26.375  24.817  1.00  0.00     0.059 A 
ATOM    106  F   UNL A   1      48.958  27.406  24.412  1.00  0.00    -0.206 F 
ATOM    107  C   UNL A   1      51.893  25.737  25.702  1.00  0.00     0.060 A 
BRANCH 107 108
ATOM    108  S   UNL A   1      53.531  25.211  25.152  1.00  0.00     0.124 S 
ATOM    109  O   UNL A   1      54.397  25.923  26.087  1.00  0.00    -0.237 OA
ATOM    110  O   UNL A   1      53.472  23.763  25.319  1.00  0.00    -0.237 OA
ATOM    111  O   UNL A   1      53.587  25.673  23.769  1.00  0.00    -0.744 OA
ENDBRANCH 107 108
ENDBRANCH  75 100
ENDBRANCH  49  50
ENDBRANCH  42  44
ENDBRANCH  41  42
ENDBRANCH  40  41
ENDBRANCH  39  40
ENDBRANCH   1  39
TORSDOF 26
ENDMDL
MODEL 2
REMARK VINA RESULT:     -11.2      1.310      2.328
REMARK SMILES O=C(N[C@@H](Cc1ccccc1)C(=O)N[C@@H](CS)C(=O)N[C@@H](CO)C(=O)OCCOC(=O)c1ccc(-c2c3nc(c(-c4c(F)cc(S(=O)(=O)[O-])cc4F)c4ccc([nH]4)c(-c4c(F)cc(S(=O)(=O)[O-])cc4F)c4nc(c(-c5c(F)cc(S(=O)(=O)[O-])cc5F)c5ccc2[nH]5)C=C4)C=C3)cc1)c1ccc(F)cc1
REMARK SMILES IDX 26 1 24 2 25 3 21 4 20 5 18 6 19 7 15 9 14 10 12 11 13 12
REMARK SMILES IDX 4 14 3 15 1 16 2 17 98 19 99 20 104 21 100 22 103 23 101 24
REMARK SMILES IDX 102 25 5 26 6 27 7 28 11 29 8 30 10 31 9 32 16 33 17 34
REMARK SMILES IDX 22 36 23 37 27 39 28 40 29 41 30 42 31 43 32 44 33 45 97 46
REMARK SMILES IDX 34 47 96 48 35 49 36 50 37 51 90 52 38 53 95 54 89 55 91 56
REMARK SMILES IDX 39 57 94 58 88 59 87 60 40 62 74 63 53 64 73 65 54 66 57 67
REMARK SMILES IDX 72 68 92 69 55 70 56 71 71 73 93 74 58 75 41 76 42 77 51 78
REMARK SMILES IDX 43 79 44 80 50 81 52 82 45 83 46 84 47 85 48 86 49 87 75 88
REMARK SMILES IDX 76 89 85 90 77 91 78 92 84 93 86 94 79 95 80 96 81 97 82 98
REMARK SMILES IDX 83 99 59 100 60 101 69 102 61 103 62 104 68 105 70 106
REMARK SMILES IDX 63 107 64 108 65 109 66 110 67 111
REMARK H PARENT 20 8 14 13 3 18 17 35 23 38 91 61 57 72
REMARK Flexibility Score: inf
ROOT
ATOM      1  O   UNL A   1      33.530  31.223  27.288  1.00  0.00    -0.460 OA
ENDROOT
BRANCH   1   2
ATOM      2  C   UNL A   1      32.446  30.874  26.541  1.00  0.00     0.331 C 
ATOM      3  O   UNL A   1      31.400  31.510  26.484  1.00  0.00    -0.250 OA
BRANCH   2   4
ATOM      4  C   UNL A   1      32.656  29.549  25.802  1.00  0.00     0.218 C 
BRANCH   4   5
ATOM      5  N   UNL A   1      33.128  29.693  24.414  1.00  0.00    -0.339 N 
ATOM      6  C   UNL A   1      33.253  28.648  23.546  1.00  0.00     0.244 C 
ATOM      7  O   UNL A   1      34.402  28.353  23.202  1.00  0.00    -0.273 OA
ATOM      8  H   UNL A   1      33.366  30.593  24.096  1.00  0.00     0.164 HD
BRANCH   6   9
ATOM      9  C   UNL A   1      32.008  27.898  22.982  1.00  0.00     0.181 C 
BRANCH   9  10
ATOM     10  N   UNL A   1      32.367  27.252  21.720  1.00  0.00    -0.342 N 
ATOM     11  C   UNL A   1      32.837  26.022  21.400  1.00  0.00     0.243 C 
ATOM     12  O   UNL A   1      33.011  25.819  20.191  1.00  0.00    -0.273 OA
ATOM     13  H   UNL A   1      32.241  27.834  20.936  1.00  0.00     0.164 HD
BRANCH  11  14
ATOM     14  C   UNL A   1      33.180  24.907  22.412  1.00  0.00     0.176 C 
BRANCH  14  15
ATOM     15  N   UNL A   1      32.948  23.569  21.876  1.00  0.00    -0.340 N 
ATOM     16  O   UNL A   1      32.447  21.384  21.950  1.00  0.00    -0.269 OA
ATOM     17  C   UNL A   1      32.385  22.479  22.496  1.00  0.00     0.251 C 
ATOM     18  H   UNL A   1      33.232  23.428  20.943  1.00  0.00     0.164 HD
BRANCH  17  19
ATOM     19  C   UNL A   1      31.749  22.623  23.825  1.00  0.00     0.040 A 
ATOM     20  C   UNL A   1      30.918  23.717  24.100  1.00  0.00     0.017 A 
ATOM     21  C   UNL A   1      31.986  21.650  24.804  1.00  0.00     0.017 A 
ATOM     22  C   UNL A   1      30.375  23.869  25.378  1.00  0.00     0.040 A 
ATOM     23  C   UNL A   1      31.439  21.807  26.080  1.00  0.00     0.040 A 
ATOM     24  C   UNL A   1      30.648  22.920  26.358  1.00  0.00     0.123 A 
ATOM     25  F   UNL A   1      30.146  23.082  27.589  1.00  0.00    -0.207 F 
ENDBRANCH  17  19
ENDBRANCH  14  15
BRANCH  14  26
ATOM     26  C   UNL A   1      34.482  25.060  23.227  1.00  0.00     0.070 C 
BRANCH  26  27
ATOM     27  C   UNL A   1      34.857  23.986  24.220  1.00  0.00    -0.045 A 
ATOM     28  C   UNL A   1      34.566  24.116  25.586  1.00  0.00     0.004 A 
ATOM     29  C   UNL A   1      35.508  22.825  23.778  1.00  0.00     0.004 A 
ATOM     30  C   UNL A   1      34.840  23.070  26.471  1.00  0.00     0.000 A 
ATOM     31  C   UNL A   1      35.795  21.788  24.667  1.00  0.00     0.000 A 
ATOM     32  C   UNL A   1      35.445  21.902  26.010  1.00  0.00     0.000 A 
ENDBRANCH  26  27
ENDBRANCH  14  26
ENDBRANCH  11  14
ENDBRANCH   9  10
BRANCH   9  33
ATOM     33  C   UNL A   1      31.203  27.021  23.946  1.00  0.00     0.101 C 
BRANCH  33  34
ATOM     34  S   UNL A   1      29.396  27.062  23.681  1.00  0.00    -0.177 SA
ATOM     35  H   UNL A   1      29.121  26.753  22.386  1.00  0.00     0.102 HD
ENDBRANCH  33  34
ENDBRANCH   9  33
ENDBRANCH   6   9
ENDBRANCH   4   5
BRANCH   4  36
ATOM     36  C   UNL A   1      33.649  28.703  26.616  1.00  0.00     0.193 C 
BRANCH  36  37
ATOM     37  O   UNL A   1      34.997  29.119  26.365  1.00  0.00    -0.394 OA
ATOM     38  H   UNL A   1      35.199  29.900  26.904  1.00  0.00     0.210 HD
ENDBRANCH  36  37
ENDBRANCH   4  36
ENDBRANCH   2   4
ENDBRANCH   1   2
BRANCH   1  39
ATOM     39  C   UNL A   1      33.530  32.561  27.826  1.00  0.00     0.274 C 
BRANCH  39  40
ATOM     40  C   UNL A   1      34.550  32.638  28.955  1.00  0.00     0.275 C 
BRANCH  40  41
ATOM     41  O   UNL A   1      35.153  31.340  29.108  1.00  0.00    -0.458 OA
BRANCH  41  42
ATOM     42  C   UNL A   1      35.904  31.168  30.221  1.00  0.00     0.338 C 
ATOM     43  O   UNL A   1      35.613  31.512  31.354  1.00  0.00    -0.246 OA
BRANCH  42  44
ATOM     44  C   UNL A   1      37.163  30.466  29.882  1.00  0.00     0.060 A 
ATOM     45  C   UNL A   1      37.893  29.784  30.854  1.00  0.00     0.016 A 
ATOM     46  C   UNL A   1      37.679  30.577  28.588  1.00  0.00     0.016 A 
ATOM     47  C   UNL A   1      39.175  29.310  30.553  1.00  0.00     0.010 A 
ATOM     48  C   UNL A   1      38.924  30.013  28.275  1.00  0.00     0.010 A 
ATOM     49  C   UNL A   1      39.722  29.412  29.263  1.00  0.00    -0.014 A 
BRANCH  49  50
ATOM     50  C   UNL A   1      41.129  28.971  28.964  1.00  0.00     0.031 A 
ATOM     51  C   UNL A   1      42.285  29.933  29.146  1.00  0.00     0.074 A 
ATOM     52  C   UNL A   1      41.421  27.716  28.557  1.00  0.00     0.049 A 
ATOM     53  N   UNL A   1      43.500  29.873  28.659  1.00  0.00    -0.248 NA
ATOM     54  C   UNL A   1      42.029  31.134  29.956  1.00  0.00     0.031 C 
ATOM     55  C   UNL A   1      40.461  26.626  28.380  1.00  0.00     0.029 A 
ATOM     56  N   UNL A   1      42.629  27.139  28.234  1.00  0.00    -0.354 N 
ATOM     57  C   UNL A   1      44.119  31.065  29.024  1.00  0.00     0.074 A 
ATOM     58  C   UNL A   1      43.150  31.823  29.788  1.00  0.00     0.031 C 
ATOM     59  C   UNL A   1      41.121  25.501  28.065  1.00  0.00     0.029 A 
ATOM     60  C   UNL A   1      42.534  25.813  27.880  1.00  0.00     0.049 A 
ATOM     61  H   UNL A   1      43.482  27.631  28.254  1.00  0.00     0.167 HD
ATOM     62  C   UNL A   1      45.373  31.495  28.737  1.00  0.00     0.037 A 
ATOM     63  C   UNL A   1      43.451  24.950  27.399  1.00  0.00     0.037 A 
ATOM     64  C   UNL A   1      46.381  30.692  28.092  1.00  0.00     0.049 A 
ATOM     65  C   UNL A   1      44.844  25.427  27.107  1.00  0.00     0.074 A 
ATOM     66  C   UNL A   1      47.679  31.042  27.757  1.00  0.00     0.029 A 
ATOM     67  N   UNL A   1      46.223  29.364  27.733  1.00  0.00    -0.354 N 
ATOM     68  N   UNL A   1      45.359  26.618  27.289  1.00  0.00    -0.248 NA
ATOM     69  C   UNL A   1      45.766  24.457  26.500  1.00  0.00     0.031 C 
ATOM     70  C   UNL A   1      48.301  29.928  27.180  1.00  0.00     0.029 A 
ATOM     71  C   UNL A   1      47.399  28.877  27.183  1.00  0.00     0.049 A 
ATOM     72  H   UNL A   1      45.396  28.842  27.849  1.00  0.00     0.167 HD
ATOM     73  C   UNL A   1      46.660  26.547  26.803  1.00  0.00     0.074 A 
ATOM     74  C   UNL A   1      46.864  25.186  26.349  1.00  0.00     0.031 C 
ATOM     75  C   UNL A   1      47.593  27.526  26.725  1.00  0.00     0.037 A 
BRANCH  62  76
ATOM     76  C   UNL A   1      45.719  32.923  29.066  1.00  0.00     0.058 A 
ATOM     77  C   UNL A   1      45.445  33.990  28.197  1.00  0.00     0.135 A 
ATOM     78  C   UNL A   1      46.297  33.225  30.311  1.00  0.00     0.135 A 
ATOM     79  F   UNL A   1      44.903  33.763  26.991  1.00  0.00    -0.206 F 
ATOM     80  C   UNL A   1      45.756  35.304  28.542  1.00  0.00     0.059 A 
ATOM     81  C   UNL A   1      46.592  34.532  30.687  1.00  0.00     0.059 A 
ATOM     82  F   UNL A   1      46.575  32.243  31.183  1.00  0.00    -0.206 F 
ATOM     83  C   UNL A   1      46.332  35.564  29.788  1.00  0.00     0.060 A 
BRANCH  83  84
ATOM     84  S   UNL A   1      46.723  37.271  30.230  1.00  0.00     0.124 S 
ATOM     85  O   UNL A   1      45.594  37.987  29.643  1.00  0.00    -0.237 OA
ATOM     86  O   UNL A   1      46.750  37.222  31.688  1.00  0.00    -0.237 OA
ATOM     87  O   UNL A   1      48.014  37.501  29.591  1.00  0.00    -0.744 OA
ENDBRANCH  83  84
ENDBRANCH  62  76
BRANCH  63  88
ATOM     88  C   UNL A   1      43.043  23.554  27.084  1.00  0.00     0.058 A 
ATOM     89  C   UNL A   1      42.839  23.139  25.761  1.00  0.00     0.135 A 
ATOM     90  C   UNL A   1      42.912  22.593  28.100  1.00  0.00     0.135 A 
ATOM     91  F   UNL A   1      42.930  24.026  24.758  1.00  0.00    -0.206 F 
ATOM     92  C   UNL A   1      42.543  21.815  25.451  1.00  0.00     0.059 A 
ATOM     93  C   UNL A   1      42.646  21.260  27.813  1.00  0.00     0.059 A 
ATOM     94  F   UNL A   1      43.102  22.940  29.382  1.00  0.00    -0.206 F 
ATOM     95  C   UNL A   1      42.464  20.880  26.484  1.00  0.00     0.060 A 
BRANCH  95  96
ATOM     96  S   UNL A   1      42.207  19.138  26.077  1.00  0.00     0.124 S 
ATOM     97  O   UNL A   1      40.769  19.103  25.836  1.00  0.00    -0.237 OA
ATOM     98  O   UNL A   1      43.056  18.963  24.902  1.00  0.00    -0.237 OA
ATOM     99  O   UNL A   1      42.667  18.447  27.277  1.00  0.00    -0.744 OA
ENDBRANCH  95  96
ENDBRANCH  63  88
BRANCH  75 100
ATOM    100  C   UNL A   1      48.924  27.162  26.134  1.00  0.00     0.058 A 
ATOM    101  C   UNL A   1      49.198  27.364  24.773  1.00  0.00     0.135 A 
ATOM    102  C   UNL A   1      49.942  26.627  26.939  1.00  0.00     0.135 A 
ATOM    103  F   UNL A   1      48.255  27.867  23.961  1.00  0.00    -0.206 F 
ATOM    104  C   UNL A   1      50.431  27.026  24.223  1.00  0.00     0.059 A 
ATOM    105  C   UNL A   1      51.188  26.298  26.413  1.00  0.00     0.059 A 
ATOM    106  F   UNL A   1      49.731  26.421  28.247  1.00  0.00    -0.206 F 
ATOM    107  C   UNL A   1      51.418  26.488  25.051  1.00  0.00     0.060 A 
BRANCH 107 108
ATOM    108  S   UNL A   1      53.018  26.061  24.330  1.00  0.00     0.124 S 
ATOM    109  O   UNL A   1      52.710  26.072  22.904  1.00  0.00    -0.237 OA
ATOM    110  O   UNL A   1      53.877  27.142  24.802  1.00  0.00    -0.237 OA
ATOM    111  O   UNL A   1      53.306  24.748  24.900  1.00  0.00    -0.744 OA
ENDBRANCH 107 108
ENDBRANCH  75 100
ENDBRANCH  49  50
ENDBRANCH  42  44
ENDBRANCH  41  42
ENDBRANCH  40  41
ENDBRANCH  39  40
ENDBRANCH   1  39
TORSDOF 26
ENDMDL
MODEL 3
REMARK VINA RESULT:     -11.1      3.227      9.579
REMARK SMILES O=C(N[C@@H](Cc1ccccc1)C(=O)N[C@@H](CS)C(=O)N[C@@H](CO)C(=O)OCCOC(=O)c1ccc(-c2c3nc(c(-c4c(F)cc(S(=O)(=O)[O-])cc4F)c4ccc([nH]4)c(-c4c(F)cc(S(=O)(=O)[O-])cc4F)c4nc(c(-c5c(F)cc(S(=O)(=O)[O-])cc5F)c5ccc2[nH]5)C=C4)C=C3)cc1)c1ccc(F)cc1
REMARK SMILES IDX 26 1 24 2 25 3 21 4 20 5 18 6 19 7 15 9 14 10 12 11 13 12
REMARK SMILES IDX 4 14 3 15 1 16 2 17 98 19 99 20 104 21 100 22 103 23 101 24
REMARK SMILES IDX 102 25 5 26 6 27 7 28 11 29 8 30 10 31 9 32 16 33 17 34
REMARK SMILES IDX 22 36 23 37 27 39 28 40 29 41 30 42 31 43 32 44 33 45 97 46
REMARK SMILES IDX 34 47 96 48 35 49 36 50 37 51 90 52 38 53 95 54 89 55 91 56
REMARK SMILES IDX 39 57 94 58 88 59 87 60 40 62 74 63 53 64 73 65 54 66 57 67
REMARK SMILES IDX 72 68 92 69 55 70 56 71 71 73 93 74 58 75 41 76 42 77 51 78
REMARK SMILES IDX 43 79 44 80 50 81 52 82 45 83 46 84 47 85 48 86 49 87 75 88
REMARK SMILES IDX 76 89 85 90 77 91 78 92 84 93 86 94 79 95 80 96 81 97 82 98
REMARK SMILES IDX 83 99 59 100 60 101 69 102 61 103 62 104 68 105 70 106
REMARK SMILES IDX 63 107 64 108 65 109 66 110 67 111
REMARK H PARENT 20 8 14 13 3 18 17 35 23 38 91 61 57 72
REMARK Flexibility Score: inf
ROOT
ATOM      1  O   UNL A   1      35.446  20.109  24.992  1.00  0.00    -0.460 OA
ENDROOT
BRANCH   1   2
ATOM      2  C   UNL A   1      34.272  20.405  25.616  1.00  0.00     0.331 C 
ATOM      3  O   UNL A   1      34.173  20.808  26.768  1.00  0.00    -0.250 OA
BRANCH   2   4
ATOM      4  C   UNL A   1      33.058  20.128  24.724  1.00  0.00     0.218 C 
BRANCH   4   5
ATOM      5  N   UNL A   1      32.988  20.962  23.513  1.00  0.00    -0.339 N 
ATOM      6  C   UNL A   1      32.142  22.023  23.372  1.00  0.00     0.244 C 
ATOM      7  O   UNL A   1      31.242  21.903  22.535  1.00  0.00    -0.273 OA
ATOM      8  H   UNL A   1      33.584  20.742  22.762  1.00  0.00     0.164 HD
BRANCH   6   9
ATOM      9  C   UNL A   1      32.331  23.336  24.193  1.00  0.00     0.181 C 
BRANCH   9  10
ATOM     10  N   UNL A   1      31.552  23.247  25.428  1.00  0.00    -0.342 N 
ATOM     11  C   UNL A   1      30.878  24.154  26.175  1.00  0.00     0.243 C 
ATOM     12  O   UNL A   1      30.305  23.698  27.174  1.00  0.00    -0.273 OA
ATOM     13  H   UNL A   1      31.509  22.335  25.796  1.00  0.00     0.164 HD
BRANCH  11  14
ATOM     14  C   UNL A   1      30.803  25.669  25.885  1.00  0.00     0.176 C 
BRANCH  14  15
ATOM     15  N   UNL A   1      29.698  26.018  24.997  1.00  0.00    -0.340 N 
ATOM     16  O   UNL A   1      28.653  27.142  23.361  1.00  0.00    -0.269 OA
ATOM     17  C   UNL A   1      29.715  26.806  23.870  1.00  0.00     0.251 C 
ATOM     18  H   UNL A   1      28.822  25.636  25.235  1.00  0.00     0.164 HD
BRANCH  17  19
ATOM     19  C   UNL A   1      31.001  27.275  23.308  1.00  0.00     0.040 A 
ATOM     20  C   UNL A   1      31.818  26.400  22.577  1.00  0.00     0.017 A 
ATOM     21  C   UNL A   1      31.391  28.605  23.511  1.00  0.00     0.017 A 
ATOM     22  C   UNL A   1      33.056  26.842  22.105  1.00  0.00     0.040 A 
ATOM     23  C   UNL A   1      32.631  29.041  23.034  1.00  0.00     0.040 A 
ATOM     24  C   UNL A   1      33.455  28.154  22.346  1.00  0.00     0.123 A 
ATOM     25  F   UNL A   1      34.653  28.566  21.913  1.00  0.00    -0.207 F 
ENDBRANCH  17  19
ENDBRANCH  14  15
BRANCH  14  26
ATOM     26  C   UNL A   1      31.007  26.634  27.072  1.00  0.00     0.070 C 
BRANCH  26  27
ATOM     27  C   UNL A   1      32.030  27.737  26.955  1.00  0.00    -0.045 A 
ATOM     28  C   UNL A   1      33.325  27.490  26.475  1.00  0.00     0.004 A 
ATOM     29  C   UNL A   1      31.689  29.047  27.327  1.00  0.00     0.004 A 
ATOM     30  C   UNL A   1      34.225  28.542  26.289  1.00  0.00     0.000 A 
ATOM     31  C   UNL A   1      32.596  30.094  27.155  1.00  0.00     0.000 A 
ATOM     32  C   UNL A   1      33.857  29.845  26.619  1.00  0.00     0.000 A 
ENDBRANCH  26  27
ENDBRANCH  14  26
ENDBRANCH  11  14
ENDBRANCH   9  10
BRANCH   9  33
ATOM     33  C   UNL A   1      33.754  23.872  24.369  1.00  0.00     0.101 C 
BRANCH  33  34
ATOM     34  S   UNL A   1      34.273  24.096  26.106  1.00  0.00    -0.177 SA
ATOM     35  H   UNL A   1      33.474  25.020  26.702  1.00  0.00     0.102 HD
ENDBRANCH  33  34
ENDBRANCH   9  33
ENDBRANCH   6   9
ENDBRANCH   4   5
BRANCH   4  36
ATOM     36  C   UNL A   1      33.078  18.638  24.343  1.00  0.00     0.193 C 
BRANCH  36  37
ATOM     37  O   UNL A   1      33.700  17.858  25.371  1.00  0.00    -0.394 OA
ATOM     38  H   UNL A   1      34.203  17.133  24.967  1.00  0.00     0.210 HD
ENDBRANCH  36  37
ENDBRANCH   4  36
ENDBRANCH   2   4
ENDBRANCH   1   2
BRANCH   1  39
ATOM     39  C   UNL A   1      36.258  21.232  24.595  1.00  0.00     0.274 C 
BRANCH  39  40
ATOM     40  C   UNL A   1      37.697  20.975  25.024  1.00  0.00     0.275 C 
BRANCH  40  41
ATOM     41  O   UNL A   1      38.048  21.942  26.030  1.00  0.00    -0.458 OA
BRANCH  41  42
ATOM     42  C   UNL A   1      39.359  21.993  26.365  1.00  0.00     0.338 C 
ATOM     43  O   UNL A   1      40.181  21.105  26.219  1.00  0.00    -0.246 OA
BRANCH  42  44
ATOM     44  C   UNL A   1      39.687  23.321  26.934  1.00  0.00     0.060 A 
ATOM     45  C   UNL A   1      39.053  24.476  26.481  1.00  0.00     0.016 A 
ATOM     46  C   UNL A   1      40.722  23.426  27.866  1.00  0.00     0.016 A 
ATOM     47  C   UNL A   1      39.526  25.730  26.884  1.00  0.00     0.010 A 
ATOM     48  C   UNL A   1      41.123  24.685  28.336  1.00  0.00     0.010 A 
ATOM     49  C   UNL A   1      40.568  25.868  27.816  1.00  0.00    -0.014 A 
BRANCH  49  50
ATOM     50  C   UNL A   1      41.124  27.215  28.188  1.00  0.00     0.031 A 
ATOM     51  C   UNL A   1      42.590  27.525  27.959  1.00  0.00     0.074 A 
ATOM     52  C   UNL A   1      40.353  28.198  28.701  1.00  0.00     0.049 A 
ATOM     53  N   UNL A   1      43.329  28.472  28.481  1.00  0.00    -0.248 NA
ATOM     54  C   UNL A   1      43.323  26.633  27.047  1.00  0.00     0.031 C 
ATOM     55  C   UNL A   1      38.911  28.121  28.941  1.00  0.00     0.029 A 
ATOM     56  N   UNL A   1      40.680  29.475  29.102  1.00  0.00    -0.354 N 
ATOM     57  C   UNL A   1      44.627  28.234  28.037  1.00  0.00     0.074 A 
ATOM     58  C   UNL A   1      44.570  27.061  27.189  1.00  0.00     0.031 C 
ATOM     59  C   UNL A   1      38.468  29.315  29.363  1.00  0.00     0.029 A 
ATOM     60  C   UNL A   1      39.607  30.205  29.559  1.00  0.00     0.049 A 
ATOM     61  H   UNL A   1      41.596  29.831  29.065  1.00  0.00     0.167 HD
ATOM     62  C   UNL A   1      45.762  28.919  28.321  1.00  0.00     0.037 A 
ATOM     63  C   UNL A   1      39.536  31.422  30.132  1.00  0.00     0.037 A 
ATOM     64  C   UNL A   1      45.803  30.158  29.056  1.00  0.00     0.049 A 
ATOM     65  C   UNL A   1      40.795  32.186  30.422  1.00  0.00     0.074 A 
ATOM     66  C   UNL A   1      46.906  30.924  29.395  1.00  0.00     0.029 A 
ATOM     67  N   UNL A   1      44.689  30.840  29.517  1.00  0.00    -0.354 N 
ATOM     68  N   UNL A   1      42.035  31.855  30.158  1.00  0.00    -0.248 NA
ATOM     69  C   UNL A   1      40.650  33.466  31.129  1.00  0.00     0.031 C 
ATOM     70  C   UNL A   1      46.459  32.063  30.077  1.00  0.00     0.029 A 
ATOM     71  C   UNL A   1      45.077  32.020  30.135  1.00  0.00     0.049 A 
ATOM     72  H   UNL A   1      43.759  30.533  29.421  1.00  0.00     0.167 HD
ATOM     73  C   UNL A   1      42.820  32.875  30.682  1.00  0.00     0.074 A 
ATOM     74  C   UNL A   1      41.914  33.852  31.250  1.00  0.00     0.031 C 
ATOM     75  C   UNL A   1      44.171  32.983  30.706  1.00  0.00     0.037 A 
BRANCH  62  76
ATOM     76  C   UNL A   1      47.073  28.318  27.888  1.00  0.00     0.058 A 
ATOM     77  C   UNL A   1      47.748  27.345  28.639  1.00  0.00     0.135 A 
ATOM     78  C   UNL A   1      47.636  28.701  26.658  1.00  0.00     0.135 A 
ATOM     79  F   UNL A   1      47.265  26.946  29.826  1.00  0.00    -0.206 F 
ATOM     80  C   UNL A   1      48.948  26.791  28.198  1.00  0.00     0.059 A 
ATOM     81  C   UNL A   1      48.819  28.143  26.185  1.00  0.00     0.059 A 
ATOM     82  F   UNL A   1      47.028  29.625  25.896  1.00  0.00    -0.206 F 
ATOM     83  C   UNL A   1      49.477  27.199  26.971  1.00  0.00     0.060 A 
BRANCH  83  84
ATOM     84  S   UNL A   1      51.027  26.468  26.402  1.00  0.00     0.124 S 
ATOM     85  O   UNL A   1      50.633  25.927  25.104  1.00  0.00    -0.237 OA
ATOM     86  O   UNL A   1      51.924  27.619  26.360  1.00  0.00    -0.237 OA
ATOM     87  O   UNL A   1      51.334  25.478  27.429  1.00  0.00    -0.744 OA
ENDBRANCH  83  84
ENDBRANCH  62  76
BRANCH  63  88
ATOM     88  C   UNL A   1      38.210  31.957  30.548  1.00  0.00     0.058 A 
ATOM     89  C   UNL A   1      37.682  31.679  31.816  1.00  0.00     0.135 A 
ATOM     90  C   UNL A   1      37.477  32.807  29.705  1.00  0.00     0.135 A 
ATOM     91  F   UNL A   1      38.334  30.852  32.649  1.00  0.00    -0.206 F 
ATOM     92  C   UNL A   1      36.485  32.244  32.246  1.00  0.00     0.059 A 
ATOM     93  C   UNL A   1      36.295  33.406  30.122  1.00  0.00     0.059 A 
ATOM     94  F   UNL A   1      37.943  33.107  28.482  1.00  0.00    -0.206 F 
ATOM     95  C   UNL A   1      35.807  33.119  31.395  1.00  0.00     0.060 A 
BRANCH  95  96
ATOM     96  S   UNL A   1      34.321  33.954  31.995  1.00  0.00     0.124 S 
ATOM     97  O   UNL A   1      33.661  34.312  30.745  1.00  0.00    -0.237 OA
ATOM     98  O   UNL A   1      33.672  32.911  32.784  1.00  0.00    -0.237 OA
ATOM     99  O   UNL A   1      34.858  35.067  32.771  1.00  0.00    -0.744 OA
ENDBRANCH  95  96
ENDBRANCH  63  88
BRANCH  75 100
ATOM    100  C   UNL A   1      44.752  34.203  31.359  1.00  0.00     0.058 A 
ATOM    101  C   UNL A   1      45.101  34.207  32.718  1.00  0.00     0.135 A 
ATOM    102  C   UNL A   1      44.983  35.371  30.616  1.00  0.00     0.135 A 
ATOM    103  F   UNL A   1      44.893  33.116  33.472  1.00  0.00    -0.206 F 
ATOM    104  C   UNL A   1      45.639  35.337  33.325  1.00  0.00     0.059 A 
ATOM    105  C   UNL A   1      45.537  36.506  31.200  1.00  0.00     0.059 A 
ATOM    106  F   UNL A   1      44.674  35.414  29.311  1.00  0.00    -0.206 F 
ATOM    107  C   UNL A   1      45.849  36.485  32.558  1.00  0.00     0.060 A 
BRANCH 107 108
ATOM    108  S   UNL A   1      46.556  37.944  33.354  1.00  0.00     0.124 S 
ATOM    109  O   UNL A   1      45.376  38.546  33.966  1.00  0.00    -0.237 OA
ATOM    110  O   UNL A   1      47.524  37.363  34.279  1.00  0.00    -0.237 OA
ATOM    111  O   UNL A   1      47.134  38.689  32.240  1.00  0.00    -0.744 OA
ENDBRANCH 107 108
ENDBRANCH  75 100
ENDBRANCH  49  50
ENDBRANCH  42  44
ENDBRANCH  41  42
ENDBRANCH  40  41
ENDBRANCH  39  40
ENDBRANCH   1  39
TORSDOF 26
ENDMDL
