MODEL 1
REMARK VINA RESULT:     -11.5      0.000      0.000
REMARK SMILES CCn1c(C)cc(/C=C(/C(=O)OCCOC(=O)c2ccc(-c3c4nc(c(-c5c(F)cc(S(=O)(=O)[O-])cc5F)c5ccc([nH]5)c(-c5c(F)cc(S(=O)(=O)[O-])cc5F)c5nc(c(-c6c(F)cc(S(=O)(=O)[O-])cc6F)c6ccc3[nH]6)C=C5)C=C4)cc2)c2ccccc2)c1C
REMARK SMILES IDX 14 1 13 2 12 3 10 4 11 5 9 6 8 7 7 8 3 9 4 10 90 11 5 12
REMARK SMILES IDX 6 13 91 14 2 15 1 16 84 17 85 18 89 19 86 20 88 21 87 22
REMARK SMILES IDX 15 23 16 24 17 25 18 26 19 27 83 28 20 29 82 30 21 31 22 32
REMARK SMILES IDX 23 33 76 34 24 35 81 36 75 37 77 38 25 39 80 40 74 41 73 42
REMARK SMILES IDX 26 44 60 45 39 46 59 47 40 48 43 49 58 50 78 51 41 52 42 53
REMARK SMILES IDX 57 55 79 56 44 57 27 58 28 59 37 60 29 61 30 62 36 63 38 64
REMARK SMILES IDX 31 65 32 66 33 67 34 68 35 69 61 70 62 71 71 72 63 73 64 74
REMARK SMILES IDX 70 75 72 76 65 77 66 78 67 79 68 80 69 81 45 82 46 83 55 84
REMARK SMILES IDX 47 85 48 86 54 87 56 88 49 89 50 90 51 91 52 92 53 93
REMARK H PARENT 77 43 43 54
REMARK Flexibility Score: inf
ROOT
ATOM      1  C   UNL A   1      33.645  31.726  27.614  1.00  0.00     0.275 C 
ENDROOT
BRANCH   1   2
ATOM      2  C   UNL A   1      33.863  30.182  27.734  1.00  0.00     0.275 C 
BRANCH   2   3
ATOM      3  O   UNL A   1      33.282  29.482  26.603  1.00  0.00    -0.458 OA
BRANCH   3   4
ATOM      4  C   UNL A   1      32.366  28.515  26.868  1.00  0.00     0.338 C 
ATOM      5  O   UNL A   1      31.450  28.578  27.696  1.00  0.00    -0.246 OA
BRANCH   4   6
ATOM      6  C   UNL A   1      32.481  27.414  25.856  1.00  0.00     0.067 C 
ATOM      7  C   UNL A   1      33.281  26.346  26.109  1.00  0.00     0.026 C 
BRANCH   7   8
ATOM      8  C   UNL A   1      33.576  25.094  25.409  1.00  0.00    -0.004 A 
ATOM      9  N   UNL A   1      33.658  22.977  24.606  1.00  0.00    -0.349 N 
ATOM     10  C   UNL A   1      34.795  23.619  24.143  1.00  0.00     0.015 A 
ATOM     11  C   UNL A   1      32.851  23.911  25.237  1.00  0.00     0.022 A 
ATOM     12  C   UNL A   1      35.807  22.942  23.279  1.00  0.00     0.064 C 
ATOM     13  C   UNL A   1      34.771  24.907  24.644  1.00  0.00     0.031 A 
ATOM     14  C   UNL A   1      31.453  23.592  25.584  1.00  0.00     0.065 C 
BRANCH   9  15
ATOM     15  C   UNL A   1      33.477  21.536  24.422  1.00  0.00     0.118 C 
ATOM     16  C   UNL A   1      33.822  20.517  25.500  1.00  0.00     0.027 C 
ENDBRANCH   9  15
ENDBRANCH   7   8
BRANCH   6  17
ATOM     17  C   UNL A   1      31.619  27.625  24.691  1.00  0.00    -0.011 A 
ATOM     18  C   UNL A   1      30.384  26.962  24.620  1.00  0.00     0.009 A 
ATOM     19  C   UNL A   1      32.017  28.476  23.655  1.00  0.00     0.009 A 
ATOM     20  C   UNL A   1      29.494  27.262  23.592  1.00  0.00     0.001 A 
ATOM     21  C   UNL A   1      31.130  28.757  22.614  1.00  0.00     0.001 A 
ATOM     22  C   UNL A   1      29.859  28.177  22.604  1.00  0.00     0.000 A 
ENDBRANCH   6  17
ENDBRANCH   4   6
ENDBRANCH   3   4
ENDBRANCH   2   3
ENDBRANCH   1   2
BRANCH   1  23
ATOM     23  O   UNL A   1      34.649  32.658  28.198  1.00  0.00    -0.458 OA
BRANCH  23  24
ATOM     24  C   UNL A   1      34.942  32.493  29.546  1.00  0.00     0.338 C 
ATOM     25  O   UNL A   1      34.246  32.995  30.419  1.00  0.00    -0.246 OA
BRANCH  24  26
ATOM     26  C   UNL A   1      36.241  31.722  29.921  1.00  0.00     0.060 A 
ATOM     27  C   UNL A   1      37.399  31.749  29.147  1.00  0.00     0.016 A 
ATOM     28  C   UNL A   1      36.252  30.703  30.907  1.00  0.00     0.016 A 
ATOM     29  C   UNL A   1      38.519  30.840  29.403  1.00  0.00     0.010 A 
ATOM     30  C   UNL A   1      37.377  29.763  31.141  1.00  0.00     0.010 A 
ATOM     31  C   UNL A   1      38.582  29.793  30.409  1.00  0.00    -0.014 A 
BRANCH  31  32
ATOM     32  C   UNL A   1      39.658  28.530  30.170  1.00  0.00     0.031 A 
ATOM     33  C   UNL A   1      40.328  28.499  31.503  1.00  0.00     0.074 A 
ATOM     34  C   UNL A   1      40.221  27.642  29.215  1.00  0.00     0.049 A 
ATOM     35  N   UNL A   1      40.861  29.594  31.975  1.00  0.00    -0.248 NA
ATOM     36  C   UNL A   1      40.112  27.457  32.506  1.00  0.00     0.031 C 
ATOM     37  C   UNL A   1      39.988  27.618  27.755  1.00  0.00     0.029 A 
ATOM     38  N   UNL A   1      41.166  26.530  29.285  1.00  0.00    -0.354 N 
ATOM     39  C   UNL A   1      41.401  29.260  33.186  1.00  0.00     0.074 A 
ATOM     40  C   UNL A   1      40.675  28.053  33.565  1.00  0.00     0.031 C 
ATOM     41  C   UNL A   1      40.563  26.535  27.139  1.00  0.00     0.029 A 
ATOM     42  C   UNL A   1      41.328  25.706  28.075  1.00  0.00     0.049 A 
ATOM     43  H   UNL A   1      41.672  26.337  30.108  1.00  0.00     0.167 HD
ATOM     44  C   UNL A   1      42.741  29.506  33.290  1.00  0.00     0.037 A 
ATOM     45  C   UNL A   1      42.065  24.530  27.800  1.00  0.00     0.037 A 
ATOM     46  C   UNL A   1      43.525  28.310  33.127  1.00  0.00     0.049 A 
ATOM     47  C   UNL A   1      43.214  24.573  28.713  1.00  0.00     0.074 A 
ATOM     48  C   UNL A   1      43.388  27.021  33.602  1.00  0.00     0.029 A 
ATOM     49  N   UNL A   1      44.351  28.240  32.025  1.00  0.00    -0.354 N 
ATOM     50  N   UNL A   1      44.234  25.350  28.510  1.00  0.00    -0.248 NA
ATOM     51  C   UNL A   1      43.322  23.678  29.860  1.00  0.00     0.031 C 
ATOM     52  C   UNL A   1      43.696  26.196  32.502  1.00  0.00     0.029 A 
ATOM     53  C   UNL A   1      44.398  26.941  31.565  1.00  0.00     0.049 A 
ATOM     54  H   UNL A   1      44.832  29.000  31.627  1.00  0.00     0.167 HD
ATOM     55  C   UNL A   1      44.789  25.441  29.748  1.00  0.00     0.074 A 
ATOM     56  C   UNL A   1      44.389  24.230  30.441  1.00  0.00     0.031 C 
ATOM     57  C   UNL A   1      44.930  26.695  30.244  1.00  0.00     0.037 A 
BRANCH  44  58
ATOM     58  C   UNL A   1      43.143  30.867  32.780  1.00  0.00     0.058 A 
ATOM     59  C   UNL A   1      43.426  31.881  33.701  1.00  0.00     0.135 A 
ATOM     60  C   UNL A   1      43.112  31.224  31.413  1.00  0.00     0.135 A 
ATOM     61  F   UNL A   1      43.500  31.598  35.012  1.00  0.00    -0.206 F 
ATOM     62  C   UNL A   1      43.615  33.200  33.294  1.00  0.00     0.059 A 
ATOM     63  C   UNL A   1      43.251  32.541  30.987  1.00  0.00     0.059 A 
ATOM     64  F   UNL A   1      42.927  30.284  30.470  1.00  0.00    -0.206 F 
ATOM     65  C   UNL A   1      43.497  33.525  31.939  1.00  0.00     0.060 A 
BRANCH  65  66
ATOM     66  S   UNL A   1      43.626  35.263  31.461  1.00  0.00     0.124 S 
ATOM     67  O   UNL A   1      42.803  35.313  30.255  1.00  0.00    -0.237 OA
ATOM     68  O   UNL A   1      43.063  35.934  32.626  1.00  0.00    -0.237 OA
ATOM     69  O   UNL A   1      45.055  35.456  31.237  1.00  0.00    -0.744 OA
ENDBRANCH  65  66
ENDBRANCH  44  58
BRANCH  45  70
ATOM     70  C   UNL A   1      42.274  23.287  26.809  1.00  0.00     0.058 A 
ATOM     71  C   UNL A   1      43.149  23.367  25.654  1.00  0.00     0.135 A 
ATOM     72  C   UNL A   1      41.984  21.955  27.147  1.00  0.00     0.135 A 
ATOM     73  F   UNL A   1      43.483  24.548  25.112  1.00  0.00    -0.206 F 
ATOM     74  C   UNL A   1      43.794  22.270  25.034  1.00  0.00     0.059 A 
ATOM     75  C   UNL A   1      42.603  20.827  26.513  1.00  0.00     0.059 A 
ATOM     76  F   UNL A   1      41.145  21.697  28.158  1.00  0.00    -0.206 F 
ATOM     77  C   UNL A   1      43.555  20.994  25.504  1.00  0.00     0.060 A 
BRANCH  77  78
ATOM     78  S   UNL A   1      44.616  19.621  24.918  1.00  0.00     0.124 S 
ATOM     79  O   UNL A   1      45.933  19.981  25.431  1.00  0.00    -0.237 OA
ATOM     80  O   UNL A   1      43.995  18.454  25.543  1.00  0.00    -0.237 OA
ATOM     81  O   UNL A   1      44.474  19.681  23.465  1.00  0.00    -0.744 OA
ENDBRANCH  77  78
ENDBRANCH  45  70
BRANCH  57  82
ATOM     82  C   UNL A   1      45.501  27.761  29.325  1.00  0.00     0.058 A 
ATOM     83  C   UNL A   1      46.863  28.090  29.129  1.00  0.00     0.135 A 
ATOM     84  C   UNL A   1      44.573  28.544  28.618  1.00  0.00     0.135 A 
ATOM     85  F   UNL A   1      47.857  27.361  29.658  1.00  0.00    -0.206 F 
ATOM     86  C   UNL A   1      47.258  29.180  28.348  1.00  0.00     0.059 A 
ATOM     87  C   UNL A   1      44.948  29.596  27.787  1.00  0.00     0.059 A 
ATOM     88  F   UNL A   1      43.259  28.282  28.726  1.00  0.00    -0.206 F 
ATOM     89  C   UNL A   1      46.292  29.933  27.688  1.00  0.00     0.060 A 
BRANCH  89  90
ATOM     90  S   UNL A   1      46.803  31.350  26.693  1.00  0.00     0.124 S 
ATOM     91  O   UNL A   1      46.394  32.470  27.536  1.00  0.00    -0.237 OA
ATOM     92  O   UNL A   1      48.242  31.150  26.568  1.00  0.00    -0.237 OA
ATOM     93  O   UNL A   1      46.034  31.192  25.462  1.00  0.00    -0.744 OA
ENDBRANCH  89  90
ENDBRANCH  57  82
ENDBRANCH  31  32
ENDBRANCH  24  26
ENDBRANCH  23  24
ENDBRANCH   1  23
TORSDOF 17
ENDMDL
MODEL 2
REMARK VINA RESULT:     -10.9      4.748     10.229
REMARK SMILES CCn1c(C)cc(/C=C(/C(=O)OCCOC(=O)c2ccc(-c3c4nc(c(-c5c(F)cc(S(=O)(=O)[O-])cc5F)c5ccc([nH]5)c(-c5c(F)cc(S(=O)(=O)[O-])cc5F)c5nc(c(-c6c(F)cc(S(=O)(=O)[O-])cc6F)c6ccc3[nH]6)C=C5)C=C4)cc2)c2ccccc2)c1C
REMARK SMILES IDX 14 1 13 2 12 3 10 4 11 5 9 6 8 7 7 8 3 9 4 10 90 11 5 12
REMARK SMILES IDX 6 13 91 14 2 15 1 16 84 17 85 18 89 19 86 20 88 21 87 22
REMARK SMILES IDX 15 23 16 24 17 25 18 26 19 27 83 28 20 29 82 30 21 31 22 32
REMARK SMILES IDX 23 33 76 34 24 35 81 36 75 37 77 38 25 39 80 40 74 41 73 42
REMARK SMILES IDX 26 44 60 45 39 46 59 47 40 48 43 49 58 50 78 51 41 52 42 53
REMARK SMILES IDX 57 55 79 56 44 57 27 58 28 59 37 60 29 61 30 62 36 63 38 64
REMARK SMILES IDX 31 65 32 66 33 67 34 68 35 69 61 70 62 71 71 72 63 73 64 74
REMARK SMILES IDX 70 75 72 76 65 77 66 78 67 79 68 80 69 81 45 82 46 83 55 84
REMARK SMILES IDX 47 85 48 86 54 87 56 88 49 89 50 90 51 91 52 92 53 93
REMARK H PARENT 77 43 43 54
REMARK Flexibility Score: inf
ROOT
ATOM      1  C   UNL A   1      43.589  18.572  25.879  1.00  0.00     0.275 C 
ENDROOT
BRANCH   1   2
ATOM      2  C   UNL A   1      42.345  19.477  25.600  1.00  0.00     0.275 C 
BRANCH   2   3
ATOM      3  O   UNL A   1      41.784  19.991  26.836  1.00  0.00    -0.458 OA
BRANCH   3   4
ATOM      4  C   UNL A   1      41.999  21.300  27.125  1.00  0.00     0.338 C 
ATOM      5  O   UNL A   1      43.059  21.801  27.517  1.00  0.00    -0.246 OA
BRANCH   4   6
ATOM      6  C   UNL A   1      40.816  22.117  26.699  1.00  0.00     0.067 C 
ATOM      7  C   UNL A   1      39.703  21.498  26.225  1.00  0.00     0.026 C 
BRANCH   7   8
ATOM      8  C   UNL A   1      38.379  21.953  25.796  1.00  0.00    -0.004 A 
ATOM      9  N   UNL A   1      36.343  22.246  24.844  1.00  0.00    -0.349 N 
ATOM     10  C   UNL A   1      36.640  23.423  25.513  1.00  0.00     0.015 A 
ATOM     11  C   UNL A   1      37.321  21.311  25.146  1.00  0.00     0.022 A 
ATOM     12  C   UNL A   1      35.711  24.591  25.537  1.00  0.00     0.064 C 
ATOM     13  C   UNL A   1      37.891  23.267  26.080  1.00  0.00     0.031 A 
ATOM     14  C   UNL A   1      37.133  19.885  24.812  1.00  0.00     0.065 C 
BRANCH   9  15
ATOM     15  C   UNL A   1      35.175  22.150  23.967  1.00  0.00     0.118 C 
ATOM     16  C   UNL A   1      33.866  21.507  24.405  1.00  0.00     0.027 C 
ENDBRANCH   9  15
ENDBRANCH   7   8
BRANCH   6  17
ATOM     17  C   UNL A   1      41.010  23.552  26.921  1.00  0.00    -0.011 A 
ATOM     18  C   UNL A   1      41.372  24.371  25.840  1.00  0.00     0.009 A 
ATOM     19  C   UNL A   1      40.837  24.107  28.193  1.00  0.00     0.009 A 
ATOM     20  C   UNL A   1      41.420  25.754  26.003  1.00  0.00     0.001 A 
ATOM     21  C   UNL A   1      40.907  25.491  28.356  1.00  0.00     0.001 A 
ATOM     22  C   UNL A   1      41.163  26.313  27.256  1.00  0.00     0.000 A 
ENDBRANCH   6  17
ENDBRANCH   4   6
ENDBRANCH   3   4
ENDBRANCH   2   3
ENDBRANCH   1   2
BRANCH   1  23
ATOM     23  O   UNL A   1      44.638  18.422  24.833  1.00  0.00    -0.458 OA
BRANCH  23  24
ATOM     24  C   UNL A   1      44.723  19.434  23.885  1.00  0.00     0.338 C 
ATOM     25  O   UNL A   1      44.623  19.201  22.687  1.00  0.00    -0.246 OA
BRANCH  24  26
ATOM     26  C   UNL A   1      45.040  20.875  24.382  1.00  0.00     0.060 A 
ATOM     27  C   UNL A   1      45.833  21.144  25.494  1.00  0.00     0.016 A 
ATOM     28  C   UNL A   1      44.309  22.003  23.931  1.00  0.00     0.016 A 
ATOM     29  C   UNL A   1      45.927  22.489  26.068  1.00  0.00     0.010 A 
ATOM     30  C   UNL A   1      44.382  23.357  24.536  1.00  0.00     0.010 A 
ATOM     31  C   UNL A   1      45.210  23.676  25.631  1.00  0.00    -0.014 A 
BRANCH  31  32
ATOM     32  C   UNL A   1      45.007  24.926  26.730  1.00  0.00     0.031 A 
ATOM     33  C   UNL A   1      45.470  26.080  25.905  1.00  0.00     0.074 A 
ATOM     34  C   UNL A   1      44.715  25.256  28.080  1.00  0.00     0.049 A 
ATOM     35  N   UNL A   1      46.647  26.030  25.341  1.00  0.00    -0.248 NA
ATOM     36  C   UNL A   1      44.581  27.100  25.349  1.00  0.00     0.031 C 
ATOM     37  C   UNL A   1      44.504  24.329  29.213  1.00  0.00     0.029 A 
ATOM     38  N   UNL A   1      44.539  26.509  28.812  1.00  0.00    -0.354 N 
ATOM     39  C   UNL A   1      46.795  27.214  24.671  1.00  0.00     0.074 A 
ATOM     40  C   UNL A   1      45.425  27.677  24.484  1.00  0.00     0.031 C 
ATOM     41  C   UNL A   1      44.085  24.965  30.354  1.00  0.00     0.029 A 
ATOM     42  C   UNL A   1      44.016  26.419  30.186  1.00  0.00     0.049 A 
ATOM     43  H   UNL A   1      44.761  27.377  28.403  1.00  0.00     0.167 HD
ATOM     44  C   UNL A   1      47.887  27.941  25.053  1.00  0.00     0.037 A 
ATOM     45  C   UNL A   1      43.646  27.394  31.143  1.00  0.00     0.037 A 
ATOM     46  C   UNL A   1      47.537  29.016  25.944  1.00  0.00     0.049 A 
ATOM     47  C   UNL A   1      44.478  28.566  30.842  1.00  0.00     0.074 A 
ATOM     48  C   UNL A   1      46.507  29.937  25.949  1.00  0.00     0.029 A 
ATOM     49  N   UNL A   1      48.019  28.953  27.233  1.00  0.00    -0.354 N 
ATOM     50  N   UNL A   1      45.735  28.625  31.157  1.00  0.00    -0.248 NA
ATOM     51  C   UNL A   1      43.921  29.775  30.246  1.00  0.00     0.031 C 
ATOM     52  C   UNL A   1      46.085  29.997  27.292  1.00  0.00     0.029 A 
ATOM     53  C   UNL A   1      47.086  29.480  28.102  1.00  0.00     0.049 A 
ATOM     54  H   UNL A   1      48.895  28.589  27.495  1.00  0.00     0.167 HD
ATOM     55  C   UNL A   1      46.208  29.586  30.320  1.00  0.00     0.074 A 
ATOM     56  C   UNL A   1      45.062  30.422  30.007  1.00  0.00     0.031 C 
ATOM     57  C   UNL A   1      47.236  29.220  29.515  1.00  0.00     0.037 A 
BRANCH  44  58
ATOM     58  C   UNL A   1      49.148  27.120  25.161  1.00  0.00     0.058 A 
ATOM     59  C   UNL A   1      49.417  26.444  26.355  1.00  0.00     0.135 A 
ATOM     60  C   UNL A   1      50.155  27.111  24.170  1.00  0.00     0.135 A 
ATOM     61  F   UNL A   1      48.487  26.391  27.324  1.00  0.00    -0.206 F 
ATOM     62  C   UNL A   1      50.647  25.830  26.581  1.00  0.00     0.059 A 
ATOM     63  C   UNL A   1      51.408  26.547  24.390  1.00  0.00     0.059 A 
ATOM     64  F   UNL A   1      49.931  27.672  22.969  1.00  0.00    -0.206 F 
ATOM     65  C   UNL A   1      51.646  25.913  25.606  1.00  0.00     0.060 A 
BRANCH  65  66
ATOM     66  S   UNL A   1      53.269  25.213  25.980  1.00  0.00     0.124 S 
ATOM     67  O   UNL A   1      53.144  23.850  25.469  1.00  0.00    -0.237 OA
ATOM     68  O   UNL A   1      54.152  26.085  25.214  1.00  0.00    -0.237 OA
ATOM     69  O   UNL A   1      53.366  25.317  27.433  1.00  0.00    -0.744 OA
ENDBRANCH  65  66
ENDBRANCH  44  58
BRANCH  45  70
ATOM     70  C   UNL A   1      42.851  27.694  32.502  1.00  0.00     0.058 A 
ATOM     71  C   UNL A   1      43.541  27.919  33.759  1.00  0.00     0.135 A 
ATOM     72  C   UNL A   1      41.523  28.150  32.552  1.00  0.00     0.135 A 
ATOM     73  F   UNL A   1      44.794  27.481  33.954  1.00  0.00    -0.206 F 
ATOM     74  C   UNL A   1      43.035  28.661  34.853  1.00  0.00     0.059 A 
ATOM     75  C   UNL A   1      40.980  28.879  33.662  1.00  0.00     0.059 A 
ATOM     76  F   UNL A   1      40.723  27.973  31.493  1.00  0.00    -0.206 F 
ATOM     77  C   UNL A   1      41.761  29.188  34.779  1.00  0.00     0.060 A 
BRANCH  77  78
ATOM     78  S   UNL A   1      41.228  30.399  36.046  1.00  0.00     0.124 S 
ATOM     79  O   UNL A   1      42.183  30.186  37.127  1.00  0.00    -0.237 OA
ATOM     80  O   UNL A   1      41.356  31.671  35.337  1.00  0.00    -0.237 OA
ATOM     81  O   UNL A   1      39.854  29.999  36.338  1.00  0.00    -0.744 OA
ENDBRANCH  77  78
ENDBRANCH  45  70
BRANCH  57  82
ATOM     82  C   UNL A   1      48.384  28.448  30.141  1.00  0.00     0.058 A 
ATOM     83  C   UNL A   1      48.443  27.060  30.413  1.00  0.00     0.135 A 
ATOM     84  C   UNL A   1      49.503  29.199  30.539  1.00  0.00     0.135 A 
ATOM     85  F   UNL A   1      47.495  26.210  29.994  1.00  0.00    -0.206 F 
ATOM     86  C   UNL A   1      49.511  26.486  31.110  1.00  0.00     0.059 A 
ATOM     87  C   UNL A   1      50.603  28.637  31.181  1.00  0.00     0.059 A 
ATOM     88  F   UNL A   1      49.541  30.520  30.295  1.00  0.00    -0.206 F 
ATOM     89  C   UNL A   1      50.582  27.285  31.497  1.00  0.00     0.060 A 
BRANCH  89  90
ATOM     90  S   UNL A   1      51.951  26.544  32.412  1.00  0.00     0.124 S 
ATOM     91  O   UNL A   1      52.005  25.203  31.837  1.00  0.00    -0.237 OA
ATOM     92  O   UNL A   1      53.070  27.418  32.076  1.00  0.00    -0.237 OA
ATOM     93  O   UNL A   1      51.499  26.602  33.800  1.00  0.00    -0.744 OA
ENDBRANCH  89  90
ENDBRANCH  57  82
ENDBRANCH  31  32
ENDBRANCH  24  26
ENDBRANCH  23  24
ENDBRANCH   1  23
TORSDOF 17
ENDMDL
MODEL 3
REMARK VINA RESULT:     -10.5      4.035      5.893
REMARK SMILES CCn1c(C)cc(/C=C(/C(=O)OCCOC(=O)c2ccc(-c3c4nc(c(-c5c(F)cc(S(=O)(=O)[O-])cc5F)c5ccc([nH]5)c(-c5c(F)cc(S(=O)(=O)[O-])cc5F)c5nc(c(-c6c(F)cc(S(=O)(=O)[O-])cc6F)c6ccc3[nH]6)C=C5)C=C4)cc2)c2ccccc2)c1C
REMARK SMILES IDX 14 1 13 2 12 3 10 4 11 5 9 6 8 7 7 8 3 9 4 10 90 11 5 12
REMARK SMILES IDX 6 13 91 14 2 15 1 16 84 17 85 18 89 19 86 20 88 21 87 22
REMARK SMILES IDX 15 23 16 24 17 25 18 26 19 27 83 28 20 29 82 30 21 31 22 32
REMARK SMILES IDX 23 33 76 34 24 35 81 36 75 37 77 38 25 39 80 40 74 41 73 42
REMARK SMILES IDX 26 44 60 45 39 46 59 47 40 48 43 49 58 50 78 51 41 52 42 53
REMARK SMILES IDX 57 55 79 56 44 57 27 58 28 59 37 60 29 61 30 62 36 63 38 64
REMARK SMILES IDX 31 65 32 66 33 67 34 68 35 69 61 70 62 71 71 72 63 73 64 74
REMARK SMILES IDX 70 75 72 76 65 77 66 78 67 79 68 80 69 81 45 82 46 83 55 84
REMARK SMILES IDX 47 85 48 86 54 87 56 88 49 89 50 90 51 91 52 92 53 93
REMARK H PARENT 77 43 43 54
REMARK Flexibility Score: inf
ROOT
ATOM      1  C   UNL A   1      33.242  34.892  29.832  1.00  0.00     0.275 C 
ENDROOT
BRANCH   1   2
ATOM      2  C   UNL A   1      33.434  34.222  28.432  1.00  0.00     0.275 C 
BRANCH   2   3
ATOM      3  O   UNL A   1      33.819  32.829  28.567  1.00  0.00    -0.458 OA
BRANCH   3   4
ATOM      4  C   UNL A   1      34.906  32.408  27.870  1.00  0.00     0.338 C 
ATOM      5  O   UNL A   1      35.906  33.080  27.592  1.00  0.00    -0.246 OA
BRANCH   4   6
ATOM      6  C   UNL A   1      34.829  30.927  27.651  1.00  0.00     0.067 C 
ATOM      7  C   UNL A   1      33.810  30.404  26.918  1.00  0.00     0.026 C 
BRANCH   7   8
ATOM      8  C   UNL A   1      33.462  29.060  26.455  1.00  0.00    -0.004 A 
ATOM      9  N   UNL A   1      32.703  26.941  26.186  1.00  0.00    -0.349 N 
ATOM     10  C   UNL A   1      33.586  27.180  25.145  1.00  0.00     0.015 A 
ATOM     11  C   UNL A   1      32.514  28.126  26.882  1.00  0.00     0.022 A 
ATOM     12  C   UNL A   1      33.892  26.159  24.100  1.00  0.00     0.064 C 
ATOM     13  C   UNL A   1      34.076  28.462  25.309  1.00  0.00     0.031 A 
ATOM     14  C   UNL A   1      31.422  28.260  27.865  1.00  0.00     0.065 C 
BRANCH   9  15
ATOM     15  C   UNL A   1      32.158  25.604  26.422  1.00  0.00     0.118 C 
ATOM     16  C   UNL A   1      30.786  25.172  25.919  1.00  0.00     0.027 C 
ENDBRANCH   9  15
ENDBRANCH   7   8
BRANCH   6  17
ATOM     17  C   UNL A   1      35.959  30.208  28.242  1.00  0.00    -0.011 A 
ATOM     18  C   UNL A   1      37.061  29.878  27.438  1.00  0.00     0.009 A 
ATOM     19  C   UNL A   1      35.948  29.851  29.595  1.00  0.00     0.009 A 
ATOM     20  C   UNL A   1      38.201  29.325  28.017  1.00  0.00     0.001 A 
ATOM     21  C   UNL A   1      37.084  29.276  30.165  1.00  0.00     0.001 A 
ATOM     22  C   UNL A   1      38.219  29.047  29.384  1.00  0.00     0.000 A 
ENDBRANCH   6  17
ENDBRANCH   4   6
ENDBRANCH   3   4
ENDBRANCH   2   3
ENDBRANCH   1   2
BRANCH   1  23
ATOM     23  O   UNL A   1      34.423  35.101  30.715  1.00  0.00    -0.458 OA
BRANCH  23  24
ATOM     24  C   UNL A   1      34.803  34.030  31.513  1.00  0.00     0.338 C 
ATOM     25  O   UNL A   1      33.976  33.331  32.084  1.00  0.00    -0.246 OA
BRANCH  24  26
ATOM     26  C   UNL A   1      36.325  33.791  31.738  1.00  0.00     0.060 A 
ATOM     27  C   UNL A   1      37.120  33.049  30.869  1.00  0.00     0.016 A 
ATOM     28  C   UNL A   1      36.950  34.049  32.985  1.00  0.00     0.016 A 
ATOM     29  C   UNL A   1      38.486  32.653  31.221  1.00  0.00     0.010 A 
ATOM     30  C   UNL A   1      38.322  33.617  33.350  1.00  0.00     0.010 A 
ATOM     31  C   UNL A   1      39.172  32.908  32.478  1.00  0.00    -0.014 A 
BRANCH  31  32
ATOM     32  C   UNL A   1      40.454  31.910  32.895  1.00  0.00     0.031 A 
ATOM     33  C   UNL A   1      41.424  32.925  33.401  1.00  0.00     0.074 A 
ATOM     34  C   UNL A   1      40.975  30.590  32.827  1.00  0.00     0.049 A 
ATOM     35  N   UNL A   1      41.740  33.940  32.642  1.00  0.00    -0.248 NA
ATOM     36  C   UNL A   1      41.761  33.103  34.813  1.00  0.00     0.031 C 
ATOM     37  C   UNL A   1      40.394  29.423  32.130  1.00  0.00     0.029 A 
ATOM     38  N   UNL A   1      42.172  29.936  33.350  1.00  0.00    -0.354 N 
ATOM     39  C   UNL A   1      42.641  34.680  33.359  1.00  0.00     0.074 A 
ATOM     40  C   UNL A   1      42.391  34.283  34.740  1.00  0.00     0.031 C 
ATOM     41  C   UNL A   1      41.066  28.255  32.391  1.00  0.00     0.029 A 
ATOM     42  C   UNL A   1      42.239  28.468  33.243  1.00  0.00     0.049 A 
ATOM     43  H   UNL A   1      42.904  30.454  33.759  1.00  0.00     0.167 HD
ATOM     44  C   UNL A   1      43.844  34.856  32.736  1.00  0.00     0.037 A 
ATOM     45  C   UNL A   1      43.173  27.509  33.701  1.00  0.00     0.037 A 
ATOM     46  C   UNL A   1      44.855  33.972  33.252  1.00  0.00     0.049 A 
ATOM     47  C   UNL A   1      44.460  28.214  33.745  1.00  0.00     0.074 A 
ATOM     48  C   UNL A   1      45.199  33.578  34.530  1.00  0.00     0.029 A 
ATOM     49  N   UNL A   1      45.360  33.018  32.394  1.00  0.00    -0.354 N 
ATOM     50  N   UNL A   1      45.144  28.480  32.674  1.00  0.00    -0.248 NA
ATOM     51  C   UNL A   1      45.095  28.583  35.005  1.00  0.00     0.031 C 
ATOM     52  C   UNL A   1      45.429  32.191  34.430  1.00  0.00     0.029 A 
ATOM     53  C   UNL A   1      45.640  31.866  33.098  1.00  0.00     0.049 A 
ATOM     54  H   UNL A   1      45.499  33.140  31.428  1.00  0.00     0.167 HD
ATOM     55  C   UNL A   1      45.949  29.497  33.079  1.00  0.00     0.074 A 
ATOM     56  C   UNL A   1      46.083  29.335  34.516  1.00  0.00     0.031 C 
ATOM     57  C   UNL A   1      45.864  30.644  32.360  1.00  0.00     0.037 A 
BRANCH  44  58
ATOM     58  C   UNL A   1      43.717  35.255  31.286  1.00  0.00     0.058 A 
ATOM     59  C   UNL A   1      43.851  36.602  30.939  1.00  0.00     0.135 A 
ATOM     60  C   UNL A   1      43.325  34.359  30.266  1.00  0.00     0.135 A 
ATOM     61  F   UNL A   1      44.250  37.498  31.858  1.00  0.00    -0.206 F 
ATOM     62  C   UNL A   1      43.557  37.054  29.654  1.00  0.00     0.059 A 
ATOM     63  C   UNL A   1      42.981  34.793  28.990  1.00  0.00     0.059 A 
ATOM     64  F   UNL A   1      43.257  33.039  30.511  1.00  0.00    -0.206 F 
ATOM     65  C   UNL A   1      43.095  36.148  28.696  1.00  0.00     0.060 A 
BRANCH  65  66
ATOM     66  S   UNL A   1      42.607  36.786  27.077  1.00  0.00     0.124 S 
ATOM     67  O   UNL A   1      42.339  35.561  26.329  1.00  0.00    -0.237 OA
ATOM     68  O   UNL A   1      41.429  37.578  27.414  1.00  0.00    -0.237 OA
ATOM     69  O   UNL A   1      43.778  37.534  26.631  1.00  0.00    -0.744 OA
ENDBRANCH  65  66
ENDBRANCH  44  58
BRANCH  45  70
ATOM     70  C   UNL A   1      43.452  25.961  34.011  1.00  0.00     0.058 A 
ATOM     71  C   UNL A   1      44.220  25.125  33.107  1.00  0.00     0.135 A 
ATOM     72  C   UNL A   1      43.351  25.385  35.288  1.00  0.00     0.135 A 
ATOM     73  F   UNL A   1      44.367  25.449  31.813  1.00  0.00    -0.206 F 
ATOM     74  C   UNL A   1      44.942  23.964  33.474  1.00  0.00     0.059 A 
ATOM     75  C   UNL A   1      44.051  24.193  35.674  1.00  0.00     0.059 A 
ATOM     76  F   UNL A   1      42.629  25.998  36.235  1.00  0.00    -0.206 F 
ATOM     77  C   UNL A   1      44.895  23.527  34.783  1.00  0.00     0.060 A 
BRANCH  77  78
ATOM     78  S   UNL A   1      46.065  22.225  35.325  1.00  0.00     0.124 S 
ATOM     79  O   UNL A   1      47.347  22.921  35.338  1.00  0.00    -0.237 OA
ATOM     80  O   UNL A   1      45.538  21.855  36.636  1.00  0.00    -0.237 OA
ATOM     81  O   UNL A   1      45.924  21.196  34.298  1.00  0.00    -0.744 OA
ENDBRANCH  77  78
ENDBRANCH  45  70
BRANCH  57  82
ATOM     82  C   UNL A   1      45.871  30.531  30.846  1.00  0.00     0.058 A 
ATOM     83  C   UNL A   1      44.784  30.205  30.001  1.00  0.00     0.135 A 
ATOM     84  C   UNL A   1      47.107  30.730  30.206  1.00  0.00     0.135 A 
ATOM     85  F   UNL A   1      43.530  30.091  30.462  1.00  0.00    -0.206 F 
ATOM     86  C   UNL A   1      44.946  30.008  28.626  1.00  0.00     0.059 A 
ATOM     87  C   UNL A   1      47.277  30.598  28.831  1.00  0.00     0.059 A 
ATOM     88  F   UNL A   1      48.186  31.069  30.931  1.00  0.00    -0.206 F 
ATOM     89  C   UNL A   1      46.199  30.199  28.052  1.00  0.00     0.060 A 
BRANCH  89  90
ATOM     90  S   UNL A   1      46.409  29.927  26.279  1.00  0.00     0.124 S 
ATOM     91  O   UNL A   1      47.779  29.425  26.214  1.00  0.00    -0.237 OA
ATOM     92  O   UNL A   1      45.367  28.951  25.980  1.00  0.00    -0.237 OA
ATOM     93  O   UNL A   1      46.212  31.257  25.709  1.00  0.00    -0.744 OA
ENDBRANCH  89  90
ENDBRANCH  57  82
ENDBRANCH  31  32
ENDBRANCH  24  26
ENDBRANCH  23  24
ENDBRANCH   1  23
TORSDOF 17
ENDMDL
