MODEL 1
REMARK VINA RESULT:     -11.0      0.000      0.000
REMARK SMILES C[C@@H](CCC(=O)OCCOC(=O)c1ccc(-c2c3nc(c(-c4c(F)cc(S(=O)(=O)[O-])cc4F)c4ccc([nH]4)c(-c4c(F)cc(S(=O)(=O)[O-])cc4F)c4nc(c(-c5c(F)cc(S(=O)(=O)[O-])cc5F)c5ccc2[nH]5)C=C4)C=C3)cc1)NC(=O)Nc1ccc(Cl)c(Br)c1
REMARK SMILES IDX 8 1 7 2 5 3 6 4 4 5 3 6 2 7 1 8 79 9 80 10 81 12 82 13 83 15
REMARK SMILES IDX 84 16 90 17 85 18 88 19 86 20 89 21 87 22 9 23 10 24 11 25
REMARK SMILES IDX 12 26 13 27 14 28 78 29 15 30 77 31 16 32 17 33 18 34 71 35
REMARK SMILES IDX 19 36 76 37 70 38 72 39 20 40 75 41 69 42 68 43 21 45 55 46
REMARK SMILES IDX 34 47 54 48 35 49 38 50 53 51 73 52 36 53 37 54 52 56 74 57
REMARK SMILES IDX 39 58 22 59 23 60 32 61 24 62 25 63 31 64 33 65 26 66 27 67
REMARK SMILES IDX 28 68 29 69 30 70 56 71 57 72 66 73 58 74 59 75 65 76 67 77
REMARK SMILES IDX 60 78 61 79 62 80 63 81 64 82 40 83 41 84 50 85 42 86 43 87
REMARK SMILES IDX 49 88 51 89 44 90 45 91 46 92 47 93 48 94
REMARK H PARENT 79 11 82 14 72 44 38 55
REMARK Flexibility Score: inf
ROOT
ATOM      1  C   UNL A   1      34.548  31.584  27.738  1.00  0.00     0.274 C 
ENDROOT
BRANCH   1   2
ATOM      2  O   UNL A   1      33.567  30.553  27.492  1.00  0.00    -0.462 OA
BRANCH   2   3
ATOM      3  C   UNL A   1      32.487  30.902  26.749  1.00  0.00     0.305 C 
ATOM      4  O   UNL A   1      31.817  31.911  26.930  1.00  0.00    -0.252 OA
BRANCH   3   5
ATOM      5  C   UNL A   1      32.126  29.856  25.717  1.00  0.00     0.125 C 
BRANCH   5   6
ATOM      6  C   UNL A   1      33.279  29.173  24.975  1.00  0.00     0.036 C 
BRANCH   6   7
ATOM      7  C   UNL A   1      32.989  28.589  23.580  1.00  0.00     0.081 C 
ATOM      8  C   UNL A   1      34.194  28.620  22.642  1.00  0.00     0.031 C 
BRANCH   7   9
ATOM      9  N   UNL A   1      31.840  29.253  22.975  1.00  0.00    -0.335 N 
ATOM     10  C   UNL A   1      30.687  28.852  22.410  1.00  0.00     0.319 C 
ATOM     11  H   UNL A   1      31.929  30.234  22.983  1.00  0.00     0.165 HD
ATOM     12  O   UNL A   1      30.068  29.668  21.721  1.00  0.00    -0.248 OA
ATOM     13  N   UNL A   1      30.258  27.573  22.449  1.00  0.00    -0.308 N 
ATOM     14  H   UNL A   1      29.661  27.326  21.706  1.00  0.00     0.171 HD
BRANCH  13  15
ATOM     15  C   UNL A   1      30.508  26.541  23.354  1.00  0.00     0.044 A 
ATOM     16  C   UNL A   1      30.016  26.697  24.650  1.00  0.00     0.028 A 
ATOM     17  C   UNL A   1      31.200  25.379  23.004  1.00  0.00     0.043 A 
ATOM     18  C   UNL A   1      30.086  25.634  25.551  1.00  0.00     0.024 A 
ATOM     19  C   UNL A   1      31.282  24.316  23.910  1.00  0.00     0.038 A 
ATOM     20  C   UNL A   1      30.697  24.434  25.177  1.00  0.00     0.055 A 
ATOM     21  Br  UNL A   1      32.150  22.732  23.326  1.00  0.00    -0.049 Br
ATOM     22  Cl  UNL A   1      30.662  23.139  26.320  1.00  0.00    -0.083 Cl
ENDBRANCH  13  15
ENDBRANCH   7   9
ENDBRANCH   6   7
ENDBRANCH   5   6
ENDBRANCH   3   5
ENDBRANCH   2   3
ENDBRANCH   1   2
BRANCH   1  23
ATOM     23  C   UNL A   1      34.758  31.833  29.235  1.00  0.00     0.275 C 
BRANCH  23  24
ATOM     24  O   UNL A   1      36.155  31.800  29.581  1.00  0.00    -0.458 OA
BRANCH  24  25
ATOM     25  C   UNL A   1      36.554  30.703  30.268  1.00  0.00     0.338 C 
ATOM     26  O   UNL A   1      35.916  30.086  31.103  1.00  0.00    -0.246 OA
BRANCH  25  27
ATOM     27  C   UNL A   1      37.847  30.227  29.742  1.00  0.00     0.060 A 
ATOM     28  C   UNL A   1      38.878  30.020  30.662  1.00  0.00     0.016 A 
ATOM     29  C   UNL A   1      38.063  30.027  28.377  1.00  0.00     0.016 A 
ATOM     30  C   UNL A   1      40.132  29.610  30.221  1.00  0.00     0.010 A 
ATOM     31  C   UNL A   1      39.326  29.616  27.934  1.00  0.00     0.010 A 
ATOM     32  C   UNL A   1      40.368  29.411  28.855  1.00  0.00    -0.014 A 
BRANCH  32  33
ATOM     33  C   UNL A   1      41.727  29.014  28.416  1.00  0.00     0.031 A 
ATOM     34  C   UNL A   1      42.832  30.029  28.376  1.00  0.00     0.074 A 
ATOM     35  C   UNL A   1      41.973  27.724  28.121  1.00  0.00     0.049 A 
ATOM     36  N   UNL A   1      44.093  29.863  28.068  1.00  0.00    -0.248 NA
ATOM     37  C   UNL A   1      42.474  31.411  28.729  1.00  0.00     0.031 C 
ATOM     38  C   UNL A   1      40.977  26.651  28.139  1.00  0.00     0.029 A 
ATOM     39  N   UNL A   1      43.137  27.096  27.760  1.00  0.00    -0.354 N 
ATOM     40  C   UNL A   1      44.682  31.115  28.198  1.00  0.00     0.074 A 
ATOM     41  C   UNL A   1      43.633  32.038  28.578  1.00  0.00     0.031 C 
ATOM     42  C   UNL A   1      41.576  25.494  27.810  1.00  0.00     0.029 A 
ATOM     43  C   UNL A   1      42.989  25.748  27.539  1.00  0.00     0.049 A 
ATOM     44  H   UNL A   1      43.998  27.565  27.670  1.00  0.00     0.167 HD
ATOM     45  C   UNL A   1      45.982  31.458  28.030  1.00  0.00     0.037 A 
ATOM     46  C   UNL A   1      43.890  24.824  27.153  1.00  0.00     0.037 A 
ATOM     47  C   UNL A   1      47.021  30.536  27.645  1.00  0.00     0.049 A 
ATOM     48  C   UNL A   1      45.322  25.235  26.950  1.00  0.00     0.074 A 
ATOM     49  C   UNL A   1      48.365  30.790  27.434  1.00  0.00     0.029 A 
ATOM     50  N   UNL A   1      46.831  29.181  27.414  1.00  0.00    -0.354 N 
ATOM     51  N   UNL A   1      45.864  26.423  27.082  1.00  0.00    -0.248 NA
ATOM     52  C   UNL A   1      46.266  24.183  26.555  1.00  0.00     0.031 C 
ATOM     53  C   UNL A   1      48.983  29.593  27.047  1.00  0.00     0.029 A 
ATOM     54  C   UNL A   1      48.031  28.587  27.055  1.00  0.00     0.049 A 
ATOM     55  H   UNL A   1      45.970  28.710  27.493  1.00  0.00     0.167 HD
ATOM     56  C   UNL A   1      47.214  26.258  26.794  1.00  0.00     0.074 A 
ATOM     57  C   UNL A   1      47.410  24.850  26.509  1.00  0.00     0.031 C 
ATOM     58  C   UNL A   1      48.203  27.186  26.762  1.00  0.00     0.037 A 
BRANCH  45  59
ATOM     59  C   UNL A   1      46.352  32.898  28.252  1.00  0.00     0.058 A 
ATOM     60  C   UNL A   1      46.272  33.843  27.217  1.00  0.00     0.135 A 
ATOM     61  C   UNL A   1      46.760  33.346  29.518  1.00  0.00     0.135 A 
ATOM     62  F   UNL A   1      45.905  33.464  25.982  1.00  0.00    -0.206 F 
ATOM     63  C   UNL A   1      46.604  35.178  27.423  1.00  0.00     0.059 A 
ATOM     64  C   UNL A   1      47.075  34.681  29.754  1.00  0.00     0.059 A 
ATOM     65  F   UNL A   1      46.856  32.483  30.542  1.00  0.00    -0.206 F 
ATOM     66  C   UNL A   1      47.005  35.589  28.696  1.00  0.00     0.060 A 
BRANCH  66  67
ATOM     67  S   UNL A   1      47.427  37.326  28.953  1.00  0.00     0.124 S 
ATOM     68  O   UNL A   1      46.790  37.592  30.238  1.00  0.00    -0.237 OA
ATOM     69  O   UNL A   1      48.886  37.296  28.962  1.00  0.00    -0.237 OA
ATOM     70  O   UNL A   1      46.824  37.994  27.803  1.00  0.00    -0.744 OA
ENDBRANCH  66  67
ENDBRANCH  45  59
BRANCH  46  71
ATOM     71  C   UNL A   1      43.459  23.419  26.926  1.00  0.00     0.058 A 
ATOM     72  C   UNL A   1      43.222  22.545  27.995  1.00  0.00     0.135 A 
ATOM     73  C   UNL A   1      43.275  22.926  25.624  1.00  0.00     0.135 A 
ATOM     74  F   UNL A   1      43.393  22.967  29.258  1.00  0.00    -0.206 F 
ATOM     75  C   UNL A   1      42.834  21.225  27.785  1.00  0.00     0.059 A 
ATOM     76  C   UNL A   1      42.863  21.619  25.389  1.00  0.00     0.059 A 
ATOM     77  F   UNL A   1      43.477  23.727  24.566  1.00  0.00    -0.206 F 
ATOM     78  C   UNL A   1      42.656  20.771  26.476  1.00  0.00     0.060 A 
BRANCH  78  79
ATOM     79  S   UNL A   1      42.109  19.072  26.209  1.00  0.00     0.124 S 
ATOM     80  O   UNL A   1      40.733  19.273  25.769  1.00  0.00    -0.237 OA
ATOM     81  O   UNL A   1      43.042  18.602  25.189  1.00  0.00    -0.237 OA
ATOM     82  O   UNL A   1      42.270  18.458  27.523  1.00  0.00    -0.744 OA
ENDBRANCH  78  79
ENDBRANCH  46  71
BRANCH  58  83
ATOM     83  C   UNL A   1      49.582  26.698  26.413  1.00  0.00     0.058 A 
ATOM     84  C   UNL A   1      50.106  26.851  25.119  1.00  0.00     0.135 A 
ATOM     85  C   UNL A   1      50.387  26.078  27.379  1.00  0.00     0.135 A 
ATOM     86  F   UNL A   1      49.374  27.435  24.157  1.00  0.00    -0.206 F 
ATOM     87  C   UNL A   1      51.366  26.366  24.785  1.00  0.00     0.059 A 
ATOM     88  C   UNL A   1      51.661  25.608  27.074  1.00  0.00     0.059 A 
ATOM     89  F   UNL A   1      49.938  25.919  28.634  1.00  0.00    -0.206 F 
ATOM     90  C   UNL A   1      52.134  25.738  25.768  1.00  0.00     0.060 A 
BRANCH  90  91
ATOM     91  S   UNL A   1      53.766  25.106  25.326  1.00  0.00     0.124 S 
ATOM     92  O   UNL A   1      53.567  23.666  25.462  1.00  0.00    -0.237 OA
ATOM     93  O   UNL A   1      53.936  25.596  23.962  1.00  0.00    -0.237 OA
ATOM     94  O   UNL A   1      54.645  25.717  26.318  1.00  0.00    -0.744 OA
ENDBRANCH  90  91
ENDBRANCH  58  83
ENDBRANCH  32  33
ENDBRANCH  25  27
ENDBRANCH  24  25
ENDBRANCH  23  24
ENDBRANCH   1  23
TORSDOF 18
ENDMDL
MODEL 2
REMARK VINA RESULT:     -11.0      6.920     12.522
REMARK SMILES C[C@@H](CCC(=O)OCCOC(=O)c1ccc(-c2c3nc(c(-c4c(F)cc(S(=O)(=O)[O-])cc4F)c4ccc([nH]4)c(-c4c(F)cc(S(=O)(=O)[O-])cc4F)c4nc(c(-c5c(F)cc(S(=O)(=O)[O-])cc5F)c5ccc2[nH]5)C=C4)C=C3)cc1)NC(=O)Nc1ccc(Cl)c(Br)c1
REMARK SMILES IDX 8 1 7 2 5 3 6 4 4 5 3 6 2 7 1 8 79 9 80 10 81 12 82 13 83 15
REMARK SMILES IDX 84 16 90 17 85 18 88 19 86 20 89 21 87 22 9 23 10 24 11 25
REMARK SMILES IDX 12 26 13 27 14 28 78 29 15 30 77 31 16 32 17 33 18 34 71 35
REMARK SMILES IDX 19 36 76 37 70 38 72 39 20 40 75 41 69 42 68 43 21 45 55 46
REMARK SMILES IDX 34 47 54 48 35 49 38 50 53 51 73 52 36 53 37 54 52 56 74 57
REMARK SMILES IDX 39 58 22 59 23 60 32 61 24 62 25 63 31 64 33 65 26 66 27 67
REMARK SMILES IDX 28 68 29 69 30 70 56 71 57 72 66 73 58 74 59 75 65 76 67 77
REMARK SMILES IDX 60 78 61 79 62 80 63 81 64 82 40 83 41 84 50 85 42 86 43 87
REMARK SMILES IDX 49 88 51 89 44 90 45 91 46 92 47 93 48 94
REMARK H PARENT 79 11 82 14 72 44 38 55
REMARK Flexibility Score: inf
ROOT
ATOM      1  C   UNL A   1      39.734  21.452  26.438  1.00  0.00     0.274 C 
ENDROOT
BRANCH   1   2
ATOM      2  O   UNL A   1      38.562  21.934  25.745  1.00  0.00    -0.462 OA
BRANCH   2   3
ATOM      3  C   UNL A   1      37.761  20.999  25.175  1.00  0.00     0.305 C 
ATOM      4  O   UNL A   1      38.149  19.917  24.754  1.00  0.00    -0.252 OA
BRANCH   3   5
ATOM      5  C   UNL A   1      36.332  21.472  25.020  1.00  0.00     0.125 C 
BRANCH   5   6
ATOM      6  C   UNL A   1      35.713  22.235  26.195  1.00  0.00     0.036 C 
BRANCH   6   7
ATOM      7  C   UNL A   1      34.228  21.980  26.514  1.00  0.00     0.081 C 
ATOM      8  C   UNL A   1      33.861  22.250  27.971  1.00  0.00     0.031 C 
BRANCH   7   9
ATOM      9  N   UNL A   1      33.844  20.629  26.121  1.00  0.00    -0.335 N 
ATOM     10  C   UNL A   1      32.867  20.089  25.371  1.00  0.00     0.319 C 
ATOM     11  H   UNL A   1      34.447  19.946  26.495  1.00  0.00     0.165 HD
ATOM     12  O   UNL A   1      32.649  18.880  25.490  1.00  0.00    -0.248 OA
ATOM     13  N   UNL A   1      32.034  20.828  24.608  1.00  0.00    -0.308 N 
ATOM     14  H   UNL A   1      31.161  20.407  24.440  1.00  0.00     0.171 HD
BRANCH  13  15
ATOM     15  C   UNL A   1      32.192  22.082  24.015  1.00  0.00     0.044 A 
ATOM     16  C   UNL A   1      33.185  22.207  23.043  1.00  0.00     0.028 A 
ATOM     17  C   UNL A   1      31.393  23.179  24.343  1.00  0.00     0.043 A 
ATOM     18  C   UNL A   1      33.280  23.381  22.297  1.00  0.00     0.024 A 
ATOM     19  C   UNL A   1      31.495  24.363  23.603  1.00  0.00     0.038 A 
ATOM     20  C   UNL A   1      32.422  24.453  22.558  1.00  0.00     0.055 A 
ATOM     21  Br  UNL A   1      30.305  25.775  24.041  1.00  0.00    -0.049 Br
ATOM     22  Cl  UNL A   1      32.548  25.835  21.530  1.00  0.00    -0.083 Cl
ENDBRANCH  13  15
ENDBRANCH   7   9
ENDBRANCH   6   7
ENDBRANCH   5   6
ENDBRANCH   3   5
ENDBRANCH   2   3
ENDBRANCH   1   2
BRANCH   1  23
ATOM     23  C   UNL A   1      40.804  22.538  26.584  1.00  0.00     0.275 C 
BRANCH  23  24
ATOM     24  O   UNL A   1      40.230  23.855  26.503  1.00  0.00    -0.458 OA
BRANCH  24  25
ATOM     25  C   UNL A   1      41.122  24.873  26.472  1.00  0.00     0.338 C 
ATOM     26  O   UNL A   1      41.958  25.092  25.613  1.00  0.00    -0.246 OA
BRANCH  25  27
ATOM     27  C   UNL A   1      40.839  25.818  27.568  1.00  0.00     0.060 A 
ATOM     28  C   UNL A   1      41.738  26.871  27.758  1.00  0.00     0.016 A 
ATOM     29  C   UNL A   1      39.742  25.660  28.419  1.00  0.00     0.016 A 
ATOM     30  C   UNL A   1      41.546  27.771  28.799  1.00  0.00     0.010 A 
ATOM     31  C   UNL A   1      39.551  26.566  29.468  1.00  0.00     0.010 A 
ATOM     32  C   UNL A   1      40.455  27.623  29.667  1.00  0.00    -0.014 A 
BRANCH  32  33
ATOM     33  C   UNL A   1      40.303  28.576  30.791  1.00  0.00     0.031 A 
ATOM     34  C   UNL A   1      41.176  28.453  32.006  1.00  0.00     0.074 A 
ATOM     35  C   UNL A   1      39.424  29.590  30.681  1.00  0.00     0.049 A 
ATOM     36  N   UNL A   1      41.225  29.218  33.067  1.00  0.00    -0.248 NA
ATOM     37  C   UNL A   1      42.117  27.323  32.033  1.00  0.00     0.031 C 
ATOM     38  C   UNL A   1      38.535  29.814  29.540  1.00  0.00     0.029 A 
ATOM     39  N   UNL A   1      39.144  30.627  31.534  1.00  0.00    -0.354 N 
ATOM     40  C   UNL A   1      42.206  28.670  33.884  1.00  0.00     0.074 A 
ATOM     41  C   UNL A   1      42.702  27.487  33.212  1.00  0.00     0.031 C 
ATOM     42  C   UNL A   1      37.811  30.924  29.761  1.00  0.00     0.029 A 
ATOM     43  C   UNL A   1      38.171  31.476  31.065  1.00  0.00     0.049 A 
ATOM     44  H   UNL A   1      39.598  30.752  32.398  1.00  0.00     0.167 HD
ATOM     45  C   UNL A   1      42.661  29.121  35.078  1.00  0.00     0.037 A 
ATOM     46  C   UNL A   1      37.625  32.571  31.628  1.00  0.00     0.037 A 
ATOM     47  C   UNL A   1      42.159  30.296  35.745  1.00  0.00     0.049 A 
ATOM     48  C   UNL A   1      38.132  33.038  32.965  1.00  0.00     0.074 A 
ATOM     49  C   UNL A   1      42.544  30.827  36.964  1.00  0.00     0.029 A 
ATOM     50  N   UNL A   1      41.162  31.123  35.248  1.00  0.00    -0.354 N 
ATOM     51  N   UNL A   1      39.064  32.511  33.722  1.00  0.00    -0.248 NA
ATOM     52  C   UNL A   1      37.519  34.252  33.520  1.00  0.00     0.031 C 
ATOM     53  C   UNL A   1      41.759  31.960  37.217  1.00  0.00     0.029 A 
ATOM     54  C   UNL A   1      40.913  32.155  36.138  1.00  0.00     0.049 A 
ATOM     55  H   UNL A   1      40.699  30.996  34.389  1.00  0.00     0.167 HD
ATOM     56  C   UNL A   1      39.156  33.334  34.840  1.00  0.00     0.074 A 
ATOM     57  C   UNL A   1      38.204  34.409  34.644  1.00  0.00     0.031 C 
ATOM     58  C   UNL A   1      39.951  33.210  35.932  1.00  0.00     0.037 A 
BRANCH  45  59
ATOM     59  C   UNL A   1      43.753  28.334  35.745  1.00  0.00     0.058 A 
ATOM     60  C   UNL A   1      43.463  27.294  36.643  1.00  0.00     0.135 A 
ATOM     61  C   UNL A   1      45.102  28.596  35.462  1.00  0.00     0.135 A 
ATOM     62  F   UNL A   1      42.189  27.013  36.963  1.00  0.00    -0.206 F 
ATOM     63  C   UNL A   1      44.472  26.557  37.254  1.00  0.00     0.059 A 
ATOM     64  C   UNL A   1      46.129  27.857  36.043  1.00  0.00     0.059 A 
ATOM     65  F   UNL A   1      45.435  29.581  34.612  1.00  0.00    -0.206 F 
ATOM     66  C   UNL A   1      45.804  26.846  36.948  1.00  0.00     0.060 A 
BRANCH  66  67
ATOM     67  S   UNL A   1      47.104  25.877  37.742  1.00  0.00     0.124 S 
ATOM     68  O   UNL A   1      48.208  26.831  37.759  1.00  0.00    -0.237 OA
ATOM     69  O   UNL A   1      46.515  25.567  39.041  1.00  0.00    -0.237 OA
ATOM     70  O   UNL A   1      47.274  24.738  36.846  1.00  0.00    -0.744 OA
ENDBRANCH  66  67
ENDBRANCH  45  59
BRANCH  46  71
ATOM     71  C   UNL A   1      36.530  33.295  30.930  1.00  0.00     0.058 A 
ATOM     72  C   UNL A   1      36.782  34.091  29.805  1.00  0.00     0.135 A 
ATOM     73  C   UNL A   1      35.204  33.200  31.382  1.00  0.00     0.135 A 
ATOM     74  F   UNL A   1      38.035  34.221  29.340  1.00  0.00    -0.206 F 
ATOM     75  C   UNL A   1      35.762  34.783  29.159  1.00  0.00     0.059 A 
ATOM     76  C   UNL A   1      34.164  33.862  30.738  1.00  0.00     0.059 A 
ATOM     77  F   UNL A   1      34.909  32.440  32.448  1.00  0.00    -0.206 F 
ATOM     78  C   UNL A   1      34.454  34.661  29.633  1.00  0.00     0.060 A 
BRANCH  78  79
ATOM     79  S   UNL A   1      33.126  35.523  28.766  1.00  0.00     0.124 S 
ATOM     80  O   UNL A   1      33.873  36.516  28.001  1.00  0.00    -0.237 OA
ATOM     81  O   UNL A   1      32.514  34.449  27.990  1.00  0.00    -0.237 OA
ATOM     82  O   UNL A   1      32.304  36.048  29.851  1.00  0.00    -0.744 OA
ENDBRANCH  78  79
ENDBRANCH  46  71
BRANCH  58  83
ATOM     83  C   UNL A   1      39.823  34.270  36.989  1.00  0.00     0.058 A 
ATOM     84  C   UNL A   1      40.506  35.493  36.888  1.00  0.00     0.135 A 
ATOM     85  C   UNL A   1      39.005  34.066  38.111  1.00  0.00     0.135 A 
ATOM     86  F   UNL A   1      41.304  35.736  35.836  1.00  0.00    -0.206 F 
ATOM     87  C   UNL A   1      40.417  36.459  37.885  1.00  0.00     0.059 A 
ATOM     88  C   UNL A   1      38.881  35.029  39.108  1.00  0.00     0.059 A 
ATOM     89  F   UNL A   1      38.320  32.920  38.250  1.00  0.00    -0.206 F 
ATOM     90  C   UNL A   1      39.608  36.214  38.996  1.00  0.00     0.060 A 
BRANCH  90  91
ATOM     91  S   UNL A   1      39.502  37.470  40.289  1.00  0.00     0.124 S 
ATOM     92  O   UNL A   1      40.905  37.837  40.455  1.00  0.00    -0.237 OA
ATOM     93  O   UNL A   1      38.650  38.484  39.676  1.00  0.00    -0.237 OA
ATOM     94  O   UNL A   1      38.902  36.752  41.409  1.00  0.00    -0.744 OA
ENDBRANCH  90  91
ENDBRANCH  58  83
ENDBRANCH  32  33
ENDBRANCH  25  27
ENDBRANCH  24  25
ENDBRANCH  23  24
ENDBRANCH   1  23
TORSDOF 18
ENDMDL
MODEL 3
REMARK VINA RESULT:     -10.7      6.941     12.394
REMARK SMILES C[C@@H](CCC(=O)OCCOC(=O)c1ccc(-c2c3nc(c(-c4c(F)cc(S(=O)(=O)[O-])cc4F)c4ccc([nH]4)c(-c4c(F)cc(S(=O)(=O)[O-])cc4F)c4nc(c(-c5c(F)cc(S(=O)(=O)[O-])cc5F)c5ccc2[nH]5)C=C4)C=C3)cc1)NC(=O)Nc1ccc(Cl)c(Br)c1
REMARK SMILES IDX 8 1 7 2 5 3 6 4 4 5 3 6 2 7 1 8 79 9 80 10 81 12 82 13 83 15
REMARK SMILES IDX 84 16 90 17 85 18 88 19 86 20 89 21 87 22 9 23 10 24 11 25
REMARK SMILES IDX 12 26 13 27 14 28 78 29 15 30 77 31 16 32 17 33 18 34 71 35
REMARK SMILES IDX 19 36 76 37 70 38 72 39 20 40 75 41 69 42 68 43 21 45 55 46
REMARK SMILES IDX 34 47 54 48 35 49 38 50 53 51 73 52 36 53 37 54 52 56 74 57
REMARK SMILES IDX 39 58 22 59 23 60 32 61 24 62 25 63 31 64 33 65 26 66 27 67
REMARK SMILES IDX 28 68 29 69 30 70 56 71 57 72 66 73 58 74 59 75 65 76 67 77
REMARK SMILES IDX 60 78 61 79 62 80 63 81 64 82 40 83 41 84 50 85 42 86 43 87
REMARK SMILES IDX 49 88 51 89 44 90 45 91 46 92 47 93 48 94
REMARK H PARENT 79 11 82 14 72 44 38 55
REMARK Flexibility Score: inf
ROOT
ATOM      1  C   UNL A   1      38.587  22.038  25.909  1.00  0.00     0.274 C 
ENDROOT
BRANCH   1   2
ATOM      2  O   UNL A   1      37.563  22.977  25.515  1.00  0.00    -0.462 OA
BRANCH   2   3
ATOM      3  C   UNL A   1      36.437  22.457  24.962  1.00  0.00     0.305 C 
ATOM      4  O   UNL A   1      36.358  21.338  24.473  1.00  0.00    -0.252 OA
BRANCH   3   5
ATOM      5  C   UNL A   1      35.296  23.450  24.922  1.00  0.00     0.125 C 
BRANCH   5   6
ATOM      6  C   UNL A   1      33.900  22.930  25.279  1.00  0.00     0.036 C 
BRANCH   6   7
ATOM      7  C   UNL A   1      33.377  23.200  26.702  1.00  0.00     0.081 C 
ATOM      8  C   UNL A   1      34.114  22.413  27.784  1.00  0.00     0.031 C 
BRANCH   7   9
ATOM      9  N   UNL A   1      31.939  22.962  26.773  1.00  0.00    -0.335 N 
ATOM     10  C   UNL A   1      30.839  23.735  26.812  1.00  0.00     0.319 C 
ATOM     11  H   UNL A   1      31.721  22.002  26.799  1.00  0.00     0.165 HD
ATOM     12  O   UNL A   1      29.781  23.216  27.178  1.00  0.00    -0.248 OA
ATOM     13  N   UNL A   1      30.873  25.068  26.604  1.00  0.00    -0.308 N 
ATOM     14  H   UNL A   1      30.137  25.562  27.033  1.00  0.00     0.171 HD
BRANCH  13  15
ATOM     15  C   UNL A   1      31.763  25.871  25.888  1.00  0.00     0.044 A 
ATOM     16  C   UNL A   1      31.751  25.753  24.498  1.00  0.00     0.028 A 
ATOM     17  C   UNL A   1      32.628  26.777  26.505  1.00  0.00     0.043 A 
ATOM     18  C   UNL A   1      32.492  26.643  23.721  1.00  0.00     0.024 A 
ATOM     19  C   UNL A   1      33.382  27.663  25.727  1.00  0.00     0.038 A 
ATOM     20  C   UNL A   1      33.291  27.614  24.331  1.00  0.00     0.055 A 
ATOM     21  Br  UNL A   1      34.456  28.934  26.640  1.00  0.00    -0.049 Br
ATOM     22  Cl  UNL A   1      34.106  28.732  23.296  1.00  0.00    -0.083 Cl
ENDBRANCH  13  15
ENDBRANCH   7   9
ENDBRANCH   6   7
ENDBRANCH   5   6
ENDBRANCH   3   5
ENDBRANCH   2   3
ENDBRANCH   1   2
BRANCH   1  23
ATOM     23  C   UNL A   1      39.935  22.724  26.152  1.00  0.00     0.275 C 
BRANCH  23  24
ATOM     24  O   UNL A   1      39.768  24.132  26.402  1.00  0.00    -0.458 OA
BRANCH  24  25
ATOM     25  C   UNL A   1      40.907  24.807  26.687  1.00  0.00     0.338 C 
ATOM     26  O   UNL A   1      41.964  24.753  26.082  1.00  0.00    -0.246 OA
BRANCH  25  27
ATOM     27  C   UNL A   1      40.655  25.778  27.767  1.00  0.00     0.060 A 
ATOM     28  C   UNL A   1      41.617  26.770  27.977  1.00  0.00     0.016 A 
ATOM     29  C   UNL A   1      39.526  25.701  28.585  1.00  0.00     0.016 A 
ATOM     30  C   UNL A   1      41.454  27.691  29.006  1.00  0.00     0.010 A 
ATOM     31  C   UNL A   1      39.364  26.627  29.622  1.00  0.00     0.010 A 
ATOM     32  C   UNL A   1      40.331  27.623  29.840  1.00  0.00    -0.014 A 
BRANCH  32  33
ATOM     33  C   UNL A   1      40.209  28.594  30.953  1.00  0.00     0.031 A 
ATOM     34  C   UNL A   1      41.109  28.487  32.149  1.00  0.00     0.074 A 
ATOM     35  C   UNL A   1      39.332  29.611  30.847  1.00  0.00     0.049 A 
ATOM     36  N   UNL A   1      41.186  29.267  33.196  1.00  0.00    -0.248 NA
ATOM     37  C   UNL A   1      42.046  27.352  32.172  1.00  0.00     0.031 C 
ATOM     38  C   UNL A   1      38.418  29.821  29.724  1.00  0.00     0.029 A 
ATOM     39  N   UNL A   1      39.076  30.662  31.690  1.00  0.00    -0.354 N 
ATOM     40  C   UNL A   1      42.184  28.727  33.999  1.00  0.00     0.074 A 
ATOM     41  C   UNL A   1      42.659  27.531  33.335  1.00  0.00     0.031 C 
ATOM     42  C   UNL A   1      37.704  30.938  29.944  1.00  0.00     0.029 A 
ATOM     43  C   UNL A   1      38.096  31.508  31.231  1.00  0.00     0.049 A 
ATOM     44  H   UNL A   1      39.551  30.798  32.542  1.00  0.00     0.167 HD
ATOM     45  C   UNL A   1      42.669  29.195  35.175  1.00  0.00     0.037 A 
ATOM     46  C   UNL A   1      37.569  32.615  31.789  1.00  0.00     0.037 A 
ATOM     47  C   UNL A   1      42.187  30.383  35.834  1.00  0.00     0.049 A 
ATOM     48  C   UNL A   1      38.108  33.100  33.106  1.00  0.00     0.074 A 
ATOM     49  C   UNL A   1      42.603  30.931  37.036  1.00  0.00     0.029 A 
ATOM     50  N   UNL A   1      41.182  31.207  35.348  1.00  0.00    -0.354 N 
ATOM     51  N   UNL A   1      39.056  32.581  33.850  1.00  0.00    -0.248 NA
ATOM     52  C   UNL A   1      37.514  34.325  33.656  1.00  0.00     0.031 C 
ATOM     53  C   UNL A   1      41.829  32.071  37.290  1.00  0.00     0.029 A 
ATOM     54  C   UNL A   1      40.958  32.254  36.227  1.00  0.00     0.049 A 
ATOM     55  H   UNL A   1      40.699  31.068  34.502  1.00  0.00     0.167 HD
ATOM     56  C   UNL A   1      39.177  33.420  34.952  1.00  0.00     0.074 A 
ATOM     57  C   UNL A   1      38.225  34.496  34.762  1.00  0.00     0.031 C 
ATOM     58  C   UNL A   1      39.997  33.309  36.027  1.00  0.00     0.037 A 
BRANCH  45  59
ATOM     59  C   UNL A   1      43.772  28.413  35.828  1.00  0.00     0.058 A 
ATOM     60  C   UNL A   1      45.123  28.708  35.584  1.00  0.00     0.135 A 
ATOM     61  C   UNL A   1      43.481  27.379  36.731  1.00  0.00     0.135 A 
ATOM     62  F   UNL A   1      45.458  29.675  34.714  1.00  0.00    -0.206 F 
ATOM     63  C   UNL A   1      46.147  27.992  36.196  1.00  0.00     0.059 A 
ATOM     64  C   UNL A   1      44.489  26.664  37.373  1.00  0.00     0.059 A 
ATOM     65  F   UNL A   1      42.206  27.054  36.999  1.00  0.00    -0.206 F 
ATOM     66  C   UNL A   1      45.820  26.969  37.089  1.00  0.00     0.060 A 
BRANCH  66  67
ATOM     67  S   UNL A   1      47.158  26.052  37.882  1.00  0.00     0.124 S 
ATOM     68  O   UNL A   1      46.416  25.186  38.793  1.00  0.00    -0.237 OA
ATOM     69  O   UNL A   1      47.794  25.385  36.750  1.00  0.00    -0.237 OA
ATOM     70  O   UNL A   1      47.954  27.096  38.518  1.00  0.00    -0.744 OA
ENDBRANCH  66  67
ENDBRANCH  45  59
BRANCH  46  71
ATOM     71  C   UNL A   1      36.461  33.333  31.105  1.00  0.00     0.058 A 
ATOM     72  C   UNL A   1      35.142  33.256  31.572  1.00  0.00     0.135 A 
ATOM     73  C   UNL A   1      36.708  34.116  29.966  1.00  0.00     0.135 A 
ATOM     74  F   UNL A   1      34.855  32.513  32.653  1.00  0.00    -0.206 F 
ATOM     75  C   UNL A   1      34.101  33.915  30.926  1.00  0.00     0.059 A 
ATOM     76  C   UNL A   1      35.688  34.804  29.317  1.00  0.00     0.059 A 
ATOM     77  F   UNL A   1      37.956  34.233  29.486  1.00  0.00    -0.206 F 
ATOM     78  C   UNL A   1      34.384  34.688  29.798  1.00  0.00     0.060 A 
BRANCH  78  79
ATOM     79  S   UNL A   1      33.038  35.577  28.989  1.00  0.00     0.124 S 
ATOM     80  O   UNL A   1      32.506  34.555  28.095  1.00  0.00    -0.237 OA
ATOM     81  O   UNL A   1      32.186  35.945  30.116  1.00  0.00    -0.237 OA
ATOM     82  O   UNL A   1      33.719  36.694  28.339  1.00  0.00    -0.744 OA
ENDBRANCH  78  79
ENDBRANCH  46  71
BRANCH  58  83
ATOM     83  C   UNL A   1      39.898  34.387  37.070  1.00  0.00     0.058 A 
ATOM     84  C   UNL A   1      39.099  34.228  38.214  1.00  0.00     0.135 A 
ATOM     85  C   UNL A   1      40.611  35.587  36.930  1.00  0.00     0.135 A 
ATOM     86  F   UNL A   1      38.393  33.099  38.394  1.00  0.00    -0.206 F 
ATOM     87  C   UNL A   1      38.976  35.239  39.161  1.00  0.00     0.059 A 
ATOM     88  C   UNL A   1      40.524  36.602  37.877  1.00  0.00     0.059 A 
ATOM     89  F   UNL A   1      41.399  35.784  35.861  1.00  0.00    -0.206 F 
ATOM     90  C   UNL A   1      39.687  36.427  38.979  1.00  0.00     0.060 A 
BRANCH  90  91
ATOM     91  S   UNL A   1      39.520  37.738  40.209  1.00  0.00     0.124 S 
ATOM     92  O   UNL A   1      38.546  38.616  39.568  1.00  0.00    -0.237 OA
ATOM     93  O   UNL A   1      39.041  37.012  41.382  1.00  0.00    -0.237 OA
ATOM     94  O   UNL A   1      40.873  38.273  40.320  1.00  0.00    -0.744 OA
ENDBRANCH  90  91
ENDBRANCH  58  83
ENDBRANCH  32  33
ENDBRANCH  25  27
ENDBRANCH  24  25
ENDBRANCH  23  24
ENDBRANCH   1  23
TORSDOF 18
ENDMDL
