MODEL 1
REMARK VINA RESULT:     -12.6      0.000      0.000
REMARK SMILES C/C(=N\Nc1nc(-c2ccc(Cl)cc2)cs1)c1nnn(-c2ccc(C(=O)OCCOC(=O)c3ccc(-c4c5nc(c(-c6c(F)cc(S(=O)(=O)[O-])cc6F)c6ccc([nH]6)c(-c6c(F)cc(S(=O)(=O)[O-])cc6F)c6nc(c(-c7c(F)cc(S(=O)(=O)[O-])cc7F)c7ccc4[nH]7)C=C6)C=C5)cc3)cc2)c1C
REMARK SMILES IDX 28 1 27 2 25 3 26 4 24 5 21 6 22 7 100 8 23 9 99 10 20 11
REMARK SMILES IDX 17 12 18 13 101 14 19 15 102 16 2 17 1 18 3 19 4 20 5 22
REMARK SMILES IDX 6 23 16 24 7 25 15 26 8 27 9 28 14 29 10 30 13 31 11 32
REMARK SMILES IDX 12 33 29 34 30 35 31 36 32 37 33 38 34 39 98 40 35 41 97 42
REMARK SMILES IDX 36 43 37 44 38 45 91 46 39 47 96 48 90 49 92 50 40 51 95 52
REMARK SMILES IDX 89 53 88 54 41 56 75 57 54 58 74 59 55 60 58 61 73 62 93 63
REMARK SMILES IDX 56 64 57 65 72 67 94 68 59 69 42 70 43 71 52 72 44 73 45 74
REMARK SMILES IDX 51 75 53 76 46 77 47 78 48 79 49 80 50 81 76 82 77 83 86 84
REMARK SMILES IDX 78 85 79 86 85 87 87 88 80 89 81 90 82 91 83 92 84 93 60 94
REMARK SMILES IDX 61 95 70 96 62 97 63 98 69 99 71 100 64 101 65 102 66 103
REMARK SMILES IDX 67 104 68 105
REMARK H PARENT 4 21 92 55 58 66
REMARK Flexibility Score: inf
ROOT
ATOM      1  C   UNL A   1      33.201  36.164  30.043  1.00  0.00     0.275 C 
ENDROOT
BRANCH   1   2
ATOM      2  O   UNL A   1      32.776  35.030  29.269  1.00  0.00    -0.458 OA
BRANCH   2   3
ATOM      3  C   UNL A   1      33.656  34.571  28.331  1.00  0.00     0.338 C 
ATOM      4  O   UNL A   1      34.628  35.151  27.911  1.00  0.00    -0.246 OA
BRANCH   3   5
ATOM      5  C   UNL A   1      33.278  33.186  27.929  1.00  0.00     0.060 A 
ATOM      6  C   UNL A   1      32.766  30.650  26.921  1.00  0.00     0.067 A 
ATOM      7  C   UNL A   1      33.907  30.846  27.703  1.00  0.00     0.029 A 
ATOM      8  C   UNL A   1      31.808  31.660  26.782  1.00  0.00     0.029 A 
ATOM      9  C   UNL A   1      34.169  32.130  28.193  1.00  0.00     0.018 A 
ATOM     10  C   UNL A   1      32.065  32.928  27.285  1.00  0.00     0.018 A 
BRANCH   6  11
ATOM     11  N   UNL A   1      32.696  29.534  26.060  1.00  0.00    -0.217 N 
ATOM     12  C   UNL A   1      32.105  27.608  25.229  1.00  0.00     0.132 A 
ATOM     13  N   UNL A   1      32.468  28.431  24.202  1.00  0.00    -0.128 NA
ATOM     14  C   UNL A   1      32.245  28.278  26.433  1.00  0.00     0.071 A 
ATOM     15  N   UNL A   1      32.742  29.627  24.714  1.00  0.00    -0.061 NA
ATOM     16  C   UNL A   1      31.789  27.904  27.800  1.00  0.00     0.069 C 
BRANCH  12  17
ATOM     17  C   UNL A   1      31.431  26.329  25.070  1.00  0.00     0.087 C 
ATOM     18  C   UNL A   1      30.016  26.434  24.547  1.00  0.00     0.071 C 
ATOM     19  N   UNL A   1      32.078  25.275  25.484  1.00  0.00    -0.176 NA
BRANCH  19  20
ATOM     20  N   UNL A   1      31.514  24.023  25.567  1.00  0.00    -0.252 N 
ATOM     21  H   UNL A   1      30.967  23.871  26.372  1.00  0.00     0.193 HD
BRANCH  20  22
ATOM     22  C   UNL A   1      31.589  22.963  24.724  1.00  0.00     0.203 A 
ATOM     23  N   UNL A   1      31.936  21.741  25.050  1.00  0.00    -0.219 NA
ATOM     24  S   UNL A   1      31.329  23.180  23.027  1.00  0.00    -0.103 S 
ATOM     25  C   UNL A   1      32.330  21.036  23.933  1.00  0.00     0.084 A 
ATOM     26  C   UNL A   1      32.079  21.660  22.731  1.00  0.00     0.097 A 
BRANCH  25  27
ATOM     27  C   UNL A   1      33.047  19.786  24.101  1.00  0.00     0.001 A 
ATOM     28  C   UNL A   1      32.361  18.576  23.944  1.00  0.00     0.012 A 
ATOM     29  C   UNL A   1      34.372  19.774  24.558  1.00  0.00     0.012 A 
ATOM     30  C   UNL A   1      32.998  17.363  24.213  1.00  0.00     0.021 A 
ATOM     31  C   UNL A   1      35.006  18.559  24.840  1.00  0.00     0.021 A 
ATOM     32  C   UNL A   1      34.316  17.360  24.661  1.00  0.00     0.041 A 
ATOM     33  Cl  UNL A   1      35.095  15.868  25.014  1.00  0.00    -0.084 Cl
ENDBRANCH  25  27
ENDBRANCH  20  22
ENDBRANCH  19  20
ENDBRANCH  12  17
ENDBRANCH   6  11
ENDBRANCH   3   5
ENDBRANCH   2   3
ENDBRANCH   1   2
BRANCH   1  34
ATOM     34  C   UNL A   1      33.422  35.774  31.497  1.00  0.00     0.275 C 
BRANCH  34  35
ATOM     35  O   UNL A   1      33.517  34.358  31.618  1.00  0.00    -0.458 OA
BRANCH  35  36
ATOM     36  C   UNL A   1      34.577  33.908  32.324  1.00  0.00     0.338 C 
ATOM     37  O   UNL A   1      34.882  34.213  33.467  1.00  0.00    -0.246 OA
BRANCH  36  38
ATOM     38  C   UNL A   1      35.444  33.129  31.440  1.00  0.00     0.060 A 
ATOM     39  C   UNL A   1      35.407  31.739  31.596  1.00  0.00     0.016 A 
ATOM     40  C   UNL A   1      36.495  33.782  30.782  1.00  0.00     0.016 A 
ATOM     41  C   UNL A   1      36.552  31.027  31.320  1.00  0.00     0.010 A 
ATOM     42  C   UNL A   1      37.640  33.076  30.527  1.00  0.00     0.010 A 
ATOM     43  C   UNL A   1      37.680  31.733  30.898  1.00  0.00    -0.014 A 
BRANCH  43  44
ATOM     44  C   UNL A   1      38.942  31.033  30.846  1.00  0.00     0.031 A 
ATOM     45  C   UNL A   1      39.609  30.921  32.160  1.00  0.00     0.074 A 
ATOM     46  C   UNL A   1      39.340  30.414  29.718  1.00  0.00     0.049 A 
ATOM     47  N   UNL A   1      40.751  31.398  32.528  1.00  0.00    -0.248 NA
ATOM     48  C   UNL A   1      38.817  30.333  33.255  1.00  0.00     0.031 C 
ATOM     49  C   UNL A   1      38.581  30.222  28.476  1.00  0.00     0.029 A 
ATOM     50  N   UNL A   1      40.473  29.704  29.492  1.00  0.00    -0.354 N 
ATOM     51  C   UNL A   1      40.917  30.964  33.839  1.00  0.00     0.074 A 
ATOM     52  C   UNL A   1      39.631  30.510  34.294  1.00  0.00     0.031 C 
ATOM     53  C   UNL A   1      39.174  29.257  27.740  1.00  0.00     0.029 A 
ATOM     54  C   UNL A   1      40.404  28.854  28.399  1.00  0.00     0.049 A 
ATOM     55  H   UNL A   1      41.276  29.786  30.057  1.00  0.00     0.167 HD
ATOM     56  C   UNL A   1      42.152  30.737  34.360  1.00  0.00     0.037 A 
ATOM     57  C   UNL A   1      41.249  27.825  28.140  1.00  0.00     0.037 A 
ATOM     58  C   UNL A   1      43.180  31.417  33.616  1.00  0.00     0.049 A 
ATOM     59  C   UNL A   1      42.485  28.064  28.937  1.00  0.00     0.074 A 
ATOM     60  C   UNL A   1      43.422  32.740  33.294  1.00  0.00     0.029 A 
ATOM     61  N   UNL A   1      43.953  30.677  32.754  1.00  0.00    -0.354 N 
ATOM     62  N   UNL A   1      43.299  29.068  28.739  1.00  0.00    -0.248 NA
ATOM     63  C   UNL A   1      42.575  27.451  30.255  1.00  0.00     0.031 C 
ATOM     64  C   UNL A   1      43.946  32.711  31.969  1.00  0.00     0.029 A 
ATOM     65  C   UNL A   1      44.034  31.375  31.574  1.00  0.00     0.049 A 
ATOM     66  H   UNL A   1      44.372  29.807  32.947  1.00  0.00     0.167 HD
ATOM     67  C   UNL A   1      43.703  29.467  30.007  1.00  0.00     0.074 A 
ATOM     68  C   UNL A   1      43.297  28.377  30.891  1.00  0.00     0.031 C 
ATOM     69  C   UNL A   1      44.071  30.757  30.265  1.00  0.00     0.037 A 
BRANCH  56  70
ATOM     70  C   UNL A   1      42.436  29.596  35.305  1.00  0.00     0.058 A 
ATOM     71  C   UNL A   1      43.122  29.844  36.506  1.00  0.00     0.135 A 
ATOM     72  C   UNL A   1      42.299  28.233  34.946  1.00  0.00     0.135 A 
ATOM     73  F   UNL A   1      43.324  31.102  36.929  1.00  0.00    -0.206 F 
ATOM     74  C   UNL A   1      43.688  28.818  37.263  1.00  0.00     0.059 A 
ATOM     75  C   UNL A   1      42.798  27.193  35.717  1.00  0.00     0.059 A 
ATOM     76  F   UNL A   1      41.770  27.845  33.779  1.00  0.00    -0.206 F 
ATOM     77  C   UNL A   1      43.533  27.496  36.848  1.00  0.00     0.060 A 
BRANCH  77  78
ATOM     78  S   UNL A   1      44.376  26.178  37.738  1.00  0.00     0.124 S 
ATOM     79  O   UNL A   1      44.535  26.780  39.056  1.00  0.00    -0.237 OA
ATOM     80  O   UNL A   1      43.416  25.085  37.642  1.00  0.00    -0.237 OA
ATOM     81  O   UNL A   1      45.607  25.993  36.974  1.00  0.00    -0.744 OA
ENDBRANCH  77  78
ENDBRANCH  56  70
BRANCH  57  82
ATOM     82  C   UNL A   1      40.876  26.492  27.591  1.00  0.00     0.058 A 
ATOM     83  C   UNL A   1      41.605  25.901  26.544  1.00  0.00     0.135 A 
ATOM     84  C   UNL A   1      39.950  25.653  28.248  1.00  0.00     0.135 A 
ATOM     85  F   UNL A   1      42.532  26.613  25.884  1.00  0.00    -0.206 F 
ATOM     86  C   UNL A   1      41.447  24.554  26.191  1.00  0.00     0.059 A 
ATOM     87  C   UNL A   1      39.763  24.317  27.904  1.00  0.00     0.059 A 
ATOM     88  F   UNL A   1      39.255  26.083  29.312  1.00  0.00    -0.206 F 
ATOM     89  C   UNL A   1      40.530  23.766  26.888  1.00  0.00     0.060 A 
BRANCH  89  90
ATOM     90  S   UNL A   1      40.425  21.995  26.540  1.00  0.00     0.124 S 
ATOM     91  O   UNL A   1      39.112  21.888  25.913  1.00  0.00    -0.237 OA
ATOM     92  O   UNL A   1      41.571  21.783  25.664  1.00  0.00    -0.237 OA
ATOM     93  O   UNL A   1      40.534  21.382  27.863  1.00  0.00    -0.744 OA
ENDBRANCH  89  90
ENDBRANCH  57  82
BRANCH  69  94
ATOM     94  C   UNL A   1      44.282  31.682  29.089  1.00  0.00     0.058 A 
ATOM     95  C   UNL A   1      45.408  31.630  28.246  1.00  0.00     0.135 A 
ATOM     96  C   UNL A   1      43.238  32.533  28.702  1.00  0.00     0.135 A 
ATOM     97  F   UNL A   1      46.402  30.765  28.479  1.00  0.00    -0.206 F 
ATOM     98  C   UNL A   1      45.508  32.416  27.097  1.00  0.00     0.059 A 
ATOM     99  C   UNL A   1      43.303  33.304  27.543  1.00  0.00     0.059 A 
ATOM    100  F   UNL A   1      42.107  32.578  29.426  1.00  0.00    -0.206 F 
ATOM    101  C   UNL A   1      44.447  33.250  26.750  1.00  0.00     0.060 A 
BRANCH 101 102
ATOM    102  S   UNL A   1      44.542  34.196  25.214  1.00  0.00     0.124 S 
ATOM    103  O   UNL A   1      44.440  33.151  24.202  1.00  0.00    -0.237 OA
ATOM    104  O   UNL A   1      43.392  35.091  25.319  1.00  0.00    -0.237 OA
ATOM    105  O   UNL A   1      45.843  34.857  25.300  1.00  0.00    -0.744 OA
ENDBRANCH 101 102
ENDBRANCH  69  94
ENDBRANCH  43  44
ENDBRANCH  36  38
ENDBRANCH  35  36
ENDBRANCH  34  35
ENDBRANCH   1  34
TORSDOF 19
ENDMDL
MODEL 2
REMARK VINA RESULT:     -12.0      2.013      2.668
REMARK SMILES C/C(=N\Nc1nc(-c2ccc(Cl)cc2)cs1)c1nnn(-c2ccc(C(=O)OCCOC(=O)c3ccc(-c4c5nc(c(-c6c(F)cc(S(=O)(=O)[O-])cc6F)c6ccc([nH]6)c(-c6c(F)cc(S(=O)(=O)[O-])cc6F)c6nc(c(-c7c(F)cc(S(=O)(=O)[O-])cc7F)c7ccc4[nH]7)C=C6)C=C5)cc3)cc2)c1C
REMARK SMILES IDX 28 1 27 2 25 3 26 4 24 5 21 6 22 7 100 8 23 9 99 10 20 11
REMARK SMILES IDX 17 12 18 13 101 14 19 15 102 16 2 17 1 18 3 19 4 20 5 22
REMARK SMILES IDX 6 23 16 24 7 25 15 26 8 27 9 28 14 29 10 30 13 31 11 32
REMARK SMILES IDX 12 33 29 34 30 35 31 36 32 37 33 38 34 39 98 40 35 41 97 42
REMARK SMILES IDX 36 43 37 44 38 45 91 46 39 47 96 48 90 49 92 50 40 51 95 52
REMARK SMILES IDX 89 53 88 54 41 56 75 57 54 58 74 59 55 60 58 61 73 62 93 63
REMARK SMILES IDX 56 64 57 65 72 67 94 68 59 69 42 70 43 71 52 72 44 73 45 74
REMARK SMILES IDX 51 75 53 76 46 77 47 78 48 79 49 80 50 81 76 82 77 83 86 84
REMARK SMILES IDX 78 85 79 86 85 87 87 88 80 89 81 90 82 91 83 92 84 93 60 94
REMARK SMILES IDX 61 95 70 96 62 97 63 98 69 99 71 100 64 101 65 102 66 103
REMARK SMILES IDX 67 104 68 105
REMARK H PARENT 4 21 92 55 58 66
REMARK Flexibility Score: inf
ROOT
ATOM      1  C   UNL A   1      33.221  35.820  28.916  1.00  0.00     0.275 C 
ENDROOT
BRANCH   1   2
ATOM      2  O   UNL A   1      32.792  34.467  28.690  1.00  0.00    -0.458 OA
BRANCH   2   3
ATOM      3  C   UNL A   1      33.711  33.625  28.134  1.00  0.00     0.338 C 
ATOM      4  O   UNL A   1      34.911  33.758  28.146  1.00  0.00    -0.246 OA
BRANCH   3   5
ATOM      5  C   UNL A   1      33.014  32.445  27.545  1.00  0.00     0.060 A 
ATOM      6  C   UNL A   1      31.889  30.305  26.181  1.00  0.00     0.067 A 
ATOM      7  C   UNL A   1      33.107  30.118  26.841  1.00  0.00     0.029 A 
ATOM      8  C   UNL A   1      31.162  31.489  26.336  1.00  0.00     0.029 A 
ATOM      9  C   UNL A   1      33.677  31.205  27.511  1.00  0.00     0.018 A 
ATOM     10  C   UNL A   1      31.725  32.559  27.018  1.00  0.00     0.018 A 
BRANCH   6  11
ATOM     11  N   UNL A   1      31.512  29.413  25.154  1.00  0.00    -0.217 N 
ATOM     12  C   UNL A   1      30.996  27.568  24.115  1.00  0.00     0.132 A 
ATOM     13  N   UNL A   1      30.331  28.601  23.520  1.00  0.00    -0.128 NA
ATOM     14  C   UNL A   1      31.766  28.050  25.160  1.00  0.00     0.071 A 
ATOM     15  N   UNL A   1      30.586  29.706  24.216  1.00  0.00    -0.061 NA
ATOM     16  C   UNL A   1      32.496  27.322  26.233  1.00  0.00     0.069 C 
BRANCH  12  17
ATOM     17  C   UNL A   1      30.735  26.159  23.866  1.00  0.00     0.087 C 
ATOM     18  C   UNL A   1      29.836  25.503  24.889  1.00  0.00     0.071 C 
ATOM     19  N   UNL A   1      31.374  25.618  22.865  1.00  0.00    -0.176 NA
BRANCH  19  20
ATOM     20  N   UNL A   1      31.374  24.266  22.608  1.00  0.00    -0.252 N 
ATOM     21  H   UNL A   1      30.591  23.943  22.106  1.00  0.00     0.193 HD
BRANCH  20  22
ATOM     22  C   UNL A   1      32.273  23.305  22.935  1.00  0.00     0.203 A 
ATOM     23  N   UNL A   1      32.057  22.012  22.930  1.00  0.00    -0.219 NA
ATOM     24  S   UNL A   1      33.838  23.743  23.531  1.00  0.00    -0.103 S 
ATOM     25  C   UNL A   1      32.990  21.362  23.709  1.00  0.00     0.084 A 
ATOM     26  C   UNL A   1      34.043  22.144  24.133  1.00  0.00     0.097 A 
BRANCH  25  27
ATOM     27  C   UNL A   1      32.754  19.986  24.100  1.00  0.00     0.001 A 
ATOM     28  C   UNL A   1      32.907  19.618  25.442  1.00  0.00     0.012 A 
ATOM     29  C   UNL A   1      32.518  18.996  23.135  1.00  0.00     0.012 A 
ATOM     30  C   UNL A   1      32.799  18.279  25.823  1.00  0.00     0.021 A 
ATOM     31  C   UNL A   1      32.423  17.653  23.516  1.00  0.00     0.021 A 
ATOM     32  C   UNL A   1      32.560  17.302  24.859  1.00  0.00     0.041 A 
ATOM     33  Cl  UNL A   1      32.448  15.651  25.325  1.00  0.00    -0.084 Cl
ENDBRANCH  25  27
ENDBRANCH  20  22
ENDBRANCH  19  20
ENDBRANCH  12  17
ENDBRANCH   6  11
ENDBRANCH   3   5
ENDBRANCH   2   3
ENDBRANCH   1   2
BRANCH   1  34
ATOM     34  C   UNL A   1      33.083  36.193  30.386  1.00  0.00     0.275 C 
BRANCH  34  35
ATOM     35  O   UNL A   1      33.242  35.038  31.203  1.00  0.00    -0.458 OA
BRANCH  35  36
ATOM     36  C   UNL A   1      33.414  35.282  32.521  1.00  0.00     0.338 C 
ATOM     37  O   UNL A   1      32.904  36.179  33.175  1.00  0.00    -0.246 OA
BRANCH  36  38
ATOM     38  C   UNL A   1      34.477  34.416  33.033  1.00  0.00     0.060 A 
ATOM     39  C   UNL A   1      35.580  35.055  33.608  1.00  0.00     0.016 A 
ATOM     40  C   UNL A   1      34.521  33.082  32.606  1.00  0.00     0.016 A 
ATOM     41  C   UNL A   1      36.805  34.436  33.517  1.00  0.00     0.010 A 
ATOM     42  C   UNL A   1      35.744  32.476  32.498  1.00  0.00     0.010 A 
ATOM     43  C   UNL A   1      36.875  33.207  32.860  1.00  0.00    -0.014 A 
BRANCH  43  44
ATOM     44  C   UNL A   1      38.179  32.674  32.544  1.00  0.00     0.031 A 
ATOM     45  C   UNL A   1      39.040  32.482  33.731  1.00  0.00     0.074 A 
ATOM     46  C   UNL A   1      38.467  32.251  31.299  1.00  0.00     0.049 A 
ATOM     47  N   UNL A   1      40.170  33.043  34.006  1.00  0.00    -0.248 NA
ATOM     48  C   UNL A   1      38.482  31.673  34.829  1.00  0.00     0.031 C 
ATOM     49  C   UNL A   1      37.556  32.125  30.155  1.00  0.00     0.029 A 
ATOM     50  N   UNL A   1      39.620  31.715  30.829  1.00  0.00    -0.354 N 
ATOM     51  C   UNL A   1      40.571  32.474  35.210  1.00  0.00     0.074 A 
ATOM     52  C   UNL A   1      39.418  31.817  35.764  1.00  0.00     0.031 C 
ATOM     53  C   UNL A   1      38.128  31.335  29.219  1.00  0.00     0.029 A 
ATOM     54  C   UNL A   1      39.477  31.004  29.646  1.00  0.00     0.049 A 
ATOM     55  H   UNL A   1      40.485  31.822  31.287  1.00  0.00     0.167 HD
ATOM     56  C   UNL A   1      41.886  32.334  35.525  1.00  0.00     0.037 A 
ATOM     57  C   UNL A   1      40.373  30.122  29.137  1.00  0.00     0.037 A 
ATOM     58  C   UNL A   1      42.719  33.218  34.753  1.00  0.00     0.049 A 
ATOM     59  C   UNL A   1      41.683  30.408  29.788  1.00  0.00     0.074 A 
ATOM     60  C   UNL A   1      42.776  34.590  34.589  1.00  0.00     0.029 A 
ATOM     61  N   UNL A   1      43.427  32.688  33.702  1.00  0.00    -0.354 N 
ATOM     62  N   UNL A   1      42.353  31.519  29.625  1.00  0.00    -0.248 NA
ATOM     63  C   UNL A   1      42.028  29.653  30.985  1.00  0.00     0.031 C 
ATOM     64  C   UNL A   1      43.099  34.787  33.215  1.00  0.00     0.029 A 
ATOM     65  C   UNL A   1      43.262  33.530  32.630  1.00  0.00     0.049 A 
ATOM     66  H   UNL A   1      43.955  31.857  33.715  1.00  0.00     0.167 HD
ATOM     67  C   UNL A   1      42.898  31.804  30.871  1.00  0.00     0.074 A 
ATOM     68  C   UNL A   1      42.739  30.573  31.642  1.00  0.00     0.031 C 
ATOM     69  C   UNL A   1      43.168  33.087  31.254  1.00  0.00     0.037 A 
BRANCH  56  70
ATOM     70  C   UNL A   1      42.419  31.128  36.257  1.00  0.00     0.058 A 
ATOM     71  C   UNL A   1      43.320  31.303  37.321  1.00  0.00     0.135 A 
ATOM     72  C   UNL A   1      42.290  29.802  35.775  1.00  0.00     0.135 A 
ATOM     73  F   UNL A   1      43.532  32.523  37.841  1.00  0.00    -0.206 F 
ATOM     74  C   UNL A   1      44.085  30.252  37.828  1.00  0.00     0.059 A 
ATOM     75  C   UNL A   1      42.993  28.731  36.307  1.00  0.00     0.059 A 
ATOM     76  F   UNL A   1      41.558  29.496  34.697  1.00  0.00    -0.206 F 
ATOM     77  C   UNL A   1      43.924  28.972  37.299  1.00  0.00     0.060 A 
BRANCH  77  78
ATOM     78  S   UNL A   1      45.003  27.641  37.847  1.00  0.00     0.124 S 
ATOM     79  O   UNL A   1      45.191  26.896  36.608  1.00  0.00    -0.237 OA
ATOM     80  O   UNL A   1      46.164  28.373  38.339  1.00  0.00    -0.237 OA
ATOM     81  O   UNL A   1      44.211  26.969  38.875  1.00  0.00    -0.744 OA
ENDBRANCH  77  78
ENDBRANCH  56  70
BRANCH  57  82
ATOM     82  C   UNL A   1      40.061  28.833  28.463  1.00  0.00     0.058 A 
ATOM     83  C   UNL A   1      40.649  28.487  27.234  1.00  0.00     0.135 A 
ATOM     84  C   UNL A   1      39.371  27.797  29.130  1.00  0.00     0.135 A 
ATOM     85  F   UNL A   1      41.353  29.398  26.545  1.00  0.00    -0.206 F 
ATOM     86  C   UNL A   1      40.582  27.187  26.714  1.00  0.00     0.059 A 
ATOM     87  C   UNL A   1      39.276  26.503  28.625  1.00  0.00     0.059 A 
ATOM     88  F   UNL A   1      38.837  27.987  30.346  1.00  0.00    -0.206 F 
ATOM     89  C   UNL A   1      39.903  26.198  27.426  1.00  0.00     0.060 A 
BRANCH  89  90
ATOM     90  S   UNL A   1      39.937  24.488  26.838  1.00  0.00     0.124 S 
ATOM     91  O   UNL A   1      41.224  24.431  26.152  1.00  0.00    -0.237 OA
ATOM     92  O   UNL A   1      39.840  23.731  28.081  1.00  0.00    -0.237 OA
ATOM     93  O   UNL A   1      38.765  24.405  25.968  1.00  0.00    -0.744 OA
ENDBRANCH  89  90
ENDBRANCH  57  82
BRANCH  69  94
ATOM     94  C   UNL A   1      43.109  34.168  30.201  1.00  0.00     0.058 A 
ATOM     95  C   UNL A   1      41.912  34.749  29.743  1.00  0.00     0.135 A 
ATOM     96  C   UNL A   1      44.306  34.754  29.765  1.00  0.00     0.135 A 
ATOM     97  F   UNL A   1      40.725  34.325  30.196  1.00  0.00    -0.206 F 
ATOM     98  C   UNL A   1      41.904  35.832  28.863  1.00  0.00     0.059 A 
ATOM     99  C   UNL A   1      44.322  35.855  28.910  1.00  0.00     0.059 A 
ATOM    100  F   UNL A   1      45.483  34.292  30.219  1.00  0.00    -0.206 F 
ATOM    101  C   UNL A   1      43.116  36.381  28.452  1.00  0.00     0.060 A 
BRANCH 101 102
ATOM    102  S   UNL A   1      43.101  37.839  27.386  1.00  0.00     0.124 S 
ATOM    103  O   UNL A   1      44.312  37.656  26.596  1.00  0.00    -0.237 OA
ATOM    104  O   UNL A   1      41.842  37.690  26.660  1.00  0.00    -0.237 OA
ATOM    105  O   UNL A   1      43.134  38.954  28.331  1.00  0.00    -0.744 OA
ENDBRANCH 101 102
ENDBRANCH  69  94
ENDBRANCH  43  44
ENDBRANCH  36  38
ENDBRANCH  35  36
ENDBRANCH  34  35
ENDBRANCH   1  34
TORSDOF 19
ENDMDL
MODEL 3
REMARK VINA RESULT:     -11.6      5.852     11.073
REMARK SMILES C/C(=N\Nc1nc(-c2ccc(Cl)cc2)cs1)c1nnn(-c2ccc(C(=O)OCCOC(=O)c3ccc(-c4c5nc(c(-c6c(F)cc(S(=O)(=O)[O-])cc6F)c6ccc([nH]6)c(-c6c(F)cc(S(=O)(=O)[O-])cc6F)c6nc(c(-c7c(F)cc(S(=O)(=O)[O-])cc7F)c7ccc4[nH]7)C=C6)C=C5)cc3)cc2)c1C
REMARK SMILES IDX 28 1 27 2 25 3 26 4 24 5 21 6 22 7 100 8 23 9 99 10 20 11
REMARK SMILES IDX 17 12 18 13 101 14 19 15 102 16 2 17 1 18 3 19 4 20 5 22
REMARK SMILES IDX 6 23 16 24 7 25 15 26 8 27 9 28 14 29 10 30 13 31 11 32
REMARK SMILES IDX 12 33 29 34 30 35 31 36 32 37 33 38 34 39 98 40 35 41 97 42
REMARK SMILES IDX 36 43 37 44 38 45 91 46 39 47 96 48 90 49 92 50 40 51 95 52
REMARK SMILES IDX 89 53 88 54 41 56 75 57 54 58 74 59 55 60 58 61 73 62 93 63
REMARK SMILES IDX 56 64 57 65 72 67 94 68 59 69 42 70 43 71 52 72 44 73 45 74
REMARK SMILES IDX 51 75 53 76 46 77 47 78 48 79 49 80 50 81 76 82 77 83 86 84
REMARK SMILES IDX 78 85 79 86 85 87 87 88 80 89 81 90 82 91 83 92 84 93 60 94
REMARK SMILES IDX 61 95 70 96 62 97 63 98 69 99 71 100 64 101 65 102 66 103
REMARK SMILES IDX 67 104 68 105
REMARK H PARENT 4 21 92 55 58 66
REMARK Flexibility Score: inf
ROOT
ATOM      1  C   UNL A   1      43.200  41.299  29.960  1.00  0.00     0.275 C 
ENDROOT
BRANCH   1   2
ATOM      2  O   UNL A   1      42.395  40.270  29.360  1.00  0.00    -0.458 OA
BRANCH   2   3
ATOM      3  C   UNL A   1      42.663  39.976  28.053  1.00  0.00     0.338 C 
ATOM      4  O   UNL A   1      42.647  40.746  27.124  1.00  0.00    -0.246 OA
BRANCH   3   5
ATOM      5  C   UNL A   1      43.052  38.541  27.936  1.00  0.00     0.060 A 
ATOM      6  C   UNL A   1      44.034  35.974  27.550  1.00  0.00     0.067 A 
ATOM      7  C   UNL A   1      44.521  36.727  28.621  1.00  0.00     0.029 A 
ATOM      8  C   UNL A   1      42.956  36.428  26.783  1.00  0.00     0.029 A 
ATOM      9  C   UNL A   1      44.036  38.027  28.799  1.00  0.00     0.018 A 
ATOM     10  C   UNL A   1      42.466  37.712  26.976  1.00  0.00     0.018 A 
BRANCH   6  11
ATOM     11  N   UNL A   1      44.786  34.880  27.072  1.00  0.00    -0.217 N 
ATOM     12  C   UNL A   1      45.428  32.832  26.689  1.00  0.00     0.132 A 
ATOM     13  N   UNL A   1      45.816  33.612  25.637  1.00  0.00    -0.128 NA
ATOM     14  C   UNL A   1      44.772  33.610  27.628  1.00  0.00     0.071 A 
ATOM     15  N   UNL A   1      45.343  34.838  25.842  1.00  0.00    -0.061 NA
ATOM     16  C   UNL A   1      43.986  33.210  28.827  1.00  0.00     0.069 C 
BRANCH  12  17
ATOM     17  C   UNL A   1      45.462  31.378  26.700  1.00  0.00     0.087 C 
ATOM     18  C   UNL A   1      46.843  30.790  26.876  1.00  0.00     0.071 C 
ATOM     19  N   UNL A   1      44.333  30.769  26.463  1.00  0.00    -0.176 NA
BRANCH  19  20
ATOM     20  N   UNL A   1      44.231  29.411  26.264  1.00  0.00    -0.252 N 
ATOM     21  H   UNL A   1      45.022  28.996  25.850  1.00  0.00     0.193 HD
BRANCH  20  22
ATOM     22  C   UNL A   1      43.220  28.552  26.543  1.00  0.00     0.203 A 
ATOM     23  N   UNL A   1      41.971  28.879  26.777  1.00  0.00    -0.219 NA
ATOM     24  S   UNL A   1      43.541  26.862  26.739  1.00  0.00    -0.103 S 
ATOM     25  C   UNL A   1      41.321  27.861  27.440  1.00  0.00     0.084 A 
ATOM     26  C   UNL A   1      42.020  26.677  27.521  1.00  0.00     0.097 A 
BRANCH  25  27
ATOM     27  C   UNL A   1      40.043  28.130  28.072  1.00  0.00     0.001 A 
ATOM     28  C   UNL A   1      39.188  29.086  27.510  1.00  0.00     0.012 A 
ATOM     29  C   UNL A   1      39.720  27.557  29.310  1.00  0.00     0.012 A 
ATOM     30  C   UNL A   1      38.007  29.446  28.162  1.00  0.00     0.021 A 
ATOM     31  C   UNL A   1      38.543  27.929  29.969  1.00  0.00     0.021 A 
ATOM     32  C   UNL A   1      37.690  28.868  29.389  1.00  0.00     0.041 A 
ATOM     33  Cl  UNL A   1      36.247  29.328  30.203  1.00  0.00    -0.084 Cl
ENDBRANCH  25  27
ENDBRANCH  20  22
ENDBRANCH  19  20
ENDBRANCH  12  17
ENDBRANCH   6  11
ENDBRANCH   3   5
ENDBRANCH   2   3
ENDBRANCH   1   2
BRANCH   1  34
ATOM     34  C   UNL A   1      42.984  41.344  31.466  1.00  0.00     0.275 C 
BRANCH  34  35
ATOM     35  O   UNL A   1      42.963  40.024  32.000  1.00  0.00    -0.458 OA
BRANCH  35  36
ATOM     36  C   UNL A   1      43.648  39.856  33.153  1.00  0.00     0.338 C 
ATOM     37  O   UNL A   1      44.335  40.687  33.728  1.00  0.00    -0.246 OA
BRANCH  36  38
ATOM     38  C   UNL A   1      43.610  38.442  33.530  1.00  0.00     0.060 A 
ATOM     39  C   UNL A   1      43.515  37.520  32.482  1.00  0.00     0.016 A 
ATOM     40  C   UNL A   1      43.300  38.107  34.854  1.00  0.00     0.016 A 
ATOM     41  C   UNL A   1      42.859  36.334  32.723  1.00  0.00     0.010 A 
ATOM     42  C   UNL A   1      42.630  36.937  35.088  1.00  0.00     0.010 A 
ATOM     43  C   UNL A   1      42.332  36.121  33.998  1.00  0.00    -0.014 A 
BRANCH  43  44
ATOM     44  C   UNL A   1      41.437  35.003  34.187  1.00  0.00     0.031 A 
ATOM     45  C   UNL A   1      41.819  33.805  33.410  1.00  0.00     0.074 A 
ATOM     46  C   UNL A   1      40.470  35.047  35.123  1.00  0.00     0.049 A 
ATOM     47  N   UNL A   1      41.156  33.203  32.480  1.00  0.00    -0.248 NA
ATOM     48  C   UNL A   1      43.195  33.310  33.590  1.00  0.00     0.031 C 
ATOM     49  C   UNL A   1      40.240  36.082  36.137  1.00  0.00     0.029 A 
ATOM     50  N   UNL A   1      39.559  34.097  35.448  1.00  0.00    -0.354 N 
ATOM     51  C   UNL A   1      41.943  32.114  32.123  1.00  0.00     0.074 A 
ATOM     52  C   UNL A   1      43.252  32.349  32.671  1.00  0.00     0.031 C 
ATOM     53  C   UNL A   1      39.424  35.590  37.095  1.00  0.00     0.029 A 
ATOM     54  C   UNL A   1      38.987  34.262  36.701  1.00  0.00     0.049 A 
ATOM     55  H   UNL A   1      39.323  33.354  34.846  1.00  0.00     0.167 HD
ATOM     56  C   UNL A   1      41.392  30.963  31.655  1.00  0.00     0.037 A 
ATOM     57  C   UNL A   1      38.305  33.315  37.392  1.00  0.00     0.037 A 
ATOM     58  C   UNL A   1      40.061  31.173  31.151  1.00  0.00     0.049 A 
ATOM     59  C   UNL A   1      37.881  32.278  36.409  1.00  0.00     0.074 A 
ATOM     60  C   UNL A   1      39.518  31.980  30.168  1.00  0.00     0.029 A 
ATOM     61  N   UNL A   1      39.002  30.777  31.932  1.00  0.00    -0.354 N 
ATOM     62  N   UNL A   1      37.031  32.494  35.440  1.00  0.00    -0.248 NA
ATOM     63  C   UNL A   1      38.751  31.125  36.218  1.00  0.00     0.031 C 
ATOM     64  C   UNL A   1      38.260  32.403  30.685  1.00  0.00     0.029 A 
ATOM     65  C   UNL A   1      38.086  31.800  31.932  1.00  0.00     0.049 A 
ATOM     66  H   UNL A   1      38.916  29.917  32.405  1.00  0.00     0.167 HD
ATOM     67  C   UNL A   1      37.519  31.772  34.358  1.00  0.00     0.074 A 
ATOM     68  C   UNL A   1      38.527  30.880  34.925  1.00  0.00     0.031 C 
ATOM     69  C   UNL A   1      37.267  32.159  33.072  1.00  0.00     0.037 A 
BRANCH  56  70
ATOM     70  C   UNL A   1      41.933  29.601  32.014  1.00  0.00     0.058 A 
ATOM     71  C   UNL A   1      41.929  29.184  33.356  1.00  0.00     0.135 A 
ATOM     72  C   UNL A   1      42.700  28.807  31.128  1.00  0.00     0.135 A 
ATOM     73  F   UNL A   1      41.248  29.877  34.283  1.00  0.00    -0.206 F 
ATOM     74  C   UNL A   1      42.683  28.097  33.798  1.00  0.00     0.059 A 
ATOM     75  C   UNL A   1      43.406  27.684  31.534  1.00  0.00     0.059 A 
ATOM     76  F   UNL A   1      42.891  29.140  29.845  1.00  0.00    -0.206 F 
ATOM     77  C   UNL A   1      43.432  27.365  32.879  1.00  0.00     0.060 A 
BRANCH  77  78
ATOM     78  S   UNL A   1      44.516  26.051  33.458  1.00  0.00     0.124 S 
ATOM     79  O   UNL A   1      45.623  26.819  34.017  1.00  0.00    -0.237 OA
ATOM     80  O   UNL A   1      43.666  25.357  34.419  1.00  0.00    -0.237 OA
ATOM     81  O   UNL A   1      44.816  25.303  32.240  1.00  0.00    -0.744 OA
ENDBRANCH  77  78
ENDBRANCH  56  70
BRANCH  57  82
ATOM     82  C   UNL A   1      38.373  33.070  38.859  1.00  0.00     0.058 A 
ATOM     83  C   UNL A   1      37.238  32.676  39.589  1.00  0.00     0.135 A 
ATOM     84  C   UNL A   1      39.607  32.973  39.537  1.00  0.00     0.135 A 
ATOM     85  F   UNL A   1      36.026  32.703  39.015  1.00  0.00    -0.206 F 
ATOM     86  C   UNL A   1      37.326  32.188  40.900  1.00  0.00     0.059 A 
ATOM     87  C   UNL A   1      39.718  32.507  40.845  1.00  0.00     0.059 A 
ATOM     88  F   UNL A   1      40.765  33.245  38.917  1.00  0.00    -0.206 F 
ATOM     89  C   UNL A   1      38.575  32.095  41.514  1.00  0.00     0.060 A 
BRANCH  89  90
ATOM     90  S   UNL A   1      38.716  31.329  43.147  1.00  0.00     0.124 S 
ATOM     91  O   UNL A   1      37.954  32.254  43.980  1.00  0.00    -0.237 OA
ATOM     92  O   UNL A   1      38.112  30.020  42.928  1.00  0.00    -0.237 OA
ATOM     93  O   UNL A   1      40.156  31.314  43.392  1.00  0.00    -0.744 OA
ENDBRANCH  89  90
ENDBRANCH  57  82
BRANCH  69  94
ATOM     94  C   UNL A   1      36.232  33.235  32.845  1.00  0.00     0.058 A 
ATOM     95  C   UNL A   1      36.471  34.606  33.054  1.00  0.00     0.135 A 
ATOM     96  C   UNL A   1      35.018  32.888  32.237  1.00  0.00     0.135 A 
ATOM     97  F   UNL A   1      37.648  35.035  33.525  1.00  0.00    -0.206 F 
ATOM     98  C   UNL A   1      35.532  35.581  32.713  1.00  0.00     0.059 A 
ATOM     99  C   UNL A   1      34.078  33.846  31.861  1.00  0.00     0.059 A 
ATOM    100  F   UNL A   1      34.756  31.602  31.947  1.00  0.00    -0.206 F 
ATOM    101  C   UNL A   1      34.337  35.192  32.113  1.00  0.00     0.060 A 
BRANCH 101 102
ATOM    102  S   UNL A   1      33.164  36.462  31.591  1.00  0.00     0.124 S 
ATOM    103  O   UNL A   1      33.646  37.639  32.306  1.00  0.00    -0.237 OA
ATOM    104  O   UNL A   1      33.342  36.485  30.142  1.00  0.00    -0.237 OA
ATOM    105  O   UNL A   1      31.874  35.943  32.042  1.00  0.00    -0.744 OA
ENDBRANCH 101 102
ENDBRANCH  69  94
ENDBRANCH  43  44
ENDBRANCH  36  38
ENDBRANCH  35  36
ENDBRANCH  34  35
ENDBRANCH   1  34
TORSDOF 19
ENDMDL
