MODEL 1
REMARK VINA RESULT:     -10.8      0.000      0.000
REMARK SMILES COCc1cc(SCC(=O)OCCOC(=O)c2ccc(-c3c4nc(c(-c5c(F)cc(S(=O)(=O)[O-])cc5F)c5ccc([nH]5)c(-c5c(F)cc(S(=O)(=O)[O-])cc5F)c5nc(c(-c6c(F)cc(S(=O)(=O)[O-])cc6F)c6ccc3[nH]6)C=C5)C=C4)cc2)nc(-c2cccnc2)n1
REMARK SMILES IDX 12 1 11 2 9 3 10 4 8 5 7 6 6 7 4 8 5 9 91 10 84 11 83 12
REMARK SMILES IDX 3 13 2 14 1 15 85 16 86 17 90 18 87 19 89 20 88 21 13 22
REMARK SMILES IDX 14 23 15 24 16 25 17 26 18 27 82 28 19 29 81 30 20 31 21 32
REMARK SMILES IDX 22 33 75 34 23 35 80 36 74 37 76 38 24 39 79 40 73 41 72 42
REMARK SMILES IDX 25 44 59 45 38 46 58 47 39 48 42 49 57 50 77 51 40 52 41 53
REMARK SMILES IDX 56 55 78 56 43 57 26 58 27 59 36 60 28 61 29 62 35 63 37 64
REMARK SMILES IDX 30 65 31 66 32 67 33 68 34 69 60 70 61 71 70 72 62 73 63 74
REMARK SMILES IDX 69 75 71 76 64 77 65 78 66 79 67 80 68 81 44 82 45 83 54 84
REMARK SMILES IDX 46 85 47 86 53 87 55 88 48 89 49 90 50 91 51 92 52 93
REMARK H PARENT 76 43 42 54
REMARK Flexibility Score: inf
ROOT
ATOM      1  C   UNL A   1      40.748  21.271  26.160  1.00  0.00     0.274 C 
ENDROOT
BRANCH   1   2
ATOM      2  O   UNL A   1      39.426  21.629  26.616  1.00  0.00    -0.461 OA
BRANCH   2   3
ATOM      3  C   UNL A   1      38.421  21.460  25.719  1.00  0.00     0.316 C 
ATOM      4  O   UNL A   1      38.279  20.445  25.041  1.00  0.00    -0.251 OA
BRANCH   3   5
ATOM      5  C   UNL A   1      37.429  22.600  25.621  1.00  0.00     0.199 C 
BRANCH   5   6
ATOM      6  S   UNL A   1      36.521  22.739  24.056  1.00  0.00    -0.094 SA
BRANCH   6   7
ATOM      7  C   UNL A   1      34.900  22.077  24.413  1.00  0.00     0.101 A 
ATOM      8  C   UNL A   1      32.551  22.157  24.625  1.00  0.00     0.071 A 
ATOM      9  C   UNL A   1      33.752  22.834  24.515  1.00  0.00     0.062 A 
ATOM     10  N   UNL A   1      32.505  20.816  24.688  1.00  0.00    -0.230 NA
ATOM     11  C   UNL A   1      33.670  20.162  24.646  1.00  0.00     0.162 A 
ATOM     12  N   UNL A   1      34.876  20.735  24.512  1.00  0.00    -0.222 NA
BRANCH   8  13
ATOM     13  C   UNL A   1      31.228  22.887  24.672  1.00  0.00     0.215 C 
BRANCH  13  14
ATOM     14  O   UNL A   1      30.844  23.440  23.409  1.00  0.00    -0.378 OA
ATOM     15  C   UNL A   1      30.323  24.756  23.507  1.00  0.00     0.195 C 
ENDBRANCH  13  14
ENDBRANCH   8  13
BRANCH  11  16
ATOM     16  C   UNL A   1      33.596  18.720  24.794  1.00  0.00     0.038 A 
ATOM     17  C   UNL A   1      34.609  17.875  24.329  1.00  0.00     0.015 A 
ATOM     18  C   UNL A   1      32.542  18.122  25.481  1.00  0.00     0.123 A 
ATOM     19  C   UNL A   1      34.542  16.507  24.582  1.00  0.00     0.021 A 
ATOM     20  N   UNL A   1      32.428  16.789  25.711  1.00  0.00    -0.264 NA
ATOM     21  C   UNL A   1      33.445  16.018  25.271  1.00  0.00     0.111 A 
ENDBRANCH  11  16
ENDBRANCH   6   7
ENDBRANCH   5   6
ENDBRANCH   3   5
ENDBRANCH   2   3
ENDBRANCH   1   2
BRANCH   1  22
ATOM     22  C   UNL A   1      41.703  22.464  26.102  1.00  0.00     0.275 C 
BRANCH  22  23
ATOM     23  O   UNL A   1      41.202  23.596  26.837  1.00  0.00    -0.458 OA
BRANCH  23  24
ATOM     24  C   UNL A   1      41.653  24.772  26.366  1.00  0.00     0.338 C 
ATOM     25  O   UNL A   1      42.168  24.962  25.268  1.00  0.00    -0.246 OA
BRANCH  24  26
ATOM     26  C   UNL A   1      41.444  25.894  27.286  1.00  0.00     0.060 A 
ATOM     27  C   UNL A   1      42.332  26.974  27.277  1.00  0.00     0.016 A 
ATOM     28  C   UNL A   1      40.534  25.729  28.332  1.00  0.00     0.016 A 
ATOM     29  C   UNL A   1      42.330  27.876  28.343  1.00  0.00     0.010 A 
ATOM     30  C   UNL A   1      40.511  26.651  29.380  1.00  0.00     0.010 A 
ATOM     31  C   UNL A   1      41.421  27.720  29.401  1.00  0.00    -0.014 A 
BRANCH  31  32
ATOM     32  C   UNL A   1      41.322  28.742  30.468  1.00  0.00     0.031 A 
ATOM     33  C   UNL A   1      42.204  28.712  31.683  1.00  0.00     0.074 A 
ATOM     34  C   UNL A   1      40.362  29.675  30.348  1.00  0.00     0.049 A 
ATOM     35  N   UNL A   1      42.174  29.485  32.738  1.00  0.00    -0.248 NA
ATOM     36  C   UNL A   1      43.254  27.685  31.718  1.00  0.00     0.031 C 
ATOM     37  C   UNL A   1      39.446  29.792  29.210  1.00  0.00     0.029 A 
ATOM     38  N   UNL A   1      39.976  30.678  31.196  1.00  0.00    -0.354 N 
ATOM     39  C   UNL A   1      43.200  29.045  33.565  1.00  0.00     0.074 A 
ATOM     40  C   UNL A   1      43.827  27.924  32.893  1.00  0.00     0.031 C 
ATOM     41  C   UNL A   1      38.585  30.792  29.444  1.00  0.00     0.029 A 
ATOM     42  C   UNL A   1      38.871  31.363  30.757  1.00  0.00     0.049 A 
ATOM     43  H   UNL A   1      40.445  30.887  32.036  1.00  0.00     0.167 HD
ATOM     44  C   UNL A   1      43.581  29.537  34.770  1.00  0.00     0.037 A 
ATOM     45  C   UNL A   1      38.144  32.324  31.356  1.00  0.00     0.037 A 
ATOM     46  C   UNL A   1      42.941  30.646  35.434  1.00  0.00     0.049 A 
ATOM     47  C   UNL A   1      38.552  32.819  32.707  1.00  0.00     0.074 A 
ATOM     48  C   UNL A   1      43.281  31.247  36.635  1.00  0.00     0.029 A 
ATOM     49  N   UNL A   1      41.820  31.313  34.962  1.00  0.00    -0.354 N 
ATOM     50  N   UNL A   1      39.546  32.416  33.459  1.00  0.00    -0.248 NA
ATOM     51  C   UNL A   1      37.748  33.902  33.285  1.00  0.00     0.031 C 
ATOM     52  C   UNL A   1      42.348  32.257  36.903  1.00  0.00     0.029 A 
ATOM     53  C   UNL A   1      41.443  32.304  35.855  1.00  0.00     0.049 A 
ATOM     54  H   UNL A   1      41.359  31.112  34.116  1.00  0.00     0.167 HD
ATOM     55  C   UNL A   1      39.499  33.204  34.601  1.00  0.00     0.074 A 
ATOM     56  C   UNL A   1      38.378  34.110  34.435  1.00  0.00     0.031 C 
ATOM     57  C   UNL A   1      40.315  33.185  35.683  1.00  0.00     0.037 A 
BRANCH  44  58
ATOM     58  C   UNL A   1      44.742  28.877  35.460  1.00  0.00     0.058 A 
ATOM     59  C   UNL A   1      46.060  29.308  35.247  1.00  0.00     0.135 A 
ATOM     60  C   UNL A   1      44.530  27.849  36.391  1.00  0.00     0.135 A 
ATOM     61  F   UNL A   1      46.318  30.282  34.359  1.00  0.00    -0.206 F 
ATOM     62  C   UNL A   1      47.132  28.735  35.926  1.00  0.00     0.059 A 
ATOM     63  C   UNL A   1      45.586  27.270  37.092  1.00  0.00     0.059 A 
ATOM     64  F   UNL A   1      43.288  27.400  36.632  1.00  0.00    -0.206 F 
ATOM     65  C   UNL A   1      46.885  27.714  36.846  1.00  0.00     0.060 A 
BRANCH  65  66
ATOM     66  S   UNL A   1      48.278  26.994  37.744  1.00  0.00     0.124 S 
ATOM     67  O   UNL A   1      47.627  25.906  38.466  1.00  0.00    -0.237 OA
ATOM     68  O   UNL A   1      49.176  26.590  36.666  1.00  0.00    -0.237 OA
ATOM     69  O   UNL A   1      48.755  28.099  38.569  1.00  0.00    -0.744 OA
ENDBRANCH  65  66
ENDBRANCH  44  58
BRANCH  45  70
ATOM     70  C   UNL A   1      36.955  32.855  30.649  1.00  0.00     0.058 A 
ATOM     71  C   UNL A   1      35.663  32.498  31.051  1.00  0.00     0.135 A 
ATOM     72  C   UNL A   1      37.094  33.825  29.643  1.00  0.00     0.135 A 
ATOM     73  F   UNL A   1      35.490  31.576  32.012  1.00  0.00    -0.206 F 
ATOM     74  C   UNL A   1      34.541  33.102  30.496  1.00  0.00     0.059 A 
ATOM     75  C   UNL A   1      35.988  34.452  29.084  1.00  0.00     0.059 A 
ATOM     76  F   UNL A   1      38.317  34.210  29.245  1.00  0.00    -0.206 F 
ATOM     77  C   UNL A   1      34.715  34.087  29.522  1.00  0.00     0.060 A 
BRANCH  77  78
ATOM     78  S   UNL A   1      33.264  34.967  28.903  1.00  0.00     0.124 S 
ATOM     79  O   UNL A   1      32.703  33.991  27.976  1.00  0.00    -0.237 OA
ATOM     80  O   UNL A   1      32.498  35.204  30.124  1.00  0.00    -0.237 OA
ATOM     81  O   UNL A   1      33.837  36.164  28.294  1.00  0.00    -0.744 OA
ENDBRANCH  77  78
ENDBRANCH  45  70
BRANCH  57  82
ATOM     82  C   UNL A   1      40.024  34.186  36.760  1.00  0.00     0.058 A 
ATOM     83  C   UNL A   1      40.649  35.442  36.775  1.00  0.00     0.135 A 
ATOM     84  C   UNL A   1      39.118  33.885  37.787  1.00  0.00     0.135 A 
ATOM     85  F   UNL A   1      41.530  35.770  35.818  1.00  0.00    -0.206 F 
ATOM     86  C   UNL A   1      40.404  36.359  37.791  1.00  0.00     0.059 A 
ATOM     87  C   UNL A   1      38.847  34.792  38.806  1.00  0.00     0.059 A 
ATOM     88  F   UNL A   1      38.494  32.696  37.811  1.00  0.00    -0.206 F 
ATOM     89  C   UNL A   1      39.508  36.021  38.808  1.00  0.00     0.060 A 
BRANCH  89  90
ATOM     90  S   UNL A   1      39.196  37.209  40.132  1.00  0.00     0.124 S 
ATOM     91  O   UNL A   1      40.550  37.654  40.449  1.00  0.00    -0.237 OA
ATOM     92  O   UNL A   1      38.342  38.197  39.480  1.00  0.00    -0.237 OA
ATOM     93  O   UNL A   1      38.542  36.403  41.157  1.00  0.00    -0.744 OA
ENDBRANCH  89  90
ENDBRANCH  57  82
ENDBRANCH  31  32
ENDBRANCH  24  26
ENDBRANCH  23  24
ENDBRANCH  22  23
ENDBRANCH   1  22
TORSDOF 19
ENDMDL
MODEL 2
REMARK VINA RESULT:     -10.6      4.561     10.346
REMARK SMILES COCc1cc(SCC(=O)OCCOC(=O)c2ccc(-c3c4nc(c(-c5c(F)cc(S(=O)(=O)[O-])cc5F)c5ccc([nH]5)c(-c5c(F)cc(S(=O)(=O)[O-])cc5F)c5nc(c(-c6c(F)cc(S(=O)(=O)[O-])cc6F)c6ccc3[nH]6)C=C5)C=C4)cc2)nc(-c2cccnc2)n1
REMARK SMILES IDX 12 1 11 2 9 3 10 4 8 5 7 6 6 7 4 8 5 9 91 10 84 11 83 12
REMARK SMILES IDX 3 13 2 14 1 15 85 16 86 17 90 18 87 19 89 20 88 21 13 22
REMARK SMILES IDX 14 23 15 24 16 25 17 26 18 27 82 28 19 29 81 30 20 31 21 32
REMARK SMILES IDX 22 33 75 34 23 35 80 36 74 37 76 38 24 39 79 40 73 41 72 42
REMARK SMILES IDX 25 44 59 45 38 46 58 47 39 48 42 49 57 50 77 51 40 52 41 53
REMARK SMILES IDX 56 55 78 56 43 57 26 58 27 59 36 60 28 61 29 62 35 63 37 64
REMARK SMILES IDX 30 65 31 66 32 67 33 68 34 69 60 70 61 71 70 72 62 73 63 74
REMARK SMILES IDX 69 75 71 76 64 77 65 78 66 79 67 80 68 81 44 82 45 83 54 84
REMARK SMILES IDX 46 85 47 86 53 87 55 88 48 89 49 90 50 91 51 92 52 93
REMARK H PARENT 76 43 42 54
REMARK Flexibility Score: inf
ROOT
ATOM      1  C   UNL A   1      32.346  29.348  25.128  1.00  0.00     0.274 C 
ENDROOT
BRANCH   1   2
ATOM      2  O   UNL A   1      31.733  28.041  25.128  1.00  0.00    -0.461 OA
BRANCH   2   3
ATOM      3  C   UNL A   1      32.479  27.034  24.603  1.00  0.00     0.316 C 
ATOM      4  O   UNL A   1      33.467  27.218  23.896  1.00  0.00    -0.251 OA
BRANCH   3   5
ATOM      5  C   UNL A   1      32.046  25.632  24.976  1.00  0.00     0.199 C 
BRANCH   5   6
ATOM      6  S   UNL A   1      31.801  24.476  23.599  1.00  0.00    -0.094 SA
BRANCH   6   7
ATOM      7  C   UNL A   1      32.698  23.007  24.075  1.00  0.00     0.101 A 
ATOM      8  C   UNL A   1      33.065  20.683  24.254  1.00  0.00     0.071 A 
ATOM      9  C   UNL A   1      32.190  21.727  24.014  1.00  0.00     0.062 A 
ATOM     10  N   UNL A   1      34.347  20.904  24.588  1.00  0.00    -0.230 NA
ATOM     11  C   UNL A   1      34.741  22.178  24.686  1.00  0.00     0.162 A 
ATOM     12  N   UNL A   1      33.970  23.249  24.445  1.00  0.00    -0.222 NA
BRANCH   8  13
ATOM     13  C   UNL A   1      32.629  19.239  24.143  1.00  0.00     0.215 C 
BRANCH  13  14
ATOM     14  O   UNL A   1      32.241  18.669  25.397  1.00  0.00    -0.378 OA
ATOM     15  C   UNL A   1      32.776  17.373  25.615  1.00  0.00     0.195 C 
ENDBRANCH  13  14
ENDBRANCH   8  13
BRANCH  11  16
ATOM     16  C   UNL A   1      36.108  22.389  25.124  1.00  0.00     0.038 A 
ATOM     17  C   UNL A   1      36.548  23.622  25.614  1.00  0.00     0.015 A 
ATOM     18  C   UNL A   1      37.024  21.339  25.149  1.00  0.00     0.123 A 
ATOM     19  C   UNL A   1      37.840  23.751  26.117  1.00  0.00     0.021 A 
ATOM     20  N   UNL A   1      38.302  21.440  25.597  1.00  0.00    -0.264 NA
ATOM     21  C   UNL A   1      38.669  22.641  26.088  1.00  0.00     0.111 A 
ENDBRANCH  11  16
ENDBRANCH   6   7
ENDBRANCH   5   6
ENDBRANCH   3   5
ENDBRANCH   2   3
ENDBRANCH   1   2
BRANCH   1  22
ATOM     22  C   UNL A   1      32.414  29.974  26.522  1.00  0.00     0.275 C 
BRANCH  22  23
ATOM     23  O   UNL A   1      33.479  29.417  27.316  1.00  0.00    -0.458 OA
BRANCH  23  24
ATOM     24  C   UNL A   1      34.290  30.353  27.841  1.00  0.00     0.338 C 
ATOM     25  O   UNL A   1      33.986  31.515  28.091  1.00  0.00    -0.246 OA
BRANCH  24  26
ATOM     26  C   UNL A   1      35.635  29.859  28.151  1.00  0.00     0.060 A 
ATOM     27  C   UNL A   1      35.979  29.567  29.475  1.00  0.00     0.016 A 
ATOM     28  C   UNL A   1      36.619  29.959  27.166  1.00  0.00     0.016 A 
ATOM     29  C   UNL A   1      37.322  29.408  29.819  1.00  0.00     0.010 A 
ATOM     30  C   UNL A   1      37.959  29.766  27.506  1.00  0.00     0.010 A 
ATOM     31  C   UNL A   1      38.321  29.506  28.837  1.00  0.00    -0.014 A 
BRANCH  31  32
ATOM     32  C   UNL A   1      39.734  29.210  29.166  1.00  0.00     0.031 A 
ATOM     33  C   UNL A   1      40.662  30.257  29.710  1.00  0.00     0.074 A 
ATOM     34  C   UNL A   1      40.188  27.973  28.898  1.00  0.00     0.049 A 
ATOM     35  N   UNL A   1      41.943  30.169  29.960  1.00  0.00    -0.248 NA
ATOM     36  C   UNL A   1      40.078  31.572  30.013  1.00  0.00     0.031 C 
ATOM     37  C   UNL A   1      39.372  26.880  28.362  1.00  0.00     0.029 A 
ATOM     38  N   UNL A   1      41.441  27.435  29.009  1.00  0.00    -0.354 N 
ATOM     39  C   UNL A   1      42.324  31.411  30.454  1.00  0.00     0.074 A 
ATOM     40  C   UNL A   1      41.136  32.243  30.453  1.00  0.00     0.031 C 
ATOM     41  C   UNL A   1      40.154  25.810  28.164  1.00  0.00     0.029 A 
ATOM     42  C   UNL A   1      41.525  26.152  28.530  1.00  0.00     0.049 A 
ATOM     43  H   UNL A   1      42.207  27.921  29.394  1.00  0.00     0.167 HD
ATOM     44  C   UNL A   1      43.549  31.813  30.870  1.00  0.00     0.037 A 
ATOM     45  C   UNL A   1      42.590  25.346  28.371  1.00  0.00     0.037 A 
ATOM     46  C   UNL A   1      44.726  30.979  30.855  1.00  0.00     0.049 A 
ATOM     47  C   UNL A   1      43.943  25.826  28.791  1.00  0.00     0.074 A 
ATOM     48  C   UNL A   1      46.004  31.280  31.297  1.00  0.00     0.029 A 
ATOM     49  N   UNL A   1      44.774  29.684  30.358  1.00  0.00    -0.354 N 
ATOM     50  N   UNL A   1      44.279  26.991  29.288  1.00  0.00    -0.248 NA
ATOM     51  C   UNL A   1      45.057  24.883  28.638  1.00  0.00     0.031 C 
ATOM     52  C   UNL A   1      46.830  30.178  31.040  1.00  0.00     0.029 A 
ATOM     53  C   UNL A   1      46.061  29.181  30.463  1.00  0.00     0.049 A 
ATOM     54  H   UNL A   1      44.007  29.195  29.985  1.00  0.00     0.167 HD
ATOM     55  C   UNL A   1      45.646  26.921  29.522  1.00  0.00     0.074 A 
ATOM     56  C   UNL A   1      46.071  25.596  29.112  1.00  0.00     0.031 C 
ATOM     57  C   UNL A   1      46.470  27.866  30.036  1.00  0.00     0.037 A 
BRANCH  44  58
ATOM     58  C   UNL A   1      43.691  33.222  31.374  1.00  0.00     0.058 A 
ATOM     59  C   UNL A   1      43.488  33.539  32.726  1.00  0.00     0.135 A 
ATOM     60  C   UNL A   1      44.096  34.253  30.512  1.00  0.00     0.135 A 
ATOM     61  F   UNL A   1      43.090  32.592  33.590  1.00  0.00    -0.206 F 
ATOM     62  C   UNL A   1      43.671  34.833  33.205  1.00  0.00     0.059 A 
ATOM     63  C   UNL A   1      44.300  35.552  30.973  1.00  0.00     0.059 A 
ATOM     64  F   UNL A   1      44.305  34.002  29.210  1.00  0.00    -0.206 F 
ATOM     65  C   UNL A   1      44.076  35.835  32.320  1.00  0.00     0.060 A 
BRANCH  65  66
ATOM     66  S   UNL A   1      44.339  37.506  32.955  1.00  0.00     0.124 S 
ATOM     67  O   UNL A   1      45.767  37.482  33.251  1.00  0.00    -0.237 OA
ATOM     68  O   UNL A   1      43.940  38.341  31.826  1.00  0.00    -0.237 OA
ATOM     69  O   UNL A   1      43.456  37.568  34.116  1.00  0.00    -0.744 OA
ENDBRANCH  65  66
ENDBRANCH  44  58
BRANCH  45  70
ATOM     70  C   UNL A   1      42.381  24.006  27.776  1.00  0.00     0.058 A 
ATOM     71  C   UNL A   1      42.362  23.832  26.387  1.00  0.00     0.135 A 
ATOM     72  C   UNL A   1      42.322  22.863  28.589  1.00  0.00     0.135 A 
ATOM     73  F   UNL A   1      42.419  24.901  25.577  1.00  0.00    -0.206 F 
ATOM     74  C   UNL A   1      42.316  22.565  25.818  1.00  0.00     0.059 A 
ATOM     75  C   UNL A   1      42.290  21.586  28.043  1.00  0.00     0.059 A 
ATOM     76  F   UNL A   1      42.359  22.986  29.926  1.00  0.00    -0.206 F 
ATOM     77  C   UNL A   1      42.293  21.448  26.655  1.00  0.00     0.060 A 
BRANCH  77  78
ATOM     78  S   UNL A   1      42.373  19.802  25.915  1.00  0.00     0.124 S 
ATOM     79  O   UNL A   1      40.979  19.575  25.553  1.00  0.00    -0.237 OA
ATOM     80  O   UNL A   1      43.298  20.004  24.803  1.00  0.00    -0.237 OA
ATOM     81  O   UNL A   1      42.889  18.975  27.002  1.00  0.00    -0.744 OA
ENDBRANCH  77  78
ENDBRANCH  45  70
BRANCH  57  82
ATOM     82  C   UNL A   1      47.912  27.484  30.193  1.00  0.00     0.058 A 
ATOM     83  C   UNL A   1      48.369  26.820  31.340  1.00  0.00     0.135 A 
ATOM     84  C   UNL A   1      48.844  27.790  29.190  1.00  0.00     0.135 A 
ATOM     85  F   UNL A   1      47.515  26.516  32.330  1.00  0.00    -0.206 F 
ATOM     86  C   UNL A   1      49.711  26.494  31.501  1.00  0.00     0.059 A 
ATOM     87  C   UNL A   1      50.188  27.461  29.322  1.00  0.00     0.059 A 
ATOM     88  F   UNL A   1      48.451  28.422  28.072  1.00  0.00    -0.206 F 
ATOM     89  C   UNL A   1      50.616  26.827  30.490  1.00  0.00     0.060 A 
BRANCH  89  90
ATOM     90  S   UNL A   1      52.359  26.411  30.702  1.00  0.00     0.124 S 
ATOM     91  O   UNL A   1      52.855  27.586  31.412  1.00  0.00    -0.237 OA
ATOM     92  O   UNL A   1      52.302  25.179  31.482  1.00  0.00    -0.237 OA
ATOM     93  O   UNL A   1      52.835  26.255  29.332  1.00  0.00    -0.744 OA
ENDBRANCH  89  90
ENDBRANCH  57  82
ENDBRANCH  31  32
ENDBRANCH  24  26
ENDBRANCH  23  24
ENDBRANCH  22  23
ENDBRANCH   1  22
TORSDOF 19
ENDMDL
MODEL 3
REMARK VINA RESULT:     -10.1      4.466      7.407
REMARK SMILES COCc1cc(SCC(=O)OCCOC(=O)c2ccc(-c3c4nc(c(-c5c(F)cc(S(=O)(=O)[O-])cc5F)c5ccc([nH]5)c(-c5c(F)cc(S(=O)(=O)[O-])cc5F)c5nc(c(-c6c(F)cc(S(=O)(=O)[O-])cc6F)c6ccc3[nH]6)C=C5)C=C4)cc2)nc(-c2cccnc2)n1
REMARK SMILES IDX 12 1 11 2 9 3 10 4 8 5 7 6 6 7 4 8 5 9 91 10 84 11 83 12
REMARK SMILES IDX 3 13 2 14 1 15 85 16 86 17 90 18 87 19 89 20 88 21 13 22
REMARK SMILES IDX 14 23 15 24 16 25 17 26 18 27 82 28 19 29 81 30 20 31 21 32
REMARK SMILES IDX 22 33 75 34 23 35 80 36 74 37 76 38 24 39 79 40 73 41 72 42
REMARK SMILES IDX 25 44 59 45 38 46 58 47 39 48 42 49 57 50 77 51 40 52 41 53
REMARK SMILES IDX 56 55 78 56 43 57 26 58 27 59 36 60 28 61 29 62 35 63 37 64
REMARK SMILES IDX 30 65 31 66 32 67 33 68 34 69 60 70 61 71 70 72 62 73 63 74
REMARK SMILES IDX 69 75 71 76 64 77 65 78 66 79 67 80 68 81 44 82 45 83 54 84
REMARK SMILES IDX 46 85 47 86 53 87 55 88 48 89 49 90 50 91 51 92 52 93
REMARK H PARENT 76 43 42 54
REMARK Flexibility Score: inf
ROOT
ATOM      1  C   UNL A   1      42.818  22.186  26.104  1.00  0.00     0.274 C 
ENDROOT
BRANCH   1   2
ATOM      2  O   UNL A   1      42.930  22.447  24.689  1.00  0.00    -0.461 OA
BRANCH   2   3
ATOM      3  C   UNL A   1      44.134  22.910  24.263  1.00  0.00     0.316 C 
ATOM      4  O   UNL A   1      44.592  22.682  23.146  1.00  0.00    -0.251 OA
BRANCH   3   5
ATOM      5  C   UNL A   1      44.889  23.780  25.246  1.00  0.00     0.199 C 
BRANCH   5   6
ATOM      6  S   UNL A   1      46.694  23.815  25.061  1.00  0.00    -0.094 SA
BRANCH   6   7
ATOM      7  C   UNL A   1      47.087  25.537  24.790  1.00  0.00     0.101 A 
ATOM      8  C   UNL A   1      47.239  27.818  25.373  1.00  0.00     0.071 A 
ATOM      9  C   UNL A   1      46.711  26.565  25.628  1.00  0.00     0.062 A 
ATOM     10  N   UNL A   1      48.041  28.041  24.319  1.00  0.00    -0.230 NA
ATOM     11  C   UNL A   1      48.304  27.001  23.521  1.00  0.00     0.162 A 
ATOM     12  N   UNL A   1      47.860  25.749  23.709  1.00  0.00    -0.222 NA
BRANCH   8  13
ATOM     13  C   UNL A   1      46.949  29.000  26.271  1.00  0.00     0.215 C 
BRANCH  13  14
ATOM     14  O   UNL A   1      45.865  29.810  25.805  1.00  0.00    -0.378 OA
ATOM     15  C   UNL A   1      45.936  31.155  26.251  1.00  0.00     0.195 C 
ENDBRANCH  13  14
ENDBRANCH   8  13
BRANCH  11  16
ATOM     16  C   UNL A   1      49.109  27.287  22.349  1.00  0.00     0.038 A 
ATOM     17  C   UNL A   1      50.407  27.797  22.447  1.00  0.00     0.015 A 
ATOM     18  C   UNL A   1      48.646  26.987  21.069  1.00  0.00     0.123 A 
ATOM     19  C   UNL A   1      51.179  27.963  21.300  1.00  0.00     0.021 A 
ATOM     20  N   UNL A   1      49.358  27.171  19.928  1.00  0.00    -0.264 NA
ATOM     21  C   UNL A   1      50.615  27.636  20.077  1.00  0.00     0.111 A 
ENDBRANCH  11  16
ENDBRANCH   6   7
ENDBRANCH   5   6
ENDBRANCH   3   5
ENDBRANCH   2   3
ENDBRANCH   1   2
BRANCH   1  22
ATOM     22  C   UNL A   1      41.584  22.834  26.735  1.00  0.00     0.275 C 
BRANCH  22  23
ATOM     23  O   UNL A   1      41.349  24.161  26.225  1.00  0.00    -0.458 OA
BRANCH  23  24
ATOM     24  C   UNL A   1      40.183  24.686  26.641  1.00  0.00     0.338 C 
ATOM     25  O   UNL A   1      39.076  24.457  26.163  1.00  0.00    -0.246 OA
BRANCH  24  26
ATOM     26  C   UNL A   1      40.317  25.574  27.798  1.00  0.00     0.060 A 
ATOM     27  C   UNL A   1      39.313  25.604  28.771  1.00  0.00     0.016 A 
ATOM     28  C   UNL A   1      41.300  26.566  27.760  1.00  0.00     0.016 A 
ATOM     29  C   UNL A   1      39.275  26.655  29.691  1.00  0.00     0.010 A 
ATOM     30  C   UNL A   1      41.280  27.596  28.701  1.00  0.00     0.010 A 
ATOM     31  C   UNL A   1      40.258  27.657  29.661  1.00  0.00    -0.014 A 
BRANCH  31  32
ATOM     32  C   UNL A   1      40.302  28.701  30.711  1.00  0.00     0.031 A 
ATOM     33  C   UNL A   1      41.203  28.589  31.907  1.00  0.00     0.074 A 
ATOM     34  C   UNL A   1      39.452  29.736  30.594  1.00  0.00     0.049 A 
ATOM     35  N   UNL A   1      41.286  29.377  32.948  1.00  0.00    -0.248 NA
ATOM     36  C   UNL A   1      42.129  27.449  31.939  1.00  0.00     0.031 C 
ATOM     37  C   UNL A   1      38.529  29.938  29.475  1.00  0.00     0.029 A 
ATOM     38  N   UNL A   1      39.204  30.790  31.431  1.00  0.00    -0.354 N 
ATOM     39  C   UNL A   1      42.275  28.836  33.761  1.00  0.00     0.074 A 
ATOM     40  C   UNL A   1      42.753  27.639  33.096  1.00  0.00     0.031 C 
ATOM     41  C   UNL A   1      37.795  31.034  29.708  1.00  0.00     0.029 A 
ATOM     42  C   UNL A   1      38.175  31.590  31.004  1.00  0.00     0.049 A 
ATOM     43  H   UNL A   1      39.713  30.957  32.257  1.00  0.00     0.167 HD
ATOM     44  C   UNL A   1      42.738  29.300  34.947  1.00  0.00     0.037 A 
ATOM     45  C   UNL A   1      37.577  32.638  31.600  1.00  0.00     0.037 A 
ATOM     46  C   UNL A   1      42.245  30.486  35.604  1.00  0.00     0.049 A 
ATOM     47  C   UNL A   1      38.070  33.105  32.932  1.00  0.00     0.074 A 
ATOM     48  C   UNL A   1      42.680  31.062  36.786  1.00  0.00     0.029 A 
ATOM     49  N   UNL A   1      41.197  31.270  35.144  1.00  0.00    -0.354 N 
ATOM     50  N   UNL A   1      39.030  32.602  33.670  1.00  0.00    -0.248 NA
ATOM     51  C   UNL A   1      37.410  34.281  33.507  1.00  0.00     0.031 C 
ATOM     52  C   UNL A   1      41.875  32.177  37.055  1.00  0.00     0.029 A 
ATOM     53  C   UNL A   1      40.957  32.311  36.026  1.00  0.00     0.049 A 
ATOM     54  H   UNL A   1      40.696  31.109  34.312  1.00  0.00     0.167 HD
ATOM     55  C   UNL A   1      39.100  33.409  34.797  1.00  0.00     0.074 A 
ATOM     56  C   UNL A   1      38.086  34.435  34.639  1.00  0.00     0.031 C 
ATOM     57  C   UNL A   1      39.934  33.313  35.862  1.00  0.00     0.037 A 
BRANCH  44  58
ATOM     58  C   UNL A   1      43.832  28.522  35.624  1.00  0.00     0.058 A 
ATOM     59  C   UNL A   1      45.185  28.795  35.375  1.00  0.00     0.135 A 
ATOM     60  C   UNL A   1      43.525  27.540  36.579  1.00  0.00     0.135 A 
ATOM     61  F   UNL A   1      45.531  29.718  34.464  1.00  0.00    -0.206 F 
ATOM     62  C   UNL A   1      46.200  28.113  36.041  1.00  0.00     0.059 A 
ATOM     63  C   UNL A   1      44.524  26.855  37.268  1.00  0.00     0.059 A 
ATOM     64  F   UNL A   1      42.246  27.241  36.855  1.00  0.00    -0.206 F 
ATOM     65  C   UNL A   1      45.860  27.143  36.986  1.00  0.00     0.060 A 
BRANCH  65  66
ATOM     66  S   UNL A   1      47.181  26.282  37.866  1.00  0.00     0.124 S 
ATOM     67  O   UNL A   1      46.456  25.721  39.002  1.00  0.00    -0.237 OA
ATOM     68  O   UNL A   1      47.648  25.318  36.875  1.00  0.00    -0.237 OA
ATOM     69  O   UNL A   1      48.124  27.350  38.187  1.00  0.00    -0.744 OA
ENDBRANCH  65  66
ENDBRANCH  44  58
BRANCH  45  70
ATOM     70  C   UNL A   1      36.440  33.290  30.909  1.00  0.00     0.058 A 
ATOM     71  C   UNL A   1      35.144  33.213  31.431  1.00  0.00     0.135 A 
ATOM     72  C   UNL A   1      36.657  34.105  29.787  1.00  0.00     0.135 A 
ATOM     73  F   UNL A   1      34.898  32.446  32.505  1.00  0.00    -0.206 F 
ATOM     74  C   UNL A   1      34.098  33.942  30.877  1.00  0.00     0.059 A 
ATOM     75  C   UNL A   1      35.630  34.853  29.225  1.00  0.00     0.059 A 
ATOM     76  F   UNL A   1      37.890  34.223  29.269  1.00  0.00    -0.206 F 
ATOM     77  C   UNL A   1      34.354  34.769  29.782  1.00  0.00     0.060 A 
BRANCH  77  78
ATOM     78  S   UNL A   1      33.026  35.819  29.152  1.00  0.00     0.124 S 
ATOM     79  O   UNL A   1      33.776  36.931  28.583  1.00  0.00    -0.237 OA
ATOM     80  O   UNL A   1      32.360  34.939  28.195  1.00  0.00    -0.237 OA
ATOM     81  O   UNL A   1      32.249  36.124  30.350  1.00  0.00    -0.744 OA
ENDBRANCH  77  78
ENDBRANCH  45  70
BRANCH  57  82
ATOM     82  C   UNL A   1      39.785  34.358  36.926  1.00  0.00     0.058 A 
ATOM     83  C   UNL A   1      39.047  34.111  38.093  1.00  0.00     0.135 A 
ATOM     84  C   UNL A   1      40.382  35.619  36.776  1.00  0.00     0.135 A 
ATOM     85  F   UNL A   1      38.451  32.922  38.276  1.00  0.00    -0.206 F 
ATOM     86  C   UNL A   1      38.882  35.090  39.066  1.00  0.00     0.059 A 
ATOM     87  C   UNL A   1      40.242  36.609  37.742  1.00  0.00     0.059 A 
ATOM     88  F   UNL A   1      41.100  35.900  35.677  1.00  0.00    -0.206 F 
ATOM     89  C   UNL A   1      39.476  36.340  38.877  1.00  0.00     0.060 A 
BRANCH  89  90
ATOM     90  S   UNL A   1      39.255  37.614  40.137  1.00  0.00     0.124 S 
ATOM     91  O   UNL A   1      38.190  38.422  39.551  1.00  0.00    -0.237 OA
ATOM     92  O   UNL A   1      38.884  36.838  41.316  1.00  0.00    -0.237 OA
ATOM     93  O   UNL A   1      40.566  38.251  40.201  1.00  0.00    -0.744 OA
ENDBRANCH  89  90
ENDBRANCH  57  82
ENDBRANCH  31  32
ENDBRANCH  24  26
ENDBRANCH  23  24
ENDBRANCH  22  23
ENDBRANCH   1  22
TORSDOF 19
ENDMDL
