MODEL 1
REMARK VINA RESULT:     -11.4      0.000      0.000
REMARK SMILES O=C(CC1CC[NH+](C[C@@H]2Cc3ccccc32)CC1)OCCOC(=O)c1ccc(-c2c3nc(c(-c4c(F)cc(S(=O)(=O)[O-])cc4F)c4ccc([nH]4)c(-c4c(F)cc(S(=O)(=O)[O-])cc4F)c4nc(c(-c5c(F)cc(S(=O)(=O)[O-])cc5F)c5ccc2[nH]5)C=C4)C=C3)cc1
REMARK SMILES IDX 20 1 19 2 2 3 1 4 3 5 4 6 5 7 18 8 6 9 17 10 7 11 8 13 9 14
REMARK SMILES IDX 10 15 16 16 11 17 15 18 12 19 14 20 13 21 21 22 22 23 23 24
REMARK SMILES IDX 24 25 25 26 26 27 90 28 27 29 89 30 28 31 29 32 30 33 83 34
REMARK SMILES IDX 31 35 88 36 82 37 84 38 32 39 87 40 81 41 80 42 33 44 67 45
REMARK SMILES IDX 46 46 66 47 47 48 50 49 65 50 85 51 48 52 49 53 64 55 86 56
REMARK SMILES IDX 51 57 34 58 35 59 44 60 36 61 37 62 43 63 45 64 38 65 39 66
REMARK SMILES IDX 40 67 41 68 42 69 68 70 69 71 78 72 70 73 71 74 77 75 79 76
REMARK SMILES IDX 72 77 73 78 74 79 75 80 76 81 52 82 53 83 62 84 54 85 55 86
REMARK SMILES IDX 61 87 63 88 56 89 57 90 58 91 59 92 60 93
REMARK H PARENT 7 12 84 43 50 54
REMARK Flexibility Score: inf
ROOT
ATOM      1  C   UNL A   1      39.798  21.407  26.394  1.00  0.00     0.274 C 
ENDROOT
BRANCH   1   2
ATOM      2  O   UNL A   1      38.658  21.977  25.723  1.00  0.00    -0.462 OA
BRANCH   2   3
ATOM      3  C   UNL A   1      37.813  21.226  24.977  1.00  0.00     0.306 C 
ATOM      4  O   UNL A   1      37.921  20.004  24.945  1.00  0.00    -0.252 OA
BRANCH   3   5
ATOM      5  C   UNL A   1      36.818  21.955  24.106  1.00  0.00     0.126 C 
BRANCH   5   6
ATOM      6  C   UNL A   1      35.338  21.819  24.486  1.00  0.00     0.011 C 
ATOM      7  C   UNL A   1      34.388  22.601  23.579  1.00  0.00     0.066 C 
ATOM      8  C   UNL A   1      35.134  22.316  25.930  1.00  0.00     0.066 C 
ATOM      9  C   UNL A   1      34.614  24.102  23.717  1.00  0.00     0.262 C 
ATOM     10  C   UNL A   1      35.313  23.840  26.060  1.00  0.00     0.262 C 
ATOM     11  N   UNL A   1      34.479  24.549  25.094  1.00  0.00    -0.334 N 
ATOM     12  H   UNL A   1      33.535  24.245  25.335  1.00  0.00     0.348 HD
BRANCH  11  13
ATOM     13  C   UNL A   1      34.404  26.007  25.287  1.00  0.00     0.270 C 
BRANCH  13  14
ATOM     14  C   UNL A   1      33.284  26.680  26.102  1.00  0.00     0.079 C 
ATOM     15  C   UNL A   1      31.854  27.101  25.577  1.00  0.00     0.050 C 
ATOM     16  C   UNL A   1      33.428  28.121  26.519  1.00  0.00    -0.036 A 
ATOM     17  C   UNL A   1      32.217  28.498  25.994  1.00  0.00    -0.043 A 
ATOM     18  C   UNL A   1      34.172  28.982  27.283  1.00  0.00     0.004 A 
ATOM     19  C   UNL A   1      31.734  29.783  26.109  1.00  0.00     0.004 A 
ATOM     20  C   UNL A   1      33.701  30.286  27.450  1.00  0.00     0.000 A 
ATOM     21  C   UNL A   1      32.500  30.693  26.843  1.00  0.00     0.000 A 
ENDBRANCH  13  14
ENDBRANCH  11  13
ENDBRANCH   5   6
ENDBRANCH   3   5
ENDBRANCH   2   3
ENDBRANCH   1   2
BRANCH   1  22
ATOM     22  C   UNL A   1      40.965  22.392  26.497  1.00  0.00     0.275 C 
BRANCH  22  23
ATOM     23  O   UNL A   1      40.526  23.747  26.262  1.00  0.00    -0.458 OA
BRANCH  23  24
ATOM     24  C   UNL A   1      41.426  24.707  26.604  1.00  0.00     0.338 C 
ATOM     25  O   UNL A   1      42.517  24.879  26.099  1.00  0.00    -0.246 OA
BRANCH  24  26
ATOM     26  C   UNL A   1      40.828  25.667  27.570  1.00  0.00     0.060 A 
ATOM     27  C   UNL A   1      41.464  26.903  27.693  1.00  0.00     0.016 A 
ATOM     28  C   UNL A   1      39.716  25.378  28.372  1.00  0.00     0.016 A 
ATOM     29  C   UNL A   1      41.029  27.822  28.648  1.00  0.00     0.010 A 
ATOM     30  C   UNL A   1      39.283  26.309  29.339  1.00  0.00     0.010 A 
ATOM     31  C   UNL A   1      39.956  27.531  29.504  1.00  0.00    -0.014 A 
BRANCH  31  32
ATOM     32  C   UNL A   1      39.745  28.435  30.675  1.00  0.00     0.031 A 
ATOM     33  C   UNL A   1      40.796  28.452  31.753  1.00  0.00     0.074 A 
ATOM     34  C   UNL A   1      38.735  29.324  30.741  1.00  0.00     0.049 A 
ATOM     35  N   UNL A   1      40.933  29.265  32.770  1.00  0.00    -0.248 NA
ATOM     36  C   UNL A   1      41.825  27.404  31.674  1.00  0.00     0.031 C 
ATOM     37  C   UNL A   1      37.645  29.441  29.781  1.00  0.00     0.029 A 
ATOM     38  N   UNL A   1      38.509  30.354  31.632  1.00  0.00    -0.354 N 
ATOM     39  C   UNL A   1      42.033  28.801  33.478  1.00  0.00     0.074 A 
ATOM     40  C   UNL A   1      42.549  27.657  32.754  1.00  0.00     0.031 C 
ATOM     41  C   UNL A   1      36.923  30.540  30.074  1.00  0.00     0.029 A 
ATOM     42  C   UNL A   1      37.494  31.204  31.248  1.00  0.00     0.049 A 
ATOM     43  H   UNL A   1      39.023  30.470  32.463  1.00  0.00     0.167 HD
ATOM     44  C   UNL A   1      42.553  29.255  34.644  1.00  0.00     0.037 A 
ATOM     45  C   UNL A   1      37.103  32.395  31.752  1.00  0.00     0.037 A 
ATOM     46  C   UNL A   1      42.054  30.379  35.389  1.00  0.00     0.049 A 
ATOM     47  C   UNL A   1      37.746  32.930  33.016  1.00  0.00     0.074 A 
ATOM     48  C   UNL A   1      42.488  30.861  36.614  1.00  0.00     0.029 A 
ATOM     49  N   UNL A   1      41.016  31.201  34.985  1.00  0.00    -0.354 N 
ATOM     50  N   UNL A   1      38.768  32.462  33.691  1.00  0.00    -0.248 NA
ATOM     51  C   UNL A   1      37.146  34.139  33.607  1.00  0.00     0.031 C 
ATOM     52  C   UNL A   1      41.688  31.954  36.966  1.00  0.00     0.029 A 
ATOM     53  C   UNL A   1      40.788  32.180  35.938  1.00  0.00     0.049 A 
ATOM     54  H   UNL A   1      40.514  31.103  34.143  1.00  0.00     0.167 HD
ATOM     55  C   UNL A   1      38.922  33.312  34.786  1.00  0.00     0.074 A 
ATOM     56  C   UNL A   1      37.925  34.350  34.658  1.00  0.00     0.031 C 
ATOM     57  C   UNL A   1      39.796  33.218  35.819  1.00  0.00     0.037 A 
BRANCH  44  58
ATOM     58  C   UNL A   1      43.674  28.455  35.237  1.00  0.00     0.058 A 
ATOM     59  C   UNL A   1      43.448  27.421  36.156  1.00  0.00     0.135 A 
ATOM     60  C   UNL A   1      45.000  28.750  34.884  1.00  0.00     0.135 A 
ATOM     61  F   UNL A   1      42.199  27.121  36.545  1.00  0.00    -0.206 F 
ATOM     62  C   UNL A   1      44.506  26.726  36.733  1.00  0.00     0.059 A 
ATOM     63  C   UNL A   1      46.070  28.053  35.430  1.00  0.00     0.059 A 
ATOM     64  F   UNL A   1      45.264  29.737  34.012  1.00  0.00    -0.206 F 
ATOM     65  C   UNL A   1      45.814  27.056  36.369  1.00  0.00     0.060 A 
BRANCH  65  66
ATOM     66  S   UNL A   1      47.181  26.172  37.145  1.00  0.00     0.124 S 
ATOM     67  O   UNL A   1      47.523  27.073  38.241  1.00  0.00    -0.237 OA
ATOM     68  O   UNL A   1      46.561  24.909  37.532  1.00  0.00    -0.237 OA
ATOM     69  O   UNL A   1      48.173  26.078  36.078  1.00  0.00    -0.744 OA
ENDBRANCH  65  66
ENDBRANCH  44  58
BRANCH  45  70
ATOM     70  C   UNL A   1      36.064  33.222  31.070  1.00  0.00     0.058 A 
ATOM     71  C   UNL A   1      36.369  33.911  29.881  1.00  0.00     0.135 A 
ATOM     72  C   UNL A   1      34.783  33.403  31.609  1.00  0.00     0.135 A 
ATOM     73  F   UNL A   1      37.588  33.791  29.331  1.00  0.00    -0.206 F 
ATOM     74  C   UNL A   1      35.457  34.769  29.273  1.00  0.00     0.059 A 
ATOM     75  C   UNL A   1      33.843  34.230  31.002  1.00  0.00     0.059 A 
ATOM     76  F   UNL A   1      34.435  32.771  32.740  1.00  0.00    -0.206 F 
ATOM     77  C   UNL A   1      34.195  34.925  29.845  1.00  0.00     0.060 A 
BRANCH  77  78
ATOM     78  S   UNL A   1      32.997  36.016  29.046  1.00  0.00     0.124 S 
ATOM     79  O   UNL A   1      32.224  36.488  30.187  1.00  0.00    -0.237 OA
ATOM     80  O   UNL A   1      33.854  37.005  28.400  1.00  0.00    -0.237 OA
ATOM     81  O   UNL A   1      32.295  35.119  28.131  1.00  0.00    -0.744 OA
ENDBRANCH  77  78
ENDBRANCH  45  70
BRANCH  57  82
ATOM     82  C   UNL A   1      39.719  34.255  36.909  1.00  0.00     0.058 A 
ATOM     83  C   UNL A   1      40.294  35.529  36.756  1.00  0.00     0.135 A 
ATOM     84  C   UNL A   1      39.015  34.000  38.099  1.00  0.00     0.135 A 
ATOM     85  F   UNL A   1      40.974  35.832  35.640  1.00  0.00    -0.206 F 
ATOM     86  C   UNL A   1      40.201  36.498  37.752  1.00  0.00     0.059 A 
ATOM     87  C   UNL A   1      38.890  34.963  39.098  1.00  0.00     0.059 A 
ATOM     88  F   UNL A   1      38.431  32.808  38.294  1.00  0.00    -0.206 F 
ATOM     89  C   UNL A   1      39.499  36.205  38.922  1.00  0.00     0.060 A 
BRANCH  89  90
ATOM     90  S   UNL A   1      39.364  37.477  40.198  1.00  0.00     0.124 S 
ATOM     91  O   UNL A   1      38.496  38.454  39.549  1.00  0.00    -0.237 OA
ATOM     92  O   UNL A   1      38.771  36.745  41.312  1.00  0.00    -0.237 OA
ATOM     93  O   UNL A   1      40.746  37.901  40.402  1.00  0.00    -0.744 OA
ENDBRANCH  89  90
ENDBRANCH  57  82
ENDBRANCH  31  32
ENDBRANCH  24  26
ENDBRANCH  23  24
ENDBRANCH  22  23
ENDBRANCH   1  22
TORSDOF 17
ENDMDL
MODEL 2
REMARK VINA RESULT:     -11.3      6.385     12.431
REMARK SMILES O=C(CC1CC[NH+](C[C@@H]2Cc3ccccc32)CC1)OCCOC(=O)c1ccc(-c2c3nc(c(-c4c(F)cc(S(=O)(=O)[O-])cc4F)c4ccc([nH]4)c(-c4c(F)cc(S(=O)(=O)[O-])cc4F)c4nc(c(-c5c(F)cc(S(=O)(=O)[O-])cc5F)c5ccc2[nH]5)C=C4)C=C3)cc1
REMARK SMILES IDX 20 1 19 2 2 3 1 4 3 5 4 6 5 7 18 8 6 9 17 10 7 11 8 13 9 14
REMARK SMILES IDX 10 15 16 16 11 17 15 18 12 19 14 20 13 21 21 22 22 23 23 24
REMARK SMILES IDX 24 25 25 26 26 27 90 28 27 29 89 30 28 31 29 32 30 33 83 34
REMARK SMILES IDX 31 35 88 36 82 37 84 38 32 39 87 40 81 41 80 42 33 44 67 45
REMARK SMILES IDX 46 46 66 47 47 48 50 49 65 50 85 51 48 52 49 53 64 55 86 56
REMARK SMILES IDX 51 57 34 58 35 59 44 60 36 61 37 62 43 63 45 64 38 65 39 66
REMARK SMILES IDX 40 67 41 68 42 69 68 70 69 71 78 72 70 73 71 74 77 75 79 76
REMARK SMILES IDX 72 77 73 78 74 79 75 80 76 81 52 82 53 83 62 84 54 85 55 86
REMARK SMILES IDX 61 87 63 88 56 89 57 90 58 91 59 92 60 93
REMARK H PARENT 7 12 84 43 50 54
REMARK Flexibility Score: inf
ROOT
ATOM      1  C   UNL A   1      34.638  32.265  28.473  1.00  0.00     0.274 C 
ENDROOT
BRANCH   1   2
ATOM      2  O   UNL A   1      33.650  31.341  27.976  1.00  0.00    -0.462 OA
BRANCH   2   3
ATOM      3  C   UNL A   1      33.992  30.208  27.317  1.00  0.00     0.306 C 
ATOM      4  O   UNL A   1      34.944  29.529  27.688  1.00  0.00    -0.252 OA
BRANCH   3   5
ATOM      5  C   UNL A   1      33.233  29.884  26.053  1.00  0.00     0.126 C 
BRANCH   5   6
ATOM      6  C   UNL A   1      31.791  29.387  26.222  1.00  0.00     0.011 C 
ATOM      7  C   UNL A   1      31.655  28.164  27.128  1.00  0.00     0.066 C 
ATOM      8  C   UNL A   1      31.213  29.023  24.841  1.00  0.00     0.066 C 
ATOM      9  C   UNL A   1      32.338  26.949  26.512  1.00  0.00     0.262 C 
ATOM     10  C   UNL A   1      31.868  27.765  24.240  1.00  0.00     0.262 C 
ATOM     11  N   UNL A   1      31.827  26.652  25.183  1.00  0.00    -0.334 N 
ATOM     12  H   UNL A   1      30.829  26.528  25.353  1.00  0.00     0.348 HD
BRANCH  11  13
ATOM     13  C   UNL A   1      32.221  25.347  24.626  1.00  0.00     0.270 C 
BRANCH  13  14
ATOM     14  C   UNL A   1      33.509  25.148  23.806  1.00  0.00     0.079 C 
ATOM     15  C   UNL A   1      33.724  24.130  22.616  1.00  0.00     0.050 C 
ATOM     16  C   UNL A   1      34.702  24.482  24.440  1.00  0.00    -0.036 A 
ATOM     17  C   UNL A   1      34.839  23.551  23.440  1.00  0.00    -0.043 A 
ATOM     18  C   UNL A   1      35.640  24.605  25.431  1.00  0.00     0.004 A 
ATOM     19  C   UNL A   1      35.857  22.623  23.435  1.00  0.00     0.004 A 
ATOM     20  C   UNL A   1      36.706  23.703  25.442  1.00  0.00     0.000 A 
ATOM     21  C   UNL A   1      36.799  22.699  24.464  1.00  0.00     0.000 A 
ENDBRANCH  13  14
ENDBRANCH  11  13
ENDBRANCH   5   6
ENDBRANCH   3   5
ENDBRANCH   2   3
ENDBRANCH   1   2
BRANCH   1  22
ATOM     22  C   UNL A   1      34.855  32.129  29.982  1.00  0.00     0.275 C 
BRANCH  22  23
ATOM     23  O   UNL A   1      36.257  31.998  30.299  1.00  0.00    -0.458 OA
BRANCH  23  24
ATOM     24  C   UNL A   1      36.610  30.809  30.855  1.00  0.00     0.338 C 
ATOM     25  O   UNL A   1      36.041  30.249  31.770  1.00  0.00    -0.246 OA
BRANCH  24  26
ATOM     26  C   UNL A   1      37.695  30.164  30.069  1.00  0.00     0.060 A 
ATOM     27  C   UNL A   1      38.634  29.428  30.794  1.00  0.00     0.016 A 
ATOM     28  C   UNL A   1      37.840  30.295  28.682  1.00  0.00     0.016 A 
ATOM     29  C   UNL A   1      39.740  28.875  30.147  1.00  0.00     0.010 A 
ATOM     30  C   UNL A   1      38.962  29.737  28.034  1.00  0.00     0.010 A 
ATOM     31  C   UNL A   1      39.938  29.044  28.769  1.00  0.00    -0.014 A 
BRANCH  31  32
ATOM     32  C   UNL A   1      41.276  28.677  28.216  1.00  0.00     0.031 A 
ATOM     33  C   UNL A   1      42.416  29.640  28.421  1.00  0.00     0.074 A 
ATOM     34  C   UNL A   1      41.537  27.474  27.667  1.00  0.00     0.049 A 
ATOM     35  N   UNL A   1      43.695  29.477  28.196  1.00  0.00    -0.248 NA
ATOM     36  C   UNL A   1      42.058  30.967  28.945  1.00  0.00     0.031 C 
ATOM     37  C   UNL A   1      40.553  26.432  27.404  1.00  0.00     0.029 A 
ATOM     38  N   UNL A   1      42.738  26.901  27.298  1.00  0.00    -0.354 N 
ATOM     39  C   UNL A   1      44.290  30.694  28.505  1.00  0.00     0.074 A 
ATOM     40  C   UNL A   1      43.235  31.572  28.968  1.00  0.00     0.031 C 
ATOM     41  C   UNL A   1      41.196  25.315  27.012  1.00  0.00     0.029 A 
ATOM     42  C   UNL A   1      42.639  25.563  26.988  1.00  0.00     0.049 A 
ATOM     43  H   UNL A   1      43.584  27.403  27.259  1.00  0.00     0.167 HD
ATOM     44  C   UNL A   1      45.586  31.066  28.382  1.00  0.00     0.037 A 
ATOM     45  C   UNL A   1      43.598  24.638  26.759  1.00  0.00     0.037 A 
ATOM     46  C   UNL A   1      46.649  30.219  27.915  1.00  0.00     0.049 A 
ATOM     47  C   UNL A   1      45.053  25.054  26.700  1.00  0.00     0.074 A 
ATOM     48  C   UNL A   1      47.980  30.544  27.701  1.00  0.00     0.029 A 
ATOM     49  N   UNL A   1      46.512  28.881  27.589  1.00  0.00    -0.354 N 
ATOM     50  N   UNL A   1      45.597  26.217  26.967  1.00  0.00    -0.248 NA
ATOM     51  C   UNL A   1      46.021  24.031  26.266  1.00  0.00     0.031 C 
ATOM     52  C   UNL A   1      48.638  29.410  27.213  1.00  0.00     0.029 A 
ATOM     53  C   UNL A   1      47.728  28.367  27.168  1.00  0.00     0.049 A 
ATOM     54  H   UNL A   1      45.673  28.368  27.648  1.00  0.00     0.167 HD
ATOM     55  C   UNL A   1      46.961  26.066  26.721  1.00  0.00     0.074 A 
ATOM     56  C   UNL A   1      47.170  24.689  26.336  1.00  0.00     0.031 C 
ATOM     57  C   UNL A   1      47.945  26.996  26.782  1.00  0.00     0.037 A 
BRANCH  44  58
ATOM     58  C   UNL A   1      45.902  32.503  28.672  1.00  0.00     0.058 A 
ATOM     59  C   UNL A   1      46.291  32.940  29.946  1.00  0.00     0.135 A 
ATOM     60  C   UNL A   1      45.792  33.459  27.649  1.00  0.00     0.135 A 
ATOM     61  F   UNL A   1      46.383  32.067  30.962  1.00  0.00    -0.206 F 
ATOM     62  C   UNL A   1      46.529  34.285  30.206  1.00  0.00     0.059 A 
ATOM     63  C   UNL A   1      46.048  34.804  27.880  1.00  0.00     0.059 A 
ATOM     64  F   UNL A   1      45.416  33.087  26.415  1.00  0.00    -0.206 F 
ATOM     65  C   UNL A   1      46.396  35.210  29.167  1.00  0.00     0.060 A 
BRANCH  65  66
ATOM     66  S   UNL A   1      46.676  36.957  29.518  1.00  0.00     0.124 S 
ATOM     67  O   UNL A   1      48.132  37.035  29.455  1.00  0.00    -0.237 OA
ATOM     68  O   UNL A   1      45.959  37.615  28.431  1.00  0.00    -0.237 OA
ATOM     69  O   UNL A   1      46.094  37.134  30.845  1.00  0.00    -0.744 OA
ENDBRANCH  65  66
ENDBRANCH  44  58
BRANCH  45  70
ATOM     70  C   UNL A   1      43.256  23.194  26.591  1.00  0.00     0.058 A 
ATOM     71  C   UNL A   1      42.924  22.406  27.708  1.00  0.00     0.135 A 
ATOM     72  C   UNL A   1      43.319  22.553  25.346  1.00  0.00     0.135 A 
ATOM     73  F   UNL A   1      42.869  22.964  28.929  1.00  0.00    -0.206 F 
ATOM     74  C   UNL A   1      42.698  21.037  27.602  1.00  0.00     0.059 A 
ATOM     75  C   UNL A   1      43.066  21.191  25.210  1.00  0.00     0.059 A 
ATOM     76  F   UNL A   1      43.631  23.253  24.245  1.00  0.00    -0.206 F 
ATOM     77  C   UNL A   1      42.775  20.436  26.346  1.00  0.00     0.060 A 
BRANCH  77  78
ATOM     78  S   UNL A   1      42.457  18.664  26.198  1.00  0.00     0.124 S 
ATOM     79  O   UNL A   1      43.450  18.270  25.207  1.00  0.00    -0.237 OA
ATOM     80  O   UNL A   1      42.686  18.188  27.558  1.00  0.00    -0.237 OA
ATOM     81  O   UNL A   1      41.066  18.616  25.755  1.00  0.00    -0.744 OA
ENDBRANCH  77  78
ENDBRANCH  45  70
BRANCH  57  82
ATOM     82  C   UNL A   1      49.345  26.574  26.418  1.00  0.00     0.058 A 
ATOM     83  C   UNL A   1      50.141  25.824  27.301  1.00  0.00     0.135 A 
ATOM     84  C   UNL A   1      49.880  26.869  25.153  1.00  0.00     0.135 A 
ATOM     85  F   UNL A   1      49.681  25.509  28.522  1.00  0.00    -0.206 F 
ATOM     86  C   UNL A   1      51.425  25.410  26.956  1.00  0.00     0.059 A 
ATOM     87  C   UNL A   1      51.154  26.444  24.778  1.00  0.00     0.059 A 
ATOM     88  F   UNL A   1      49.161  27.567  24.262  1.00  0.00    -0.206 F 
ATOM     89  C   UNL A   1      51.925  25.727  25.692  1.00  0.00     0.060 A 
BRANCH  89  90
ATOM     90  S   UNL A   1      53.583  25.165  25.246  1.00  0.00     0.124 S 
ATOM     91  O   UNL A   1      54.410  25.906  26.193  1.00  0.00    -0.237 OA
ATOM     92  O   UNL A   1      53.499  23.725  25.470  1.00  0.00    -0.237 OA
ATOM     93  O   UNL A   1      53.714  25.567  23.849  1.00  0.00    -0.744 OA
ENDBRANCH  89  90
ENDBRANCH  57  82
ENDBRANCH  31  32
ENDBRANCH  24  26
ENDBRANCH  23  24
ENDBRANCH  22  23
ENDBRANCH   1  22
TORSDOF 17
ENDMDL
MODEL 3
REMARK VINA RESULT:     -11.1      6.791     11.808
REMARK SMILES O=C(CC1CC[NH+](C[C@@H]2Cc3ccccc32)CC1)OCCOC(=O)c1ccc(-c2c3nc(c(-c4c(F)cc(S(=O)(=O)[O-])cc4F)c4ccc([nH]4)c(-c4c(F)cc(S(=O)(=O)[O-])cc4F)c4nc(c(-c5c(F)cc(S(=O)(=O)[O-])cc5F)c5ccc2[nH]5)C=C4)C=C3)cc1
REMARK SMILES IDX 20 1 19 2 2 3 1 4 3 5 4 6 5 7 18 8 6 9 17 10 7 11 8 13 9 14
REMARK SMILES IDX 10 15 16 16 11 17 15 18 12 19 14 20 13 21 21 22 22 23 23 24
REMARK SMILES IDX 24 25 25 26 26 27 90 28 27 29 89 30 28 31 29 32 30 33 83 34
REMARK SMILES IDX 31 35 88 36 82 37 84 38 32 39 87 40 81 41 80 42 33 44 67 45
REMARK SMILES IDX 46 46 66 47 47 48 50 49 65 50 85 51 48 52 49 53 64 55 86 56
REMARK SMILES IDX 51 57 34 58 35 59 44 60 36 61 37 62 43 63 45 64 38 65 39 66
REMARK SMILES IDX 40 67 41 68 42 69 68 70 69 71 78 72 70 73 71 74 77 75 79 76
REMARK SMILES IDX 72 77 73 78 74 79 75 80 76 81 52 82 53 83 62 84 54 85 55 86
REMARK SMILES IDX 61 87 63 88 56 89 57 90 58 91 59 92 60 93
REMARK H PARENT 7 12 84 43 50 54
REMARK Flexibility Score: inf
ROOT
ATOM      1  C   UNL A   1      32.951  30.311  27.245  1.00  0.00     0.274 C 
ENDROOT
BRANCH   1   2
ATOM      2  O   UNL A   1      32.778  30.327  25.815  1.00  0.00    -0.462 OA
BRANCH   2   3
ATOM      3  C   UNL A   1      31.740  29.701  25.209  1.00  0.00     0.306 C 
ATOM      4  O   UNL A   1      30.724  30.319  24.907  1.00  0.00    -0.252 OA
BRANCH   3   5
ATOM      5  C   UNL A   1      31.839  28.205  25.031  1.00  0.00     0.126 C 
BRANCH   5   6
ATOM      6  C   UNL A   1      33.249  27.600  25.036  1.00  0.00     0.011 C 
ATOM      7  C   UNL A   1      33.666  26.979  23.704  1.00  0.00     0.066 C 
ATOM      8  C   UNL A   1      33.331  26.507  26.118  1.00  0.00     0.066 C 
ATOM      9  C   UNL A   1      32.802  25.766  23.374  1.00  0.00     0.262 C 
ATOM     10  C   UNL A   1      32.500  25.261  25.762  1.00  0.00     0.262 C 
ATOM     11  N   UNL A   1      32.840  24.768  24.431  1.00  0.00    -0.334 N 
ATOM     12  H   UNL A   1      33.836  24.562  24.507  1.00  0.00     0.348 HD
BRANCH  11  13
ATOM     13  C   UNL A   1      32.269  23.454  24.087  1.00  0.00     0.270 C 
BRANCH  13  14
ATOM     14  C   UNL A   1      33.141  22.239  23.722  1.00  0.00     0.079 C 
ATOM     15  C   UNL A   1      33.252  20.880  24.521  1.00  0.00     0.050 C 
ATOM     16  C   UNL A   1      34.637  22.321  23.880  1.00  0.00    -0.036 A 
ATOM     17  C   UNL A   1      34.720  21.179  24.638  1.00  0.00    -0.043 A 
ATOM     18  C   UNL A   1      35.764  22.960  23.431  1.00  0.00     0.004 A 
ATOM     19  C   UNL A   1      35.924  20.676  25.081  1.00  0.00     0.004 A 
ATOM     20  C   UNL A   1      37.005  22.462  23.831  1.00  0.00     0.000 A 
ATOM     21  C   UNL A   1      37.084  21.341  24.675  1.00  0.00     0.000 A 
ENDBRANCH  13  14
ENDBRANCH  11  13
ENDBRANCH   5   6
ENDBRANCH   3   5
ENDBRANCH   2   3
ENDBRANCH   1   2
BRANCH   1  22
ATOM     22  C   UNL A   1      34.280  30.937  27.677  1.00  0.00     0.275 C 
BRANCH  22  23
ATOM     23  O   UNL A   1      35.112  29.975  28.358  1.00  0.00    -0.458 OA
BRANCH  23  24
ATOM     24  C   UNL A   1      36.095  30.514  29.129  1.00  0.00     0.338 C 
ATOM     25  O   UNL A   1      35.937  31.272  30.064  1.00  0.00    -0.246 OA
BRANCH  24  26
ATOM     26  C   UNL A   1      37.412  29.904  28.802  1.00  0.00     0.060 A 
ATOM     27  C   UNL A   1      38.163  29.432  29.880  1.00  0.00     0.016 A 
ATOM     28  C   UNL A   1      37.936  29.824  27.505  1.00  0.00     0.016 A 
ATOM     29  C   UNL A   1      39.450  28.937  29.672  1.00  0.00     0.010 A 
ATOM     30  C   UNL A   1      39.240  29.327  27.301  1.00  0.00     0.010 A 
ATOM     31  C   UNL A   1      40.020  28.904  28.390  1.00  0.00    -0.014 A 
BRANCH  31  32
ATOM     32  C   UNL A   1      41.487  28.638  28.296  1.00  0.00     0.031 A 
ATOM     33  C   UNL A   1      41.931  27.281  27.813  1.00  0.00     0.074 A 
ATOM     34  C   UNL A   1      42.419  29.592  28.491  1.00  0.00     0.049 A 
ATOM     35  N   UNL A   1      43.126  26.866  27.481  1.00  0.00    -0.248 NA
ATOM     36  C   UNL A   1      40.881  26.257  27.700  1.00  0.00     0.031 C 
ATOM     37  C   UNL A   1      42.157  30.950  28.951  1.00  0.00     0.029 A 
ATOM     38  N   UNL A   1      43.778  29.575  28.253  1.00  0.00    -0.354 N 
ATOM     39  C   UNL A   1      42.984  25.522  27.163  1.00  0.00     0.074 A 
ATOM     40  C   UNL A   1      41.578  25.202  27.308  1.00  0.00     0.031 C 
ATOM     41  C   UNL A   1      43.296  31.664  28.867  1.00  0.00     0.029 A 
ATOM     42  C   UNL A   1      44.372  30.814  28.354  1.00  0.00     0.049 A 
ATOM     43  H   UNL A   1      44.276  28.755  28.033  1.00  0.00     0.167 HD
ATOM     44  C   UNL A   1      43.934  24.620  26.818  1.00  0.00     0.037 A 
ATOM     45  C   UNL A   1      45.618  31.224  28.029  1.00  0.00     0.037 A 
ATOM     46  C   UNL A   1      45.335  24.907  26.678  1.00  0.00     0.049 A 
ATOM     47  C   UNL A   1      46.651  30.215  27.570  1.00  0.00     0.074 A 
ATOM     48  C   UNL A   1      46.370  24.031  26.394  1.00  0.00     0.029 A 
ATOM     49  N   UNL A   1      45.904  26.163  26.809  1.00  0.00    -0.354 N 
ATOM     50  N   UNL A   1      46.507  28.940  27.302  1.00  0.00    -0.248 NA
ATOM     51  C   UNL A   1      48.032  30.704  27.409  1.00  0.00     0.031 C 
ATOM     52  C   UNL A   1      47.570  24.751  26.388  1.00  0.00     0.029 A 
ATOM     53  C   UNL A   1      47.275  26.084  26.621  1.00  0.00     0.049 A 
ATOM     54  H   UNL A   1      45.407  26.990  27.007  1.00  0.00     0.167 HD
ATOM     55  C   UNL A   1      47.775  28.477  26.956  1.00  0.00     0.074 A 
ATOM     56  C   UNL A   1      48.665  29.615  26.996  1.00  0.00     0.031 C 
ATOM     57  C   UNL A   1      48.169  27.213  26.660  1.00  0.00     0.037 A 
BRANCH  44  58
ATOM     58  C   UNL A   1      43.485  23.197  26.665  1.00  0.00     0.058 A 
ATOM     59  C   UNL A   1      43.106  22.412  27.763  1.00  0.00     0.135 A 
ATOM     60  C   UNL A   1      43.456  22.612  25.389  1.00  0.00     0.135 A 
ATOM     61  F   UNL A   1      43.145  22.920  29.004  1.00  0.00    -0.206 F 
ATOM     62  C   UNL A   1      42.743  21.079  27.604  1.00  0.00     0.059 A 
ATOM     63  C   UNL A   1      43.073  21.289  25.205  1.00  0.00     0.059 A 
ATOM     64  F   UNL A   1      43.817  23.324  24.310  1.00  0.00    -0.206 F 
ATOM     65  C   UNL A   1      42.738  20.525  26.321  1.00  0.00     0.060 A 
BRANCH  65  66
ATOM     66  S   UNL A   1      42.296  18.787  26.127  1.00  0.00     0.124 S 
ATOM     67  O   UNL A   1      42.641  18.252  27.441  1.00  0.00    -0.237 OA
ATOM     68  O   UNL A   1      40.870  18.857  25.825  1.00  0.00    -0.237 OA
ATOM     69  O   UNL A   1      43.146  18.342  25.026  1.00  0.00    -0.744 OA
ENDBRANCH  65  66
ENDBRANCH  44  58
BRANCH  45  70
ATOM     70  C   UNL A   1      45.997  32.667  28.081  1.00  0.00     0.058 A 
ATOM     71  C   UNL A   1      45.822  33.491  26.954  1.00  0.00     0.135 A 
ATOM     72  C   UNL A   1      46.599  33.240  29.211  1.00  0.00     0.135 A 
ATOM     73  F   UNL A   1      45.270  32.990  25.837  1.00  0.00    -0.206 F 
ATOM     74  C   UNL A   1      46.255  34.813  26.934  1.00  0.00     0.059 A 
ATOM     75  C   UNL A   1      47.011  34.569  29.226  1.00  0.00     0.059 A 
ATOM     76  F   UNL A   1      46.791  32.503  30.315  1.00  0.00    -0.206 F 
ATOM     77  C   UNL A   1      46.853  35.343  28.077  1.00  0.00     0.060 A 
BRANCH  77  78
ATOM     78  S   UNL A   1      47.395  37.067  28.067  1.00  0.00     0.124 S 
ATOM     79  O   UNL A   1      48.844  36.919  28.029  1.00  0.00    -0.237 OA
ATOM     80  O   UNL A   1      46.772  37.586  26.854  1.00  0.00    -0.237 OA
ATOM     81  O   UNL A   1      46.844  37.591  29.315  1.00  0.00    -0.744 OA
ENDBRANCH  77  78
ENDBRANCH  45  70
BRANCH  57  82
ATOM     82  C   UNL A   1      49.627  26.975  26.362  1.00  0.00     0.058 A 
ATOM     83  C   UNL A   1      50.131  27.040  25.052  1.00  0.00     0.135 A 
ATOM     84  C   UNL A   1      50.544  26.737  27.399  1.00  0.00     0.135 A 
ATOM     85  F   UNL A   1      49.302  27.269  24.021  1.00  0.00    -0.206 F 
ATOM     86  C   UNL A   1      51.483  26.847  24.777  1.00  0.00     0.059 A 
ATOM     87  C   UNL A   1      51.904  26.564  27.150  1.00  0.00     0.059 A 
ATOM     88  F   UNL A   1      50.124  26.680  28.672  1.00  0.00    -0.206 F 
ATOM     89  C   UNL A   1      52.362  26.606  25.834  1.00  0.00     0.060 A 
BRANCH  89  90
ATOM     90  S   UNL A   1      54.118  26.379  25.470  1.00  0.00     0.124 S 
ATOM     91  O   UNL A   1      54.065  25.578  24.251  1.00  0.00    -0.237 OA
ATOM     92  O   UNL A   1      54.585  27.752  25.304  1.00  0.00    -0.237 OA
ATOM     93  O   UNL A   1      54.624  25.691  26.652  1.00  0.00    -0.744 OA
ENDBRANCH  89  90
ENDBRANCH  57  82
ENDBRANCH  31  32
ENDBRANCH  24  26
ENDBRANCH  23  24
ENDBRANCH  22  23
ENDBRANCH   1  22
TORSDOF 17
ENDMDL
