MODEL 1
REMARK VINA RESULT:     -10.7      0.000      0.000
REMARK SMILES CCCCCCNC(=O)Oc1cccc(-c2ccc([C@@H](C)C(=O)OCCOC(=O)c3ccc(-c4c5nc(c(-c6c(F)cc(S(=O)(=O)[O-])cc6F)c6ccc([nH]6)c(-c6c(F)cc(S(=O)(=O)[O-])cc6F)c6nc(c(-c7c(F)cc(S(=O)(=O)[O-])cc7F)c7ccc4[nH]7)C=C6)C=C5)cc3)cc2F)c1
REMARK SMILES IDX 20 1 21 2 19 3 16 4 17 5 97 6 18 7 96 8 98 9 15 10 11 11
REMARK SMILES IDX 12 12 99 13 13 14 14 15 10 16 8 17 7 18 9 20 6 21 5 22 4 23
REMARK SMILES IDX 3 24 2 25 1 26 22 27 23 28 24 29 25 30 26 31 27 32 28 33
REMARK SMILES IDX 29 34 30 35 31 36 95 37 32 38 94 39 33 40 34 41 35 42 88 43
REMARK SMILES IDX 36 44 93 45 87 46 89 47 37 48 92 49 86 50 85 51 38 53 72 54
REMARK SMILES IDX 51 55 71 56 52 57 55 58 70 59 90 60 53 61 54 62 69 64 91 65
REMARK SMILES IDX 56 66 39 67 40 68 49 69 41 70 42 71 48 72 50 73 43 74 44 75
REMARK SMILES IDX 45 76 46 77 47 78 73 79 74 80 83 81 75 82 76 83 82 84 84 85
REMARK SMILES IDX 77 86 78 87 79 88 80 89 81 90 57 91 58 92 67 93 59 94 60 95
REMARK SMILES IDX 66 96 68 97 61 98 62 99 63 100 64 101 65 102
REMARK H PARENT 7 19 89 52 55 63
REMARK Flexibility Score: inf
ROOT
ATOM      1  C   UNL A   1      34.740  33.908  28.632  1.00  0.00     0.126 C 
ATOM      2  C   UNL A   1      33.494  34.680  29.063  1.00  0.00     0.025 C 
ENDROOT
BRANCH   1   3
ATOM      3  C   UNL A   1      34.407  32.535  28.069  1.00  0.00    -0.031 A 
ATOM      4  C   UNL A   1      33.742  29.987  26.976  1.00  0.00     0.018 A 
ATOM      5  C   UNL A   1      35.025  30.251  27.484  1.00  0.00     0.012 A 
ATOM      6  C   UNL A   1      32.805  31.025  27.028  1.00  0.00     0.131 A 
ATOM      7  C   UNL A   1      35.352  31.501  28.024  1.00  0.00     0.005 A 
ATOM      8  C   UNL A   1      33.122  32.273  27.569  1.00  0.00     0.044 A 
ATOM      9  F   UNL A   1      31.555  30.832  26.578  1.00  0.00    -0.206 F 
BRANCH   4  10
ATOM     10  C   UNL A   1      33.409  28.661  26.431  1.00  0.00    -0.012 A 
ATOM     11  C   UNL A   1      32.003  26.686  26.344  1.00  0.00     0.133 A 
ATOM     12  C   UNL A   1      32.801  26.126  25.349  1.00  0.00     0.047 A 
ATOM     13  C   UNL A   1      32.306  27.931  26.900  1.00  0.00     0.056 A 
ATOM     14  C   UNL A   1      33.902  26.835  24.880  1.00  0.00     0.004 A 
ATOM     15  C   UNL A   1      34.200  28.090  25.416  1.00  0.00     0.009 A 
BRANCH  11  16
ATOM     16  O   UNL A   1      30.954  25.893  26.834  1.00  0.00    -0.410 OA
BRANCH  16  17
ATOM     17  C   UNL A   1      30.067  25.361  25.909  1.00  0.00     0.412 C 
ATOM     18  N   UNL A   1      29.937  24.003  26.007  1.00  0.00    -0.321 N 
ATOM     19  H   UNL A   1      29.288  23.579  25.401  1.00  0.00     0.167 HD
ATOM     20  O   UNL A   1      29.460  25.988  25.048  1.00  0.00    -0.224 OA
BRANCH  18  21
ATOM     21  C   UNL A   1      30.653  23.121  26.908  1.00  0.00     0.119 C 
BRANCH  21  22
ATOM     22  C   UNL A   1      31.949  22.587  26.301  1.00  0.00     0.021 C 
BRANCH  22  23
ATOM     23  C   UNL A   1      31.839  22.119  24.845  1.00  0.00     0.002 C 
BRANCH  23  24
ATOM     24  C   UNL A   1      33.168  21.900  24.112  1.00  0.00    -0.000 C 
BRANCH  24  25
ATOM     25  C   UNL A   1      33.653  23.073  23.256  1.00  0.00    -0.003 C 
ATOM     26  C   UNL A   1      35.138  23.360  23.411  1.00  0.00     0.004 C 
ENDBRANCH  24  25
ENDBRANCH  23  24
ENDBRANCH  22  23
ENDBRANCH  21  22
ENDBRANCH  18  21
ENDBRANCH  16  17
ENDBRANCH  11  16
ENDBRANCH   4  10
ENDBRANCH   1   3
BRANCH   1  27
ATOM     27  C   UNL A   1      35.780  33.939  29.748  1.00  0.00     0.313 C 
ATOM     28  O   UNL A   1      36.975  33.769  29.532  1.00  0.00    -0.252 OA
BRANCH  27  29
ATOM     29  O   UNL A   1      35.262  34.228  30.972  1.00  0.00    -0.462 OA
BRANCH  29  30
ATOM     30  C   UNL A   1      35.829  33.532  32.099  1.00  0.00     0.274 C 
BRANCH  30  31
ATOM     31  C   UNL A   1      35.467  32.046  32.084  1.00  0.00     0.275 C 
BRANCH  31  32
ATOM     32  O   UNL A   1      36.641  31.217  32.152  1.00  0.00    -0.458 OA
BRANCH  32  33
ATOM     33  C   UNL A   1      36.690  30.230  31.226  1.00  0.00     0.338 C 
ATOM     34  O   UNL A   1      35.747  29.643  30.726  1.00  0.00    -0.246 OA
BRANCH  33  35
ATOM     35  C   UNL A   1      38.075  30.035  30.775  1.00  0.00     0.060 A 
ATOM     36  C   UNL A   1      38.323  30.096  29.402  1.00  0.00     0.016 A 
ATOM     37  C   UNL A   1      39.097  29.705  31.667  1.00  0.00     0.016 A 
ATOM     38  C   UNL A   1      39.585  29.795  28.905  1.00  0.00     0.010 A 
ATOM     39  C   UNL A   1      40.371  29.415  31.168  1.00  0.00     0.010 A 
ATOM     40  C   UNL A   1      40.616  29.436  29.783  1.00  0.00    -0.014 A 
BRANCH  40  41
ATOM     41  C   UNL A   1      41.927  29.032  29.224  1.00  0.00     0.031 A 
ATOM     42  C   UNL A   1      43.060  30.017  29.184  1.00  0.00     0.074 A 
ATOM     43  C   UNL A   1      42.110  27.770  28.796  1.00  0.00     0.049 A 
ATOM     44  N   UNL A   1      44.280  29.858  28.739  1.00  0.00    -0.248 NA
ATOM     45  C   UNL A   1      42.782  31.361  29.714  1.00  0.00     0.031 C 
ATOM     46  C   UNL A   1      41.088  26.723  28.807  1.00  0.00     0.029 A 
ATOM     47  N   UNL A   1      43.219  27.155  28.276  1.00  0.00    -0.354 N 
ATOM     48  C   UNL A   1      44.912  31.081  28.919  1.00  0.00     0.074 A 
ATOM     49  C   UNL A   1      43.932  31.981  29.491  1.00  0.00     0.031 C 
ATOM     50  C   UNL A   1      41.618  25.592  28.317  1.00  0.00     0.029 A 
ATOM     51  C   UNL A   1      43.005  25.842  27.930  1.00  0.00     0.049 A 
ATOM     52  H   UNL A   1      44.084  27.609  28.159  1.00  0.00     0.167 HD
ATOM     53  C   UNL A   1      46.194  31.420  28.638  1.00  0.00     0.037 A 
ATOM     54  C   UNL A   1      43.829  24.946  27.353  1.00  0.00     0.037 A 
ATOM     55  C   UNL A   1      47.165  30.516  28.077  1.00  0.00     0.049 A 
ATOM     56  C   UNL A   1      45.243  25.346  27.036  1.00  0.00     0.074 A 
ATOM     57  C   UNL A   1      48.493  30.757  27.771  1.00  0.00     0.029 A 
ATOM     58  N   UNL A   1      46.909  29.196  27.732  1.00  0.00    -0.354 N 
ATOM     59  N   UNL A   1      45.833  26.502  27.225  1.00  0.00    -0.248 NA
ATOM     60  C   UNL A   1      46.105  24.321  26.432  1.00  0.00     0.031 C 
ATOM     61  C   UNL A   1      49.031  29.593  27.211  1.00  0.00     0.029 A 
ATOM     62  C   UNL A   1      48.049  28.614  27.201  1.00  0.00     0.049 A 
ATOM     63  H   UNL A   1      46.045  28.739  27.848  1.00  0.00     0.167 HD
ATOM     64  C   UNL A   1      47.137  26.342  26.773  1.00  0.00     0.074 A 
ATOM     65  C   UNL A   1      47.254  24.972  26.315  1.00  0.00     0.031 C 
ATOM     66  C   UNL A   1      48.146  27.250  26.742  1.00  0.00     0.037 A 
BRANCH  53  67
ATOM     67  C   UNL A   1      46.597  32.844  28.906  1.00  0.00     0.058 A 
ATOM     68  C   UNL A   1      46.410  33.857  27.952  1.00  0.00     0.135 A 
ATOM     69  C   UNL A   1      47.202  33.195  30.123  1.00  0.00     0.135 A 
ATOM     70  F   UNL A   1      45.848  33.574  26.766  1.00  0.00    -0.206 F 
ATOM     71  C   UNL A   1      46.853  35.157  28.175  1.00  0.00     0.059 A 
ATOM     72  C   UNL A   1      47.631  34.495  30.377  1.00  0.00     0.059 A 
ATOM     73  F   UNL A   1      47.401  32.266  31.070  1.00  0.00    -0.206 F 
ATOM     74  C   UNL A   1      47.476  35.463  29.387  1.00  0.00     0.060 A 
BRANCH  74  75
ATOM     75  S   UNL A   1      48.094  37.140  29.648  1.00  0.00     0.124 S 
ATOM     76  O   UNL A   1      49.535  36.939  29.532  1.00  0.00    -0.237 OA
ATOM     77  O   UNL A   1      47.470  37.882  28.557  1.00  0.00    -0.237 OA
ATOM     78  O   UNL A   1      47.611  37.474  30.985  1.00  0.00    -0.744 OA
ENDBRANCH  74  75
ENDBRANCH  53  67
BRANCH  54  79
ATOM     79  C   UNL A   1      43.317  23.586  27.049  1.00  0.00     0.058 A 
ATOM     80  C   UNL A   1      43.088  23.175  25.729  1.00  0.00     0.135 A 
ATOM     81  C   UNL A   1      43.118  22.647  28.073  1.00  0.00     0.135 A 
ATOM     82  F   UNL A   1      43.255  24.041  24.718  1.00  0.00    -0.206 F 
ATOM     83  C   UNL A   1      42.691  21.876  25.432  1.00  0.00     0.059 A 
ATOM     84  C   UNL A   1      42.742  21.337  27.799  1.00  0.00     0.059 A 
ATOM     85  F   UNL A   1      43.336  22.992  29.352  1.00  0.00    -0.206 F 
ATOM     86  C   UNL A   1      42.531  20.960  26.474  1.00  0.00     0.060 A 
BRANCH  86  87
ATOM     87  S   UNL A   1      42.119  19.247  26.072  1.00  0.00     0.124 S 
ATOM     88  O   UNL A   1      42.937  19.020  24.885  1.00  0.00    -0.237 OA
ATOM     89  O   UNL A   1      42.535  18.539  27.279  1.00  0.00    -0.237 OA
ATOM     90  O   UNL A   1      40.677  19.293  25.847  1.00  0.00    -0.744 OA
ENDBRANCH  86  87
ENDBRANCH  54  79
BRANCH  66  91
ATOM     91  C   UNL A   1      49.471  26.786  26.203  1.00  0.00     0.058 A 
ATOM     92  C   UNL A   1      49.789  26.903  24.841  1.00  0.00     0.135 A 
ATOM     93  C   UNL A   1      50.449  26.267  27.065  1.00  0.00     0.135 A 
ATOM     94  F   UNL A   1      48.886  27.386  23.975  1.00  0.00    -0.206 F 
ATOM     95  C   UNL A   1      51.028  26.502  24.349  1.00  0.00     0.059 A 
ATOM     96  C   UNL A   1      51.701  25.880  26.598  1.00  0.00     0.059 A 
ATOM     97  F   UNL A   1      50.197  26.143  28.378  1.00  0.00    -0.206 F 
ATOM     98  C   UNL A   1      51.978  25.992  25.236  1.00  0.00     0.060 A 
BRANCH  98  99
ATOM     99  S   UNL A   1      53.595  25.509  24.594  1.00  0.00     0.124 S 
ATOM    100  O   UNL A   1      53.531  26.013  23.227  1.00  0.00    -0.237 OA
ATOM    101  O   UNL A   1      54.512  26.212  25.487  1.00  0.00    -0.237 OA
ATOM    102  O   UNL A   1      53.592  24.055  24.729  1.00  0.00    -0.744 OA
ENDBRANCH  98  99
ENDBRANCH  66  91
ENDBRANCH  40  41
ENDBRANCH  33  35
ENDBRANCH  32  33
ENDBRANCH  31  32
ENDBRANCH  30  31
ENDBRANCH  29  30
ENDBRANCH  27  29
ENDBRANCH   1  27
TORSDOF 23
ENDMDL
MODEL 2
REMARK VINA RESULT:     -10.4      0.686      7.987
REMARK SMILES CCCCCCNC(=O)Oc1cccc(-c2ccc([C@@H](C)C(=O)OCCOC(=O)c3ccc(-c4c5nc(c(-c6c(F)cc(S(=O)(=O)[O-])cc6F)c6ccc([nH]6)c(-c6c(F)cc(S(=O)(=O)[O-])cc6F)c6nc(c(-c7c(F)cc(S(=O)(=O)[O-])cc7F)c7ccc4[nH]7)C=C6)C=C5)cc3)cc2F)c1
REMARK SMILES IDX 20 1 21 2 19 3 16 4 17 5 97 6 18 7 96 8 98 9 15 10 11 11
REMARK SMILES IDX 12 12 99 13 13 14 14 15 10 16 8 17 7 18 9 20 6 21 5 22 4 23
REMARK SMILES IDX 3 24 2 25 1 26 22 27 23 28 24 29 25 30 26 31 27 32 28 33
REMARK SMILES IDX 29 34 30 35 31 36 95 37 32 38 94 39 33 40 34 41 35 42 88 43
REMARK SMILES IDX 36 44 93 45 87 46 89 47 37 48 92 49 86 50 85 51 38 53 72 54
REMARK SMILES IDX 51 55 71 56 52 57 55 58 70 59 90 60 53 61 54 62 69 64 91 65
REMARK SMILES IDX 56 66 39 67 40 68 49 69 41 70 42 71 48 72 50 73 43 74 44 75
REMARK SMILES IDX 45 76 46 77 47 78 73 79 74 80 83 81 75 82 76 83 82 84 84 85
REMARK SMILES IDX 77 86 78 87 79 88 80 89 81 90 57 91 58 92 67 93 59 94 60 95
REMARK SMILES IDX 66 96 68 97 61 98 62 99 63 100 64 101 65 102
REMARK H PARENT 7 19 89 52 55 63
REMARK Flexibility Score: inf
ROOT
ATOM      1  C   UNL A   1      34.866  33.783  28.885  1.00  0.00     0.126 C 
ATOM      2  C   UNL A   1      33.635  34.484  29.457  1.00  0.00     0.025 C 
ENDROOT
BRANCH   1   3
ATOM      3  C   UNL A   1      34.525  32.455  28.224  1.00  0.00    -0.031 A 
ATOM      4  C   UNL A   1      33.845  29.997  26.951  1.00  0.00     0.018 A 
ATOM      5  C   UNL A   1      35.130  30.217  27.474  1.00  0.00     0.012 A 
ATOM      6  C   UNL A   1      32.913  31.033  27.081  1.00  0.00     0.131 A 
ATOM      7  C   UNL A   1      35.465  31.422  28.102  1.00  0.00     0.005 A 
ATOM      8  C   UNL A   1      33.238  32.237  27.710  1.00  0.00     0.044 A 
ATOM      9  F   UNL A   1      31.661  30.879  26.621  1.00  0.00    -0.206 F 
BRANCH   4  10
ATOM     10  C   UNL A   1      33.504  28.715  26.313  1.00  0.00    -0.012 A 
ATOM     11  C   UNL A   1      32.273  26.626  26.255  1.00  0.00     0.133 A 
ATOM     12  C   UNL A   1      32.870  26.274  25.046  1.00  0.00     0.047 A 
ATOM     13  C   UNL A   1      32.593  27.822  26.900  1.00  0.00     0.056 A 
ATOM     14  C   UNL A   1      33.780  27.146  24.457  1.00  0.00     0.004 A 
ATOM     15  C   UNL A   1      34.091  28.355  25.084  1.00  0.00     0.009 A 
BRANCH  11  16
ATOM     16  O   UNL A   1      31.425  25.674  26.841  1.00  0.00    -0.410 OA
BRANCH  16  17
ATOM     17  C   UNL A   1      30.304  25.285  26.123  1.00  0.00     0.412 C 
ATOM     18  N   UNL A   1      30.134  23.928  26.083  1.00  0.00    -0.321 N 
ATOM     19  H   UNL A   1      29.330  23.599  25.621  1.00  0.00     0.167 HD
ATOM     20  O   UNL A   1      29.529  26.030  25.534  1.00  0.00    -0.224 OA
BRANCH  18  21
ATOM     21  C   UNL A   1      31.012  22.922  26.649  1.00  0.00     0.119 C 
BRANCH  21  22
ATOM     22  C   UNL A   1      32.025  22.390  25.637  1.00  0.00     0.021 C 
BRANCH  22  23
ATOM     23  C   UNL A   1      33.379  21.981  26.229  1.00  0.00     0.002 C 
BRANCH  23  24
ATOM     24  C   UNL A   1      34.214  23.115  26.834  1.00  0.00    -0.000 C 
BRANCH  24  25
ATOM     25  C   UNL A   1      35.254  23.742  25.901  1.00  0.00    -0.003 C 
ATOM     26  C   UNL A   1      36.241  22.735  25.333  1.00  0.00     0.004 C 
ENDBRANCH  24  25
ENDBRANCH  23  24
ENDBRANCH  22  23
ENDBRANCH  21  22
ENDBRANCH  18  21
ENDBRANCH  16  17
ENDBRANCH  11  16
ENDBRANCH   4  10
ENDBRANCH   1   3
BRANCH   1  27
ATOM     27  C   UNL A   1      35.972  33.742  29.936  1.00  0.00     0.313 C 
ATOM     28  O   UNL A   1      37.129  33.449  29.653  1.00  0.00    -0.252 OA
BRANCH  27  29
ATOM     29  O   UNL A   1      35.563  34.114  31.177  1.00  0.00    -0.462 OA
BRANCH  29  30
ATOM     30  C   UNL A   1      36.138  33.404  32.292  1.00  0.00     0.274 C 
BRANCH  30  31
ATOM     31  C   UNL A   1      35.766  31.920  32.267  1.00  0.00     0.275 C 
BRANCH  31  32
ATOM     32  O   UNL A   1      36.931  31.083  32.362  1.00  0.00    -0.458 OA
BRANCH  32  33
ATOM     33  C   UNL A   1      37.001  30.102  31.431  1.00  0.00     0.338 C 
ATOM     34  O   UNL A   1      36.072  29.472  30.957  1.00  0.00    -0.246 OA
BRANCH  33  35
ATOM     35  C   UNL A   1      38.379  29.976  30.938  1.00  0.00     0.060 A 
ATOM     36  C   UNL A   1      38.584  30.064  29.559  1.00  0.00     0.016 A 
ATOM     37  C   UNL A   1      39.440  29.682  31.795  1.00  0.00     0.016 A 
ATOM     38  C   UNL A   1      39.843  29.827  29.022  1.00  0.00     0.010 A 
ATOM     39  C   UNL A   1      40.711  29.456  31.256  1.00  0.00     0.010 A 
ATOM     40  C   UNL A   1      40.914  29.505  29.865  1.00  0.00    -0.014 A 
BRANCH  40  41
ATOM     41  C   UNL A   1      42.225  29.168  29.263  1.00  0.00     0.031 A 
ATOM     42  C   UNL A   1      42.460  27.796  28.699  1.00  0.00     0.074 A 
ATOM     43  C   UNL A   1      43.184  30.108  29.183  1.00  0.00     0.049 A 
ATOM     44  N   UNL A   1      43.532  27.308  28.130  1.00  0.00    -0.248 NA
ATOM     45  C   UNL A   1      41.340  26.847  28.791  1.00  0.00     0.031 C 
ATOM     46  C   UNL A   1      43.059  31.479  29.677  1.00  0.00     0.029 A 
ATOM     47  N   UNL A   1      44.447  30.053  28.653  1.00  0.00    -0.354 N 
ATOM     48  C   UNL A   1      43.225  25.991  27.809  1.00  0.00     0.074 A 
ATOM     49  C   UNL A   1      41.874  25.751  28.271  1.00  0.00     0.031 C 
ATOM     50  C   UNL A   1      44.202  32.138  29.425  1.00  0.00     0.029 A 
ATOM     51  C   UNL A   1      45.146  31.228  28.780  1.00  0.00     0.049 A 
ATOM     52  H   UNL A   1      44.818  29.249  28.223  1.00  0.00     0.167 HD
ATOM     53  C   UNL A   1      43.997  25.072  27.182  1.00  0.00     0.037 A 
ATOM     54  C   UNL A   1      46.411  31.535  28.431  1.00  0.00     0.037 A 
ATOM     55  C   UNL A   1      45.338  25.323  26.719  1.00  0.00     0.049 A 
ATOM     56  C   UNL A   1      47.257  30.496  27.750  1.00  0.00     0.074 A 
ATOM     57  C   UNL A   1      46.197  24.463  26.056  1.00  0.00     0.029 A 
ATOM     58  N   UNL A   1      46.016  26.523  26.873  1.00  0.00    -0.354 N 
ATOM     59  N   UNL A   1      46.949  29.259  27.438  1.00  0.00    -0.248 NA
ATOM     60  C   UNL A   1      48.618  30.893  27.367  1.00  0.00     0.031 C 
ATOM     61  C   UNL A   1      47.407  25.134  25.842  1.00  0.00     0.029 A 
ATOM     62  C   UNL A   1      47.290  26.424  26.335  1.00  0.00     0.049 A 
ATOM     63  H   UNL A   1      45.647  27.329  27.302  1.00  0.00     0.167 HD
ATOM     64  C   UNL A   1      48.074  28.732  26.815  1.00  0.00     0.074 A 
ATOM     65  C   UNL A   1      49.064  29.790  26.780  1.00  0.00     0.031 C 
ATOM     66  C   UNL A   1      48.266  27.485  26.316  1.00  0.00     0.037 A 
BRANCH  53  67
ATOM     67  C   UNL A   1      43.410  23.700  26.999  1.00  0.00     0.058 A 
ATOM     68  C   UNL A   1      43.352  22.774  28.053  1.00  0.00     0.135 A 
ATOM     69  C   UNL A   1      42.924  23.296  25.745  1.00  0.00     0.135 A 
ATOM     70  F   UNL A   1      43.815  23.103  29.269  1.00  0.00    -0.206 F 
ATOM     71  C   UNL A   1      42.877  21.480  27.859  1.00  0.00     0.059 A 
ATOM     72  C   UNL A   1      42.422  22.014  25.535  1.00  0.00     0.059 A 
ATOM     73  F   UNL A   1      42.953  24.142  24.705  1.00  0.00    -0.206 F 
ATOM     74  C   UNL A   1      42.427  21.105  26.592  1.00  0.00     0.060 A 
BRANCH  74  75
ATOM     75  S   UNL A   1      41.860  19.409  26.336  1.00  0.00     0.124 S 
ATOM     76  O   UNL A   1      40.416  19.598  26.240  1.00  0.00    -0.237 OA
ATOM     77  O   UNL A   1      42.533  19.034  25.096  1.00  0.00    -0.237 OA
ATOM     78  O   UNL A   1      42.325  18.714  27.532  1.00  0.00    -0.744 OA
ENDBRANCH  74  75
ENDBRANCH  53  67
BRANCH  54  79
ATOM     79  C   UNL A   1      46.933  32.892  28.728  1.00  0.00     0.058 A 
ATOM     80  C   UNL A   1      47.572  33.175  29.943  1.00  0.00     0.135 A 
ATOM     81  C   UNL A   1      46.868  33.914  27.767  1.00  0.00     0.135 A 
ATOM     82  F   UNL A   1      47.650  32.233  30.895  1.00  0.00    -0.206 F 
ATOM     83  C   UNL A   1      48.139  34.420  30.193  1.00  0.00     0.059 A 
ATOM     84  C   UNL A   1      47.445  35.159  27.986  1.00  0.00     0.059 A 
ATOM     85  F   UNL A   1      46.276  33.686  26.584  1.00  0.00    -0.206 F 
ATOM     86  C   UNL A   1      48.081  35.403  29.203  1.00  0.00     0.060 A 
BRANCH  86  87
ATOM     87  S   UNL A   1      48.912  36.981  29.492  1.00  0.00     0.124 S 
ATOM     88  O   UNL A   1      48.513  37.743  28.314  1.00  0.00    -0.237 OA
ATOM     89  O   UNL A   1      48.328  37.410  30.759  1.00  0.00    -0.237 OA
ATOM     90  O   UNL A   1      50.323  36.609  29.557  1.00  0.00    -0.744 OA
ENDBRANCH  86  87
ENDBRANCH  54  79
BRANCH  66  91
ATOM     91  C   UNL A   1      49.598  27.198  25.679  1.00  0.00     0.058 A 
ATOM     92  C   UNL A   1      49.839  27.475  24.325  1.00  0.00     0.135 A 
ATOM     93  C   UNL A   1      50.658  26.687  26.445  1.00  0.00     0.135 A 
ATOM     94  F   UNL A   1      48.856  27.958  23.549  1.00  0.00    -0.206 F 
ATOM     95  C   UNL A   1      51.081  27.238  23.746  1.00  0.00     0.059 A 
ATOM     96  C   UNL A   1      51.914  26.462  25.891  1.00  0.00     0.059 A 
ATOM     97  F   UNL A   1      50.481  26.412  27.747  1.00  0.00    -0.206 F 
ATOM     98  C   UNL A   1      52.114  26.731  24.538  1.00  0.00     0.060 A 
BRANCH  98  99
ATOM     99  S   UNL A   1      53.733  26.460  23.787  1.00  0.00     0.124 S 
ATOM    100  O   UNL A   1      53.367  25.861  22.508  1.00  0.00    -0.237 OA
ATOM    101  O   UNL A   1      54.280  27.812  23.720  1.00  0.00    -0.237 OA
ATOM    102  O   UNL A   1      54.400  25.569  24.731  1.00  0.00    -0.744 OA
ENDBRANCH  98  99
ENDBRANCH  66  91
ENDBRANCH  40  41
ENDBRANCH  33  35
ENDBRANCH  32  33
ENDBRANCH  31  32
ENDBRANCH  30  31
ENDBRANCH  29  30
ENDBRANCH  27  29
ENDBRANCH   1  27
TORSDOF 23
ENDMDL
MODEL 3
REMARK VINA RESULT:     -10.0      2.208      3.539
REMARK SMILES CCCCCCNC(=O)Oc1cccc(-c2ccc([C@@H](C)C(=O)OCCOC(=O)c3ccc(-c4c5nc(c(-c6c(F)cc(S(=O)(=O)[O-])cc6F)c6ccc([nH]6)c(-c6c(F)cc(S(=O)(=O)[O-])cc6F)c6nc(c(-c7c(F)cc(S(=O)(=O)[O-])cc7F)c7ccc4[nH]7)C=C6)C=C5)cc3)cc2F)c1
REMARK SMILES IDX 20 1 21 2 19 3 16 4 17 5 97 6 18 7 96 8 98 9 15 10 11 11
REMARK SMILES IDX 12 12 99 13 13 14 14 15 10 16 8 17 7 18 9 20 6 21 5 22 4 23
REMARK SMILES IDX 3 24 2 25 1 26 22 27 23 28 24 29 25 30 26 31 27 32 28 33
REMARK SMILES IDX 29 34 30 35 31 36 95 37 32 38 94 39 33 40 34 41 35 42 88 43
REMARK SMILES IDX 36 44 93 45 87 46 89 47 37 48 92 49 86 50 85 51 38 53 72 54
REMARK SMILES IDX 51 55 71 56 52 57 55 58 70 59 90 60 53 61 54 62 69 64 91 65
REMARK SMILES IDX 56 66 39 67 40 68 49 69 41 70 42 71 48 72 50 73 43 74 44 75
REMARK SMILES IDX 45 76 46 77 47 78 73 79 74 80 83 81 75 82 76 83 82 84 84 85
REMARK SMILES IDX 77 86 78 87 79 88 80 89 81 90 57 91 58 92 67 93 59 94 60 95
REMARK SMILES IDX 66 96 68 97 61 98 62 99 63 100 64 101 65 102
REMARK H PARENT 7 19 89 52 55 63
REMARK Flexibility Score: inf
ROOT
ATOM      1  C   UNL A   1      35.158  31.362  28.404  1.00  0.00     0.126 C 
ATOM      2  C   UNL A   1      36.594  31.122  27.941  1.00  0.00     0.025 C 
ENDROOT
BRANCH   1   3
ATOM      3  C   UNL A   1      34.151  30.520  27.635  1.00  0.00    -0.031 A 
ATOM      4  C   UNL A   1      32.289  28.890  26.219  1.00  0.00     0.018 A 
ATOM      5  C   UNL A   1      31.952  30.188  26.639  1.00  0.00     0.012 A 
ATOM      6  C   UNL A   1      33.575  28.431  26.525  1.00  0.00     0.131 A 
ATOM      7  C   UNL A   1      32.866  30.991  27.331  1.00  0.00     0.005 A 
ATOM      8  C   UNL A   1      34.494  29.227  27.211  1.00  0.00     0.044 A 
ATOM      9  F   UNL A   1      33.968  27.208  26.134  1.00  0.00    -0.206 F 
BRANCH   4  10
ATOM     10  C   UNL A   1      31.323  28.068  25.473  1.00  0.00    -0.012 A 
ATOM     11  C   UNL A   1      29.821  27.720  23.600  1.00  0.00     0.133 A 
ATOM     12  C   UNL A   1      29.485  26.452  24.068  1.00  0.00     0.047 A 
ATOM     13  C   UNL A   1      30.715  28.536  24.298  1.00  0.00     0.056 A 
ATOM     14  C   UNL A   1      30.074  25.978  25.235  1.00  0.00     0.004 A 
ATOM     15  C   UNL A   1      30.985  26.779  25.928  1.00  0.00     0.009 A 
BRANCH  11  16
ATOM     16  O   UNL A   1      29.137  28.177  22.463  1.00  0.00    -0.410 OA
BRANCH  16  17
ATOM     17  C   UNL A   1      27.907  28.788  22.658  1.00  0.00     0.412 C 
ATOM     18  N   UNL A   1      27.693  29.847  21.818  1.00  0.00    -0.321 N 
ATOM     19  H   UNL A   1      26.817  30.291  21.885  1.00  0.00     0.167 HD
ATOM     20  O   UNL A   1      27.073  28.479  23.501  1.00  0.00    -0.224 OA
BRANCH  18  21
ATOM     21  C   UNL A   1      28.617  30.384  20.838  1.00  0.00     0.119 C 
BRANCH  21  22
ATOM     22  C   UNL A   1      28.217  31.776  20.356  1.00  0.00     0.021 C 
BRANCH  22  23
ATOM     23  C   UNL A   1      27.785  32.748  21.461  1.00  0.00     0.002 C 
BRANCH  23  24
ATOM     24  C   UNL A   1      28.819  33.007  22.564  1.00  0.00    -0.000 C 
BRANCH  24  25
ATOM     25  C   UNL A   1      28.582  32.264  23.881  1.00  0.00    -0.003 C 
ATOM     26  C   UNL A   1      29.856  31.717  24.504  1.00  0.00     0.004 C 
ENDBRANCH  24  25
ENDBRANCH  23  24
ENDBRANCH  22  23
ENDBRANCH  21  22
ENDBRANCH  18  21
ENDBRANCH  16  17
ENDBRANCH  11  16
ENDBRANCH   4  10
ENDBRANCH   1   3
BRANCH   1  27
ATOM     27  C   UNL A   1      34.876  32.861  28.453  1.00  0.00     0.313 C 
ATOM     28  O   UNL A   1      34.990  33.579  27.465  1.00  0.00    -0.252 OA
BRANCH  27  29
ATOM     29  O   UNL A   1      34.436  33.297  29.664  1.00  0.00    -0.462 OA
BRANCH  29  30
ATOM     30  C   UNL A   1      34.519  32.364  30.760  1.00  0.00     0.274 C 
BRANCH  30  31
ATOM     31  C   UNL A   1      35.584  32.783  31.775  1.00  0.00     0.275 C 
BRANCH  31  32
ATOM     32  O   UNL A   1      36.897  32.356  31.369  1.00  0.00    -0.458 OA
BRANCH  32  33
ATOM     33  C   UNL A   1      37.202  31.078  31.696  1.00  0.00     0.338 C 
ATOM     34  O   UNL A   1      36.452  30.240  32.166  1.00  0.00    -0.246 OA
BRANCH  33  35
ATOM     35  C   UNL A   1      38.574  30.765  31.271  1.00  0.00     0.060 A 
ATOM     36  C   UNL A   1      38.920  31.044  29.948  1.00  0.00     0.016 A 
ATOM     37  C   UNL A   1      39.476  30.125  32.121  1.00  0.00     0.016 A 
ATOM     38  C   UNL A   1      40.158  30.656  29.452  1.00  0.00     0.010 A 
ATOM     39  C   UNL A   1      40.728  29.746  31.626  1.00  0.00     0.010 A 
ATOM     40  C   UNL A   1      41.068  29.989  30.283  1.00  0.00    -0.014 A 
BRANCH  40  41
ATOM     41  C   UNL A   1      42.344  29.505  29.708  1.00  0.00     0.031 A 
ATOM     42  C   UNL A   1      43.542  30.410  29.677  1.00  0.00     0.074 A 
ATOM     43  C   UNL A   1      42.437  28.241  29.258  1.00  0.00     0.049 A 
ATOM     44  N   UNL A   1      44.745  30.175  29.220  1.00  0.00    -0.248 NA
ATOM     45  C   UNL A   1      43.361  31.761  30.230  1.00  0.00     0.031 C 
ATOM     46  C   UNL A   1      41.345  27.267  29.260  1.00  0.00     0.029 A 
ATOM     47  N   UNL A   1      43.498  27.560  28.720  1.00  0.00    -0.354 N 
ATOM     48  C   UNL A   1      45.462  31.349  29.415  1.00  0.00     0.074 A 
ATOM     49  C   UNL A   1      44.549  32.304  30.009  1.00  0.00     0.031 C 
ATOM     50  C   UNL A   1      41.794  26.110  28.748  1.00  0.00     0.029 A 
ATOM     51  C   UNL A   1      43.192  26.271  28.355  1.00  0.00     0.049 A 
ATOM     52  H   UNL A   1      44.392  27.955  28.605  1.00  0.00     0.167 HD
ATOM     53  C   UNL A   1      46.762  31.603  29.131  1.00  0.00     0.037 A 
ATOM     54  C   UNL A   1      43.949  25.330  27.758  1.00  0.00     0.037 A 
ATOM     55  C   UNL A   1      47.665  30.644  28.548  1.00  0.00     0.049 A 
ATOM     56  C   UNL A   1      45.385  25.636  27.437  1.00  0.00     0.074 A 
ATOM     57  C   UNL A   1      49.005  30.798  28.238  1.00  0.00     0.029 A 
ATOM     58  N   UNL A   1      47.317  29.351  28.184  1.00  0.00    -0.354 N 
ATOM     59  N   UNL A   1      46.054  26.746  27.641  1.00  0.00    -0.248 NA
ATOM     60  C   UNL A   1      46.170  24.564  26.811  1.00  0.00     0.031 C 
ATOM     61  C   UNL A   1      49.458  29.609  27.654  1.00  0.00     0.029 A 
ATOM     62  C   UNL A   1      48.411  28.700  27.635  1.00  0.00     0.049 A 
ATOM     63  H   UNL A   1      46.424  28.953  28.298  1.00  0.00     0.167 HD
ATOM     64  C   UNL A   1      47.342  26.505  27.178  1.00  0.00     0.074 A 
ATOM     65  C   UNL A   1      47.362  25.137  26.697  1.00  0.00     0.031 C 
ATOM     66  C   UNL A   1      48.411  27.340  27.154  1.00  0.00     0.037 A 
BRANCH  53  67
ATOM     67  C   UNL A   1      47.263  32.991  29.419  1.00  0.00     0.058 A 
ATOM     68  C   UNL A   1      47.827  33.332  30.660  1.00  0.00     0.135 A 
ATOM     69  C   UNL A   1      47.155  34.001  28.451  1.00  0.00     0.135 A 
ATOM     70  F   UNL A   1      47.942  32.407  31.626  1.00  0.00    -0.206 F 
ATOM     71  C   UNL A   1      48.220  34.635  30.947  1.00  0.00     0.059 A 
ATOM     72  C   UNL A   1      47.565  35.307  28.708  1.00  0.00     0.059 A 
ATOM     73  F   UNL A   1      46.627  33.730  27.248  1.00  0.00    -0.206 F 
ATOM     74  C   UNL A   1      48.072  35.619  29.968  1.00  0.00     0.060 A 
BRANCH  74  75
ATOM     75  S   UNL A   1      48.537  37.319  30.366  1.00  0.00     0.124 S 
ATOM     76  O   UNL A   1      48.362  37.977  29.075  1.00  0.00    -0.237 OA
ATOM     77  O   UNL A   1      47.568  37.680  31.396  1.00  0.00    -0.237 OA
ATOM     78  O   UNL A   1      49.916  37.193  30.826  1.00  0.00    -0.744 OA
ENDBRANCH  74  75
ENDBRANCH  53  67
BRANCH  54  79
ATOM     79  C   UNL A   1      43.343  24.014  27.435  1.00  0.00     0.058 A 
ATOM     80  C   UNL A   1      42.956  23.694  26.127  1.00  0.00     0.135 A 
ATOM     81  C   UNL A   1      43.208  23.023  28.421  1.00  0.00     0.135 A 
ATOM     82  F   UNL A   1      43.057  24.611  25.154  1.00  0.00    -0.206 F 
ATOM     83  C   UNL A   1      42.467  22.432  25.802  1.00  0.00     0.059 A 
ATOM     84  C   UNL A   1      42.742  21.749  28.116  1.00  0.00     0.059 A 
ATOM     85  F   UNL A   1      43.576  23.280  29.686  1.00  0.00    -0.206 F 
ATOM     86  C   UNL A   1      42.374  21.463  26.802  1.00  0.00     0.060 A 
BRANCH  86  87
ATOM     87  S   UNL A   1      41.841  19.796  26.352  1.00  0.00     0.124 S 
ATOM     88  O   UNL A   1      40.401  19.979  26.205  1.00  0.00    -0.237 OA
ATOM     89  O   UNL A   1      42.583  19.557  25.118  1.00  0.00    -0.237 OA
ATOM     90  O   UNL A   1      42.263  18.989  27.494  1.00  0.00    -0.744 OA
ENDBRANCH  86  87
ENDBRANCH  54  79
BRANCH  66  91
ATOM     91  C   UNL A   1      49.697  26.796  26.598  1.00  0.00     0.058 A 
ATOM     92  C   UNL A   1      50.564  26.018  27.381  1.00  0.00     0.135 A 
ATOM     93  C   UNL A   1      50.040  27.013  25.254  1.00  0.00     0.135 A 
ATOM     94  F   UNL A   1      50.284  25.788  28.673  1.00  0.00    -0.206 F 
ATOM     95  C   UNL A   1      51.738  25.489  26.855  1.00  0.00     0.059 A 
ATOM     96  C   UNL A   1      51.199  26.476  24.702  1.00  0.00     0.059 A 
ATOM     97  F   UNL A   1      49.240  27.743  24.461  1.00  0.00    -0.206 F 
ATOM     98  C   UNL A   1      52.047  25.723  25.513  1.00  0.00     0.060 A 
BRANCH  98  99
ATOM     99  S   UNL A   1      53.555  25.002  24.830  1.00  0.00     0.124 S 
ATOM    100  O   UNL A   1      53.460  25.396  23.428  1.00  0.00    -0.237 OA
ATOM    101  O   UNL A   1      54.601  25.664  25.604  1.00  0.00    -0.237 OA
ATOM    102  O   UNL A   1      53.398  23.575  25.094  1.00  0.00    -0.744 OA
ENDBRANCH  98  99
ENDBRANCH  66  91
ENDBRANCH  40  41
ENDBRANCH  33  35
ENDBRANCH  32  33
ENDBRANCH  31  32
ENDBRANCH  30  31
ENDBRANCH  29  30
ENDBRANCH  27  29
ENDBRANCH   1  27
TORSDOF 23
ENDMDL
