MODEL 1
REMARK VINA RESULT:     -11.0      0.000      0.000
REMARK SMILES CC(C)(CNC(=O)[C@H]1CCC[C@H](C(=O)OCCOC(=O)c2ccc(-c3c4nc(c(-c5c(F)cc(S(=O)(=O)[O-])cc5F)c5ccc([nH]5)c(-c5c(F)cc(S(=O)(=O)[O-])cc5F)c5nc(c(-c6c(F)cc(S(=O)(=O)[O-])cc6F)c6ccc3[nH]6)C=C5)C=C4)cc2)C1)S(C)(=O)=O
REMARK SMILES IDX 16 1 15 2 13 3 14 4 12 5 8 6 9 7 87 8 10 9 11 10 6 11 5 12
REMARK SMILES IDX 7 14 4 15 2 16 1 17 3 18 88 19 89 20 90 21 91 22 17 23 18 24
REMARK SMILES IDX 19 25 20 26 21 27 22 28 86 29 23 30 85 31 24 32 25 33 26 34
REMARK SMILES IDX 79 35 27 36 84 37 78 38 80 39 28 40 83 41 77 42 76 43 29 45
REMARK SMILES IDX 63 46 42 47 62 48 43 49 46 50 61 51 81 52 44 53 45 54 60 56
REMARK SMILES IDX 82 57 47 58 30 59 31 60 40 61 32 62 33 63 39 64 41 65 34 66
REMARK SMILES IDX 35 67 36 68 37 69 38 70 64 71 65 72 74 73 66 74 67 75 73 76
REMARK SMILES IDX 75 77 68 78 69 79 70 80 71 81 72 82 48 83 49 84 58 85 50 86
REMARK SMILES IDX 51 87 57 88 59 89 52 90 53 91 54 92 55 93 56 94
REMARK H PARENT 5 13 80 44 46 55
REMARK Flexibility Score: inf
ROOT
ATOM      1  C   UNL A   1      32.275  29.892  26.806  1.00  0.00     0.274 C 
ENDROOT
BRANCH   1   2
ATOM      2  O   UNL A   1      31.589  28.892  26.019  1.00  0.00    -0.462 OA
BRANCH   2   3
ATOM      3  C   UNL A   1      31.523  27.640  26.538  1.00  0.00     0.309 C 
ATOM      4  O   UNL A   1      31.429  27.379  27.733  1.00  0.00    -0.252 OA
BRANCH   3   5
ATOM      5  C   UNL A   1      31.547  26.550  25.475  1.00  0.00     0.100 C 
ATOM      6  C   UNL A   1      31.688  26.085  22.966  1.00  0.00     0.079 C 
ATOM      7  C   UNL A   1      30.844  24.811  23.215  1.00  0.00     0.013 C 
ATOM      8  C   UNL A   1      31.410  27.125  24.059  1.00  0.00     0.028 C 
ATOM      9  C   UNL A   1      30.908  24.285  24.648  1.00  0.00     0.002 C 
ATOM     10  C   UNL A   1      30.603  25.369  25.680  1.00  0.00     0.015 C 
BRANCH   6  11
ATOM     11  C   UNL A   1      33.104  25.694  22.478  1.00  0.00     0.223 C 
ATOM     12  N   UNL A   1      34.085  25.075  23.176  1.00  0.00    -0.354 N 
ATOM     13  H   UNL A   1      34.864  24.830  22.626  1.00  0.00     0.163 HD
ATOM     14  O   UNL A   1      33.417  25.962  21.307  1.00  0.00    -0.275 OA
BRANCH  12  15
ATOM     15  C   UNL A   1      34.221  24.701  24.560  1.00  0.00     0.138 C 
BRANCH  15  16
ATOM     16  C   UNL A   1      34.754  23.294  24.892  1.00  0.00     0.084 C 
ATOM     17  C   UNL A   1      34.646  22.942  26.382  1.00  0.00     0.030 C 
ATOM     18  C   UNL A   1      33.817  22.331  24.106  1.00  0.00     0.030 C 
BRANCH  16  19
ATOM     19  S   UNL A   1      36.520  23.042  24.385  1.00  0.00     0.154 S 
ATOM     20  C   UNL A   1      36.972  21.353  24.683  1.00  0.00     0.158 C 
ATOM     21  O   UNL A   1      36.603  23.191  22.945  1.00  0.00    -0.229 OA
ATOM     22  O   UNL A   1      37.380  23.856  25.224  1.00  0.00    -0.229 OA
ENDBRANCH  16  19
ENDBRANCH  15  16
ENDBRANCH  12  15
ENDBRANCH   6  11
ENDBRANCH   3   5
ENDBRANCH   2   3
ENDBRANCH   1   2
BRANCH   1  23
ATOM     23  C   UNL A   1      33.778  29.862  26.502  1.00  0.00     0.275 C 
BRANCH  23  24
ATOM     24  O   UNL A   1      34.488  29.415  27.669  1.00  0.00    -0.458 OA
BRANCH  24  25
ATOM     25  C   UNL A   1      35.117  30.378  28.400  1.00  0.00     0.338 C 
ATOM     26  O   UNL A   1      34.591  31.370  28.872  1.00  0.00    -0.246 OA
BRANCH  25  27
ATOM     27  C   UNL A   1      36.569  30.049  28.520  1.00  0.00     0.060 A 
ATOM     28  C   UNL A   1      37.400  30.210  27.422  1.00  0.00     0.016 A 
ATOM     29  C   UNL A   1      37.125  29.540  29.701  1.00  0.00     0.016 A 
ATOM     30  C   UNL A   1      38.746  29.855  27.497  1.00  0.00     0.010 A 
ATOM     31  C   UNL A   1      38.504  29.212  29.770  1.00  0.00     0.010 A 
ATOM     32  C   UNL A   1      39.338  29.359  28.653  1.00  0.00    -0.014 A 
BRANCH  32  33
ATOM     33  C   UNL A   1      40.763  28.897  28.570  1.00  0.00     0.031 A 
ATOM     34  C   UNL A   1      41.868  29.824  29.004  1.00  0.00     0.074 A 
ATOM     35  C   UNL A   1      41.105  27.612  28.308  1.00  0.00     0.049 A 
ATOM     36  N   UNL A   1      43.157  29.731  28.801  1.00  0.00    -0.248 NA
ATOM     37  C   UNL A   1      41.466  31.000  29.789  1.00  0.00     0.031 C 
ATOM     38  C   UNL A   1      40.174  26.503  28.086  1.00  0.00     0.029 A 
ATOM     39  N   UNL A   1      42.344  27.010  28.221  1.00  0.00    -0.354 N 
ATOM     40  C   UNL A   1      43.713  30.871  29.368  1.00  0.00     0.074 A 
ATOM     41  C   UNL A   1      42.625  31.624  29.955  1.00  0.00     0.031 C 
ATOM     42  C   UNL A   1      40.867  25.361  27.939  1.00  0.00     0.029 A 
ATOM     43  C   UNL A   1      42.296  25.666  27.920  1.00  0.00     0.049 A 
ATOM     44  H   UNL A   1      43.188  27.497  28.363  1.00  0.00     0.167 HD
ATOM     45  C   UNL A   1      45.010  31.261  29.378  1.00  0.00     0.037 A 
ATOM     46  C   UNL A   1      43.271  24.792  27.592  1.00  0.00     0.037 A 
ATOM     47  C   UNL A   1      46.099  30.480  28.853  1.00  0.00     0.049 A 
ATOM     48  C   UNL A   1      44.695  25.280  27.476  1.00  0.00     0.074 A 
ATOM     49  C   UNL A   1      47.427  30.842  28.698  1.00  0.00     0.029 A 
ATOM     50  N   UNL A   1      45.994  29.163  28.435  1.00  0.00    -0.354 N 
ATOM     51  N   UNL A   1      45.194  26.451  27.789  1.00  0.00    -0.248 NA
ATOM     52  C   UNL A   1      45.680  24.343  26.915  1.00  0.00     0.031 C 
ATOM     53  C   UNL A   1      48.120  29.750  28.162  1.00  0.00     0.029 A 
ATOM     54  C   UNL A   1      47.232  28.698  28.020  1.00  0.00     0.049 A 
ATOM     55  H   UNL A   1      45.163  28.635  28.435  1.00  0.00     0.167 HD
ATOM     56  C   UNL A   1      46.544  26.391  27.456  1.00  0.00     0.074 A 
ATOM     57  C   UNL A   1      46.795  25.059  26.955  1.00  0.00     0.031 C 
ATOM     58  C   UNL A   1      47.484  27.365  27.536  1.00  0.00     0.037 A 
BRANCH  45  59
ATOM     59  C   UNL A   1      45.314  32.638  29.890  1.00  0.00     0.058 A 
ATOM     60  C   UNL A   1      45.249  33.777  29.077  1.00  0.00     0.135 A 
ATOM     61  C   UNL A   1      45.639  32.813  31.246  1.00  0.00     0.135 A 
ATOM     62  F   UNL A   1      44.965  33.660  27.770  1.00  0.00    -0.206 F 
ATOM     63  C   UNL A   1      45.509  35.045  29.588  1.00  0.00     0.059 A 
ATOM     64  C   UNL A   1      45.882  34.072  31.783  1.00  0.00     0.059 A 
ATOM     65  F   UNL A   1      45.717  31.752  32.065  1.00  0.00    -0.206 F 
ATOM     66  C   UNL A   1      45.825  35.182  30.943  1.00  0.00     0.060 A 
BRANCH  66  67
ATOM     67  S   UNL A   1      46.146  36.833  31.598  1.00  0.00     0.124 S 
ATOM     68  O   UNL A   1      47.565  36.745  31.928  1.00  0.00    -0.237 OA
ATOM     69  O   UNL A   1      45.811  37.690  30.466  1.00  0.00    -0.237 OA
ATOM     70  O   UNL A   1      45.242  36.927  32.740  1.00  0.00    -0.744 OA
ENDBRANCH  66  67
ENDBRANCH  45  59
BRANCH  46  71
ATOM     71  C   UNL A   1      42.939  23.388  27.201  1.00  0.00     0.058 A 
ATOM     72  C   UNL A   1      42.719  22.390  28.163  1.00  0.00     0.135 A 
ATOM     73  C   UNL A   1      42.909  23.003  25.850  1.00  0.00     0.135 A 
ATOM     74  F   UNL A   1      42.761  22.694  29.469  1.00  0.00    -0.206 F 
ATOM     75  C   UNL A   1      42.503  21.061  27.801  1.00  0.00     0.059 A 
ATOM     76  C   UNL A   1      42.658  21.691  25.463  1.00  0.00     0.059 A 
ATOM     77  F   UNL A   1      43.120  23.911  24.885  1.00  0.00    -0.206 F 
ATOM     78  C   UNL A   1      42.477  20.723  26.447  1.00  0.00     0.060 A 
BRANCH  78  79
ATOM     79  S   UNL A   1      42.177  19.006  25.972  1.00  0.00     0.124 S 
ATOM     80  O   UNL A   1      42.678  18.289  27.139  1.00  0.00    -0.237 OA
ATOM     81  O   UNL A   1      40.730  18.984  25.781  1.00  0.00    -0.237 OA
ATOM     82  O   UNL A   1      42.964  18.859  24.751  1.00  0.00    -0.744 OA
ENDBRANCH  78  79
ENDBRANCH  46  71
BRANCH  58  83
ATOM     83  C   UNL A   1      48.881  27.031  27.091  1.00  0.00     0.058 A 
ATOM     84  C   UNL A   1      49.802  26.429  27.963  1.00  0.00     0.135 A 
ATOM     85  C   UNL A   1      49.284  27.254  25.765  1.00  0.00     0.135 A 
ATOM     86  F   UNL A   1      49.471  26.201  29.243  1.00  0.00    -0.206 F 
ATOM     87  C   UNL A   1      51.079  26.073  27.538  1.00  0.00     0.059 A 
ATOM     88  C   UNL A   1      50.547  26.885  25.313  1.00  0.00     0.059 A 
ATOM     89  F   UNL A   1      48.438  27.821  24.889  1.00  0.00    -0.206 F 
ATOM     90  C   UNL A   1      51.441  26.301  26.209  1.00  0.00     0.060 A 
BRANCH  90  91
ATOM     91  S   UNL A   1      53.084  25.790  25.659  1.00  0.00     0.124 S 
ATOM     92  O   UNL A   1      53.097  24.381  26.038  1.00  0.00    -0.237 OA
ATOM     93  O   UNL A   1      53.033  26.060  24.225  1.00  0.00    -0.237 OA
ATOM     94  O   UNL A   1      53.982  26.654  26.420  1.00  0.00    -0.744 OA
ENDBRANCH  90  91
ENDBRANCH  58  83
ENDBRANCH  32  33
ENDBRANCH  25  27
ENDBRANCH  24  25
ENDBRANCH  23  24
ENDBRANCH   1  23
TORSDOF 18
ENDMDL
MODEL 2
REMARK VINA RESULT:     -10.8      4.700     10.507
REMARK SMILES CC(C)(CNC(=O)[C@H]1CCC[C@H](C(=O)OCCOC(=O)c2ccc(-c3c4nc(c(-c5c(F)cc(S(=O)(=O)[O-])cc5F)c5ccc([nH]5)c(-c5c(F)cc(S(=O)(=O)[O-])cc5F)c5nc(c(-c6c(F)cc(S(=O)(=O)[O-])cc6F)c6ccc3[nH]6)C=C5)C=C4)cc2)C1)S(C)(=O)=O
REMARK SMILES IDX 16 1 15 2 13 3 14 4 12 5 8 6 9 7 87 8 10 9 11 10 6 11 5 12
REMARK SMILES IDX 7 14 4 15 2 16 1 17 3 18 88 19 89 20 90 21 91 22 17 23 18 24
REMARK SMILES IDX 19 25 20 26 21 27 22 28 86 29 23 30 85 31 24 32 25 33 26 34
REMARK SMILES IDX 79 35 27 36 84 37 78 38 80 39 28 40 83 41 77 42 76 43 29 45
REMARK SMILES IDX 63 46 42 47 62 48 43 49 46 50 61 51 81 52 44 53 45 54 60 56
REMARK SMILES IDX 82 57 47 58 30 59 31 60 40 61 32 62 33 63 39 64 41 65 34 66
REMARK SMILES IDX 35 67 36 68 37 69 38 70 64 71 65 72 74 73 66 74 67 75 73 76
REMARK SMILES IDX 75 77 68 78 69 79 70 80 71 81 72 82 48 83 49 84 58 85 50 86
REMARK SMILES IDX 51 87 57 88 59 89 52 90 53 91 54 92 55 93 56 94
REMARK H PARENT 5 13 80 44 46 55
REMARK Flexibility Score: inf
ROOT
ATOM      1  C   UNL A   1      36.310  21.572  24.796  1.00  0.00     0.274 C 
ENDROOT
BRANCH   1   2
ATOM      2  O   UNL A   1      34.968  21.913  24.380  1.00  0.00    -0.462 OA
BRANCH   2   3
ATOM      3  C   UNL A   1      34.838  22.955  23.520  1.00  0.00     0.309 C 
ATOM      4  O   UNL A   1      35.698  23.323  22.727  1.00  0.00    -0.252 OA
BRANCH   3   5
ATOM      5  C   UNL A   1      33.476  23.633  23.603  1.00  0.00     0.100 C 
ATOM      6  C   UNL A   1      31.150  23.519  24.653  1.00  0.00     0.079 C 
ATOM      7  C   UNL A   1      30.606  24.214  23.381  1.00  0.00     0.013 C 
ATOM      8  C   UNL A   1      32.444  22.762  24.331  1.00  0.00     0.028 C 
ATOM      9  C   UNL A   1      31.653  25.012  22.605  1.00  0.00     0.002 C 
ATOM     10  C   UNL A   1      32.905  24.190  22.303  1.00  0.00     0.015 C 
BRANCH   6  11
ATOM     11  C   UNL A   1      30.967  24.446  25.880  1.00  0.00     0.223 C 
ATOM     12  N   UNL A   1      31.643  25.582  26.174  1.00  0.00    -0.354 N 
ATOM     13  H   UNL A   1      31.281  26.063  26.952  1.00  0.00     0.163 HD
ATOM     14  O   UNL A   1      30.104  24.146  26.719  1.00  0.00    -0.275 OA
BRANCH  12  15
ATOM     15  C   UNL A   1      32.783  26.230  25.579  1.00  0.00     0.138 C 
BRANCH  15  16
ATOM     16  C   UNL A   1      32.698  27.739  25.280  1.00  0.00     0.084 C 
ATOM     17  C   UNL A   1      33.804  28.232  24.337  1.00  0.00     0.030 C 
ATOM     18  C   UNL A   1      31.334  27.910  24.548  1.00  0.00     0.030 C 
BRANCH  16  19
ATOM     19  S   UNL A   1      32.755  28.792  26.806  1.00  0.00     0.154 S 
ATOM     20  C   UNL A   1      34.450  29.090  27.239  1.00  0.00     0.158 C 
ATOM     21  O   UNL A   1      32.231  30.102  26.471  1.00  0.00    -0.229 OA
ATOM     22  O   UNL A   1      32.165  28.063  27.913  1.00  0.00    -0.229 OA
ENDBRANCH  16  19
ENDBRANCH  15  16
ENDBRANCH  12  15
ENDBRANCH   6  11
ENDBRANCH   3   5
ENDBRANCH   2   3
ENDBRANCH   1   2
BRANCH   1  23
ATOM     23  C   UNL A   1      36.711  22.407  26.017  1.00  0.00     0.275 C 
BRANCH  23  24
ATOM     24  O   UNL A   1      37.694  23.379  25.624  1.00  0.00    -0.458 OA
BRANCH  24  25
ATOM     25  C   UNL A   1      38.967  23.162  26.061  1.00  0.00     0.338 C 
ATOM     26  O   UNL A   1      39.638  22.171  25.832  1.00  0.00    -0.246 OA
BRANCH  25  27
ATOM     27  C   UNL A   1      39.418  24.319  26.889  1.00  0.00     0.060 A 
ATOM     28  C   UNL A   1      39.021  24.408  28.214  1.00  0.00     0.016 A 
ATOM     29  C   UNL A   1      40.205  25.354  26.364  1.00  0.00     0.016 A 
ATOM     30  C   UNL A   1      39.384  25.510  28.988  1.00  0.00     0.010 A 
ATOM     31  C   UNL A   1      40.591  26.453  27.173  1.00  0.00     0.010 A 
ATOM     32  C   UNL A   1      40.173  26.548  28.509  1.00  0.00    -0.014 A 
BRANCH  32  33
ATOM     33  C   UNL A   1      40.390  27.736  29.400  1.00  0.00     0.031 A 
ATOM     34  C   UNL A   1      41.684  27.863  30.161  1.00  0.00     0.074 A 
ATOM     35  C   UNL A   1      39.562  28.809  29.410  1.00  0.00     0.049 A 
ATOM     36  N   UNL A   1      41.988  28.661  31.153  1.00  0.00    -0.248 NA
ATOM     37  C   UNL A   1      42.785  26.988  29.732  1.00  0.00     0.031 C 
ATOM     38  C   UNL A   1      38.372  28.984  28.574  1.00  0.00     0.029 A 
ATOM     39  N   UNL A   1      39.618  29.983  30.134  1.00  0.00    -0.354 N 
ATOM     40  C   UNL A   1      43.289  28.335  31.515  1.00  0.00     0.074 A 
ATOM     41  C   UNL A   1      43.730  27.291  30.613  1.00  0.00     0.031 C 
ATOM     42  C   UNL A   1      37.848  30.201  28.794  1.00  0.00     0.029 A 
ATOM     43  C   UNL A   1      38.575  30.848  29.883  1.00  0.00     0.049 A 
ATOM     44  H   UNL A   1      40.341  30.185  30.772  1.00  0.00     0.167 HD
ATOM     45  C   UNL A   1      44.038  28.847  32.520  1.00  0.00     0.037 A 
ATOM     46  C   UNL A   1      38.197  31.988  30.500  1.00  0.00     0.037 A 
ATOM     47  C   UNL A   1      43.624  29.930  33.373  1.00  0.00     0.049 A 
ATOM     48  C   UNL A   1      38.968  32.469  31.705  1.00  0.00     0.074 A 
ATOM     49  C   UNL A   1      44.253  30.433  34.500  1.00  0.00     0.029 A 
ATOM     50  N   UNL A   1      42.495  30.707  33.168  1.00  0.00    -0.354 N 
ATOM     51  N   UNL A   1      40.089  32.010  32.205  1.00  0.00    -0.248 NA
ATOM     52  C   UNL A   1      38.394  33.593  32.462  1.00  0.00     0.031 C 
ATOM     53  C   UNL A   1      43.490  31.498  34.991  1.00  0.00     0.029 A 
ATOM     54  C   UNL A   1      42.407  31.683  34.148  1.00  0.00     0.049 A 
ATOM     55  H   UNL A   1      41.850  30.584  32.434  1.00  0.00     0.167 HD
ATOM     56  C   UNL A   1      40.348  32.782  33.334  1.00  0.00     0.074 A 
ATOM     57  C   UNL A   1      39.290  33.763  33.424  1.00  0.00     0.031 C 
ATOM     58  C   UNL A   1      41.361  32.669  34.228  1.00  0.00     0.037 A 
BRANCH  45  59
ATOM     59  C   UNL A   1      45.346  28.177  32.818  1.00  0.00     0.058 A 
ATOM     60  C   UNL A   1      45.439  27.010  33.589  1.00  0.00     0.135 A 
ATOM     61  C   UNL A   1      46.531  28.706  32.278  1.00  0.00     0.135 A 
ATOM     62  F   UNL A   1      44.340  26.479  34.146  1.00  0.00    -0.206 F 
ATOM     63  C   UNL A   1      46.665  26.395  33.824  1.00  0.00     0.059 A 
ATOM     64  C   UNL A   1      47.763  28.098  32.482  1.00  0.00     0.059 A 
ATOM     65  F   UNL A   1      46.495  29.824  31.536  1.00  0.00    -0.206 F 
ATOM     66  C   UNL A   1      47.822  26.947  33.266  1.00  0.00     0.060 A 
BRANCH  66  67
ATOM     67  S   UNL A   1      49.405  26.133  33.566  1.00  0.00     0.124 S 
ATOM     68  O   UNL A   1      49.377  25.066  32.571  1.00  0.00    -0.237 OA
ATOM     69  O   UNL A   1      50.362  27.206  33.318  1.00  0.00    -0.237 OA
ATOM     70  O   UNL A   1      49.305  25.697  34.955  1.00  0.00    -0.744 OA
ENDBRANCH  66  67
ENDBRANCH  45  59
BRANCH  46  71
ATOM     71  C   UNL A   1      36.945  32.697  30.094  1.00  0.00     0.058 A 
ATOM     72  C   UNL A   1      36.966  33.758  29.176  1.00  0.00     0.135 A 
ATOM     73  C   UNL A   1      35.710  32.371  30.679  1.00  0.00     0.135 A 
ATOM     74  F   UNL A   1      38.121  34.130  28.605  1.00  0.00    -0.206 F 
ATOM     75  C   UNL A   1      35.814  34.481  28.868  1.00  0.00     0.059 A 
ATOM     76  C   UNL A   1      34.541  33.053  30.360  1.00  0.00     0.059 A 
ATOM     77  F   UNL A   1      35.629  31.371  31.571  1.00  0.00    -0.206 F 
ATOM     78  C   UNL A   1      34.607  34.120  29.469  1.00  0.00     0.060 A 
BRANCH  78  79
ATOM     79  S   UNL A   1      33.108  35.041  29.059  1.00  0.00     0.124 S 
ATOM     80  O   UNL A   1      32.489  34.167  28.071  1.00  0.00    -0.237 OA
ATOM     81  O   UNL A   1      32.431  35.127  30.350  1.00  0.00    -0.237 OA
ATOM     82  O   UNL A   1      33.627  36.307  28.550  1.00  0.00    -0.744 OA
ENDBRANCH  78  79
ENDBRANCH  46  71
BRANCH  58  83
ATOM     83  C   UNL A   1      41.394  33.637  35.378  1.00  0.00     0.058 A 
ATOM     84  C   UNL A   1      42.022  34.887  35.264  1.00  0.00     0.135 A 
ATOM     85  C   UNL A   1      40.737  33.342  36.583  1.00  0.00     0.135 A 
ATOM     86  F   UNL A   1      42.672  35.216  34.137  1.00  0.00    -0.206 F 
ATOM     87  C   UNL A   1      42.010  35.805  36.310  1.00  0.00     0.059 A 
ATOM     88  C   UNL A   1      40.692  34.254  37.633  1.00  0.00     0.059 A 
ATOM     89  F   UNL A   1      40.113  32.163  36.741  1.00  0.00    -0.206 F 
ATOM     90  C   UNL A   1      41.338  35.481  37.490  1.00  0.00     0.060 A 
BRANCH  90  91
ATOM     91  S   UNL A   1      41.288  36.701  38.821  1.00  0.00     0.124 S 
ATOM     92  O   UNL A   1      42.468  37.507  38.528  1.00  0.00    -0.237 OA
ATOM     93  O   UNL A   1      40.002  37.356  38.600  1.00  0.00    -0.237 OA
ATOM     94  O   UNL A   1      41.368  35.887  40.031  1.00  0.00    -0.744 OA
ENDBRANCH  90  91
ENDBRANCH  58  83
ENDBRANCH  32  33
ENDBRANCH  25  27
ENDBRANCH  24  25
ENDBRANCH  23  24
ENDBRANCH   1  23
TORSDOF 18
ENDMDL
MODEL 3
REMARK VINA RESULT:     -10.7      2.110      2.805
REMARK SMILES CC(C)(CNC(=O)[C@H]1CCC[C@H](C(=O)OCCOC(=O)c2ccc(-c3c4nc(c(-c5c(F)cc(S(=O)(=O)[O-])cc5F)c5ccc([nH]5)c(-c5c(F)cc(S(=O)(=O)[O-])cc5F)c5nc(c(-c6c(F)cc(S(=O)(=O)[O-])cc6F)c6ccc3[nH]6)C=C5)C=C4)cc2)C1)S(C)(=O)=O
REMARK SMILES IDX 16 1 15 2 13 3 14 4 12 5 8 6 9 7 87 8 10 9 11 10 6 11 5 12
REMARK SMILES IDX 7 14 4 15 2 16 1 17 3 18 88 19 89 20 90 21 91 22 17 23 18 24
REMARK SMILES IDX 19 25 20 26 21 27 22 28 86 29 23 30 85 31 24 32 25 33 26 34
REMARK SMILES IDX 79 35 27 36 84 37 78 38 80 39 28 40 83 41 77 42 76 43 29 45
REMARK SMILES IDX 63 46 42 47 62 48 43 49 46 50 61 51 81 52 44 53 45 54 60 56
REMARK SMILES IDX 82 57 47 58 30 59 31 60 40 61 32 62 33 63 39 64 41 65 34 66
REMARK SMILES IDX 35 67 36 68 37 69 38 70 64 71 65 72 74 73 66 74 67 75 73 76
REMARK SMILES IDX 75 77 68 78 69 79 70 80 71 81 72 82 48 83 49 84 58 85 50 86
REMARK SMILES IDX 51 87 57 88 59 89 52 90 53 91 54 92 55 93 56 94
REMARK H PARENT 5 13 80 44 46 55
REMARK Flexibility Score: inf
ROOT
ATOM      1  C   UNL A   1      32.275  27.555  26.552  1.00  0.00     0.274 C 
ENDROOT
BRANCH   1   2
ATOM      2  O   UNL A   1      32.163  26.953  25.243  1.00  0.00    -0.462 OA
BRANCH   2   3
ATOM      3  C   UNL A   1      32.924  25.855  25.004  1.00  0.00     0.309 C 
ATOM      4  O   UNL A   1      34.015  25.865  24.444  1.00  0.00    -0.252 OA
BRANCH   3   5
ATOM      5  C   UNL A   1      32.303  24.570  25.536  1.00  0.00     0.100 C 
ATOM      6  C   UNL A   1      32.322  22.020  25.371  1.00  0.00     0.079 C 
ATOM      7  C   UNL A   1      30.823  22.043  25.756  1.00  0.00     0.013 C 
ATOM      8  C   UNL A   1      32.719  23.345  24.710  1.00  0.00     0.028 C 
ATOM      9  C   UNL A   1      30.385  23.302  26.504  1.00  0.00     0.002 C 
ATOM     10  C   UNL A   1      30.798  24.582  25.778  1.00  0.00     0.015 C 
BRANCH   6  11
ATOM     11  C   UNL A   1      33.143  21.323  26.484  1.00  0.00     0.223 C 
ATOM     12  N   UNL A   1      33.387  20.000  26.635  1.00  0.00    -0.354 N 
ATOM     13  H   UNL A   1      34.025  19.798  27.356  1.00  0.00     0.163 HD
ATOM     14  O   UNL A   1      33.658  22.030  27.364  1.00  0.00    -0.275 OA
BRANCH  12  15
ATOM     15  C   UNL A   1      32.904  18.827  25.954  1.00  0.00     0.138 C 
BRANCH  15  16
ATOM     16  C   UNL A   1      33.590  18.404  24.641  1.00  0.00     0.084 C 
ATOM     17  C   UNL A   1      32.788  18.789  23.389  1.00  0.00     0.030 C 
ATOM     18  C   UNL A   1      34.920  19.212  24.623  1.00  0.00     0.030 C 
BRANCH  16  19
ATOM     19  S   UNL A   1      33.932  16.584  24.547  1.00  0.00     0.154 S 
ATOM     20  C   UNL A   1      32.577  15.702  25.279  1.00  0.00     0.158 C 
ATOM     21  O   UNL A   1      33.908  16.191  23.151  1.00  0.00    -0.229 OA
ATOM     22  O   UNL A   1      35.105  16.275  25.342  1.00  0.00    -0.229 OA
ENDBRANCH  16  19
ENDBRANCH  15  16
ENDBRANCH  12  15
ENDBRANCH   6  11
ENDBRANCH   3   5
ENDBRANCH   2   3
ENDBRANCH   1   2
BRANCH   1  23
ATOM     23  C   UNL A   1      33.286  28.707  26.517  1.00  0.00     0.275 C 
BRANCH  23  24
ATOM     24  O   UNL A   1      33.729  28.988  27.854  1.00  0.00    -0.458 OA
BRANCH  24  25
ATOM     25  C   UNL A   1      34.373  30.176  28.041  1.00  0.00     0.338 C 
ATOM     26  O   UNL A   1      33.854  31.278  28.016  1.00  0.00    -0.246 OA
BRANCH  25  27
ATOM     27  C   UNL A   1      35.829  29.928  28.260  1.00  0.00     0.060 A 
ATOM     28  C   UNL A   1      36.718  30.103  27.211  1.00  0.00     0.016 A 
ATOM     29  C   UNL A   1      36.336  29.483  29.489  1.00  0.00     0.016 A 
ATOM     30  C   UNL A   1      38.074  29.823  27.379  1.00  0.00     0.010 A 
ATOM     31  C   UNL A   1      37.723  29.231  29.652  1.00  0.00     0.010 A 
ATOM     32  C   UNL A   1      38.617  29.392  28.584  1.00  0.00    -0.014 A 
BRANCH  32  33
ATOM     33  C   UNL A   1      40.067  29.005  28.603  1.00  0.00     0.031 A 
ATOM     34  C   UNL A   1      41.087  29.982  29.125  1.00  0.00     0.074 A 
ATOM     35  C   UNL A   1      40.493  27.742  28.357  1.00  0.00     0.049 A 
ATOM     36  N   UNL A   1      42.390  29.958  29.017  1.00  0.00    -0.248 NA
ATOM     37  C   UNL A   1      40.567  31.127  29.888  1.00  0.00     0.031 C 
ATOM     38  C   UNL A   1      39.641  26.590  28.057  1.00  0.00     0.029 A 
ATOM     39  N   UNL A   1      41.765  27.206  28.357  1.00  0.00    -0.354 N 
ATOM     40  C   UNL A   1      42.843  31.118  29.632  1.00  0.00     0.074 A 
ATOM     41  C   UNL A   1      41.677  31.808  30.144  1.00  0.00     0.031 C 
ATOM     42  C   UNL A   1      40.401  25.487  27.953  1.00  0.00     0.029 A 
ATOM     43  C   UNL A   1      41.809  25.865  28.042  1.00  0.00     0.049 A 
ATOM     44  H   UNL A   1      42.570  27.734  28.564  1.00  0.00     0.167 HD
ATOM     45  C   UNL A   1      44.113  31.574  29.742  1.00  0.00     0.037 A 
ATOM     46  C   UNL A   1      42.850  25.046  27.780  1.00  0.00     0.037 A 
ATOM     47  C   UNL A   1      45.277  30.857  29.292  1.00  0.00     0.049 A 
ATOM     48  C   UNL A   1      44.252  25.608  27.774  1.00  0.00     0.074 A 
ATOM     49  C   UNL A   1      46.592  31.288  29.239  1.00  0.00     0.029 A 
ATOM     50  N   UNL A   1      45.272  29.541  28.858  1.00  0.00    -0.354 N 
ATOM     51  N   UNL A   1      44.664  26.800  28.132  1.00  0.00    -0.248 NA
ATOM     52  C   UNL A   1      45.323  24.729  27.280  1.00  0.00     0.031 C 
ATOM     53  C   UNL A   1      47.379  30.241  28.747  1.00  0.00     0.029 A 
ATOM     54  C   UNL A   1      46.560  29.145  28.532  1.00  0.00     0.049 A 
ATOM     55  H   UNL A   1      44.472  28.971  28.791  1.00  0.00     0.167 HD
ATOM     56  C   UNL A   1      46.036  26.813  27.899  1.00  0.00     0.074 A 
ATOM     57  C   UNL A   1      46.393  25.501  27.407  1.00  0.00     0.031 C 
ATOM     58  C   UNL A   1      46.916  27.833  28.057  1.00  0.00     0.037 A 
BRANCH  45  59
ATOM     59  C   UNL A   1      44.306  32.959  30.286  1.00  0.00     0.058 A 
ATOM     60  C   UNL A   1      44.622  33.206  31.628  1.00  0.00     0.135 A 
ATOM     61  C   UNL A   1      44.207  34.060  29.418  1.00  0.00     0.135 A 
ATOM     62  F   UNL A   1      44.705  32.190  32.501  1.00  0.00    -0.206 F 
ATOM     63  C   UNL A   1      44.823  34.501  32.097  1.00  0.00     0.059 A 
ATOM     64  C   UNL A   1      44.425  35.360  29.859  1.00  0.00     0.059 A 
ATOM     65  F   UNL A   1      43.903  33.876  28.124  1.00  0.00    -0.206 F 
ATOM     66  C   UNL A   1      44.722  35.572  31.203  1.00  0.00     0.060 A 
BRANCH  66  67
ATOM     67  S   UNL A   1      44.999  37.246  31.819  1.00  0.00     0.124 S 
ATOM     68  O   UNL A   1      45.180  37.987  30.575  1.00  0.00    -0.237 OA
ATOM     69  O   UNL A   1      43.766  37.521  32.547  1.00  0.00    -0.237 OA
ATOM     70  O   UNL A   1      46.194  37.111  32.646  1.00  0.00    -0.744 OA
ENDBRANCH  66  67
ENDBRANCH  45  59
BRANCH  46  71
ATOM     71  C   UNL A   1      42.621  23.632  27.354  1.00  0.00     0.058 A 
ATOM     72  C   UNL A   1      42.440  22.602  28.291  1.00  0.00     0.135 A 
ATOM     73  C   UNL A   1      42.655  23.272  25.997  1.00  0.00     0.135 A 
ATOM     74  F   UNL A   1      42.425  22.883  29.603  1.00  0.00    -0.206 F 
ATOM     75  C   UNL A   1      42.321  21.269  27.900  1.00  0.00     0.059 A 
ATOM     76  C   UNL A   1      42.502  21.955  25.579  1.00  0.00     0.059 A 
ATOM     77  F   UNL A   1      42.834  24.212  25.054  1.00  0.00    -0.206 F 
ATOM     78  C   UNL A   1      42.356  20.958  26.539  1.00  0.00     0.060 A 
BRANCH  78  79
ATOM     79  S   UNL A   1      42.182  19.234  26.025  1.00  0.00     0.124 S 
ATOM     80  O   UNL A   1      40.752  19.154  25.753  1.00  0.00    -0.237 OA
ATOM     81  O   UNL A   1      43.059  19.167  24.860  1.00  0.00    -0.237 OA
ATOM     82  O   UNL A   1      42.649  18.493  27.193  1.00  0.00    -0.744 OA
ENDBRANCH  78  79
ENDBRANCH  46  71
BRANCH  58  83
ATOM     83  C   UNL A   1      48.357  27.577  27.714  1.00  0.00     0.058 A 
ATOM     84  C   UNL A   1      49.267  27.113  28.677  1.00  0.00     0.135 A 
ATOM     85  C   UNL A   1      48.820  27.734  26.398  1.00  0.00     0.135 A 
ATOM     86  F   UNL A   1      48.879  26.953  29.951  1.00  0.00    -0.206 F 
ATOM     87  C   UNL A   1      50.590  26.827  28.349  1.00  0.00     0.059 A 
ATOM     88  C   UNL A   1      50.131  27.431  26.043  1.00  0.00     0.059 A 
ATOM     89  F   UNL A   1      47.988  28.168  25.437  1.00  0.00    -0.206 F 
ATOM     90  C   UNL A   1      51.011  26.985  27.028  1.00  0.00     0.060 A 
BRANCH  90  91
ATOM     91  S   UNL A   1      52.717  26.563  26.607  1.00  0.00     0.124 S 
ATOM     92  O   UNL A   1      52.526  25.644  25.491  1.00  0.00    -0.237 OA
ATOM     93  O   UNL A   1      53.287  27.864  26.267  1.00  0.00    -0.237 OA
ATOM     94  O   UNL A   1      53.232  25.964  27.834  1.00  0.00    -0.744 OA
ENDBRANCH  90  91
ENDBRANCH  58  83
ENDBRANCH  32  33
ENDBRANCH  25  27
ENDBRANCH  24  25
ENDBRANCH  23  24
ENDBRANCH   1  23
TORSDOF 18
ENDMDL
