MODEL 1
REMARK VINA RESULT:     -11.2      0.000      0.000
REMARK SMILES C[C@H](CC(=O)N1CCC2(CC1)CN(CCCC(=O)OCCOC(=O)c1ccc(-c3c4nc(c(-c5c(F)cc(S(=O)(=O)[O-])cc5F)c5ccc([nH]5)c(-c5c(F)cc(S(=O)(=O)[O-])cc5F)c5nc(c(-c6c(F)cc(S(=O)(=O)[O-])cc6F)c6ccc3[nH]6)C=C5)C=C4)cc1)C(=O)O2)n1ccnc1
REMARK SMILES IDX 19 1 17 2 18 3 16 4 15 5 14 6 13 7 4 8 5 9 6 10 7 11 11 12
REMARK SMILES IDX 8 13 10 14 9 15 12 16 93 17 91 18 92 19 3 20 2 21 1 22 94 23
REMARK SMILES IDX 95 24 98 25 96 26 97 27 20 28 21 29 22 30 23 31 24 32 25 33
REMARK SMILES IDX 26 34 90 35 27 36 89 37 28 38 29 39 30 40 83 41 31 42 88 43
REMARK SMILES IDX 82 44 84 45 32 46 87 47 81 48 80 49 33 51 67 52 46 53 66 54
REMARK SMILES IDX 47 55 50 56 65 57 85 58 48 59 49 60 64 62 86 63 51 64 34 65
REMARK SMILES IDX 35 66 44 67 36 68 37 69 43 70 45 71 38 72 39 73 40 74 41 75
REMARK SMILES IDX 42 76 68 77 69 78 78 79 70 80 71 81 77 82 79 83 72 84 73 85
REMARK SMILES IDX 74 86 75 87 76 88 52 89 53 90 62 91 54 92 55 93 61 94 63 95
REMARK SMILES IDX 56 96 57 97 58 98 59 99 60 100
REMARK H PARENT 84 50 50 61
REMARK Flexibility Score: inf
ROOT
ATOM      1  O   UNL A   1      34.108  31.201  27.463  1.00  0.00    -0.462 OA
ENDROOT
BRANCH   1   2
ATOM      2  C   UNL A   1      34.408  29.886  27.380  1.00  0.00     0.305 C 
ATOM      3  O   UNL A   1      35.537  29.444  27.195  1.00  0.00    -0.252 OA
BRANCH   2   4
ATOM      4  C   UNL A   1      33.215  28.965  27.583  1.00  0.00     0.124 C 
BRANCH   4   5
ATOM      5  C   UNL A   1      31.862  29.332  26.989  1.00  0.00     0.033 C 
BRANCH   5   6
ATOM      6  C   UNL A   1      31.767  29.552  25.485  1.00  0.00     0.124 C 
BRANCH   6   7
ATOM      7  N   UNL A   1      31.431  28.392  24.683  1.00  0.00    -0.304 N 
ATOM      8  C   UNL A   1      32.510  22.173  23.486  1.00  0.00     0.224 C 
ATOM      9  O   UNL A   1      31.958  21.310  22.802  1.00  0.00    -0.275 OA
ATOM     10  N   UNL A   1      32.181  23.514  23.378  1.00  0.00    -0.342 N 
ATOM     11  C   UNL A   1      30.859  23.955  22.946  1.00  0.00     0.123 C 
ATOM     12  C   UNL A   1      33.154  24.577  23.435  1.00  0.00     0.123 C 
ATOM     13  C   UNL A   1      30.346  25.057  23.889  1.00  0.00     0.072 C 
ATOM     14  C   UNL A   1      32.761  25.595  24.470  1.00  0.00     0.072 C 
ATOM     15  C   UNL A   1      31.382  26.168  24.112  1.00  0.00     0.135 C 
ATOM     16  C   UNL A   1      30.964  27.140  25.190  1.00  0.00     0.172 C 
ATOM     17  O   UNL A   1      31.494  26.995  22.937  1.00  0.00    -0.441 OA
ATOM     18  C   UNL A   1      31.708  28.286  23.344  1.00  0.00     0.410 C 
ATOM     19  O   UNL A   1      32.103  29.172  22.602  1.00  0.00    -0.224 OA
BRANCH   8  20
ATOM     20  C   UNL A   1      33.420  21.758  24.651  1.00  0.00     0.125 C 
BRANCH  20  21
ATOM     21  C   UNL A   1      34.379  20.553  24.552  1.00  0.00     0.094 C 
ATOM     22  C   UNL A   1      35.705  20.763  25.282  1.00  0.00     0.032 C 
BRANCH  21  23
ATOM     23  N   UNL A   1      33.748  19.261  24.811  1.00  0.00    -0.334 N 
ATOM     24  C   UNL A   1      33.797  18.177  23.968  1.00  0.00     0.107 A 
ATOM     25  C   UNL A   1      32.928  18.919  25.854  1.00  0.00     0.199 A 
ATOM     26  C   UNL A   1      32.909  17.270  24.494  1.00  0.00     0.130 A 
ATOM     27  N   UNL A   1      32.378  17.739  25.666  1.00  0.00    -0.245 NA
ENDBRANCH  21  23
ENDBRANCH  20  21
ENDBRANCH   8  20
ENDBRANCH   6   7
ENDBRANCH   5   6
ENDBRANCH   4   5
ENDBRANCH   2   4
ENDBRANCH   1   2
BRANCH   1  28
ATOM     28  C   UNL A   1      35.123  32.069  28.008  1.00  0.00     0.274 C 
BRANCH  28  29
ATOM     29  C   UNL A   1      34.957  32.154  29.526  1.00  0.00     0.275 C 
BRANCH  29  30
ATOM     30  O   UNL A   1      36.235  32.054  30.184  1.00  0.00    -0.458 OA
BRANCH  30  31
ATOM     31  C   UNL A   1      36.634  30.787  30.439  1.00  0.00     0.338 C 
ATOM     32  O   UNL A   1      35.941  29.849  30.799  1.00  0.00    -0.246 OA
BRANCH  31  33
ATOM     33  C   UNL A   1      38.052  30.621  30.111  1.00  0.00     0.060 A 
ATOM     34  C   UNL A   1      38.417  30.497  28.772  1.00  0.00     0.016 A 
ATOM     35  C   UNL A   1      38.980  30.386  31.119  1.00  0.00     0.016 A 
ATOM     36  C   UNL A   1      39.659  29.994  28.429  1.00  0.00     0.010 A 
ATOM     37  C   UNL A   1      40.280  30.016  30.766  1.00  0.00     0.010 A 
ATOM     38  C   UNL A   1      40.618  29.777  29.420  1.00  0.00    -0.014 A 
BRANCH  38  39
ATOM     39  C   UNL A   1      41.971  29.310  29.037  1.00  0.00     0.031 A 
ATOM     40  C   UNL A   1      43.122  30.276  29.025  1.00  0.00     0.074 A 
ATOM     41  C   UNL A   1      42.153  28.016  28.703  1.00  0.00     0.049 A 
ATOM     42  N   UNL A   1      44.334  30.106  28.567  1.00  0.00    -0.248 NA
ATOM     43  C   UNL A   1      42.877  31.614  29.590  1.00  0.00     0.031 C 
ATOM     44  C   UNL A   1      41.118  26.977  28.729  1.00  0.00     0.029 A 
ATOM     45  N   UNL A   1      43.271  27.349  28.270  1.00  0.00    -0.354 N 
ATOM     46  C   UNL A   1      44.979  31.324  28.740  1.00  0.00     0.074 A 
ATOM     47  C   UNL A   1      44.023  32.230  29.337  1.00  0.00     0.031 C 
ATOM     48  C   UNL A   1      41.652  25.807  28.351  1.00  0.00     0.029 A 
ATOM     49  C   UNL A   1      43.038  26.029  27.965  1.00  0.00     0.049 A 
ATOM     50  H   UNL A   1      44.154  27.776  28.186  1.00  0.00     0.167 HD
ATOM     51  C   UNL A   1      46.255  31.648  28.424  1.00  0.00     0.037 A 
ATOM     52  C   UNL A   1      43.835  25.111  27.387  1.00  0.00     0.037 A 
ATOM     53  C   UNL A   1      47.199  30.716  27.862  1.00  0.00     0.049 A 
ATOM     54  C   UNL A   1      45.226  25.519  26.994  1.00  0.00     0.074 A 
ATOM     55  C   UNL A   1      48.525  30.931  27.531  1.00  0.00     0.029 A 
ATOM     56  N   UNL A   1      46.918  29.393  27.549  1.00  0.00    -0.354 N 
ATOM     57  N   UNL A   1      45.822  26.676  27.154  1.00  0.00    -0.248 NA
ATOM     58  C   UNL A   1      46.051  24.501  26.333  1.00  0.00     0.031 C 
ATOM     59  C   UNL A   1      49.028  29.759  26.961  1.00  0.00     0.029 A 
ATOM     60  C   UNL A   1      48.037  28.790  27.001  1.00  0.00     0.049 A 
ATOM     61  H   UNL A   1      46.051  28.951  27.695  1.00  0.00     0.167 HD
ATOM     62  C   UNL A   1      47.106  26.515  26.646  1.00  0.00     0.074 A 
ATOM     63  C   UNL A   1      47.201  25.144  26.186  1.00  0.00     0.031 C 
ATOM     64  C   UNL A   1      48.115  27.417  26.566  1.00  0.00     0.037 A 
BRANCH  51  65
ATOM     65  C   UNL A   1      46.702  33.069  28.641  1.00  0.00     0.058 A 
ATOM     66  C   UNL A   1      47.282  33.497  29.844  1.00  0.00     0.135 A 
ATOM     67  C   UNL A   1      46.603  34.002  27.595  1.00  0.00     0.135 A 
ATOM     68  F   UNL A   1      47.383  32.654  30.884  1.00  0.00    -0.206 F 
ATOM     69  C   UNL A   1      47.738  34.802  30.008  1.00  0.00     0.059 A 
ATOM     70  C   UNL A   1      47.080  35.303  27.726  1.00  0.00     0.059 A 
ATOM     71  F   UNL A   1      46.049  33.649  26.424  1.00  0.00    -0.206 F 
ATOM     72  C   UNL A   1      47.640  35.695  28.939  1.00  0.00     0.060 A 
BRANCH  72  73
ATOM     73  S   UNL A   1      48.272  37.372  29.157  1.00  0.00     0.124 S 
ATOM     74  O   UNL A   1      47.196  37.993  29.924  1.00  0.00    -0.237 OA
ATOM     75  O   UNL A   1      49.517  37.142  29.882  1.00  0.00    -0.237 OA
ATOM     76  O   UNL A   1      48.427  37.859  27.789  1.00  0.00    -0.744 OA
ENDBRANCH  72  73
ENDBRANCH  51  65
BRANCH  52  77
ATOM     77  C   UNL A   1      43.327  23.739  27.112  1.00  0.00     0.058 A 
ATOM     78  C   UNL A   1      43.187  22.801  28.144  1.00  0.00     0.135 A 
ATOM     79  C   UNL A   1      42.984  23.333  25.812  1.00  0.00     0.135 A 
ATOM     80  F   UNL A   1      43.503  23.138  29.404  1.00  0.00    -0.206 F 
ATOM     81  C   UNL A   1      42.760  21.501  27.895  1.00  0.00     0.059 A 
ATOM     82  C   UNL A   1      42.520  22.050  25.543  1.00  0.00     0.059 A 
ATOM     83  F   UNL A   1      43.080  24.196  24.787  1.00  0.00    -0.206 F 
ATOM     84  C   UNL A   1      42.429  21.135  26.590  1.00  0.00     0.060 A 
BRANCH  84  85
ATOM     85  S   UNL A   1      41.865  19.449  26.280  1.00  0.00     0.124 S 
ATOM     86  O   UNL A   1      42.308  18.765  27.489  1.00  0.00    -0.237 OA
ATOM     87  O   UNL A   1      40.423  19.631  26.141  1.00  0.00    -0.237 OA
ATOM     88  O   UNL A   1      42.564  19.080  25.053  1.00  0.00    -0.744 OA
ENDBRANCH  84  85
ENDBRANCH  52  77
BRANCH  64  89
ATOM     89  C   UNL A   1      49.427  26.935  26.015  1.00  0.00     0.058 A 
ATOM     90  C   UNL A   1      49.764  27.084  24.661  1.00  0.00     0.135 A 
ATOM     91  C   UNL A   1      50.380  26.356  26.869  1.00  0.00     0.135 A 
ATOM     92  F   UNL A   1      48.885  27.621  23.800  1.00  0.00    -0.206 F 
ATOM     93  C   UNL A   1      50.990  26.651  24.168  1.00  0.00     0.059 A 
ATOM     94  C   UNL A   1      51.626  25.950  26.405  1.00  0.00     0.059 A 
ATOM     95  F   UNL A   1      50.111  26.199  28.175  1.00  0.00    -0.206 F 
ATOM     96  C   UNL A   1      51.916  26.090  25.050  1.00  0.00     0.060 A 
BRANCH  96  97
ATOM     97  S   UNL A   1      53.517  25.568  24.402  1.00  0.00     0.124 S 
ATOM     98  O   UNL A   1      54.432  26.400  25.177  1.00  0.00    -0.237 OA
ATOM     99  O   UNL A   1      53.532  24.144  24.720  1.00  0.00    -0.237 OA
ATOM    100  O   UNL A   1      53.430  25.887  22.980  1.00  0.00    -0.744 OA
ENDBRANCH  96  97
ENDBRANCH  64  89
ENDBRANCH  38  39
ENDBRANCH  31  33
ENDBRANCH  30  31
ENDBRANCH  29  30
ENDBRANCH  28  29
ENDBRANCH   1  28
TORSDOF 20
ENDMDL
MODEL 2
REMARK VINA RESULT:     -10.9      1.254      8.222
REMARK SMILES C[C@H](CC(=O)N1CCC2(CC1)CN(CCCC(=O)OCCOC(=O)c1ccc(-c3c4nc(c(-c5c(F)cc(S(=O)(=O)[O-])cc5F)c5ccc([nH]5)c(-c5c(F)cc(S(=O)(=O)[O-])cc5F)c5nc(c(-c6c(F)cc(S(=O)(=O)[O-])cc6F)c6ccc3[nH]6)C=C5)C=C4)cc1)C(=O)O2)n1ccnc1
REMARK SMILES IDX 19 1 17 2 18 3 16 4 15 5 14 6 13 7 4 8 5 9 6 10 7 11 11 12
REMARK SMILES IDX 8 13 10 14 9 15 12 16 93 17 91 18 92 19 3 20 2 21 1 22 94 23
REMARK SMILES IDX 95 24 98 25 96 26 97 27 20 28 21 29 22 30 23 31 24 32 25 33
REMARK SMILES IDX 26 34 90 35 27 36 89 37 28 38 29 39 30 40 83 41 31 42 88 43
REMARK SMILES IDX 82 44 84 45 32 46 87 47 81 48 80 49 33 51 67 52 46 53 66 54
REMARK SMILES IDX 47 55 50 56 65 57 85 58 48 59 49 60 64 62 86 63 51 64 34 65
REMARK SMILES IDX 35 66 44 67 36 68 37 69 43 70 45 71 38 72 39 73 40 74 41 75
REMARK SMILES IDX 42 76 68 77 69 78 78 79 70 80 71 81 77 82 79 83 72 84 73 85
REMARK SMILES IDX 74 86 75 87 76 88 52 89 53 90 62 91 54 92 55 93 61 94 63 95
REMARK SMILES IDX 56 96 57 97 58 98 59 99 60 100
REMARK H PARENT 84 50 50 61
REMARK Flexibility Score: inf
ROOT
ATOM      1  O   UNL A   1      34.401  32.181  29.438  1.00  0.00    -0.462 OA
ENDROOT
BRANCH   1   2
ATOM      2  C   UNL A   1      35.019  32.082  28.241  1.00  0.00     0.305 C 
ATOM      3  O   UNL A   1      35.484  33.034  27.621  1.00  0.00    -0.252 OA
BRANCH   2   4
ATOM      4  C   UNL A   1      35.141  30.658  27.722  1.00  0.00     0.124 C 
BRANCH   4   5
ATOM      5  C   UNL A   1      34.120  30.122  26.728  1.00  0.00     0.033 C 
BRANCH   5   6
ATOM      6  C   UNL A   1      32.751  29.707  27.250  1.00  0.00     0.124 C 
BRANCH   6   7
ATOM      7  N   UNL A   1      32.085  28.636  26.535  1.00  0.00    -0.304 N 
ATOM      8  C   UNL A   1      32.708  23.160  23.233  1.00  0.00     0.224 C 
ATOM      9  O   UNL A   1      31.929  22.299  22.821  1.00  0.00    -0.275 OA
ATOM     10  N   UNL A   1      32.262  24.371  23.733  1.00  0.00    -0.342 N 
ATOM     11  C   UNL A   1      30.946  24.520  24.345  1.00  0.00     0.123 C 
ATOM     12  C   UNL A   1      32.926  25.627  23.481  1.00  0.00     0.123 C 
ATOM     13  C   UNL A   1      31.073  25.296  25.668  1.00  0.00     0.072 C 
ATOM     14  C   UNL A   1      33.211  26.340  24.774  1.00  0.00     0.072 C 
ATOM     15  C   UNL A   1      31.888  26.588  25.514  1.00  0.00     0.135 C 
ATOM     16  C   UNL A   1      32.188  27.244  26.841  1.00  0.00     0.172 C 
ATOM     17  O   UNL A   1      31.123  27.585  24.810  1.00  0.00    -0.441 OA
ATOM     18  C   UNL A   1      31.425  28.810  25.345  1.00  0.00     0.410 C 
ATOM     19  O   UNL A   1      31.149  29.871  24.805  1.00  0.00    -0.224 OA
BRANCH   8  20
ATOM     20  C   UNL A   1      34.193  22.818  23.422  1.00  0.00     0.125 C 
BRANCH  20  21
ATOM     21  C   UNL A   1      34.707  22.053  24.659  1.00  0.00     0.094 C 
ATOM     22  C   UNL A   1      34.365  20.563  24.644  1.00  0.00     0.032 C 
BRANCH  21  23
ATOM     23  N   UNL A   1      36.092  22.348  25.015  1.00  0.00    -0.334 N 
ATOM     24  C   UNL A   1      37.066  21.406  25.241  1.00  0.00     0.107 A 
ATOM     25  C   UNL A   1      36.648  23.570  25.287  1.00  0.00     0.199 A 
ATOM     26  C   UNL A   1      38.135  22.105  25.748  1.00  0.00     0.130 A 
ATOM     27  N   UNL A   1      37.866  23.448  25.769  1.00  0.00    -0.245 NA
ENDBRANCH  21  23
ENDBRANCH  20  21
ENDBRANCH   8  20
ENDBRANCH   6   7
ENDBRANCH   5   6
ENDBRANCH   4   5
ENDBRANCH   2   4
ENDBRANCH   1   2
BRANCH   1  28
ATOM     28  C   UNL A   1      35.092  32.913  30.472  1.00  0.00     0.274 C 
BRANCH  28  29
ATOM     29  C   UNL A   1      35.541  31.944  31.567  1.00  0.00     0.275 C 
BRANCH  29  30
ATOM     30  O   UNL A   1      36.065  30.733  30.989  1.00  0.00    -0.458 OA
BRANCH  30  31
ATOM     31  C   UNL A   1      36.930  30.064  31.786  1.00  0.00     0.338 C 
ATOM     32  O   UNL A   1      36.678  29.468  32.820  1.00  0.00    -0.246 OA
BRANCH  31  33
ATOM     33  C   UNL A   1      38.265  30.034  31.181  1.00  0.00     0.060 A 
ATOM     34  C   UNL A   1      38.387  30.308  29.820  1.00  0.00     0.016 A 
ATOM     35  C   UNL A   1      39.348  29.545  31.901  1.00  0.00     0.016 A 
ATOM     36  C   UNL A   1      39.536  29.956  29.136  1.00  0.00     0.010 A 
ATOM     37  C   UNL A   1      40.556  29.323  31.236  1.00  0.00     0.010 A 
ATOM     38  C   UNL A   1      40.647  29.489  29.840  1.00  0.00    -0.014 A 
BRANCH  38  39
ATOM     39  C   UNL A   1      41.900  29.185  29.110  1.00  0.00     0.031 A 
ATOM     40  C   UNL A   1      42.130  27.807  28.556  1.00  0.00     0.074 A 
ATOM     41  C   UNL A   1      42.824  30.155  28.951  1.00  0.00     0.049 A 
ATOM     42  N   UNL A   1      43.217  27.299  28.038  1.00  0.00    -0.248 NA
ATOM     43  C   UNL A   1      40.994  26.870  28.603  1.00  0.00     0.031 C 
ATOM     44  C   UNL A   1      42.684  31.544  29.402  1.00  0.00     0.029 A 
ATOM     45  N   UNL A   1      44.066  30.125  28.371  1.00  0.00    -0.354 N 
ATOM     46  C   UNL A   1      42.914  25.976  27.743  1.00  0.00     0.074 A 
ATOM     47  C   UNL A   1      41.544  25.753  28.149  1.00  0.00     0.031 C 
ATOM     48  C   UNL A   1      43.784  32.233  29.065  1.00  0.00     0.029 A 
ATOM     49  C   UNL A   1      44.742  31.319  28.462  1.00  0.00     0.049 A 
ATOM     50  H   UNL A   1      44.437  29.326  27.932  1.00  0.00     0.167 HD
ATOM     51  C   UNL A   1      43.715  25.038  27.186  1.00  0.00     0.037 A 
ATOM     52  C   UNL A   1      46.013  31.630  28.146  1.00  0.00     0.037 A 
ATOM     53  C   UNL A   1      45.066  25.295  26.757  1.00  0.00     0.049 A 
ATOM     54  C   UNL A   1      46.895  30.551  27.585  1.00  0.00     0.074 A 
ATOM     55  C   UNL A   1      45.956  24.425  26.154  1.00  0.00     0.029 A 
ATOM     56  N   UNL A   1      45.722  26.512  26.886  1.00  0.00    -0.354 N 
ATOM     57  N   UNL A   1      46.601  29.301  27.319  1.00  0.00    -0.248 NA
ATOM     58  C   UNL A   1      48.284  30.921  27.288  1.00  0.00     0.031 C 
ATOM     59  C   UNL A   1      47.168  25.095  25.975  1.00  0.00     0.029 A 
ATOM     60  C   UNL A   1      47.014  26.406  26.401  1.00  0.00     0.049 A 
ATOM     61  H   UNL A   1      45.326  27.329  27.266  1.00  0.00     0.167 HD
ATOM     62  C   UNL A   1      47.759  28.743  26.791  1.00  0.00     0.074 A 
ATOM     63  C   UNL A   1      48.752  29.798  26.762  1.00  0.00     0.031 C 
ATOM     64  C   UNL A   1      47.981  27.475  26.366  1.00  0.00     0.037 A 
BRANCH  51  65
ATOM     65  C   UNL A   1      43.175  23.640  27.036  1.00  0.00     0.058 A 
ATOM     66  C   UNL A   1      42.656  23.164  25.823  1.00  0.00     0.135 A 
ATOM     67  C   UNL A   1      43.241  22.744  28.116  1.00  0.00     0.135 A 
ATOM     68  F   UNL A   1      42.550  23.982  24.764  1.00  0.00    -0.206 F 
ATOM     69  C   UNL A   1      42.211  21.852  25.689  1.00  0.00     0.059 A 
ATOM     70  C   UNL A   1      42.830  21.420  27.996  1.00  0.00     0.059 A 
ATOM     71  F   UNL A   1      43.722  23.149  29.302  1.00  0.00    -0.206 F 
ATOM     72  C   UNL A   1      42.311  20.985  26.779  1.00  0.00     0.060 A 
BRANCH  72  73
ATOM     73  S   UNL A   1      41.764  19.277  26.575  1.00  0.00     0.124 S 
ATOM     74  O   UNL A   1      41.537  18.874  27.960  1.00  0.00    -0.237 OA
ATOM     75  O   UNL A   1      40.566  19.431  25.756  1.00  0.00    -0.237 OA
ATOM     76  O   UNL A   1      42.895  18.633  25.913  1.00  0.00    -0.744 OA
ENDBRANCH  72  73
ENDBRANCH  51  65
BRANCH  52  77
ATOM     77  C   UNL A   1      46.535  33.003  28.389  1.00  0.00     0.058 A 
ATOM     78  C   UNL A   1      47.094  33.354  29.625  1.00  0.00     0.135 A 
ATOM     79  C   UNL A   1      46.472  33.996  27.396  1.00  0.00     0.135 A 
ATOM     80  F   UNL A   1      47.176  32.444  30.607  1.00  0.00    -0.206 F 
ATOM     81  C   UNL A   1      47.541  34.646  29.882  1.00  0.00     0.059 A 
ATOM     82  C   UNL A   1      46.946  35.284  27.617  1.00  0.00     0.059 A 
ATOM     83  F   UNL A   1      45.963  33.710  26.186  1.00  0.00    -0.206 F 
ATOM     84  C   UNL A   1      47.462  35.605  28.871  1.00  0.00     0.060 A 
BRANCH  84  85
ATOM     85  S   UNL A   1      48.056  37.275  29.212  1.00  0.00     0.124 S 
ATOM     86  O   UNL A   1      49.173  37.010  30.110  1.00  0.00    -0.237 OA
ATOM     87  O   UNL A   1      48.405  37.752  27.878  1.00  0.00    -0.237 OA
ATOM     88  O   UNL A   1      46.898  37.926  29.819  1.00  0.00    -0.744 OA
ENDBRANCH  84  85
ENDBRANCH  52  77
BRANCH  64  89
ATOM     89  C   UNL A   1      49.332  27.172  25.779  1.00  0.00     0.058 A 
ATOM     90  C   UNL A   1      50.393  26.697  26.565  1.00  0.00     0.135 A 
ATOM     91  C   UNL A   1      49.549  27.318  24.400  1.00  0.00     0.135 A 
ATOM     92  F   UNL A   1      50.241  26.550  27.891  1.00  0.00    -0.206 F 
ATOM     93  C   UNL A   1      51.632  26.403  26.007  1.00  0.00     0.059 A 
ATOM     94  C   UNL A   1      50.768  26.995  23.815  1.00  0.00     0.059 A 
ATOM     95  F   UNL A   1      48.564  27.761  23.602  1.00  0.00    -0.206 F 
ATOM     96  C   UNL A   1      51.807  26.550  24.629  1.00  0.00     0.060 A 
BRANCH  96  97
ATOM     97  S   UNL A   1      53.409  26.127  23.913  1.00  0.00     0.124 S 
ATOM     98  O   UNL A   1      53.739  24.903  24.634  1.00  0.00    -0.237 OA
ATOM     99  O   UNL A   1      53.084  25.962  22.500  1.00  0.00    -0.237 OA
ATOM    100  O   UNL A   1      54.240  27.285  24.229  1.00  0.00    -0.744 OA
ENDBRANCH  96  97
ENDBRANCH  64  89
ENDBRANCH  38  39
ENDBRANCH  31  33
ENDBRANCH  30  31
ENDBRANCH  29  30
ENDBRANCH  28  29
ENDBRANCH   1  28
TORSDOF 20
ENDMDL
MODEL 3
REMARK VINA RESULT:     -10.6      6.254     11.887
REMARK SMILES C[C@H](CC(=O)N1CCC2(CC1)CN(CCCC(=O)OCCOC(=O)c1ccc(-c3c4nc(c(-c5c(F)cc(S(=O)(=O)[O-])cc5F)c5ccc([nH]5)c(-c5c(F)cc(S(=O)(=O)[O-])cc5F)c5nc(c(-c6c(F)cc(S(=O)(=O)[O-])cc6F)c6ccc3[nH]6)C=C5)C=C4)cc1)C(=O)O2)n1ccnc1
REMARK SMILES IDX 19 1 17 2 18 3 16 4 15 5 14 6 13 7 4 8 5 9 6 10 7 11 11 12
REMARK SMILES IDX 8 13 10 14 9 15 12 16 93 17 91 18 92 19 3 20 2 21 1 22 94 23
REMARK SMILES IDX 95 24 98 25 96 26 97 27 20 28 21 29 22 30 23 31 24 32 25 33
REMARK SMILES IDX 26 34 90 35 27 36 89 37 28 38 29 39 30 40 83 41 31 42 88 43
REMARK SMILES IDX 82 44 84 45 32 46 87 47 81 48 80 49 33 51 67 52 46 53 66 54
REMARK SMILES IDX 47 55 50 56 65 57 85 58 48 59 49 60 64 62 86 63 51 64 34 65
REMARK SMILES IDX 35 66 44 67 36 68 37 69 43 70 45 71 38 72 39 73 40 74 41 75
REMARK SMILES IDX 42 76 68 77 69 78 78 79 70 80 71 81 77 82 79 83 72 84 73 85
REMARK SMILES IDX 74 86 75 87 76 88 52 89 53 90 62 91 54 92 55 93 61 94 63 95
REMARK SMILES IDX 56 96 57 97 58 98 59 99 60 100
REMARK H PARENT 84 50 50 61
REMARK Flexibility Score: inf
ROOT
ATOM      1  O   UNL A   1      43.310  22.210  24.856  1.00  0.00    -0.462 OA
ENDROOT
BRANCH   1   2
ATOM      2  C   UNL A   1      43.145  21.107  25.620  1.00  0.00     0.305 C 
ATOM      3  O   UNL A   1      43.958  20.192  25.699  1.00  0.00    -0.252 OA
BRANCH   2   4
ATOM      4  C   UNL A   1      41.860  21.104  26.433  1.00  0.00     0.124 C 
BRANCH   4   5
ATOM      5  C   UNL A   1      40.803  22.172  26.189  1.00  0.00     0.033 C 
BRANCH   5   6
ATOM      6  C   UNL A   1      39.377  21.897  26.645  1.00  0.00     0.124 C 
BRANCH   6   7
ATOM      7  N   UNL A   1      38.347  21.974  25.627  1.00  0.00    -0.304 N 
ATOM      8  C   UNL A   1      32.279  23.543  24.213  1.00  0.00     0.224 C 
ATOM      9  O   UNL A   1      31.632  23.662  23.172  1.00  0.00    -0.275 OA
ATOM     10  N   UNL A   1      33.537  22.964  24.229  1.00  0.00    -0.342 N 
ATOM     11  C   UNL A   1      34.417  22.988  23.066  1.00  0.00     0.123 C 
ATOM     12  C   UNL A   1      33.994  22.087  25.280  1.00  0.00     0.123 C 
ATOM     13  C   UNL A   1      35.833  23.410  23.494  1.00  0.00     0.072 C 
ATOM     14  C   UNL A   1      35.306  22.568  25.834  1.00  0.00     0.072 C 
ATOM     15  C   UNL A   1      36.343  22.611  24.702  1.00  0.00     0.135 C 
ATOM     16  C   UNL A   1      37.640  23.158  25.250  1.00  0.00     0.172 C 
ATOM     17  O   UNL A   1      36.684  21.267  24.309  1.00  0.00    -0.441 OA
ATOM     18  C   UNL A   1      37.779  20.876  25.033  1.00  0.00     0.410 C 
ATOM     19  O   UNL A   1      38.149  19.715  25.126  1.00  0.00    -0.224 OA
BRANCH   8  20
ATOM     20  C   UNL A   1      31.805  24.246  25.492  1.00  0.00     0.125 C 
BRANCH  20  21
ATOM     21  C   UNL A   1      31.273  25.695  25.481  1.00  0.00     0.094 C 
ATOM     22  C   UNL A   1      29.795  25.809  25.852  1.00  0.00     0.032 C 
BRANCH  21  23
ATOM     23  N   UNL A   1      32.139  26.657  26.159  1.00  0.00    -0.334 N 
ATOM     24  C   UNL A   1      31.732  27.527  27.142  1.00  0.00     0.107 A 
ATOM     25  C   UNL A   1      33.450  26.945  25.889  1.00  0.00     0.199 A 
ATOM     26  C   UNL A   1      32.796  28.375  27.337  1.00  0.00     0.130 A 
ATOM     27  N   UNL A   1      33.858  28.003  26.556  1.00  0.00    -0.245 NA
ENDBRANCH  21  23
ENDBRANCH  20  21
ENDBRANCH   8  20
ENDBRANCH   6   7
ENDBRANCH   5   6
ENDBRANCH   4   5
ENDBRANCH   2   4
ENDBRANCH   1   2
BRANCH   1  28
ATOM     28  C   UNL A   1      44.467  23.027  25.130  1.00  0.00     0.274 C 
BRANCH  28  29
ATOM     29  C   UNL A   1      44.078  24.151  26.092  1.00  0.00     0.275 C 
BRANCH  29  30
ATOM     30  O   UNL A   1      42.740  24.611  25.822  1.00  0.00    -0.458 OA
BRANCH  30  31
ATOM     31  C   UNL A   1      42.620  25.955  25.735  1.00  0.00     0.338 C 
ATOM     32  O   UNL A   1      42.496  26.625  24.723  1.00  0.00    -0.246 OA
BRANCH  31  33
ATOM     33  C   UNL A   1      42.537  26.550  27.072  1.00  0.00     0.060 A 
ATOM     34  C   UNL A   1      41.601  26.042  27.971  1.00  0.00     0.016 A 
ATOM     35  C   UNL A   1      43.228  27.720  27.361  1.00  0.00     0.016 A 
ATOM     36  C   UNL A   1      41.237  26.770  29.089  1.00  0.00     0.010 A 
ATOM     37  C   UNL A   1      42.962  28.382  28.562  1.00  0.00     0.010 A 
ATOM     38  C   UNL A   1      41.936  27.934  29.416  1.00  0.00    -0.014 A 
BRANCH  38  39
ATOM     39  C   UNL A   1      41.591  28.669  30.656  1.00  0.00     0.031 A 
ATOM     40  C   UNL A   1      40.408  29.595  30.674  1.00  0.00     0.074 A 
ATOM     41  C   UNL A   1      42.348  28.496  31.759  1.00  0.00     0.049 A 
ATOM     42  N   UNL A   1      40.042  30.445  31.597  1.00  0.00    -0.248 NA
ATOM     43  C   UNL A   1      39.525  29.575  29.494  1.00  0.00     0.031 C 
ATOM     44  C   UNL A   1      43.490  27.581  31.871  1.00  0.00     0.029 A 
ATOM     45  N   UNL A   1      42.278  29.082  32.997  1.00  0.00    -0.354 N 
ATOM     46  C   UNL A   1      38.923  31.094  31.092  1.00  0.00     0.074 A 
ATOM     47  C   UNL A   1      38.672  30.549  29.777  1.00  0.00     0.031 C 
ATOM     48  C   UNL A   1      43.997  27.654  33.110  1.00  0.00     0.029 A 
ATOM     49  C   UNL A   1      43.282  28.684  33.848  1.00  0.00     0.049 A 
ATOM     50  H   UNL A   1      41.578  29.725  33.250  1.00  0.00     0.167 HD
ATOM     51  C   UNL A   1      38.178  32.060  31.681  1.00  0.00     0.037 A 
ATOM     52  C   UNL A   1      43.623  29.137  35.069  1.00  0.00     0.037 A 
ATOM     53  C   UNL A   1      38.429  32.562  33.009  1.00  0.00     0.049 A 
ATOM     54  C   UNL A   1      42.814  30.251  35.670  1.00  0.00     0.074 A 
ATOM     55  C   UNL A   1      37.719  33.518  33.713  1.00  0.00     0.029 A 
ATOM     56  N   UNL A   1      39.467  32.148  33.831  1.00  0.00    -0.354 N 
ATOM     57  N   UNL A   1      41.763  30.863  35.180  1.00  0.00    -0.248 NA
ATOM     58  C   UNL A   1      43.240  30.742  36.986  1.00  0.00     0.031 C 
ATOM     59  C   UNL A   1      38.364  33.728  34.934  1.00  0.00     0.029 A 
ATOM     60  C   UNL A   1      39.435  32.852  35.023  1.00  0.00     0.049 A 
ATOM     61  H   UNL A   1      40.129  31.457  33.600  1.00  0.00     0.167 HD
ATOM     62  C   UNL A   1      41.380  31.789  36.144  1.00  0.00     0.074 A 
ATOM     63  C   UNL A   1      42.306  31.645  37.249  1.00  0.00     0.031 C 
ATOM     64  C   UNL A   1      40.357  32.678  36.118  1.00  0.00     0.037 A 
BRANCH  51  65
ATOM     65  C   UNL A   1      37.048  32.666  30.893  1.00  0.00     0.058 A 
ATOM     66  C   UNL A   1      35.712  32.283  31.084  1.00  0.00     0.135 A 
ATOM     67  C   UNL A   1      37.308  33.696  29.974  1.00  0.00     0.135 A 
ATOM     68  F   UNL A   1      35.407  31.290  31.934  1.00  0.00    -0.206 F 
ATOM     69  C   UNL A   1      34.674  32.892  30.385  1.00  0.00     0.059 A 
ATOM     70  C   UNL A   1      36.283  34.340  29.286  1.00  0.00     0.059 A 
ATOM     71  F   UNL A   1      38.568  34.097  29.746  1.00  0.00    -0.206 F 
ATOM     72  C   UNL A   1      34.970  33.926  29.494  1.00  0.00     0.060 A 
BRANCH  72  73
ATOM     73  S   UNL A   1      33.608  34.730  28.624  1.00  0.00     0.124 S 
ATOM     74  O   UNL A   1      34.240  35.964  28.167  1.00  0.00    -0.237 OA
ATOM     75  O   UNL A   1      33.289  33.758  27.584  1.00  0.00    -0.237 OA
ATOM     76  O   UNL A   1      32.591  34.895  29.659  1.00  0.00    -0.744 OA
ENDBRANCH  72  73
ENDBRANCH  51  65
BRANCH  52  77
ATOM     77  C   UNL A   1      44.801  28.569  35.781  1.00  0.00     0.058 A 
ATOM     78  C   UNL A   1      44.654  27.512  36.688  1.00  0.00     0.135 A 
ATOM     79  C   UNL A   1      46.094  29.080  35.579  1.00  0.00     0.135 A 
ATOM     80  F   UNL A   1      43.440  26.989  36.919  1.00  0.00    -0.206 F 
ATOM     81  C   UNL A   1      45.738  27.003  37.396  1.00  0.00     0.059 A 
ATOM     82  C   UNL A   1      47.199  28.564  36.247  1.00  0.00     0.059 A 
ATOM     83  F   UNL A   1      46.296  30.080  34.705  1.00  0.00    -0.206 F 
ATOM     84  C   UNL A   1      47.007  27.537  37.169  1.00  0.00     0.060 A 
BRANCH  84  85
ATOM     85  S   UNL A   1      48.408  26.861  38.085  1.00  0.00     0.124 S 
ATOM     86  O   UNL A   1      49.484  27.756  37.677  1.00  0.00    -0.237 OA
ATOM     87  O   UNL A   1      47.958  26.990  39.468  1.00  0.00    -0.237 OA
ATOM     88  O   UNL A   1      48.503  25.491  37.591  1.00  0.00    -0.744 OA
ENDBRANCH  84  85
ENDBRANCH  52  77
BRANCH  64  89
ATOM     89  C   UNL A   1      40.147  33.521  37.345  1.00  0.00     0.058 A 
ATOM     90  C   UNL A   1      40.897  34.682  37.585  1.00  0.00     0.135 A 
ATOM     91  C   UNL A   1      39.145  33.184  38.269  1.00  0.00     0.135 A 
ATOM     92  F   UNL A   1      41.875  35.044  36.738  1.00  0.00    -0.206 F 
ATOM     93  C   UNL A   1      40.680  35.465  38.714  1.00  0.00     0.059 A 
ATOM     94  C   UNL A   1      38.886  33.971  39.385  1.00  0.00     0.059 A 
ATOM     95  F   UNL A   1      38.392  32.088  38.081  1.00  0.00    -0.206 F 
ATOM     96  C   UNL A   1      39.668  35.103  39.605  1.00  0.00     0.060 A 
BRANCH  96  97
ATOM     97  S   UNL A   1      39.372  36.149  41.045  1.00  0.00     0.124 S 
ATOM     98  O   UNL A   1      38.413  37.113  40.516  1.00  0.00    -0.237 OA
ATOM     99  O   UNL A   1      38.843  35.198  42.017  1.00  0.00    -0.237 OA
ATOM    100  O   UNL A   1      40.694  36.685  41.355  1.00  0.00    -0.744 OA
ENDBRANCH  96  97
ENDBRANCH  64  89
ENDBRANCH  38  39
ENDBRANCH  31  33
ENDBRANCH  30  31
ENDBRANCH  29  30
ENDBRANCH  28  29
ENDBRANCH   1  28
TORSDOF 20
ENDMDL
