MODEL 1
REMARK VINA RESULT:     -12.1      0.000      0.000
REMARK SMILES COc1cccc([C@H]2CC(c3ccc(S(C)(=O)=O)cc3)=NN2c2ccc(C(=O)OCCOC(=O)c3ccc(-c4c5nc(c(-c6c(F)cc(S(=O)(=O)[O-])cc6F)c6ccc([nH]6)c(-c6c(F)cc(S(=O)(=O)[O-])cc6F)c6nc(c(-c7c(F)cc(S(=O)(=O)[O-])cc7F)c7ccc4[nH]7)C=C6)C=C5)cc3)cc2)c1
REMARK SMILES IDX 30 1 29 2 27 3 28 4 26 5 23 6 24 7 102 8 25 9 101 10 22 11
REMARK SMILES IDX 8 12 9 13 10 14 21 15 7 16 3 17 4 18 103 19 5 20 6 21 2 22
REMARK SMILES IDX 1 23 11 24 12 25 20 26 13 27 19 28 14 29 15 30 16 31 17 32
REMARK SMILES IDX 18 33 31 34 32 35 33 36 34 37 35 38 36 39 100 40 37 41 99 42
REMARK SMILES IDX 38 43 39 44 40 45 93 46 41 47 98 48 92 49 94 50 42 51 97 52
REMARK SMILES IDX 91 53 90 54 43 56 77 57 56 58 76 59 57 60 60 61 75 62 95 63
REMARK SMILES IDX 58 64 59 65 74 67 96 68 61 69 44 70 45 71 54 72 46 73 47 74
REMARK SMILES IDX 53 75 55 76 48 77 49 78 50 79 51 80 52 81 78 82 79 83 88 84
REMARK SMILES IDX 80 85 81 86 87 87 89 88 82 89 83 90 84 91 85 92 86 93 62 94
REMARK SMILES IDX 63 95 72 96 64 97 65 98 71 99 73 100 66 101 67 102 68 103
REMARK SMILES IDX 69 104 70 105
REMARK H PARENT 94 55 60 66
REMARK Flexibility Score: inf
ROOT
ATOM      1  C   UNL A   1      34.361  32.322  28.311  1.00  0.00     0.275 C 
ENDROOT
BRANCH   1   2
ATOM      2  O   UNL A   1      33.862  30.989  28.077  1.00  0.00    -0.458 OA
BRANCH   2   3
ATOM      3  C   UNL A   1      34.745  30.143  27.491  1.00  0.00     0.338 C 
ATOM      4  O   UNL A   1      35.961  30.254  27.474  1.00  0.00    -0.246 OA
BRANCH   3   5
ATOM      5  C   UNL A   1      34.046  28.984  26.897  1.00  0.00     0.060 A 
ATOM      6  C   UNL A   1      32.762  26.650  25.989  1.00  0.00     0.060 A 
ATOM      7  C   UNL A   1      32.180  27.448  26.975  1.00  0.00     0.029 A 
ATOM      8  C   UNL A   1      33.984  27.064  25.435  1.00  0.00     0.029 A 
ATOM      9  C   UNL A   1      32.834  28.578  27.456  1.00  0.00     0.018 A 
ATOM     10  C   UNL A   1      34.616  28.240  25.865  1.00  0.00     0.018 A 
BRANCH   6  11
ATOM     11  N   UNL A   1      32.149  25.461  25.620  1.00  0.00    -0.257 N 
ATOM     12  C   UNL A   1      30.771  25.368  25.139  1.00  0.00     0.144 C 
ATOM     13  C   UNL A   1      30.687  23.923  24.628  1.00  0.00     0.091 C 
ATOM     14  C   UNL A   1      32.099  23.471  24.872  1.00  0.00     0.071 C 
ATOM     15  N   UNL A   1      32.893  24.344  25.406  1.00  0.00    -0.176 NA
BRANCH  12  16
ATOM     16  C   UNL A   1      30.433  26.404  24.074  1.00  0.00    -0.019 A 
ATOM     17  C   UNL A   1      28.980  28.123  23.128  1.00  0.00     0.119 A 
ATOM     18  C   UNL A   1      29.864  28.273  22.059  1.00  0.00     0.046 A 
ATOM     19  C   UNL A   1      29.252  27.175  24.118  1.00  0.00     0.052 A 
ATOM     20  C   UNL A   1      31.024  27.505  21.985  1.00  0.00     0.004 A 
ATOM     21  C   UNL A   1      31.308  26.580  22.988  1.00  0.00     0.006 A 
BRANCH  17  22
ATOM     22  O   UNL A   1      27.886  28.940  23.074  1.00  0.00    -0.497 OA
ATOM     23  C   UNL A   1      27.944  30.035  22.170  1.00  0.00     0.278 C 
ENDBRANCH  17  22
ENDBRANCH  12  16
BRANCH  14  24
ATOM     24  C   UNL A   1      32.504  22.086  24.603  1.00  0.00    -0.002 A 
ATOM     25  C   UNL A   1      33.174  21.389  25.614  1.00  0.00     0.011 A 
ATOM     26  C   UNL A   1      32.182  21.462  23.395  1.00  0.00     0.011 A 
ATOM     27  C   UNL A   1      33.485  20.041  25.438  1.00  0.00     0.021 A 
ATOM     28  C   UNL A   1      32.518  20.118  23.205  1.00  0.00     0.021 A 
ATOM     29  C   UNL A   1      33.156  19.413  24.233  1.00  0.00     0.067 A 
BRANCH  29  30
ATOM     30  S   UNL A   1      33.487  17.675  24.051  1.00  0.00     0.175 S 
ATOM     31  C   UNL A   1      32.590  16.911  25.377  1.00  0.00     0.163 C 
ATOM     32  O   UNL A   1      32.887  17.272  22.794  1.00  0.00    -0.224 OA
ATOM     33  O   UNL A   1      34.903  17.472  24.291  1.00  0.00    -0.224 OA
ENDBRANCH  29  30
ENDBRANCH  14  24
ENDBRANCH   6  11
ENDBRANCH   3   5
ENDBRANCH   2   3
ENDBRANCH   1   2
BRANCH   1  34
ATOM     34  C   UNL A   1      34.752  32.521  29.776  1.00  0.00     0.275 C 
BRANCH  34  35
ATOM     35  O   UNL A   1      36.170  32.340  29.935  1.00  0.00    -0.458 OA
BRANCH  35  36
ATOM     36  C   UNL A   1      36.548  31.397  30.828  1.00  0.00     0.338 C 
ATOM     37  O   UNL A   1      35.996  31.115  31.878  1.00  0.00    -0.246 OA
BRANCH  36  38
ATOM     38  C   UNL A   1      37.767  30.711  30.357  1.00  0.00     0.060 A 
ATOM     39  C   UNL A   1      38.483  29.891  31.223  1.00  0.00     0.016 A 
ATOM     40  C   UNL A   1      38.277  30.990  29.091  1.00  0.00     0.016 A 
ATOM     41  C   UNL A   1      39.768  29.463  30.886  1.00  0.00     0.010 A 
ATOM     42  C   UNL A   1      39.508  30.446  28.703  1.00  0.00     0.010 A 
ATOM     43  C   UNL A   1      40.295  29.715  29.612  1.00  0.00    -0.014 A 
BRANCH  43  44
ATOM     44  C   UNL A   1      41.666  29.247  29.236  1.00  0.00     0.031 A 
ATOM     45  C   UNL A   1      42.841  30.195  29.305  1.00  0.00     0.074 A 
ATOM     46  C   UNL A   1      41.876  27.977  28.829  1.00  0.00     0.049 A 
ATOM     47  N   UNL A   1      44.049  30.056  28.818  1.00  0.00    -0.248 NA
ATOM     48  C   UNL A   1      42.623  31.477  29.993  1.00  0.00     0.031 C 
ATOM     49  C   UNL A   1      40.856  26.929  28.746  1.00  0.00     0.029 A 
ATOM     50  N   UNL A   1      43.023  27.346  28.410  1.00  0.00    -0.354 N 
ATOM     51  C   UNL A   1      44.708  31.255  29.077  1.00  0.00     0.074 A 
ATOM     52  C   UNL A   1      43.766  32.110  29.768  1.00  0.00     0.031 C 
ATOM     53  C   UNL A   1      41.427  25.782  28.352  1.00  0.00     0.029 A 
ATOM     54  C   UNL A   1      42.831  26.031  28.051  1.00  0.00     0.049 A 
ATOM     55  H   UNL A   1      43.900  27.792  28.369  1.00  0.00     0.167 HD
ATOM     56  C   UNL A   1      45.978  31.610  28.765  1.00  0.00     0.037 A 
ATOM     57  C   UNL A   1      43.667  25.134  27.493  1.00  0.00     0.037 A 
ATOM     58  C   UNL A   1      46.936  30.731  28.143  1.00  0.00     0.049 A 
ATOM     59  C   UNL A   1      45.067  25.551  27.145  1.00  0.00     0.074 A 
ATOM     60  C   UNL A   1      48.255  30.991  27.810  1.00  0.00     0.029 A 
ATOM     61  N   UNL A   1      46.686  29.416  27.780  1.00  0.00    -0.354 N 
ATOM     62  N   UNL A   1      45.651  26.710  27.332  1.00  0.00    -0.248 NA
ATOM     63  C   UNL A   1      45.914  24.548  26.483  1.00  0.00     0.031 C 
ATOM     64  C   UNL A   1      48.794  29.842  27.220  1.00  0.00     0.029 A 
ATOM     65  C   UNL A   1      47.822  28.855  27.219  1.00  0.00     0.049 A 
ATOM     66  H   UNL A   1      45.828  28.950  27.903  1.00  0.00     0.167 HD
ATOM     67  C   UNL A   1      46.933  26.577  26.813  1.00  0.00     0.074 A 
ATOM     68  C   UNL A   1      47.048  25.217  26.325  1.00  0.00     0.031 C 
ATOM     69  C   UNL A   1      47.921  27.501  26.738  1.00  0.00     0.037 A 
BRANCH  56  70
ATOM     70  C   UNL A   1      46.405  33.022  29.062  1.00  0.00     0.058 A 
ATOM     71  C   UNL A   1      46.241  34.063  28.135  1.00  0.00     0.135 A 
ATOM     72  C   UNL A   1      46.950  33.344  30.317  1.00  0.00     0.135 A 
ATOM     73  F   UNL A   1      45.737  33.810  26.917  1.00  0.00    -0.206 F 
ATOM     74  C   UNL A   1      46.629  35.367  28.431  1.00  0.00     0.059 A 
ATOM     75  C   UNL A   1      47.322  34.646  30.642  1.00  0.00     0.059 A 
ATOM     76  F   UNL A   1      47.124  32.389  31.242  1.00  0.00    -0.206 F 
ATOM     77  C   UNL A   1      47.172  35.649  29.686  1.00  0.00     0.060 A 
BRANCH  77  78
ATOM     78  S   UNL A   1      47.667  37.345  30.056  1.00  0.00     0.124 S 
ATOM     79  O   UNL A   1      47.629  37.954  28.731  1.00  0.00    -0.237 OA
ATOM     80  O   UNL A   1      46.627  37.781  30.982  1.00  0.00    -0.237 OA
ATOM     81  O   UNL A   1      48.997  37.191  30.639  1.00  0.00    -0.744 OA
ENDBRANCH  77  78
ENDBRANCH  56  70
BRANCH  57  82
ATOM     82  C   UNL A   1      43.178  23.765  27.180  1.00  0.00     0.058 A 
ATOM     83  C   UNL A   1      42.745  23.430  25.889  1.00  0.00     0.135 A 
ATOM     84  C   UNL A   1      43.165  22.757  28.156  1.00  0.00     0.135 A 
ATOM     85  F   UNL A   1      42.725  24.364  24.925  1.00  0.00    -0.206 F 
ATOM     86  C   UNL A   1      42.315  22.144  25.576  1.00  0.00     0.059 A 
ATOM     87  C   UNL A   1      42.767  21.457  27.861  1.00  0.00     0.059 A 
ATOM     88  F   UNL A   1      43.580  23.024  29.404  1.00  0.00    -0.206 F 
ATOM     89  C   UNL A   1      42.336  21.163  26.568  1.00  0.00     0.060 A 
BRANCH  89  90
ATOM     90  S   UNL A   1      41.843  19.478  26.140  1.00  0.00     0.124 S 
ATOM     91  O   UNL A   1      42.708  19.202  24.999  1.00  0.00    -0.237 OA
ATOM     92  O   UNL A   1      42.147  18.745  27.364  1.00  0.00    -0.237 OA
ATOM     93  O   UNL A   1      40.421  19.614  25.838  1.00  0.00    -0.744 OA
ENDBRANCH  89  90
ENDBRANCH  57  82
BRANCH  69  94
ATOM     94  C   UNL A   1      49.221  27.064  26.124  1.00  0.00     0.058 A 
ATOM     95  C   UNL A   1      49.486  27.254  24.759  1.00  0.00     0.135 A 
ATOM     96  C   UNL A   1      50.224  26.485  26.915  1.00  0.00     0.135 A 
ATOM     97  F   UNL A   1      48.553  27.796  23.959  1.00  0.00    -0.206 F 
ATOM     98  C   UNL A   1      50.695  26.864  24.194  1.00  0.00     0.059 A 
ATOM     99  C   UNL A   1      51.449  26.105  26.376  1.00  0.00     0.059 A 
ATOM    100  F   UNL A   1      50.021  26.289  28.228  1.00  0.00    -0.206 F 
ATOM    101  C   UNL A   1      51.670  26.288  25.011  1.00  0.00     0.060 A 
BRANCH 101 102
ATOM    102  S   UNL A   1      53.248  25.811  24.275  1.00  0.00     0.124 S 
ATOM    103  O   UNL A   1      53.382  24.434  24.738  1.00  0.00    -0.237 OA
ATOM    104  O   UNL A   1      52.994  25.977  22.847  1.00  0.00    -0.237 OA
ATOM    105  O   UNL A   1      54.192  26.763  24.851  1.00  0.00    -0.744 OA
ENDBRANCH 101 102
ENDBRANCH  69  94
ENDBRANCH  43  44
ENDBRANCH  36  38
ENDBRANCH  35  36
ENDBRANCH  34  35
ENDBRANCH   1  34
TORSDOF 19
ENDMDL
MODEL 2
REMARK VINA RESULT:     -11.8      5.494     13.247
REMARK SMILES COc1cccc([C@H]2CC(c3ccc(S(C)(=O)=O)cc3)=NN2c2ccc(C(=O)OCCOC(=O)c3ccc(-c4c5nc(c(-c6c(F)cc(S(=O)(=O)[O-])cc6F)c6ccc([nH]6)c(-c6c(F)cc(S(=O)(=O)[O-])cc6F)c6nc(c(-c7c(F)cc(S(=O)(=O)[O-])cc7F)c7ccc4[nH]7)C=C6)C=C5)cc3)cc2)c1
REMARK SMILES IDX 30 1 29 2 27 3 28 4 26 5 23 6 24 7 102 8 25 9 101 10 22 11
REMARK SMILES IDX 8 12 9 13 10 14 21 15 7 16 3 17 4 18 103 19 5 20 6 21 2 22
REMARK SMILES IDX 1 23 11 24 12 25 20 26 13 27 19 28 14 29 15 30 16 31 17 32
REMARK SMILES IDX 18 33 31 34 32 35 33 36 34 37 35 38 36 39 100 40 37 41 99 42
REMARK SMILES IDX 38 43 39 44 40 45 93 46 41 47 98 48 92 49 94 50 42 51 97 52
REMARK SMILES IDX 91 53 90 54 43 56 77 57 56 58 76 59 57 60 60 61 75 62 95 63
REMARK SMILES IDX 58 64 59 65 74 67 96 68 61 69 44 70 45 71 54 72 46 73 47 74
REMARK SMILES IDX 53 75 55 76 48 77 49 78 50 79 51 80 52 81 78 82 79 83 88 84
REMARK SMILES IDX 80 85 81 86 87 87 89 88 82 89 83 90 84 91 85 92 86 93 62 94
REMARK SMILES IDX 63 95 72 96 64 97 65 98 71 99 73 100 66 101 67 102 68 103
REMARK SMILES IDX 69 104 70 105
REMARK H PARENT 94 55 60 66
REMARK Flexibility Score: inf
ROOT
ATOM      1  C   UNL A   1      42.194  20.771  26.287  1.00  0.00     0.275 C 
ENDROOT
BRANCH   1   2
ATOM      2  O   UNL A   1      42.993  21.951  26.512  1.00  0.00    -0.458 OA
BRANCH   2   3
ATOM      3  C   UNL A   1      43.618  22.437  25.411  1.00  0.00     0.338 C 
ATOM      4  O   UNL A   1      43.685  21.902  24.315  1.00  0.00    -0.246 OA
BRANCH   3   5
ATOM      5  C   UNL A   1      44.185  23.774  25.677  1.00  0.00     0.060 A 
ATOM      6  C   UNL A   1      45.167  26.304  26.424  1.00  0.00     0.060 A 
ATOM      7  C   UNL A   1      45.729  25.137  26.945  1.00  0.00     0.029 A 
ATOM      8  C   UNL A   1      44.128  26.181  25.488  1.00  0.00     0.029 A 
ATOM      9  C   UNL A   1      45.216  23.889  26.611  1.00  0.00     0.018 A 
ATOM     10  C   UNL A   1      43.652  24.922  25.092  1.00  0.00     0.018 A 
BRANCH   6  11
ATOM     11  N   UNL A   1      45.614  27.539  26.873  1.00  0.00    -0.257 N 
ATOM     12  C   UNL A   1      47.026  27.893  27.020  1.00  0.00     0.144 C 
ATOM     13  C   UNL A   1      46.971  29.406  27.274  1.00  0.00     0.091 C 
ATOM     14  C   UNL A   1      45.491  29.642  27.164  1.00  0.00     0.071 C 
ATOM     15  N   UNL A   1      44.764  28.598  26.926  1.00  0.00    -0.176 NA
BRANCH  12  16
ATOM     16  C   UNL A   1      47.870  27.516  25.808  1.00  0.00    -0.019 A 
ATOM     17  C   UNL A   1      48.195  27.285  23.399  1.00  0.00     0.119 A 
ATOM     18  C   UNL A   1      49.472  26.772  23.627  1.00  0.00     0.046 A 
ATOM     19  C   UNL A   1      47.389  27.633  24.487  1.00  0.00     0.052 A 
ATOM     20  C   UNL A   1      49.957  26.628  24.925  1.00  0.00     0.004 A 
ATOM     21  C   UNL A   1      49.162  27.001  26.008  1.00  0.00     0.006 A 
BRANCH  17  22
ATOM     22  O   UNL A   1      47.850  27.374  22.080  1.00  0.00    -0.497 OA
ATOM     23  C   UNL A   1      47.534  28.668  21.583  1.00  0.00     0.278 C 
ENDBRANCH  17  22
ENDBRANCH  12  16
BRANCH  14  24
ATOM     24  C   UNL A   1      44.920  30.971  27.414  1.00  0.00    -0.002 A 
ATOM     25  C   UNL A   1      44.141  31.146  28.563  1.00  0.00     0.011 A 
ATOM     26  C   UNL A   1      45.191  32.044  26.562  1.00  0.00     0.011 A 
ATOM     27  C   UNL A   1      43.665  32.415  28.891  1.00  0.00     0.021 A 
ATOM     28  C   UNL A   1      44.692  33.312  26.873  1.00  0.00     0.021 A 
ATOM     29  C   UNL A   1      43.943  33.492  28.043  1.00  0.00     0.067 A 
BRANCH  29  30
ATOM     30  S   UNL A   1      43.397  35.118  28.513  1.00  0.00     0.175 S 
ATOM     31  C   UNL A   1      42.199  35.558  27.281  1.00  0.00     0.163 C 
ATOM     32  O   UNL A   1      42.718  34.971  29.786  1.00  0.00    -0.224 OA
ATOM     33  O   UNL A   1      44.529  36.015  28.380  1.00  0.00    -0.224 OA
ENDBRANCH  29  30
ENDBRANCH  14  24
ENDBRANCH   6  11
ENDBRANCH   3   5
ENDBRANCH   2   3
ENDBRANCH   1   2
BRANCH   1  34
ATOM     34  C   UNL A   1      40.706  21.058  26.492  1.00  0.00     0.275 C 
BRANCH  34  35
ATOM     35  O   UNL A   1      40.331  22.244  25.769  1.00  0.00    -0.458 OA
BRANCH  35  36
ATOM     36  C   UNL A   1      39.140  22.789  26.106  1.00  0.00     0.338 C 
ATOM     37  O   UNL A   1      38.034  22.308  25.924  1.00  0.00    -0.246 OA
BRANCH  36  38
ATOM     38  C   UNL A   1      39.345  24.098  26.754  1.00  0.00     0.060 A 
ATOM     39  C   UNL A   1      40.085  25.085  26.112  1.00  0.00     0.016 A 
ATOM     40  C   UNL A   1      38.914  24.300  28.064  1.00  0.00     0.016 A 
ATOM     41  C   UNL A   1      40.517  26.210  26.816  1.00  0.00     0.010 A 
ATOM     42  C   UNL A   1      39.234  25.493  28.724  1.00  0.00     0.010 A 
ATOM     43  C   UNL A   1      40.082  26.445  28.128  1.00  0.00    -0.014 A 
BRANCH  43  44
ATOM     44  C   UNL A   1      40.528  27.656  28.885  1.00  0.00     0.031 A 
ATOM     45  C   UNL A   1      41.897  27.695  29.525  1.00  0.00     0.074 A 
ATOM     46  C   UNL A   1      39.719  28.730  29.011  1.00  0.00     0.049 A 
ATOM     47  N   UNL A   1      42.381  28.543  30.398  1.00  0.00    -0.248 NA
ATOM     48  C   UNL A   1      42.838  26.627  29.149  1.00  0.00     0.031 C 
ATOM     49  C   UNL A   1      38.385  28.866  28.419  1.00  0.00     0.029 A 
ATOM     50  N   UNL A   1      39.901  29.918  29.677  1.00  0.00    -0.354 N 
ATOM     51  C   UNL A   1      43.649  28.072  30.728  1.00  0.00     0.074 A 
ATOM     52  C   UNL A   1      43.861  26.865  29.958  1.00  0.00     0.031 C 
ATOM     53  C   UNL A   1      37.892  30.079  28.708  1.00  0.00     0.029 A 
ATOM     54  C   UNL A   1      38.823  30.771  29.590  1.00  0.00     0.049 A 
ATOM     55  H   UNL A   1      40.723  30.140  30.171  1.00  0.00     0.167 HD
ATOM     56  C   UNL A   1      44.550  28.596  31.594  1.00  0.00     0.037 A 
ATOM     57  C   UNL A   1      38.578  31.952  30.190  1.00  0.00     0.037 A 
ATOM     58  C   UNL A   1      44.366  29.838  32.303  1.00  0.00     0.049 A 
ATOM     59  C   UNL A   1      39.584  32.510  31.155  1.00  0.00     0.074 A 
ATOM     60  C   UNL A   1      45.232  30.463  33.184  1.00  0.00     0.029 A 
ATOM     61  N   UNL A   1      43.249  30.652  32.197  1.00  0.00    -0.354 N 
ATOM     62  N   UNL A   1      40.747  32.016  31.509  1.00  0.00    -0.248 NA
ATOM     63  C   UNL A   1      39.235  33.771  31.824  1.00  0.00     0.031 C 
ATOM     64  C   UNL A   1      44.627  31.644  33.631  1.00  0.00     0.029 A 
ATOM     65  C   UNL A   1      43.399  31.770  33.002  1.00  0.00     0.049 A 
ATOM     66  H   UNL A   1      42.464  30.464  31.633  1.00  0.00     0.167 HD
ATOM     67  C   UNL A   1      41.267  32.905  32.442  1.00  0.00     0.074 A 
ATOM     68  C   UNL A   1      40.305  33.979  32.579  1.00  0.00     0.031 C 
ATOM     69  C   UNL A   1      42.433  32.831  33.129  1.00  0.00     0.037 A 
BRANCH  56  70
ATOM     70  C   UNL A   1      45.811  27.816  31.852  1.00  0.00     0.058 A 
ATOM     71  C   UNL A   1      45.849  26.731  32.742  1.00  0.00     0.135 A 
ATOM     72  C   UNL A   1      46.992  28.138  31.162  1.00  0.00     0.135 A 
ATOM     73  F   UNL A   1      44.754  26.388  33.437  1.00  0.00    -0.206 F 
ATOM     74  C   UNL A   1      47.021  26.012  32.959  1.00  0.00     0.059 A 
ATOM     75  C   UNL A   1      48.168  27.416  31.346  1.00  0.00     0.059 A 
ATOM     76  F   UNL A   1      47.010  29.163  30.296  1.00  0.00    -0.206 F 
ATOM     77  C   UNL A   1      48.177  26.363  32.259  1.00  0.00     0.060 A 
BRANCH  77  78
ATOM     78  S   UNL A   1      49.688  25.418  32.549  1.00  0.00     0.124 S 
ATOM     79  O   UNL A   1      50.498  26.386  33.282  1.00  0.00    -0.237 OA
ATOM     80  O   UNL A   1      49.204  24.282  33.326  1.00  0.00    -0.237 OA
ATOM     81  O   UNL A   1      50.153  25.101  31.202  1.00  0.00    -0.744 OA
ENDBRANCH  77  78
ENDBRANCH  56  70
BRANCH  57  82
ATOM     82  C   UNL A   1      37.294  32.658  29.933  1.00  0.00     0.058 A 
ATOM     83  C   UNL A   1      36.143  32.357  30.674  1.00  0.00     0.135 A 
ATOM     84  C   UNL A   1      37.203  33.669  28.964  1.00  0.00     0.135 A 
ATOM     85  F   UNL A   1      36.176  31.388  31.601  1.00  0.00    -0.206 F 
ATOM     86  C   UNL A   1      34.945  33.033  30.464  1.00  0.00     0.059 A 
ATOM     87  C   UNL A   1      36.025  34.379  28.754  1.00  0.00     0.059 A 
ATOM     88  F   UNL A   1      38.280  34.002  28.235  1.00  0.00    -0.206 F 
ATOM     89  C   UNL A   1      34.898  34.046  29.506  1.00  0.00     0.060 A 
BRANCH  89  90
ATOM     90  S   UNL A   1      33.360  34.968  29.285  1.00  0.00     0.124 S 
ATOM     91  O   UNL A   1      32.825  34.974  30.641  1.00  0.00    -0.237 OA
ATOM     92  O   UNL A   1      33.836  36.251  28.780  1.00  0.00    -0.237 OA
ATOM     93  O   UNL A   1      32.623  34.159  28.318  1.00  0.00    -0.744 OA
ENDBRANCH  89  90
ENDBRANCH  57  82
BRANCH  69  94
ATOM     94  C   UNL A   1      42.741  33.955  34.076  1.00  0.00     0.058 A 
ATOM     95  C   UNL A   1      42.189  33.997  35.366  1.00  0.00     0.135 A 
ATOM     96  C   UNL A   1      43.624  34.980  33.703  1.00  0.00     0.135 A 
ATOM     97  F   UNL A   1      41.332  33.044  35.765  1.00  0.00    -0.206 F 
ATOM     98  C   UNL A   1      42.487  35.030  36.248  1.00  0.00     0.059 A 
ATOM     99  C   UNL A   1      43.952  36.012  34.576  1.00  0.00     0.059 A 
ATOM    100  F   UNL A   1      44.183  34.981  32.483  1.00  0.00    -0.206 F 
ATOM    101  C   UNL A   1      43.369  36.035  35.844  1.00  0.00     0.060 A 
BRANCH 101 102
ATOM    102  S   UNL A   1      43.771  37.357  37.005  1.00  0.00     0.124 S 
ATOM    103  O   UNL A   1      45.071  36.921  37.506  1.00  0.00    -0.237 OA
ATOM    104  O   UNL A   1      43.786  38.537  36.147  1.00  0.00    -0.237 OA
ATOM    105  O   UNL A   1      42.676  37.305  37.969  1.00  0.00    -0.744 OA
ENDBRANCH 101 102
ENDBRANCH  69  94
ENDBRANCH  43  44
ENDBRANCH  36  38
ENDBRANCH  35  36
ENDBRANCH  34  35
ENDBRANCH   1  34
TORSDOF 19
ENDMDL
MODEL 3
REMARK VINA RESULT:     -11.6      5.868      7.891
REMARK SMILES COc1cccc([C@H]2CC(c3ccc(S(C)(=O)=O)cc3)=NN2c2ccc(C(=O)OCCOC(=O)c3ccc(-c4c5nc(c(-c6c(F)cc(S(=O)(=O)[O-])cc6F)c6ccc([nH]6)c(-c6c(F)cc(S(=O)(=O)[O-])cc6F)c6nc(c(-c7c(F)cc(S(=O)(=O)[O-])cc7F)c7ccc4[nH]7)C=C6)C=C5)cc3)cc2)c1
REMARK SMILES IDX 30 1 29 2 27 3 28 4 26 5 23 6 24 7 102 8 25 9 101 10 22 11
REMARK SMILES IDX 8 12 9 13 10 14 21 15 7 16 3 17 4 18 103 19 5 20 6 21 2 22
REMARK SMILES IDX 1 23 11 24 12 25 20 26 13 27 19 28 14 29 15 30 16 31 17 32
REMARK SMILES IDX 18 33 31 34 32 35 33 36 34 37 35 38 36 39 100 40 37 41 99 42
REMARK SMILES IDX 38 43 39 44 40 45 93 46 41 47 98 48 92 49 94 50 42 51 97 52
REMARK SMILES IDX 91 53 90 54 43 56 77 57 56 58 76 59 57 60 60 61 75 62 95 63
REMARK SMILES IDX 58 64 59 65 74 67 96 68 61 69 44 70 45 71 54 72 46 73 47 74
REMARK SMILES IDX 53 75 55 76 48 77 49 78 50 79 51 80 52 81 78 82 79 83 88 84
REMARK SMILES IDX 80 85 81 86 87 87 89 88 82 89 83 90 84 91 85 92 86 93 62 94
REMARK SMILES IDX 63 95 72 96 64 97 65 98 71 99 73 100 66 101 67 102 68 103
REMARK SMILES IDX 69 104 70 105
REMARK H PARENT 94 55 60 66
REMARK Flexibility Score: inf
ROOT
ATOM      1  C   UNL A   1      34.014  33.371  28.523  1.00  0.00     0.275 C 
ENDROOT
BRANCH   1   2
ATOM      2  O   UNL A   1      33.571  32.209  27.792  1.00  0.00    -0.458 OA
BRANCH   2   3
ATOM      3  C   UNL A   1      34.416  31.149  27.835  1.00  0.00     0.338 C 
ATOM      4  O   UNL A   1      35.510  31.111  28.378  1.00  0.00    -0.246 OA
BRANCH   3   5
ATOM      5  C   UNL A   1      33.817  29.972  27.175  1.00  0.00     0.060 A 
ATOM      6  C   UNL A   1      32.628  27.633  26.155  1.00  0.00     0.060 A 
ATOM      7  C   UNL A   1      31.855  28.614  26.777  1.00  0.00     0.029 A 
ATOM      8  C   UNL A   1      34.006  27.862  26.015  1.00  0.00     0.029 A 
ATOM      9  C   UNL A   1      32.447  29.750  27.321  1.00  0.00     0.018 A 
ATOM     10  C   UNL A   1      34.601  29.037  26.499  1.00  0.00     0.018 A 
BRANCH   6  11
ATOM     11  N   UNL A   1      32.030  26.453  25.736  1.00  0.00    -0.257 N 
ATOM     12  C   UNL A   1      30.691  26.379  25.152  1.00  0.00     0.144 C 
ATOM     13  C   UNL A   1      30.629  24.936  24.631  1.00  0.00     0.091 C 
ATOM     14  C   UNL A   1      32.012  24.466  24.979  1.00  0.00     0.071 C 
ATOM     15  N   UNL A   1      32.773  25.327  25.575  1.00  0.00    -0.176 NA
BRANCH  12  16
ATOM     16  C   UNL A   1      30.448  27.422  24.068  1.00  0.00    -0.019 A 
ATOM     17  C   UNL A   1      29.001  28.974  22.860  1.00  0.00     0.119 A 
ATOM     18  C   UNL A   1      30.069  29.315  22.031  1.00  0.00     0.046 A 
ATOM     19  C   UNL A   1      29.184  28.013  23.859  1.00  0.00     0.052 A 
ATOM     20  C   UNL A   1      31.319  28.725  22.206  1.00  0.00     0.004 A 
ATOM     21  C   UNL A   1      31.508  27.788  23.220  1.00  0.00     0.006 A 
BRANCH  17  22
ATOM     22  O   UNL A   1      27.836  29.630  22.578  1.00  0.00    -0.497 OA
ATOM     23  C   UNL A   1      27.669  30.921  23.147  1.00  0.00     0.278 C 
ENDBRANCH  17  22
ENDBRANCH  12  16
BRANCH  14  24
ATOM     24  C   UNL A   1      32.419  23.077  24.737  1.00  0.00    -0.002 A 
ATOM     25  C   UNL A   1      33.361  22.507  25.601  1.00  0.00     0.011 A 
ATOM     26  C   UNL A   1      31.843  22.325  23.710  1.00  0.00     0.011 A 
ATOM     27  C   UNL A   1      33.698  21.161  25.469  1.00  0.00     0.021 A 
ATOM     28  C   UNL A   1      32.200  20.982  23.558  1.00  0.00     0.021 A 
ATOM     29  C   UNL A   1      33.116  20.405  24.446  1.00  0.00     0.067 A 
BRANCH  29  30
ATOM     30  S   UNL A   1      33.495  18.671  24.337  1.00  0.00     0.175 S 
ATOM     31  C   UNL A   1      32.644  17.943  25.712  1.00  0.00     0.163 C 
ATOM     32  O   UNL A   1      32.884  18.194  23.111  1.00  0.00    -0.224 OA
ATOM     33  O   UNL A   1      34.920  18.519  24.559  1.00  0.00    -0.224 OA
ENDBRANCH  29  30
ENDBRANCH  14  24
ENDBRANCH   6  11
ENDBRANCH   3   5
ENDBRANCH   2   3
ENDBRANCH   1   2
BRANCH   1  34
ATOM     34  C   UNL A   1      32.905  34.419  28.628  1.00  0.00     0.275 C 
BRANCH  34  35
ATOM     35  O   UNL A   1      33.319  35.486  29.499  1.00  0.00    -0.458 OA
BRANCH  35  36
ATOM     36  C   UNL A   1      32.985  35.347  30.803  1.00  0.00     0.338 C 
ATOM     37  O   UNL A   1      31.939  35.684  31.334  1.00  0.00    -0.246 OA
BRANCH  36  38
ATOM     38  C   UNL A   1      34.087  34.706  31.545  1.00  0.00     0.060 A 
ATOM     39  C   UNL A   1      35.371  35.238  31.482  1.00  0.00     0.016 A 
ATOM     40  C   UNL A   1      33.872  33.495  32.200  1.00  0.00     0.016 A 
ATOM     41  C   UNL A   1      36.461  34.499  31.944  1.00  0.00     0.010 A 
ATOM     42  C   UNL A   1      34.953  32.820  32.783  1.00  0.00     0.010 A 
ATOM     43  C   UNL A   1      36.270  33.287  32.621  1.00  0.00    -0.014 A 
BRANCH  43  44
ATOM     44  C   UNL A   1      37.432  32.496  33.133  1.00  0.00     0.031 A 
ATOM     45  C   UNL A   1      38.019  32.796  34.493  1.00  0.00     0.074 A 
ATOM     46  C   UNL A   1      37.976  31.505  32.393  1.00  0.00     0.049 A 
ATOM     47  N   UNL A   1      39.147  32.387  35.019  1.00  0.00    -0.248 NA
ATOM     48  C   UNL A   1      37.247  33.692  35.369  1.00  0.00     0.031 C 
ATOM     49  C   UNL A   1      37.501  31.065  31.079  1.00  0.00     0.029 A 
ATOM     50  N   UNL A   1      39.049  30.683  32.642  1.00  0.00    -0.354 N 
ATOM     51  C   UNL A   1      39.252  33.029  36.250  1.00  0.00     0.074 A 
ATOM     52  C   UNL A   1      38.071  33.853  36.395  1.00  0.00     0.031 C 
ATOM     53  C   UNL A   1      38.244  30.031  30.661  1.00  0.00     0.029 A 
ATOM     54  C   UNL A   1      39.314  29.797  31.623  1.00  0.00     0.049 A 
ATOM     55  H   UNL A   1      39.579  30.725  33.470  1.00  0.00     0.167 HD
ATOM     56  C   UNL A   1      40.242  32.942  37.172  1.00  0.00     0.037 A 
ATOM     57  C   UNL A   1      40.328  28.928  31.446  1.00  0.00     0.037 A 
ATOM     58  C   UNL A   1      41.380  32.064  37.058  1.00  0.00     0.049 A 
ATOM     59  C   UNL A   1      41.421  28.855  32.473  1.00  0.00     0.074 A 
ATOM     60  C   UNL A   1      42.423  31.886  37.951  1.00  0.00     0.029 A 
ATOM     61  N   UNL A   1      41.613  31.202  35.997  1.00  0.00    -0.354 N 
ATOM     62  N   UNL A   1      41.541  29.521  33.597  1.00  0.00    -0.248 NA
ATOM     63  C   UNL A   1      42.532  27.933  32.196  1.00  0.00     0.031 C 
ATOM     64  C   UNL A   1      43.302  30.936  37.417  1.00  0.00     0.029 A 
ATOM     65  C   UNL A   1      42.787  30.497  36.208  1.00  0.00     0.049 A 
ATOM     66  H   UNL A   1      41.030  31.106  35.209  1.00  0.00     0.167 HD
ATOM     67  C   UNL A   1      42.739  29.099  34.161  1.00  0.00     0.074 A 
ATOM     68  C   UNL A   1      43.295  28.103  33.268  1.00  0.00     0.031 C 
ATOM     69  C   UNL A   1      43.328  29.509  35.311  1.00  0.00     0.037 A 
BRANCH  56  70
ATOM     70  C   UNL A   1      40.160  33.839  38.376  1.00  0.00     0.058 A 
ATOM     71  C   UNL A   1      40.857  35.056  38.450  1.00  0.00     0.135 A 
ATOM     72  C   UNL A   1      39.335  33.492  39.460  1.00  0.00     0.135 A 
ATOM     73  F   UNL A   1      41.669  35.431  37.450  1.00  0.00    -0.206 F 
ATOM     74  C   UNL A   1      40.761  35.881  39.567  1.00  0.00     0.059 A 
ATOM     75  C   UNL A   1      39.205  34.315  40.575  1.00  0.00     0.059 A 
ATOM     76  F   UNL A   1      38.643  32.343  39.440  1.00  0.00    -0.206 F 
ATOM     77  C   UNL A   1      39.935  35.501  40.626  1.00  0.00     0.060 A 
BRANCH  77  78
ATOM     78  S   UNL A   1      39.817  36.584  42.066  1.00  0.00     0.124 S 
ATOM     79  O   UNL A   1      38.876  35.849  42.905  1.00  0.00    -0.237 OA
ATOM     80  O   UNL A   1      41.195  36.622  42.545  1.00  0.00    -0.237 OA
ATOM     81  O   UNL A   1      39.316  37.837  41.509  1.00  0.00    -0.744 OA
ENDBRANCH  77  78
ENDBRANCH  56  70
BRANCH  57  82
ATOM     82  C   UNL A   1      40.382  28.097  30.213  1.00  0.00     0.058 A 
ATOM     83  C   UNL A   1      41.279  28.396  29.179  1.00  0.00     0.135 A 
ATOM     84  C   UNL A   1      39.560  26.970  30.062  1.00  0.00     0.135 A 
ATOM     85  F   UNL A   1      42.076  29.472  29.271  1.00  0.00    -0.206 F 
ATOM     86  C   UNL A   1      41.361  27.607  28.035  1.00  0.00     0.059 A 
ATOM     87  C   UNL A   1      39.642  26.149  28.941  1.00  0.00     0.059 A 
ATOM     88  F   UNL A   1      38.691  26.636  31.029  1.00  0.00    -0.206 F 
ATOM     89  C   UNL A   1      40.541  26.482  27.929  1.00  0.00     0.060 A 
BRANCH  89  90
ATOM     90  S   UNL A   1      40.699  25.422  26.475  1.00  0.00     0.124 S 
ATOM     91  O   UNL A   1      39.346  24.895  26.349  1.00  0.00    -0.237 OA
ATOM     92  O   UNL A   1      41.114  26.368  25.444  1.00  0.00    -0.237 OA
ATOM     93  O   UNL A   1      41.719  24.458  26.875  1.00  0.00    -0.744 OA
ENDBRANCH  89  90
ENDBRANCH  57  82
BRANCH  69  94
ATOM     94  C   UNL A   1      44.634  28.863  35.677  1.00  0.00     0.058 A 
ATOM     95  C   UNL A   1      45.861  29.417  35.282  1.00  0.00     0.135 A 
ATOM     96  C   UNL A   1      44.658  27.700  36.461  1.00  0.00     0.135 A 
ATOM     97  F   UNL A   1      45.889  30.525  34.524  1.00  0.00    -0.206 F 
ATOM     98  C   UNL A   1      47.070  28.828  35.635  1.00  0.00     0.059 A 
ATOM     99  C   UNL A   1      45.855  27.104  36.843  1.00  0.00     0.059 A 
ATOM    100  F   UNL A   1      43.511  27.135  36.870  1.00  0.00    -0.206 F 
ATOM    101  C   UNL A   1      47.057  27.670  36.415  1.00  0.00     0.060 A 
BRANCH 101 102
ATOM    102  S   UNL A   1      48.631  26.926  36.892  1.00  0.00     0.124 S 
ATOM    103  O   UNL A   1      49.283  26.764  35.597  1.00  0.00    -0.237 OA
ATOM    104  O   UNL A   1      49.207  27.942  37.769  1.00  0.00    -0.237 OA
ATOM    105  O   UNL A   1      48.234  25.688  37.556  1.00  0.00    -0.744 OA
ENDBRANCH 101 102
ENDBRANCH  69  94
ENDBRANCH  43  44
ENDBRANCH  36  38
ENDBRANCH  35  36
ENDBRANCH  34  35
ENDBRANCH   1  34
TORSDOF 19
ENDMDL
