MODEL 1
REMARK VINA RESULT:     -11.5      0.000      0.000
REMARK SMILES C[C@H](NC1=[NH+]S(=O)(=O)c2ccccc21)C(=O)OCCOC(=O)c1ccc(-c2c3nc(c(-c4c(F)cc(S(=O)(=O)[O-])cc4F)c4ccc([nH]4)c(-c4c(F)cc(S(=O)(=O)[O-])cc4F)c4nc(c(-c5c(F)cc(S(=O)(=O)[O-])cc5F)c5ccc2[nH]5)C=C4)C=C3)cc1
REMARK SMILES IDX 19 1 18 2 17 3 15 4 16 5 2 6 1 7 3 8 4 9 5 11 14 12 6 13
REMARK SMILES IDX 9 15 13 16 7 17 8 18 10 19 12 20 11 21 20 22 21 23 22 24
REMARK SMILES IDX 23 25 24 26 88 27 25 28 87 29 26 30 27 31 28 32 81 33 29 34
REMARK SMILES IDX 86 35 80 36 82 37 30 38 85 39 79 40 78 41 31 43 65 44 44 45
REMARK SMILES IDX 64 46 45 47 48 48 63 49 83 50 46 51 47 52 62 54 84 55 49 56
REMARK SMILES IDX 32 57 33 58 42 59 34 60 35 61 41 62 43 63 36 64 37 65 38 66
REMARK SMILES IDX 39 67 40 68 66 69 67 70 76 71 68 72 69 73 75 74 77 75 70 76
REMARK SMILES IDX 71 77 72 78 73 79 74 80 50 81 51 82 60 83 52 84 53 85 59 86
REMARK SMILES IDX 61 87 54 88 55 89 56 90 57 91 58 92
REMARK H PARENT 3 10 5 14 82 42 48 53
REMARK Flexibility Score: inf
ROOT
ATOM      1  C   UNL A   1      34.935  32.450  29.612  1.00  0.00     0.275 C 
ENDROOT
BRANCH   1   2
ATOM      2  C   UNL A   1      34.841  32.355  28.086  1.00  0.00     0.274 C 
BRANCH   2   3
ATOM      3  O   UNL A   1      33.649  31.654  27.682  1.00  0.00    -0.459 OA
BRANCH   3   4
ATOM      4  C   UNL A   1      33.810  30.356  27.292  1.00  0.00     0.350 C 
ATOM      5  O   UNL A   1      34.769  29.654  27.595  1.00  0.00    -0.247 OA
BRANCH   4   6
ATOM      6  C   UNL A   1      32.665  29.869  26.395  1.00  0.00     0.279 C 
ATOM      7  C   UNL A   1      32.110  28.564  26.943  1.00  0.00     0.071 C 
BRANCH   6   8
ATOM      8  N   UNL A   1      33.065  29.688  24.983  1.00  0.00    -0.260 N 
ATOM      9  C   UNL A   1      32.172  29.155  24.085  1.00  0.00     0.292 C 
ATOM     10  H   UNL A   1      33.967  29.947  24.687  1.00  0.00     0.306 HD
ATOM     11  N   UNL A   1      31.010  29.686  23.839  1.00  0.00    -0.162 N 
ATOM     12  C   UNL A   1      32.470  27.913  23.348  1.00  0.00     0.087 A 
ATOM     13  S   UNL A   1      30.184  28.814  22.723  1.00  0.00     0.329 S 
ATOM     14  H   UNL A   1      30.671  30.504  24.267  1.00  0.00     0.327 HD
ATOM     15  C   UNL A   1      31.401  27.586  22.537  1.00  0.00     0.124 A 
ATOM     16  C   UNL A   1      33.579  27.091  23.414  1.00  0.00     0.018 A 
ATOM     17  O   UNL A   1      30.113  29.530  21.471  1.00  0.00    -0.179 OA
ATOM     18  O   UNL A   1      29.038  28.178  23.339  1.00  0.00    -0.179 OA
ATOM     19  C   UNL A   1      31.351  26.444  21.766  1.00  0.00     0.025 A 
ATOM     20  C   UNL A   1      33.567  25.923  22.640  1.00  0.00     0.001 A 
ATOM     21  C   UNL A   1      32.461  25.601  21.825  1.00  0.00     0.002 A 
ENDBRANCH   6   8
ENDBRANCH   4   6
ENDBRANCH   3   4
ENDBRANCH   2   3
ENDBRANCH   1   2
BRANCH   1  22
ATOM     22  O   UNL A   1      36.271  32.205  30.087  1.00  0.00    -0.458 OA
BRANCH  22  23
ATOM     23  C   UNL A   1      36.498  30.938  30.518  1.00  0.00     0.338 C 
ATOM     24  O   UNL A   1      35.696  30.208  31.079  1.00  0.00    -0.246 OA
BRANCH  23  25
ATOM     25  C   UNL A   1      37.817  30.491  30.036  1.00  0.00     0.060 A 
ATOM     26  C   UNL A   1      38.800  30.239  30.993  1.00  0.00     0.016 A 
ATOM     27  C   UNL A   1      38.108  30.346  28.678  1.00  0.00     0.016 A 
ATOM     28  C   UNL A   1      40.081  29.858  30.611  1.00  0.00     0.010 A 
ATOM     29  C   UNL A   1      39.394  29.948  28.291  1.00  0.00     0.010 A 
ATOM     30  C   UNL A   1      40.388  29.704  29.255  1.00  0.00    -0.014 A 
BRANCH  30  31
ATOM     31  C   UNL A   1      41.754  29.278  28.868  1.00  0.00     0.031 A 
ATOM     32  C   UNL A   1      42.880  30.269  28.856  1.00  0.00     0.074 A 
ATOM     33  C   UNL A   1      41.980  27.986  28.561  1.00  0.00     0.049 A 
ATOM     34  N   UNL A   1      44.121  30.101  28.476  1.00  0.00    -0.248 NA
ATOM     35  C   UNL A   1      42.573  31.628  29.330  1.00  0.00     0.031 C 
ATOM     36  C   UNL A   1      40.970  26.925  28.583  1.00  0.00     0.029 A 
ATOM     37  N   UNL A   1      43.127  27.344  28.170  1.00  0.00    -0.354 N 
ATOM     38  C   UNL A   1      44.740  31.334  28.647  1.00  0.00     0.074 A 
ATOM     39  C   UNL A   1      43.735  32.244  29.156  1.00  0.00     0.031 C 
ATOM     40  C   UNL A   1      41.542  25.767  28.217  1.00  0.00     0.029 A 
ATOM     41  C   UNL A   1      42.945  26.010  27.895  1.00  0.00     0.049 A 
ATOM     42  H   UNL A   1      43.998  27.796  28.094  1.00  0.00     0.167 HD
ATOM     43  C   UNL A   1      46.029  31.668  28.403  1.00  0.00     0.037 A 
ATOM     44  C   UNL A   1      43.804  25.094  27.408  1.00  0.00     0.037 A 
ATOM     45  C   UNL A   1      47.029  30.746  27.926  1.00  0.00     0.049 A 
ATOM     46  C   UNL A   1      45.218  25.505  27.102  1.00  0.00     0.074 A 
ATOM     47  C   UNL A   1      48.370  30.984  27.678  1.00  0.00     0.029 A 
ATOM     48  N   UNL A   1      46.800  29.410  27.630  1.00  0.00    -0.354 N 
ATOM     49  N   UNL A   1      45.788  26.675  27.263  1.00  0.00    -0.248 NA
ATOM     50  C   UNL A   1      46.103  24.477  26.538  1.00  0.00     0.031 C 
ATOM     51  C   UNL A   1      48.943  29.804  27.196  1.00  0.00     0.029 A 
ATOM     52  C   UNL A   1      47.968  28.820  27.177  1.00  0.00     0.049 A 
ATOM     53  H   UNL A   1      45.935  28.952  27.727  1.00  0.00     0.167 HD
ATOM     54  C   UNL A   1      47.099  26.522  26.826  1.00  0.00     0.074 A 
ATOM     55  C   UNL A   1      47.244  25.142  26.414  1.00  0.00     0.031 C 
ATOM     56  C   UNL A   1      48.091  27.443  26.766  1.00  0.00     0.037 A 
BRANCH  43  57
ATOM     57  C   UNL A   1      46.436  33.096  28.619  1.00  0.00     0.058 A 
ATOM     58  C   UNL A   1      46.927  33.546  29.854  1.00  0.00     0.135 A 
ATOM     59  C   UNL A   1      46.400  34.011  27.554  1.00  0.00     0.135 A 
ATOM     60  F   UNL A   1      46.970  32.716  30.908  1.00  0.00    -0.206 F 
ATOM     61  C   UNL A   1      47.360  34.857  30.029  1.00  0.00     0.059 A 
ATOM     62  C   UNL A   1      46.845  35.321  27.701  1.00  0.00     0.059 A 
ATOM     63  F   UNL A   1      45.938  33.630  26.353  1.00  0.00    -0.206 F 
ATOM     64  C   UNL A   1      47.319  35.737  28.945  1.00  0.00     0.060 A 
BRANCH  64  65
ATOM     65  S   UNL A   1      47.918  37.426  29.172  1.00  0.00     0.124 S 
ATOM     66  O   UNL A   1      48.593  37.670  27.901  1.00  0.00    -0.237 OA
ATOM     67  O   UNL A   1      46.682  38.172  29.388  1.00  0.00    -0.237 OA
ATOM     68  O   UNL A   1      48.793  37.323  30.336  1.00  0.00    -0.744 OA
ENDBRANCH  64  65
ENDBRANCH  43  57
BRANCH  44  69
ATOM     69  C   UNL A   1      43.339  23.710  27.131  1.00  0.00     0.058 A 
ATOM     70  C   UNL A   1      42.997  23.302  25.834  1.00  0.00     0.135 A 
ATOM     71  C   UNL A   1      43.218  22.769  28.167  1.00  0.00     0.135 A 
ATOM     72  F   UNL A   1      43.085  24.168  24.813  1.00  0.00    -0.206 F 
ATOM     73  C   UNL A   1      42.534  22.016  25.574  1.00  0.00     0.059 A 
ATOM     74  C   UNL A   1      42.780  21.471  27.928  1.00  0.00     0.059 A 
ATOM     75  F   UNL A   1      43.544  23.107  29.423  1.00  0.00    -0.206 F 
ATOM     76  C   UNL A   1      42.426  21.108  26.629  1.00  0.00     0.060 A 
BRANCH  76  77
ATOM     77  S   UNL A   1      41.856  19.429  26.285  1.00  0.00     0.124 S 
ATOM     78  O   UNL A   1      42.290  18.722  27.485  1.00  0.00    -0.237 OA
ATOM     79  O   UNL A   1      40.416  19.612  26.139  1.00  0.00    -0.237 OA
ATOM     80  O   UNL A   1      42.564  19.082  25.056  1.00  0.00    -0.744 OA
ENDBRANCH  76  77
ENDBRANCH  44  69
BRANCH  56  81
ATOM     81  C   UNL A   1      49.421  26.984  26.241  1.00  0.00     0.058 A 
ATOM     82  C   UNL A   1      50.359  26.359  27.077  1.00  0.00     0.135 A 
ATOM     83  C   UNL A   1      49.745  27.133  24.883  1.00  0.00     0.135 A 
ATOM     84  F   UNL A   1      50.098  26.200  28.384  1.00  0.00    -0.206 F 
ATOM     85  C   UNL A   1      51.582  25.913  26.588  1.00  0.00     0.059 A 
ATOM     86  C   UNL A   1      50.955  26.676  24.369  1.00  0.00     0.059 A 
ATOM     87  F   UNL A   1      48.878  27.719  24.042  1.00  0.00    -0.206 F 
ATOM     88  C   UNL A   1      51.872  26.077  25.232  1.00  0.00     0.060 A 
BRANCH  88  89
ATOM     89  S   UNL A   1      53.450  25.469  24.601  1.00  0.00     0.124 S 
ATOM     90  O   UNL A   1      53.282  25.653  23.163  1.00  0.00    -0.237 OA
ATOM     91  O   UNL A   1      54.412  26.356  25.246  1.00  0.00    -0.237 OA
ATOM     92  O   UNL A   1      53.484  24.082  25.057  1.00  0.00    -0.744 OA
ENDBRANCH  88  89
ENDBRANCH  56  81
ENDBRANCH  30  31
ENDBRANCH  23  25
ENDBRANCH  22  23
ENDBRANCH   1  22
TORSDOF 15
ENDMDL
MODEL 2
REMARK VINA RESULT:     -11.4      6.850     12.379
REMARK SMILES C[C@H](NC1=[NH+]S(=O)(=O)c2ccccc21)C(=O)OCCOC(=O)c1ccc(-c2c3nc(c(-c4c(F)cc(S(=O)(=O)[O-])cc4F)c4ccc([nH]4)c(-c4c(F)cc(S(=O)(=O)[O-])cc4F)c4nc(c(-c5c(F)cc(S(=O)(=O)[O-])cc5F)c5ccc2[nH]5)C=C4)C=C3)cc1
REMARK SMILES IDX 19 1 18 2 17 3 15 4 16 5 2 6 1 7 3 8 4 9 5 11 14 12 6 13
REMARK SMILES IDX 9 15 13 16 7 17 8 18 10 19 12 20 11 21 20 22 21 23 22 24
REMARK SMILES IDX 23 25 24 26 88 27 25 28 87 29 26 30 27 31 28 32 81 33 29 34
REMARK SMILES IDX 86 35 80 36 82 37 30 38 85 39 79 40 78 41 31 43 65 44 44 45
REMARK SMILES IDX 64 46 45 47 48 48 63 49 83 50 46 51 47 52 62 54 84 55 49 56
REMARK SMILES IDX 32 57 33 58 42 59 34 60 35 61 41 62 43 63 36 64 37 65 38 66
REMARK SMILES IDX 39 67 40 68 66 69 67 70 76 71 68 72 69 73 75 74 77 75 70 76
REMARK SMILES IDX 71 77 72 78 73 79 74 80 50 81 51 82 60 83 52 84 53 85 59 86
REMARK SMILES IDX 61 87 54 88 55 89 56 90 57 91 58 92
REMARK H PARENT 3 10 5 14 82 42 48 53
REMARK Flexibility Score: inf
ROOT
ATOM      1  C   UNL A   1      41.456  22.399  26.435  1.00  0.00     0.275 C 
ENDROOT
BRANCH   1   2
ATOM      2  C   UNL A   1      40.378  21.325  26.253  1.00  0.00     0.274 C 
BRANCH   2   3
ATOM      3  O   UNL A   1      39.077  21.919  26.079  1.00  0.00    -0.459 OA
BRANCH   3   4
ATOM      4  C   UNL A   1      38.141  21.157  25.443  1.00  0.00     0.350 C 
ATOM      5  O   UNL A   1      38.311  19.991  25.101  1.00  0.00    -0.247 OA
BRANCH   4   6
ATOM      6  C   UNL A   1      36.844  21.930  25.170  1.00  0.00     0.279 C 
ATOM      7  C   UNL A   1      37.148  23.417  25.083  1.00  0.00     0.071 C 
BRANCH   6   8
ATOM      8  N   UNL A   1      35.797  21.692  26.187  1.00  0.00    -0.260 N 
ATOM      9  C   UNL A   1      34.543  21.290  25.792  1.00  0.00     0.292 C 
ATOM     10  H   UNL A   1      35.996  21.822  27.141  1.00  0.00     0.306 HD
ATOM     11  N   UNL A   1      34.328  20.206  25.107  1.00  0.00    -0.162 N 
ATOM     12  C   UNL A   1      33.345  22.090  26.105  1.00  0.00     0.087 A 
ATOM     13  S   UNL A   1      32.731  20.008  24.795  1.00  0.00     0.329 S 
ATOM     14  H   UNL A   1      35.033  19.585  24.814  1.00  0.00     0.327 HD
ATOM     15  C   UNL A   1      32.227  21.478  25.574  1.00  0.00     0.124 A 
ATOM     16  C   UNL A   1      33.237  23.298  26.767  1.00  0.00     0.018 A 
ATOM     17  O   UNL A   1      32.195  18.914  25.570  1.00  0.00    -0.179 OA
ATOM     18  O   UNL A   1      32.477  20.175  23.379  1.00  0.00    -0.179 OA
ATOM     19  C   UNL A   1      30.958  22.014  25.647  1.00  0.00     0.025 A 
ATOM     20  C   UNL A   1      31.963  23.871  26.867  1.00  0.00     0.001 A 
ATOM     21  C   UNL A   1      30.833  23.237  26.308  1.00  0.00     0.002 A 
ENDBRANCH   6   8
ENDBRANCH   4   6
ENDBRANCH   3   4
ENDBRANCH   2   3
ENDBRANCH   1   2
BRANCH   1  22
ATOM     22  O   UNL A   1      40.887  23.703  26.654  1.00  0.00    -0.458 OA
BRANCH  22  23
ATOM     23  C   UNL A   1      41.716  24.740  26.377  1.00  0.00     0.338 C 
ATOM     24  O   UNL A   1      42.323  24.924  25.333  1.00  0.00    -0.246 OA
BRANCH  23  25
ATOM     25  C   UNL A   1      41.634  25.732  27.464  1.00  0.00     0.060 A 
ATOM     26  C   UNL A   1      40.587  25.601  28.376  1.00  0.00     0.016 A 
ATOM     27  C   UNL A   1      42.538  26.789  27.582  1.00  0.00     0.016 A 
ATOM     28  C   UNL A   1      40.418  26.526  29.399  1.00  0.00     0.010 A 
ATOM     29  C   UNL A   1      42.380  27.714  28.622  1.00  0.00     0.010 A 
ATOM     30  C   UNL A   1      41.318  27.589  29.535  1.00  0.00    -0.014 A 
BRANCH  30  31
ATOM     31  C   UNL A   1      41.133  28.553  30.645  1.00  0.00     0.031 A 
ATOM     32  C   UNL A   1      42.017  28.490  31.856  1.00  0.00     0.074 A 
ATOM     33  C   UNL A   1      40.190  29.508  30.540  1.00  0.00     0.049 A 
ATOM     34  N   UNL A   1      41.959  29.198  32.955  1.00  0.00    -0.248 NA
ATOM     35  C   UNL A   1      43.106  27.501  31.833  1.00  0.00     0.031 C 
ATOM     36  C   UNL A   1      39.303  29.693  29.388  1.00  0.00     0.029 A 
ATOM     37  N   UNL A   1      39.815  30.500  31.410  1.00  0.00    -0.354 N 
ATOM     38  C   UNL A   1      42.990  28.730  33.762  1.00  0.00     0.074 A 
ATOM     39  C   UNL A   1      43.651  27.671  33.030  1.00  0.00     0.031 C 
ATOM     40  C   UNL A   1      38.486  30.732  29.626  1.00  0.00     0.029 A 
ATOM     41  C   UNL A   1      38.761  31.258  30.960  1.00  0.00     0.049 A 
ATOM     42  H   UNL A   1      40.260  30.654  32.274  1.00  0.00     0.167 HD
ATOM     43  C   UNL A   1      43.347  29.152  34.998  1.00  0.00     0.037 A 
ATOM     44  C   UNL A   1      38.073  32.245  31.566  1.00  0.00     0.037 A 
ATOM     45  C   UNL A   1      42.702  30.230  35.705  1.00  0.00     0.049 A 
ATOM     46  C   UNL A   1      38.464  32.662  32.958  1.00  0.00     0.074 A 
ATOM     47  C   UNL A   1      43.014  30.750  36.949  1.00  0.00     0.029 A 
ATOM     48  N   UNL A   1      41.618  30.954  35.230  1.00  0.00    -0.354 N 
ATOM     49  N   UNL A   1      39.437  32.207  33.711  1.00  0.00    -0.248 NA
ATOM     50  C   UNL A   1      37.658  33.716  33.588  1.00  0.00     0.031 C 
ATOM     51  C   UNL A   1      42.096  31.763  37.243  1.00  0.00     0.029 A 
ATOM     52  C   UNL A   1      41.234  31.898  36.167  1.00  0.00     0.049 A 
ATOM     53  H   UNL A   1      41.187  30.815  34.356  1.00  0.00     0.167 HD
ATOM     54  C   UNL A   1      39.364  32.924  34.899  1.00  0.00     0.074 A 
ATOM     55  C   UNL A   1      38.265  33.857  34.758  1.00  0.00     0.031 C 
ATOM     56  C   UNL A   1      40.133  32.816  36.010  1.00  0.00     0.037 A 
BRANCH  43  57
ATOM     57  C   UNL A   1      44.474  28.436  35.685  1.00  0.00     0.058 A 
ATOM     58  C   UNL A   1      44.249  27.320  36.504  1.00  0.00     0.135 A 
ATOM     59  C   UNL A   1      45.803  28.832  35.463  1.00  0.00     0.135 A 
ATOM     60  F   UNL A   1      42.997  26.909  36.759  1.00  0.00    -0.206 F 
ATOM     61  C   UNL A   1      45.304  26.624  37.088  1.00  0.00     0.059 A 
ATOM     62  C   UNL A   1      46.873  28.140  36.021  1.00  0.00     0.059 A 
ATOM     63  F   UNL A   1      46.070  29.895  34.689  1.00  0.00    -0.206 F 
ATOM     64  C   UNL A   1      46.614  27.040  36.838  1.00  0.00     0.060 A 
BRANCH  64  65
ATOM     65  S   UNL A   1      47.977  26.108  37.570  1.00  0.00     0.124 S 
ATOM     66  O   UNL A   1      49.114  26.595  36.796  1.00  0.00    -0.237 OA
ATOM     67  O   UNL A   1      47.933  26.531  38.967  1.00  0.00    -0.237 OA
ATOM     68  O   UNL A   1      47.605  24.717  37.331  1.00  0.00    -0.744 OA
ENDBRANCH  64  65
ENDBRANCH  43  57
BRANCH  44  69
ATOM     69  C   UNL A   1      36.913  32.874  30.883  1.00  0.00     0.058 A 
ATOM     70  C   UNL A   1      37.091  33.866  29.909  1.00  0.00     0.135 A 
ATOM     71  C   UNL A   1      35.598  32.498  31.203  1.00  0.00     0.135 A 
ATOM     72  F   UNL A   1      38.328  34.266  29.578  1.00  0.00    -0.206 F 
ATOM     73  C   UNL A   1      36.008  34.479  29.287  1.00  0.00     0.059 A 
ATOM     74  C   UNL A   1      34.500  33.079  30.579  1.00  0.00     0.059 A 
ATOM     75  F   UNL A   1      35.375  31.545  32.120  1.00  0.00    -0.206 F 
ATOM     76  C   UNL A   1      34.714  34.080  29.631  1.00  0.00     0.060 A 
BRANCH  76  77
ATOM     77  S   UNL A   1      33.310  34.853  28.801  1.00  0.00     0.124 S 
ATOM     78  O   UNL A   1      32.434  35.156  29.928  1.00  0.00    -0.237 OA
ATOM     79  O   UNL A   1      33.927  36.002  28.146  1.00  0.00    -0.237 OA
ATOM     80  O   UNL A   1      32.839  33.806  27.899  1.00  0.00    -0.744 OA
ENDBRANCH  76  77
ENDBRANCH  44  69
BRANCH  56  81
ATOM     81  C   UNL A   1      39.815  33.733  37.156  1.00  0.00     0.058 A 
ATOM     82  C   UNL A   1      38.919  33.353  38.167  1.00  0.00     0.135 A 
ATOM     83  C   UNL A   1      40.441  34.984  37.266  1.00  0.00     0.135 A 
ATOM     84  F   UNL A   1      38.290  32.169  38.102  1.00  0.00    -0.206 F 
ATOM     85  C   UNL A   1      38.640  34.192  39.240  1.00  0.00     0.059 A 
ATOM     86  C   UNL A   1      40.191  35.830  38.343  1.00  0.00     0.059 A 
ATOM     87  F   UNL A   1      41.311  35.390  36.328  1.00  0.00    -0.206 F 
ATOM     88  C   UNL A   1      39.280  35.429  39.319  1.00  0.00     0.060 A 
BRANCH  88  89
ATOM     89  S   UNL A   1      38.933  36.498  40.732  1.00  0.00     0.124 S 
ATOM     90  O   UNL A   1      37.929  35.720  41.450  1.00  0.00    -0.237 OA
ATOM     91  O   UNL A   1      40.238  36.601  41.379  1.00  0.00    -0.237 OA
ATOM     92  O   UNL A   1      38.450  37.730  40.113  1.00  0.00    -0.744 OA
ENDBRANCH  88  89
ENDBRANCH  56  81
ENDBRANCH  30  31
ENDBRANCH  23  25
ENDBRANCH  22  23
ENDBRANCH   1  22
TORSDOF 15
ENDMDL
MODEL 3
REMARK VINA RESULT:     -11.4      2.861      4.963
REMARK SMILES C[C@H](NC1=[NH+]S(=O)(=O)c2ccccc21)C(=O)OCCOC(=O)c1ccc(-c2c3nc(c(-c4c(F)cc(S(=O)(=O)[O-])cc4F)c4ccc([nH]4)c(-c4c(F)cc(S(=O)(=O)[O-])cc4F)c4nc(c(-c5c(F)cc(S(=O)(=O)[O-])cc5F)c5ccc2[nH]5)C=C4)C=C3)cc1
REMARK SMILES IDX 19 1 18 2 17 3 15 4 16 5 2 6 1 7 3 8 4 9 5 11 14 12 6 13
REMARK SMILES IDX 9 15 13 16 7 17 8 18 10 19 12 20 11 21 20 22 21 23 22 24
REMARK SMILES IDX 23 25 24 26 88 27 25 28 87 29 26 30 27 31 28 32 81 33 29 34
REMARK SMILES IDX 86 35 80 36 82 37 30 38 85 39 79 40 78 41 31 43 65 44 44 45
REMARK SMILES IDX 64 46 45 47 48 48 63 49 83 50 46 51 47 52 62 54 84 55 49 56
REMARK SMILES IDX 32 57 33 58 42 59 34 60 35 61 41 62 43 63 36 64 37 65 38 66
REMARK SMILES IDX 39 67 40 68 66 69 67 70 76 71 68 72 69 73 75 74 77 75 70 76
REMARK SMILES IDX 71 77 72 78 73 79 74 80 50 81 51 82 60 83 52 84 53 85 59 86
REMARK SMILES IDX 61 87 54 88 55 89 56 90 57 91 58 92
REMARK H PARENT 3 10 5 14 82 42 48 53
REMARK Flexibility Score: inf
ROOT
ATOM      1  C   UNL A   1      34.329  30.266  28.076  1.00  0.00     0.275 C 
ENDROOT
BRANCH   1   2
ATOM      2  C   UNL A   1      33.407  31.172  27.252  1.00  0.00     0.274 C 
BRANCH   2   3
ATOM      3  O   UNL A   1      33.857  32.540  27.287  1.00  0.00    -0.459 OA
BRANCH   3   4
ATOM      4  C   UNL A   1      33.013  33.443  27.864  1.00  0.00     0.350 C 
ATOM      5  O   UNL A   1      31.880  33.688  27.466  1.00  0.00    -0.247 OA
BRANCH   4   6
ATOM      6  C   UNL A   1      33.651  34.155  29.064  1.00  0.00     0.279 C 
ATOM      7  C   UNL A   1      34.392  35.394  28.586  1.00  0.00     0.071 C 
BRANCH   6   8
ATOM      8  N   UNL A   1      34.568  33.291  29.837  1.00  0.00    -0.260 N 
ATOM      9  C   UNL A   1      35.019  33.704  31.068  1.00  0.00     0.292 C 
ATOM     10  H   UNL A   1      34.856  32.424  29.472  1.00  0.00     0.306 HD
ATOM     11  N   UNL A   1      34.223  33.990  32.056  1.00  0.00    -0.162 N 
ATOM     12  C   UNL A   1      36.457  33.876  31.343  1.00  0.00     0.087 A 
ATOM     13  S   UNL A   1      35.068  34.450  33.384  1.00  0.00     0.329 S 
ATOM     14  H   UNL A   1      33.242  33.936  32.012  1.00  0.00     0.327 HD
ATOM     15  C   UNL A   1      36.633  34.321  32.638  1.00  0.00     0.124 A 
ATOM     16  C   UNL A   1      37.544  33.703  30.506  1.00  0.00     0.018 A 
ATOM     17  O   UNL A   1      35.002  33.431  34.405  1.00  0.00    -0.179 OA
ATOM     18  O   UNL A   1      34.845  35.856  33.651  1.00  0.00    -0.179 OA
ATOM     19  C   UNL A   1      37.864  34.633  33.176  1.00  0.00     0.025 A 
ATOM     20  C   UNL A   1      38.812  34.005  31.019  1.00  0.00     0.001 A 
ATOM     21  C   UNL A   1      38.971  34.469  32.342  1.00  0.00     0.002 A 
ENDBRANCH   6   8
ENDBRANCH   4   6
ENDBRANCH   3   4
ENDBRANCH   2   3
ENDBRANCH   1   2
BRANCH   1  22
ATOM     22  O   UNL A   1      35.632  30.848  28.261  1.00  0.00    -0.458 OA
BRANCH  22  23
ATOM     23  C   UNL A   1      36.273  30.460  29.392  1.00  0.00     0.338 C 
ATOM     24  O   UNL A   1      35.776  30.339  30.501  1.00  0.00    -0.246 OA
BRANCH  23  25
ATOM     25  C   UNL A   1      37.636  30.016  29.051  1.00  0.00     0.060 A 
ATOM     26  C   UNL A   1      38.552  29.891  30.095  1.00  0.00     0.016 A 
ATOM     27  C   UNL A   1      38.030  29.753  27.738  1.00  0.00     0.016 A 
ATOM     28  C   UNL A   1      39.868  29.522  29.844  1.00  0.00     0.010 A 
ATOM     29  C   UNL A   1      39.353  29.366  27.483  1.00  0.00     0.010 A 
ATOM     30  C   UNL A   1      40.279  29.251  28.535  1.00  0.00    -0.014 A 
BRANCH  30  31
ATOM     31  C   UNL A   1      41.681  28.839  28.289  1.00  0.00     0.031 A 
ATOM     32  C   UNL A   1      42.786  29.853  28.334  1.00  0.00     0.074 A 
ATOM     33  C   UNL A   1      41.957  27.541  28.059  1.00  0.00     0.049 A 
ATOM     34  N   UNL A   1      44.059  29.697  28.073  1.00  0.00    -0.248 NA
ATOM     35  C   UNL A   1      42.414  31.223  28.720  1.00  0.00     0.031 C 
ATOM     36  C   UNL A   1      40.968  26.460  28.037  1.00  0.00     0.029 A 
ATOM     37  N   UNL A   1      43.146  26.908  27.799  1.00  0.00    -0.354 N 
ATOM     38  C   UNL A   1      44.638  30.948  28.245  1.00  0.00     0.074 A 
ATOM     39  C   UNL A   1      43.576  31.856  28.623  1.00  0.00     0.031 C 
ATOM     40  C   UNL A   1      41.591  25.300  27.773  1.00  0.00     0.029 A 
ATOM     41  C   UNL A   1      43.013  25.560  27.566  1.00  0.00     0.049 A 
ATOM     42  H   UNL A   1      44.012  27.376  27.781  1.00  0.00     0.167 HD
ATOM     43  C   UNL A   1      45.938  31.299  28.101  1.00  0.00     0.037 A 
ATOM     44  C   UNL A   1      43.928  24.643  27.197  1.00  0.00     0.037 A 
ATOM     45  C   UNL A   1      46.993  30.381  27.755  1.00  0.00     0.049 A 
ATOM     46  C   UNL A   1      45.357  25.073  27.000  1.00  0.00     0.074 A 
ATOM     47  C   UNL A   1      48.346  30.637  27.617  1.00  0.00     0.029 A 
ATOM     48  N   UNL A   1      46.815  29.029  27.497  1.00  0.00    -0.354 N 
ATOM     49  N   UNL A   1      45.889  26.260  27.161  1.00  0.00    -0.248 NA
ATOM     50  C   UNL A   1      46.307  24.042  26.561  1.00  0.00     0.031 C 
ATOM     51  C   UNL A   1      48.981  29.451  27.239  1.00  0.00     0.029 A 
ATOM     52  C   UNL A   1      48.029  28.446  27.176  1.00  0.00     0.049 A 
ATOM     53  H   UNL A   1      45.953  28.556  27.537  1.00  0.00     0.167 HD
ATOM     54  C   UNL A   1      47.236  26.117  26.849  1.00  0.00     0.074 A 
ATOM     55  C   UNL A   1      47.442  24.725  26.511  1.00  0.00     0.031 C 
ATOM     56  C   UNL A   1      48.213  27.057  26.837  1.00  0.00     0.037 A 
BRANCH  43  57
ATOM     57  C   UNL A   1      46.298  32.744  28.291  1.00  0.00     0.058 A 
ATOM     58  C   UNL A   1      46.236  33.666  27.237  1.00  0.00     0.135 A 
ATOM     59  C   UNL A   1      46.645  33.225  29.565  1.00  0.00     0.135 A 
ATOM     60  F   UNL A   1      45.923  33.257  25.997  1.00  0.00    -0.206 F 
ATOM     61  C   UNL A   1      46.513  35.016  27.435  1.00  0.00     0.059 A 
ATOM     62  C   UNL A   1      46.907  34.572  29.791  1.00  0.00     0.059 A 
ATOM     63  F   UNL A   1      46.721  32.382  30.606  1.00  0.00    -0.206 F 
ATOM     64  C   UNL A   1      46.845  35.461  28.717  1.00  0.00     0.060 A 
BRANCH  64  65
ATOM     65  S   UNL A   1      47.165  37.220  28.972  1.00  0.00     0.124 S 
ATOM     66  O   UNL A   1      45.916  37.815  28.510  1.00  0.00    -0.237 OA
ATOM     67  O   UNL A   1      47.408  37.290  30.410  1.00  0.00    -0.237 OA
ATOM     68  O   UNL A   1      48.331  37.478  28.132  1.00  0.00    -0.744 OA
ENDBRANCH  64  65
ENDBRANCH  43  57
BRANCH  44  69
ATOM     69  C   UNL A   1      43.515  23.239  26.940  1.00  0.00     0.058 A 
ATOM     70  C   UNL A   1      43.223  22.362  27.993  1.00  0.00     0.135 A 
ATOM     71  C   UNL A   1      43.416  22.746  25.629  1.00  0.00     0.135 A 
ATOM     72  F   UNL A   1      43.314  22.784  29.264  1.00  0.00    -0.206 F 
ATOM     73  C   UNL A   1      42.864  21.038  27.760  1.00  0.00     0.059 A 
ATOM     74  C   UNL A   1      43.037  21.433  25.369  1.00  0.00     0.059 A 
ATOM     75  F   UNL A   1      43.674  23.549  24.587  1.00  0.00    -0.206 F 
ATOM     76  C   UNL A   1      42.776  20.582  26.443  1.00  0.00     0.060 A 
BRANCH  76  77
ATOM     77  S   UNL A   1      42.279  18.873  26.139  1.00  0.00     0.124 S 
ATOM     78  O   UNL A   1      43.231  18.470  25.110  1.00  0.00    -0.237 OA
ATOM     79  O   UNL A   1      42.458  18.257  27.450  1.00  0.00    -0.237 OA
ATOM     80  O   UNL A   1      40.892  19.002  25.701  1.00  0.00    -0.744 OA
ENDBRANCH  76  77
ENDBRANCH  44  69
BRANCH  56  81
ATOM     81  C   UNL A   1      49.593  26.605  26.452  1.00  0.00     0.058 A 
ATOM     82  C   UNL A   1      50.419  25.928  27.361  1.00  0.00     0.135 A 
ATOM     83  C   UNL A   1      50.077  26.814  25.151  1.00  0.00     0.135 A 
ATOM     84  F   UNL A   1      50.003  25.711  28.619  1.00  0.00    -0.206 F 
ATOM     85  C   UNL A   1      51.689  25.490  27.000  1.00  0.00     0.059 A 
ATOM     86  C   UNL A   1      51.336  26.366  24.763  1.00  0.00     0.059 A 
ATOM     87  F   UNL A   1      49.321  27.451  24.242  1.00  0.00    -0.206 F 
ATOM     88  C   UNL A   1      52.139  25.715  25.698  1.00  0.00     0.060 A 
BRANCH  88  89
ATOM     89  S   UNL A   1      53.776  25.115  25.230  1.00  0.00     0.124 S 
ATOM     90  O   UNL A   1      53.670  23.694  25.545  1.00  0.00    -0.237 OA
ATOM     91  O   UNL A   1      53.841  25.448  23.811  1.00  0.00    -0.237 OA
ATOM     92  O   UNL A   1      54.675  25.883  26.088  1.00  0.00    -0.744 OA
ENDBRANCH  88  89
ENDBRANCH  56  81
ENDBRANCH  30  31
ENDBRANCH  23  25
ENDBRANCH  22  23
ENDBRANCH   1  22
TORSDOF 15
ENDMDL
