MODEL 1
REMARK VINA RESULT:      -9.5      0.000      0.000
REMARK SMILES CCCC[C@@H](C)[NH2+]Cc1ccc(C(=O)OCCOC(=O)c2ccc(-c3c4nc(c(-c5c(F)cc(S(=O)(=O)[O-])cc5F)c5ccc([nH]5)c(-c5c(F)cc(S(=O)(=O)[O-])cc5F)c5nc(c(-c6c(F)cc(S(=O)(=O)[O-])cc6F)c6ccc3[nH]6)C=C5)C=C4)cc2)cn1
REMARK SMILES IDX 15 1 13 2 14 3 12 4 9 5 10 6 88 7 11 8 87 9 8 10 7 11 5 14
REMARK SMILES IDX 6 15 4 16 3 17 2 18 1 19 16 20 17 21 18 22 19 23 20 24 21 25
REMARK SMILES IDX 22 26 86 27 23 28 85 29 24 30 25 31 26 32 79 33 27 34 84 35
REMARK SMILES IDX 78 36 80 37 28 38 83 39 77 40 76 41 29 43 63 44 42 45 62 46
REMARK SMILES IDX 43 47 46 48 61 49 81 50 44 51 45 52 60 54 82 55 47 56 30 57
REMARK SMILES IDX 31 58 40 59 32 60 33 61 39 62 41 63 34 64 35 65 36 66 37 67
REMARK SMILES IDX 38 68 64 69 65 70 74 71 66 72 67 73 73 74 75 75 68 76 69 77
REMARK SMILES IDX 70 78 71 79 72 80 48 81 49 82 58 83 50 84 51 85 57 86 59 87
REMARK SMILES IDX 52 88 53 89 54 90 55 91 56 92
REMARK H PARENT 7 12 7 13 80 42 46 53
REMARK Flexibility Score: inf
ROOT
ATOM      1  O   UNL A   1      32.370  28.574  25.523  1.00  0.00    -0.458 OA
ENDROOT
BRANCH   1   2
ATOM      2  C   UNL A   1      32.216  28.058  24.284  1.00  0.00     0.339 C 
ATOM      3  O   UNL A   1      31.369  28.373  23.465  1.00  0.00    -0.246 OA
BRANCH   2   4
ATOM      4  C   UNL A   1      33.213  27.023  23.996  1.00  0.00     0.078 A 
ATOM      5  C   UNL A   1      34.233  24.549  23.456  1.00  0.00     0.094 A 
ATOM      6  C   UNL A   1      34.396  25.083  24.740  1.00  0.00     0.031 A 
ATOM      7  N   UNL A   1      33.788  25.291  22.419  1.00  0.00    -0.254 NA
ATOM      8  C   UNL A   1      33.854  26.338  25.020  1.00  0.00     0.019 A 
ATOM      9  C   UNL A   1      33.280  26.507  22.713  1.00  0.00     0.127 A 
BRANCH   5  10
ATOM     10  C   UNL A   1      34.273  23.046  23.239  1.00  0.00     0.318 C 
BRANCH  10  11
ATOM     11  N   UNL A   1      35.551  22.419  23.640  1.00  0.00    -0.339 N 
ATOM     12  H   UNL A   1      36.034  22.130  22.790  1.00  0.00     0.346 HD
ATOM     13  H   UNL A   1      36.041  23.128  24.186  1.00  0.00     0.346 HD
BRANCH  11  14
ATOM     14  C   UNL A   1      35.454  21.239  24.528  1.00  0.00     0.179 C 
ATOM     15  C   UNL A   1      34.031  20.876  24.968  1.00  0.00     0.075 C 
BRANCH  14  16
ATOM     16  C   UNL A   1      36.328  21.570  25.764  1.00  0.00     0.065 C 
BRANCH  16  17
ATOM     17  C   UNL A   1      37.850  21.525  25.561  1.00  0.00     0.006 C 
BRANCH  17  18
ATOM     18  C   UNL A   1      38.619  22.742  26.077  1.00  0.00    -0.003 C 
ATOM     19  C   UNL A   1      37.776  24.006  26.105  1.00  0.00     0.004 C 
ENDBRANCH  17  18
ENDBRANCH  16  17
ENDBRANCH  14  16
ENDBRANCH  11  14
ENDBRANCH  10  11
ENDBRANCH   5  10
ENDBRANCH   2   4
ENDBRANCH   1   2
BRANCH   1  20
ATOM     20  C   UNL A   1      31.882  29.924  25.663  1.00  0.00     0.275 C 
BRANCH  20  21
ATOM     21  C   UNL A   1      32.564  30.644  26.831  1.00  0.00     0.275 C 
BRANCH  21  22
ATOM     22  O   UNL A   1      33.762  29.963  27.257  1.00  0.00    -0.458 OA
BRANCH  22  23
ATOM     23  C   UNL A   1      34.536  30.660  28.117  1.00  0.00     0.338 C 
ATOM     24  O   UNL A   1      34.211  31.643  28.769  1.00  0.00    -0.246 OA
BRANCH  23  25
ATOM     25  C   UNL A   1      35.861  30.044  28.261  1.00  0.00     0.060 A 
ATOM     26  C   UNL A   1      36.263  29.620  29.525  1.00  0.00     0.016 A 
ATOM     27  C   UNL A   1      36.783  30.109  27.218  1.00  0.00     0.016 A 
ATOM     28  C   UNL A   1      37.609  29.398  29.787  1.00  0.00     0.010 A 
ATOM     29  C   UNL A   1      38.116  29.745  27.454  1.00  0.00     0.010 A 
ATOM     30  C   UNL A   1      38.554  29.423  28.752  1.00  0.00    -0.014 A 
BRANCH  30  31
ATOM     31  C   UNL A   1      39.984  29.105  29.035  1.00  0.00     0.031 A 
ATOM     32  C   UNL A   1      40.905  30.145  29.620  1.00  0.00     0.074 A 
ATOM     33  C   UNL A   1      40.456  27.870  28.763  1.00  0.00     0.049 A 
ATOM     34  N   UNL A   1      42.205  30.107  29.768  1.00  0.00    -0.248 NA
ATOM     35  C   UNL A   1      40.289  31.398  30.086  1.00  0.00     0.031 C 
ATOM     36  C   UNL A   1      39.664  26.757  28.228  1.00  0.00     0.029 A 
ATOM     37  N   UNL A   1      41.714  27.336  28.899  1.00  0.00    -0.354 N 
ATOM     38  C   UNL A   1      42.569  31.345  30.291  1.00  0.00     0.074 A 
ATOM     39  C   UNL A   1      41.351  32.116  30.424  1.00  0.00     0.031 C 
ATOM     40  C   UNL A   1      40.439  25.671  28.122  1.00  0.00     0.029 A 
ATOM     41  C   UNL A   1      41.805  26.031  28.474  1.00  0.00     0.049 A 
ATOM     42  H   UNL A   1      42.477  27.839  29.264  1.00  0.00     0.167 HD
ATOM     43  C   UNL A   1      43.804  31.792  30.627  1.00  0.00     0.037 A 
ATOM     44  C   UNL A   1      42.872  25.223  28.326  1.00  0.00     0.037 A 
ATOM     45  C   UNL A   1      45.002  30.992  30.530  1.00  0.00     0.049 A 
ATOM     46  C   UNL A   1      44.234  25.753  28.664  1.00  0.00     0.074 A 
ATOM     47  C   UNL A   1      46.299  31.342  30.866  1.00  0.00     0.029 A 
ATOM     48  N   UNL A   1      45.050  29.683  30.073  1.00  0.00    -0.354 N 
ATOM     49  N   UNL A   1      44.566  26.938  29.121  1.00  0.00    -0.248 NA
ATOM     50  C   UNL A   1      45.370  24.846  28.456  1.00  0.00     0.031 C 
ATOM     51  C   UNL A   1      47.136  30.263  30.564  1.00  0.00     0.029 A 
ATOM     52  C   UNL A   1      46.355  29.218  30.098  1.00  0.00     0.049 A 
ATOM     53  H   UNL A   1      44.270  29.160  29.775  1.00  0.00     0.167 HD
ATOM     54  C   UNL A   1      45.946  26.912  29.275  1.00  0.00     0.074 A 
ATOM     55  C   UNL A   1      46.384  25.589  28.877  1.00  0.00     0.031 C 
ATOM     56  C   UNL A   1      46.775  27.894  29.706  1.00  0.00     0.037 A 
BRANCH  43  57
ATOM     57  C   UNL A   1      43.939  33.218  31.096  1.00  0.00     0.058 A 
ATOM     58  C   UNL A   1      44.056  34.294  30.202  1.00  0.00     0.135 A 
ATOM     59  C   UNL A   1      43.904  33.516  32.470  1.00  0.00     0.135 A 
ATOM     60  F   UNL A   1      44.107  34.073  28.879  1.00  0.00    -0.206 F 
ATOM     61  C   UNL A   1      44.163  35.608  30.653  1.00  0.00     0.059 A 
ATOM     62  C   UNL A   1      43.978  34.824  32.942  1.00  0.00     0.059 A 
ATOM     63  F   UNL A   1      43.789  32.529  33.373  1.00  0.00    -0.206 F 
ATOM     64  C   UNL A   1      44.123  35.863  32.025  1.00  0.00     0.060 A 
BRANCH  64  65
ATOM     65  S   UNL A   1      44.260  37.572  32.593  1.00  0.00     0.124 S 
ATOM     66  O   UNL A   1      43.118  37.671  33.497  1.00  0.00    -0.237 OA
ATOM     67  O   UNL A   1      45.573  37.586  33.230  1.00  0.00    -0.237 OA
ATOM     68  O   UNL A   1      44.154  38.351  31.364  1.00  0.00    -0.744 OA
ENDBRANCH  64  65
ENDBRANCH  43  57
BRANCH  44  69
ATOM     69  C   UNL A   1      42.688  23.846  27.791  1.00  0.00     0.058 A 
ATOM     70  C   UNL A   1      42.593  22.743  28.650  1.00  0.00     0.135 A 
ATOM     71  C   UNL A   1      42.570  23.611  26.411  1.00  0.00     0.135 A 
ATOM     72  F   UNL A   1      42.708  22.913  29.976  1.00  0.00    -0.206 F 
ATOM     73  C   UNL A   1      42.397  21.454  28.162  1.00  0.00     0.059 A 
ATOM     74  C   UNL A   1      42.340  22.339  25.901  1.00  0.00     0.059 A 
ATOM     75  F   UNL A   1      42.637  24.636  25.546  1.00  0.00    -0.206 F 
ATOM     76  C   UNL A   1      42.265  21.264  26.785  1.00  0.00     0.060 A 
BRANCH  76  77
ATOM     77  S   UNL A   1      41.957  19.597  26.165  1.00  0.00     0.124 S 
ATOM     78  O   UNL A   1      40.505  19.595  26.038  1.00  0.00    -0.237 OA
ATOM     79  O   UNL A   1      42.709  19.591  24.914  1.00  0.00    -0.237 OA
ATOM     80  O   UNL A   1      42.500  18.741  27.216  1.00  0.00    -0.744 OA
ENDBRANCH  76  77
ENDBRANCH  44  69
BRANCH  56  81
ATOM     81  C   UNL A   1      48.237  27.561  29.813  1.00  0.00     0.058 A 
ATOM     82  C   UNL A   1      49.128  27.788  28.753  1.00  0.00     0.135 A 
ATOM     83  C   UNL A   1      48.758  27.044  31.010  1.00  0.00     0.135 A 
ATOM     84  F   UNL A   1      48.679  28.271  27.583  1.00  0.00    -0.206 F 
ATOM     85  C   UNL A   1      50.482  27.490  28.868  1.00  0.00     0.059 A 
ATOM     86  C   UNL A   1      50.113  26.767  31.156  1.00  0.00     0.059 A 
ATOM     87  F   UNL A   1      47.949  26.815  32.057  1.00  0.00    -0.206 F 
ATOM     88  C   UNL A   1      50.965  26.981  30.075  1.00  0.00     0.060 A 
BRANCH  88  89
ATOM     89  S   UNL A   1      52.730  26.631  30.220  1.00  0.00     0.124 S 
ATOM     90  O   UNL A   1      53.256  27.930  30.622  1.00  0.00    -0.237 OA
ATOM     91  O   UNL A   1      52.758  25.591  31.244  1.00  0.00    -0.237 OA
ATOM     92  O   UNL A   1      53.101  26.191  28.879  1.00  0.00    -0.744 OA
ENDBRANCH  88  89
ENDBRANCH  56  81
ENDBRANCH  30  31
ENDBRANCH  23  25
ENDBRANCH  22  23
ENDBRANCH  21  22
ENDBRANCH  20  21
ENDBRANCH   1  20
TORSDOF 20
ENDMDL
MODEL 2
REMARK VINA RESULT:      -9.3      5.499     11.827
REMARK SMILES CCCC[C@@H](C)[NH2+]Cc1ccc(C(=O)OCCOC(=O)c2ccc(-c3c4nc(c(-c5c(F)cc(S(=O)(=O)[O-])cc5F)c5ccc([nH]5)c(-c5c(F)cc(S(=O)(=O)[O-])cc5F)c5nc(c(-c6c(F)cc(S(=O)(=O)[O-])cc6F)c6ccc3[nH]6)C=C5)C=C4)cc2)cn1
REMARK SMILES IDX 15 1 13 2 14 3 12 4 9 5 10 6 88 7 11 8 87 9 8 10 7 11 5 14
REMARK SMILES IDX 6 15 4 16 3 17 2 18 1 19 16 20 17 21 18 22 19 23 20 24 21 25
REMARK SMILES IDX 22 26 86 27 23 28 85 29 24 30 25 31 26 32 79 33 27 34 84 35
REMARK SMILES IDX 78 36 80 37 28 38 83 39 77 40 76 41 29 43 63 44 42 45 62 46
REMARK SMILES IDX 43 47 46 48 61 49 81 50 44 51 45 52 60 54 82 55 47 56 30 57
REMARK SMILES IDX 31 58 40 59 32 60 33 61 39 62 41 63 34 64 35 65 36 66 37 67
REMARK SMILES IDX 38 68 64 69 65 70 74 71 66 72 67 73 73 74 75 75 68 76 69 77
REMARK SMILES IDX 70 78 71 79 72 80 48 81 49 82 58 83 50 84 51 85 57 86 59 87
REMARK SMILES IDX 52 88 53 89 54 90 55 91 56 92
REMARK H PARENT 7 12 7 13 80 42 46 53
REMARK Flexibility Score: inf
ROOT
ATOM      1  O   UNL A   1      42.930  22.886  24.786  1.00  0.00    -0.458 OA
ENDROOT
BRANCH   1   2
ATOM      2  C   UNL A   1      44.193  22.848  24.306  1.00  0.00     0.339 C 
ATOM      3  O   UNL A   1      44.615  22.116  23.427  1.00  0.00    -0.246 OA
BRANCH   2   4
ATOM      4  C   UNL A   1      45.062  23.818  24.978  1.00  0.00     0.078 A 
ATOM      5  C   UNL A   1      46.433  25.038  26.999  1.00  0.00     0.094 A 
ATOM      6  C   UNL A   1      45.263  25.637  26.517  1.00  0.00     0.031 A 
ATOM      7  N   UNL A   1      47.027  24.004  26.365  1.00  0.00    -0.254 NA
ATOM      8  C   UNL A   1      44.552  25.000  25.499  1.00  0.00     0.019 A 
ATOM      9  C   UNL A   1      46.325  23.412  25.375  1.00  0.00     0.127 A 
BRANCH   5  10
ATOM     10  C   UNL A   1      46.922  25.335  28.406  1.00  0.00     0.318 C 
BRANCH  10  11
ATOM     11  N   UNL A   1      46.605  26.701  28.874  1.00  0.00    -0.339 N 
ATOM     12  H   UNL A   1      47.487  27.179  29.055  1.00  0.00     0.346 HD
ATOM     13  H   UNL A   1      46.043  27.118  28.131  1.00  0.00     0.346 HD
BRANCH  11  14
ATOM     14  C   UNL A   1      45.776  26.803  30.096  1.00  0.00     0.179 C 
ATOM     15  C   UNL A   1      46.174  27.930  31.055  1.00  0.00     0.075 C 
BRANCH  14  16
ATOM     16  C   UNL A   1      45.900  25.430  30.804  1.00  0.00     0.065 C 
BRANCH  16  17
ATOM     17  C   UNL A   1      45.956  25.450  32.338  1.00  0.00     0.006 C 
BRANCH  17  18
ATOM     18  C   UNL A   1      44.820  24.712  33.048  1.00  0.00    -0.003 C 
ATOM     19  C   UNL A   1      45.313  23.801  34.161  1.00  0.00     0.004 C 
ENDBRANCH  17  18
ENDBRANCH  16  17
ENDBRANCH  14  16
ENDBRANCH  11  14
ENDBRANCH  10  11
ENDBRANCH   5  10
ENDBRANCH   2   4
ENDBRANCH   1   2
BRANCH   1  20
ATOM     20  C   UNL A   1      42.644  21.874  25.772  1.00  0.00     0.275 C 
BRANCH  20  21
ATOM     21  C   UNL A   1      41.951  22.474  27.000  1.00  0.00     0.275 C 
BRANCH  21  22
ATOM     22  O   UNL A   1      41.774  23.900  26.875  1.00  0.00    -0.458 OA
BRANCH  22  23
ATOM     23  C   UNL A   1      40.488  24.309  26.816  1.00  0.00     0.338 C 
ATOM     24  O   UNL A   1      39.568  23.762  26.226  1.00  0.00    -0.246 OA
BRANCH  23  25
ATOM     25  C   UNL A   1      40.271  25.506  27.640  1.00  0.00     0.060 A 
ATOM     26  C   UNL A   1      41.203  26.537  27.573  1.00  0.00     0.016 A 
ATOM     27  C   UNL A   1      39.300  25.502  28.641  1.00  0.00     0.016 A 
ATOM     28  C   UNL A   1      41.260  27.488  28.585  1.00  0.00     0.010 A 
ATOM     29  C   UNL A   1      39.274  26.545  29.577  1.00  0.00     0.010 A 
ATOM     30  C   UNL A   1      40.279  27.530  29.584  1.00  0.00    -0.014 A 
BRANCH  30  31
ATOM     31  C   UNL A   1      40.309  28.605  30.618  1.00  0.00     0.031 A 
ATOM     32  C   UNL A   1      41.296  28.555  31.756  1.00  0.00     0.074 A 
ATOM     33  C   UNL A   1      39.440  29.634  30.531  1.00  0.00     0.049 A 
ATOM     34  N   UNL A   1      41.354  29.297  32.833  1.00  0.00    -0.248 NA
ATOM     35  C   UNL A   1      42.348  27.528  31.684  1.00  0.00     0.031 C 
ATOM     36  C   UNL A   1      38.454  29.826  29.461  1.00  0.00     0.029 A 
ATOM     37  N   UNL A   1      39.241  30.718  31.352  1.00  0.00    -0.354 N 
ATOM     38  C   UNL A   1      42.408  28.794  33.591  1.00  0.00     0.074 A 
ATOM     39  C   UNL A   1      42.956  27.676  32.853  1.00  0.00     0.031 C 
ATOM     40  C   UNL A   1      37.791  30.970  29.667  1.00  0.00     0.029 A 
ATOM     41  C   UNL A   1      38.220  31.541  30.936  1.00  0.00     0.049 A 
ATOM     42  H   UNL A   1      39.778  30.889  32.159  1.00  0.00     0.167 HD
ATOM     43  C   UNL A   1      42.872  29.229  34.788  1.00  0.00     0.037 A 
ATOM     44  C   UNL A   1      37.648  32.605  31.530  1.00  0.00     0.037 A 
ATOM     45  C   UNL A   1      42.342  30.375  35.487  1.00  0.00     0.049 A 
ATOM     46  C   UNL A   1      38.150  33.042  32.874  1.00  0.00     0.074 A 
ATOM     47  C   UNL A   1      42.755  30.913  36.695  1.00  0.00     0.029 A 
ATOM     48  N   UNL A   1      41.293  31.165  35.040  1.00  0.00    -0.354 N 
ATOM     49  N   UNL A   1      39.121  32.533  33.595  1.00  0.00    -0.248 NA
ATOM     50  C   UNL A   1      37.473  34.187  33.495  1.00  0.00     0.031 C 
ATOM     51  C   UNL A   1      41.924  31.994  37.001  1.00  0.00     0.029 A 
ATOM     52  C   UNL A   1      41.031  32.172  35.956  1.00  0.00     0.049 A 
ATOM     53  H   UNL A   1      40.806  31.031  34.194  1.00  0.00     0.167 HD
ATOM     54  C   UNL A   1      39.187  33.309  34.745  1.00  0.00     0.074 A 
ATOM     55  C   UNL A   1      38.167  34.331  34.616  1.00  0.00     0.031 C 
ATOM     56  C   UNL A   1      40.016  33.187  35.810  1.00  0.00     0.037 A 
BRANCH  43  57
ATOM     57  C   UNL A   1      43.982  28.448  35.444  1.00  0.00     0.058 A 
ATOM     58  C   UNL A   1      43.735  27.433  36.380  1.00  0.00     0.135 A 
ATOM     59  C   UNL A   1      45.322  28.694  35.091  1.00  0.00     0.135 A 
ATOM     60  F   UNL A   1      42.478  27.160  36.767  1.00  0.00    -0.206 F 
ATOM     61  C   UNL A   1      44.772  26.710  36.964  1.00  0.00     0.059 A 
ATOM     62  C   UNL A   1      46.373  27.963  35.638  1.00  0.00     0.059 A 
ATOM     63  F   UNL A   1      45.621  29.650  34.198  1.00  0.00    -0.206 F 
ATOM     64  C   UNL A   1      46.089  26.982  36.587  1.00  0.00     0.060 A 
BRANCH  64  65
ATOM     65  S   UNL A   1      47.423  26.034  37.351  1.00  0.00     0.124 S 
ATOM     66  O   UNL A   1      46.810  25.632  38.613  1.00  0.00    -0.237 OA
ATOM     67  O   UNL A   1      47.639  24.963  36.384  1.00  0.00    -0.237 OA
ATOM     68  O   UNL A   1      48.509  27.002  37.464  1.00  0.00    -0.744 OA
ENDBRANCH  64  65
ENDBRANCH  43  57
BRANCH  44  69
ATOM     69  C   UNL A   1      36.507  33.295  30.868  1.00  0.00     0.058 A 
ATOM     70  C   UNL A   1      35.202  33.176  31.366  1.00  0.00     0.135 A 
ATOM     71  C   UNL A   1      36.703  34.113  29.742  1.00  0.00     0.135 A 
ATOM     72  F   UNL A   1      34.959  32.399  32.433  1.00  0.00    -0.206 F 
ATOM     73  C   UNL A   1      34.131  33.835  30.769  1.00  0.00     0.059 A 
ATOM     74  C   UNL A   1      35.657  34.809  29.150  1.00  0.00     0.059 A 
ATOM     75  F   UNL A   1      37.936  34.274  29.235  1.00  0.00    -0.206 F 
ATOM     76  C   UNL A   1      34.370  34.655  29.664  1.00  0.00     0.060 A 
BRANCH  76  77
ATOM     77  S   UNL A   1      32.984  35.548  28.930  1.00  0.00     0.124 S 
ATOM     78  O   UNL A   1      33.671  36.616  28.213  1.00  0.00    -0.237 OA
ATOM     79  O   UNL A   1      32.361  34.520  28.102  1.00  0.00    -0.237 OA
ATOM     80  O   UNL A   1      32.202  35.967  30.089  1.00  0.00    -0.744 OA
ENDBRANCH  76  77
ENDBRANCH  44  69
BRANCH  56  81
ATOM     81  C   UNL A   1      39.885  34.210  36.904  1.00  0.00     0.058 A 
ATOM     82  C   UNL A   1      40.433  35.496  36.784  1.00  0.00     0.135 A 
ATOM     83  C   UNL A   1      39.168  33.908  38.072  1.00  0.00     0.135 A 
ATOM     84  F   UNL A   1      41.137  35.833  35.692  1.00  0.00    -0.206 F 
ATOM     85  C   UNL A   1      40.294  36.441  37.796  1.00  0.00     0.059 A 
ATOM     86  C   UNL A   1      38.991  34.846  39.083  1.00  0.00     0.059 A 
ATOM     87  F   UNL A   1      38.618  32.693  38.233  1.00  0.00    -0.206 F 
ATOM     88  C   UNL A   1      39.569  36.106  38.941  1.00  0.00     0.060 A 
BRANCH  88  89
ATOM     89  S   UNL A   1      39.369  37.352  40.232  1.00  0.00     0.124 S 
ATOM     90  O   UNL A   1      38.635  38.395  39.523  1.00  0.00    -0.237 OA
ATOM     91  O   UNL A   1      38.616  36.627  41.251  1.00  0.00    -0.237 OA
ATOM     92  O   UNL A   1      40.742  37.689  40.596  1.00  0.00    -0.744 OA
ENDBRANCH  88  89
ENDBRANCH  56  81
ENDBRANCH  30  31
ENDBRANCH  23  25
ENDBRANCH  22  23
ENDBRANCH  21  22
ENDBRANCH  20  21
ENDBRANCH   1  20
TORSDOF 20
ENDMDL
MODEL 3
REMARK VINA RESULT:      -9.2      2.542      3.442
REMARK SMILES CCCC[C@@H](C)[NH2+]Cc1ccc(C(=O)OCCOC(=O)c2ccc(-c3c4nc(c(-c5c(F)cc(S(=O)(=O)[O-])cc5F)c5ccc([nH]5)c(-c5c(F)cc(S(=O)(=O)[O-])cc5F)c5nc(c(-c6c(F)cc(S(=O)(=O)[O-])cc6F)c6ccc3[nH]6)C=C5)C=C4)cc2)cn1
REMARK SMILES IDX 15 1 13 2 14 3 12 4 9 5 10 6 88 7 11 8 87 9 8 10 7 11 5 14
REMARK SMILES IDX 6 15 4 16 3 17 2 18 1 19 16 20 17 21 18 22 19 23 20 24 21 25
REMARK SMILES IDX 22 26 86 27 23 28 85 29 24 30 25 31 26 32 79 33 27 34 84 35
REMARK SMILES IDX 78 36 80 37 28 38 83 39 77 40 76 41 29 43 63 44 42 45 62 46
REMARK SMILES IDX 43 47 46 48 61 49 81 50 44 51 45 52 60 54 82 55 47 56 30 57
REMARK SMILES IDX 31 58 40 59 32 60 33 61 39 62 41 63 34 64 35 65 36 66 37 67
REMARK SMILES IDX 38 68 64 69 65 70 74 71 66 72 67 73 73 74 75 75 68 76 69 77
REMARK SMILES IDX 70 78 71 79 72 80 48 81 49 82 58 83 50 84 51 85 57 86 59 87
REMARK SMILES IDX 52 88 53 89 54 90 55 91 56 92
REMARK H PARENT 7 12 7 13 80 42 46 53
REMARK Flexibility Score: inf
ROOT
ATOM      1  O   UNL A   1      33.057  29.528  26.988  1.00  0.00    -0.458 OA
ENDROOT
BRANCH   1   2
ATOM      2  C   UNL A   1      32.245  29.330  25.927  1.00  0.00     0.339 C 
ATOM      3  O   UNL A   1      31.751  30.191  25.218  1.00  0.00    -0.246 OA
BRANCH   2   4
ATOM      4  C   UNL A   1      31.993  27.906  25.690  1.00  0.00     0.078 A 
ATOM      5  C   UNL A   1      32.250  25.199  25.932  1.00  0.00     0.094 A 
ATOM      6  C   UNL A   1      32.772  25.830  24.797  1.00  0.00     0.031 A 
ATOM      7  N   UNL A   1      31.438  25.839  26.802  1.00  0.00    -0.254 NA
ATOM      8  C   UNL A   1      32.659  27.216  24.686  1.00  0.00     0.019 A 
ATOM      9  C   UNL A   1      31.335  27.178  26.667  1.00  0.00     0.127 A 
BRANCH   5  10
ATOM     10  C   UNL A   1      32.804  23.861  26.389  1.00  0.00     0.318 C 
BRANCH  10  11
ATOM     11  N   UNL A   1      32.844  22.835  25.325  1.00  0.00    -0.339 N 
ATOM     12  H   UNL A   1      31.901  22.744  24.948  1.00  0.00     0.346 HD
ATOM     13  H   UNL A   1      33.538  23.169  24.654  1.00  0.00     0.346 HD
BRANCH  11  14
ATOM     14  C   UNL A   1      33.304  21.487  25.726  1.00  0.00     0.179 C 
ATOM     15  C   UNL A   1      34.685  21.447  26.391  1.00  0.00     0.075 C 
BRANCH  14  16
ATOM     16  C   UNL A   1      33.309  20.641  24.429  1.00  0.00     0.065 C 
BRANCH  16  17
ATOM     17  C   UNL A   1      33.952  19.249  24.519  1.00  0.00     0.006 C 
BRANCH  17  18
ATOM     18  C   UNL A   1      32.981  18.069  24.449  1.00  0.00    -0.003 C 
ATOM     19  C   UNL A   1      32.657  17.488  25.815  1.00  0.00     0.004 C 
ENDBRANCH  17  18
ENDBRANCH  16  17
ENDBRANCH  14  16
ENDBRANCH  11  14
ENDBRANCH  10  11
ENDBRANCH   5  10
ENDBRANCH   2   4
ENDBRANCH   1   2
BRANCH   1  20
ATOM     20  C   UNL A   1      33.184  30.909  27.383  1.00  0.00     0.275 C 
BRANCH  20  21
ATOM     21  C   UNL A   1      34.632  31.255  27.740  1.00  0.00     0.275 C 
BRANCH  21  22
ATOM     22  O   UNL A   1      35.282  30.183  28.454  1.00  0.00    -0.458 OA
BRANCH  22  23
ATOM     23  C   UNL A   1      36.253  30.575  29.307  1.00  0.00     0.338 C 
ATOM     24  O   UNL A   1      36.141  31.354  30.242  1.00  0.00    -0.246 OA
BRANCH  23  25
ATOM     25  C   UNL A   1      37.516  29.877  29.033  1.00  0.00     0.060 A 
ATOM     26  C   UNL A   1      38.318  29.507  30.109  1.00  0.00     0.016 A 
ATOM     27  C   UNL A   1      38.014  29.808  27.733  1.00  0.00     0.016 A 
ATOM     28  C   UNL A   1      39.659  29.207  29.905  1.00  0.00     0.010 A 
ATOM     29  C   UNL A   1      39.327  29.366  27.522  1.00  0.00     0.010 A 
ATOM     30  C   UNL A   1      40.179  29.098  28.608  1.00  0.00    -0.014 A 
BRANCH  30  31
ATOM     31  C   UNL A   1      41.601  28.697  28.404  1.00  0.00     0.031 A 
ATOM     32  C   UNL A   1      42.711  29.714  28.494  1.00  0.00     0.074 A 
ATOM     33  C   UNL A   1      41.896  27.409  28.133  1.00  0.00     0.049 A 
ATOM     34  N   UNL A   1      43.974  29.589  28.176  1.00  0.00    -0.248 NA
ATOM     35  C   UNL A   1      42.352  31.052  28.994  1.00  0.00     0.031 C 
ATOM     36  C   UNL A   1      40.923  26.314  28.051  1.00  0.00     0.029 A 
ATOM     37  N   UNL A   1      43.097  26.793  27.877  1.00  0.00    -0.354 N 
ATOM     38  C   UNL A   1      44.549  30.840  28.383  1.00  0.00     0.074 A 
ATOM     39  C   UNL A   1      43.492  31.714  28.845  1.00  0.00     0.031 C 
ATOM     40  C   UNL A   1      41.565  25.165  27.809  1.00  0.00     0.029 A 
ATOM     41  C   UNL A   1      42.979  25.449  27.609  1.00  0.00     0.049 A 
ATOM     42  H   UNL A   1      43.959  27.268  27.886  1.00  0.00     0.167 HD
ATOM     43  C   UNL A   1      45.838  31.219  28.203  1.00  0.00     0.037 A 
ATOM     44  C   UNL A   1      43.889  24.549  27.191  1.00  0.00     0.037 A 
ATOM     45  C   UNL A   1      46.889  30.322  27.786  1.00  0.00     0.049 A 
ATOM     46  C   UNL A   1      45.301  25.001  26.959  1.00  0.00     0.074 A 
ATOM     47  C   UNL A   1      48.232  30.599  27.596  1.00  0.00     0.029 A 
ATOM     48  N   UNL A   1      46.719  28.974  27.503  1.00  0.00    -0.354 N 
ATOM     49  N   UNL A   1      45.820  26.195  27.122  1.00  0.00    -0.248 NA
ATOM     50  C   UNL A   1      46.249  23.991  26.473  1.00  0.00     0.031 C 
ATOM     51  C   UNL A   1      48.862  29.433  27.150  1.00  0.00     0.029 A 
ATOM     52  C   UNL A   1      47.927  28.412  27.120  1.00  0.00     0.049 A 
ATOM     53  H   UNL A   1      45.865  28.487  27.566  1.00  0.00     0.167 HD
ATOM     54  C   UNL A   1      47.161  26.076  26.780  1.00  0.00     0.074 A 
ATOM     55  C   UNL A   1      47.374  24.689  26.415  1.00  0.00     0.031 C 
ATOM     56  C   UNL A   1      48.125  27.027  26.767  1.00  0.00     0.037 A 
BRANCH  43  57
ATOM     57  C   UNL A   1      46.188  32.669  28.419  1.00  0.00     0.058 A 
ATOM     58  C   UNL A   1      46.089  33.625  27.396  1.00  0.00     0.135 A 
ATOM     59  C   UNL A   1      46.586  33.119  29.691  1.00  0.00     0.135 A 
ATOM     60  F   UNL A   1      45.727  33.256  26.157  1.00  0.00    -0.206 F 
ATOM     61  C   UNL A   1      46.401  34.965  27.616  1.00  0.00     0.059 A 
ATOM     62  C   UNL A   1      46.871  34.458  29.943  1.00  0.00     0.059 A 
ATOM     63  F   UNL A   1      46.693  32.252  30.710  1.00  0.00    -0.206 F 
ATOM     64  C   UNL A   1      46.791  35.372  28.893  1.00  0.00     0.060 A 
BRANCH  64  65
ATOM     65  S   UNL A   1      47.188  37.113  29.165  1.00  0.00     0.124 S 
ATOM     66  O   UNL A   1      47.440  37.134  30.602  1.00  0.00    -0.237 OA
ATOM     67  O   UNL A   1      48.359  37.303  28.315  1.00  0.00    -0.237 OA
ATOM     68  O   UNL A   1      45.982  37.811  28.731  1.00  0.00    -0.744 OA
ENDBRANCH  64  65
ENDBRANCH  43  57
BRANCH  44  69
ATOM     69  C   UNL A   1      43.472  23.145  26.926  1.00  0.00     0.058 A 
ATOM     70  C   UNL A   1      43.391  22.649  25.618  1.00  0.00     0.135 A 
ATOM     71  C   UNL A   1      43.177  22.262  27.979  1.00  0.00     0.135 A 
ATOM     72  F   UNL A   1      43.653  23.454  24.577  1.00  0.00    -0.206 F 
ATOM     73  C   UNL A   1      43.025  21.331  25.359  1.00  0.00     0.059 A 
ATOM     74  C   UNL A   1      42.843  20.933  27.748  1.00  0.00     0.059 A 
ATOM     75  F   UNL A   1      43.255  22.682  29.251  1.00  0.00    -0.206 F 
ATOM     76  C   UNL A   1      42.758  20.479  26.433  1.00  0.00     0.060 A 
BRANCH  76  77
ATOM     77  S   UNL A   1      42.337  18.757  26.090  1.00  0.00     0.124 S 
ATOM     78  O   UNL A   1      40.937  18.871  25.699  1.00  0.00    -0.237 OA
ATOM     79  O   UNL A   1      43.273  18.419  25.023  1.00  0.00    -0.237 OA
ATOM     80  O   UNL A   1      42.585  18.090  27.365  1.00  0.00    -0.744 OA
ENDBRANCH  76  77
ENDBRANCH  44  69
BRANCH  56  81
ATOM     81  C   UNL A   1      49.514  26.592  26.389  1.00  0.00     0.058 A 
ATOM     82  C   UNL A   1      50.013  26.755  25.088  1.00  0.00     0.135 A 
ATOM     83  C   UNL A   1      50.370  26.040  27.356  1.00  0.00     0.135 A 
ATOM     84  F   UNL A   1      49.232  27.268  24.123  1.00  0.00    -0.206 F 
ATOM     85  C   UNL A   1      51.305  26.362  24.752  1.00  0.00     0.059 A 
ATOM     86  C   UNL A   1      51.674  25.668  27.049  1.00  0.00     0.059 A 
ATOM     87  F   UNL A   1      49.943  25.869  28.618  1.00  0.00    -0.206 F 
ATOM     88  C   UNL A   1      52.128  25.822  25.741  1.00  0.00     0.060 A 
BRANCH  88  89
ATOM     89  S   UNL A   1      53.813  25.347  25.298  1.00  0.00     0.124 S 
ATOM     90  O   UNL A   1      53.732  23.892  25.348  1.00  0.00    -0.237 OA
ATOM     91  O   UNL A   1      53.962  25.930  23.968  1.00  0.00    -0.237 OA
ATOM     92  O   UNL A   1      54.626  25.966  26.342  1.00  0.00    -0.744 OA
ENDBRANCH  88  89
ENDBRANCH  56  81
ENDBRANCH  30  31
ENDBRANCH  23  25
ENDBRANCH  22  23
ENDBRANCH  21  22
ENDBRANCH  20  21
ENDBRANCH   1  20
TORSDOF 20
ENDMDL
