MODEL 1
REMARK VINA RESULT:     -10.5      0.000      0.000
REMARK SMILES O=C(Cc1ccc(=O)n(C(F)F)c1)OCCOC(=O)c1ccc(-c2c3nc(c(-c4c(F)cc(S(=O)(=O)[O-])cc4F)c4ccc([nH]4)c(-c4c(F)cc(S(=O)(=O)[O-])cc4F)c4nc(c(-c5c(F)cc(S(=O)(=O)[O-])cc5F)c5ccc2[nH]5)C=C4)C=C3)cc1
REMARK SMILES IDX 16 1 15 2 14 3 2 4 1 5 3 6 4 7 5 8 13 9 6 10 9 11 7 12 8 13
REMARK SMILES IDX 10 14 11 15 12 16 17 17 18 18 19 19 20 20 21 21 85 22 22 23
REMARK SMILES IDX 84 24 23 25 24 26 25 27 78 28 26 29 83 30 77 31 79 32 27 33
REMARK SMILES IDX 82 34 76 35 75 36 28 38 62 39 41 40 61 41 42 42 45 43 60 44
REMARK SMILES IDX 80 45 43 46 44 47 59 49 81 50 46 51 29 52 30 53 39 54 31 55
REMARK SMILES IDX 32 56 38 57 40 58 33 59 34 60 35 61 36 62 37 63 63 64 64 65
REMARK SMILES IDX 73 66 65 67 66 68 72 69 74 70 67 71 68 72 69 73 70 74 71 75
REMARK SMILES IDX 47 76 48 77 57 78 49 79 50 80 56 81 58 82 51 83 52 84 53 85
REMARK SMILES IDX 54 86 55 87
REMARK H PARENT 79 37 45 48
REMARK Flexibility Score: inf
ROOT
ATOM      1  C   UNL A   1      37.639  33.105  31.542  1.00  0.00     0.275 C 
ENDROOT
BRANCH   1   2
ATOM      2  C   UNL A   1      37.683  32.960  33.064  1.00  0.00     0.274 C 
BRANCH   2   3
ATOM      3  O   UNL A   1      36.978  34.019  33.741  1.00  0.00    -0.462 OA
BRANCH   3   4
ATOM      4  C   UNL A   1      35.839  33.841  34.457  1.00  0.00     0.310 C 
ATOM      5  O   UNL A   1      35.883  33.823  35.686  1.00  0.00    -0.252 OA
BRANCH   4   6
ATOM      6  C   UNL A   1      34.542  33.564  33.715  1.00  0.00     0.159 C 
BRANCH   6   7
ATOM      7  C   UNL A   1      34.136  34.675  32.789  1.00  0.00    -0.020 A 
ATOM      8  C   UNL A   1      34.072  36.020  33.321  1.00  0.00     0.011 A 
ATOM      9  C   UNL A   1      33.925  34.493  31.474  1.00  0.00     0.099 A 
ATOM     10  C   UNL A   1      33.691  37.046  32.555  1.00  0.00     0.072 A 
ATOM     11  N   UNL A   1      33.578  35.549  30.646  1.00  0.00    -0.258 N 
ATOM     12  C   UNL A   1      33.353  36.831  31.123  1.00  0.00     0.254 A 
ATOM     13  O   UNL A   1      32.929  37.788  30.485  1.00  0.00    -0.269 OA
BRANCH  11  14
ATOM     14  C   UNL A   1      33.361  35.334  29.236  1.00  0.00     0.451 C 
ATOM     15  F   UNL A   1      34.486  35.632  28.541  1.00  0.00    -0.185 F 
ATOM     16  F   UNL A   1      33.042  34.042  28.988  1.00  0.00    -0.185 F 
ENDBRANCH  11  14
ENDBRANCH   6   7
ENDBRANCH   4   6
ENDBRANCH   3   4
ENDBRANCH   2   3
ENDBRANCH   1   2
BRANCH   1  17
ATOM     17  O   UNL A   1      36.652  32.226  30.980  1.00  0.00    -0.458 OA
BRANCH  17  18
ATOM     18  C   UNL A   1      36.816  30.908  31.264  1.00  0.00     0.338 C 
ATOM     19  O   UNL A   1      35.991  30.172  31.777  1.00  0.00    -0.246 OA
BRANCH  18  20
ATOM     20  C   UNL A   1      38.090  30.434  30.671  1.00  0.00     0.060 A 
ATOM     21  C   UNL A   1      38.336  30.498  29.296  1.00  0.00     0.016 A 
ATOM     22  C   UNL A   1      39.043  29.865  31.525  1.00  0.00     0.016 A 
ATOM     23  C   UNL A   1      39.539  30.004  28.783  1.00  0.00     0.010 A 
ATOM     24  C   UNL A   1      40.249  29.379  31.012  1.00  0.00     0.010 A 
ATOM     25  C   UNL A   1      40.511  29.455  29.638  1.00  0.00    -0.014 A 
BRANCH  25  26
ATOM     26  C   UNL A   1      41.851  29.111  29.100  1.00  0.00     0.031 A 
ATOM     27  C   UNL A   1      42.980  30.096  29.077  1.00  0.00     0.074 A 
ATOM     28  C   UNL A   1      42.042  27.865  28.625  1.00  0.00     0.049 A 
ATOM     29  N   UNL A   1      44.235  29.894  28.766  1.00  0.00    -0.248 NA
ATOM     30  C   UNL A   1      42.665  31.484  29.442  1.00  0.00     0.031 C 
ATOM     31  C   UNL A   1      41.007  26.831  28.552  1.00  0.00     0.029 A 
ATOM     32  N   UNL A   1      43.164  27.254  28.128  1.00  0.00    -0.354 N 
ATOM     33  C   UNL A   1      44.871  31.118  28.920  1.00  0.00     0.074 A 
ATOM     34  C   UNL A   1      43.849  32.071  29.306  1.00  0.00     0.031 C 
ATOM     35  C   UNL A   1      41.551  25.703  28.070  1.00  0.00     0.029 A 
ATOM     36  C   UNL A   1      42.964  25.939  27.784  1.00  0.00     0.049 A 
ATOM     37  H   UNL A   1      44.028  27.713  28.027  1.00  0.00     0.167 HD
ATOM     38  C   UNL A   1      46.186  31.411  28.770  1.00  0.00     0.037 A 
ATOM     39  C   UNL A   1      43.821  25.017  27.305  1.00  0.00     0.037 A 
ATOM     40  C   UNL A   1      47.193  30.462  28.363  1.00  0.00     0.049 A 
ATOM     41  C   UNL A   1      45.265  25.376  27.108  1.00  0.00     0.074 A 
ATOM     42  C   UNL A   1      48.561  30.654  28.253  1.00  0.00     0.029 A 
ATOM     43  N   UNL A   1      46.946  29.154  27.972  1.00  0.00    -0.354 N 
ATOM     44  N   UNL A   1      45.872  26.510  27.364  1.00  0.00    -0.248 NA
ATOM     45  C   UNL A   1      46.142  24.332  26.559  1.00  0.00     0.031 C 
ATOM     46  C   UNL A   1      49.131  29.483  27.744  1.00  0.00     0.029 A 
ATOM     47  C   UNL A   1      48.127  28.542  27.583  1.00  0.00     0.049 A 
ATOM     48  H   UNL A   1      46.061  28.722  27.973  1.00  0.00     0.167 HD
ATOM     49  C   UNL A   1      47.205  26.312  27.022  1.00  0.00     0.074 A 
ATOM     50  C   UNL A   1      47.319  24.947  26.552  1.00  0.00     0.031 C 
ATOM     51  C   UNL A   1      48.237  27.187  27.097  1.00  0.00     0.037 A 
BRANCH  38  52
ATOM     52  C   UNL A   1      46.627  32.819  29.057  1.00  0.00     0.058 A 
ATOM     53  C   UNL A   1      46.543  33.823  28.080  1.00  0.00     0.135 A 
ATOM     54  C   UNL A   1      47.073  33.185  30.337  1.00  0.00     0.135 A 
ATOM     55  F   UNL A   1      46.131  33.524  26.837  1.00  0.00    -0.206 F 
ATOM     56  C   UNL A   1      46.905  35.137  28.355  1.00  0.00     0.059 A 
ATOM     57  C   UNL A   1      47.419  34.500  30.641  1.00  0.00     0.059 A 
ATOM     58  F   UNL A   1      47.169  32.266  31.309  1.00  0.00    -0.206 F 
ATOM     59  C   UNL A   1      47.344  35.465  29.638  1.00  0.00     0.060 A 
BRANCH  59  60
ATOM     60  S   UNL A   1      47.819  37.174  29.974  1.00  0.00     0.124 S 
ATOM     61  O   UNL A   1      46.883  37.526  31.038  1.00  0.00    -0.237 OA
ATOM     62  O   UNL A   1      49.215  37.037  30.375  1.00  0.00    -0.237 OA
ATOM     63  O   UNL A   1      47.597  37.846  28.698  1.00  0.00    -0.744 OA
ENDBRANCH  59  60
ENDBRANCH  38  52
BRANCH  39  64
ATOM     64  C   UNL A   1      43.324  23.646  27.032  1.00  0.00     0.058 A 
ATOM     65  C   UNL A   1      43.070  23.227  25.719  1.00  0.00     0.135 A 
ATOM     66  C   UNL A   1      43.170  22.709  28.066  1.00  0.00     0.135 A 
ATOM     67  F   UNL A   1      43.202  24.091  24.701  1.00  0.00    -0.206 F 
ATOM     68  C   UNL A   1      42.685  21.921  25.437  1.00  0.00     0.059 A 
ATOM     69  C   UNL A   1      42.807  21.393  27.806  1.00  0.00     0.059 A 
ATOM     70  F   UNL A   1      43.420  23.064  29.336  1.00  0.00    -0.206 F 
ATOM     71  C   UNL A   1      42.569  21.008  26.487  1.00  0.00     0.060 A 
BRANCH  71  72
ATOM     72  S   UNL A   1      42.162  19.294  26.096  1.00  0.00     0.124 S 
ATOM     73  O   UNL A   1      42.520  18.615  27.336  1.00  0.00    -0.237 OA
ATOM     74  O   UNL A   1      40.735  19.379  25.804  1.00  0.00    -0.237 OA
ATOM     75  O   UNL A   1      43.014  18.999  24.947  1.00  0.00    -0.744 OA
ENDBRANCH  71  72
ENDBRANCH  39  64
BRANCH  51  76
ATOM     76  C   UNL A   1      49.592  26.711  26.649  1.00  0.00     0.058 A 
ATOM     77  C   UNL A   1      50.462  26.051  27.531  1.00  0.00     0.135 A 
ATOM     78  C   UNL A   1      49.991  26.840  25.308  1.00  0.00     0.135 A 
ATOM     79  F   UNL A   1      50.134  25.913  28.826  1.00  0.00    -0.206 F 
ATOM     80  C   UNL A   1      51.679  25.535  27.100  1.00  0.00     0.059 A 
ATOM     81  C   UNL A   1      51.194  26.310  24.851  1.00  0.00     0.059 A 
ATOM     82  F   UNL A   1      49.194  27.459  24.423  1.00  0.00    -0.206 F 
ATOM     83  C   UNL A   1      52.033  25.661  25.755  1.00  0.00     0.060 A 
BRANCH  83  84
ATOM     84  S   UNL A   1      53.586  24.926  25.199  1.00  0.00     0.124 S 
ATOM     85  O   UNL A   1      54.477  25.240  26.312  1.00  0.00    -0.237 OA
ATOM     86  O   UNL A   1      53.229  23.519  25.052  1.00  0.00    -0.237 OA
ATOM     87  O   UNL A   1      53.869  25.629  23.951  1.00  0.00    -0.744 OA
ENDBRANCH  83  84
ENDBRANCH  51  76
ENDBRANCH  25  26
ENDBRANCH  18  20
ENDBRANCH  17  18
ENDBRANCH   1  17
TORSDOF 16
ENDMDL
MODEL 2
REMARK VINA RESULT:     -10.5      5.764     14.298
REMARK SMILES O=C(Cc1ccc(=O)n(C(F)F)c1)OCCOC(=O)c1ccc(-c2c3nc(c(-c4c(F)cc(S(=O)(=O)[O-])cc4F)c4ccc([nH]4)c(-c4c(F)cc(S(=O)(=O)[O-])cc4F)c4nc(c(-c5c(F)cc(S(=O)(=O)[O-])cc5F)c5ccc2[nH]5)C=C4)C=C3)cc1
REMARK SMILES IDX 16 1 15 2 14 3 2 4 1 5 3 6 4 7 5 8 13 9 6 10 9 11 7 12 8 13
REMARK SMILES IDX 10 14 11 15 12 16 17 17 18 18 19 19 20 20 21 21 85 22 22 23
REMARK SMILES IDX 84 24 23 25 24 26 25 27 78 28 26 29 83 30 77 31 79 32 27 33
REMARK SMILES IDX 82 34 76 35 75 36 28 38 62 39 41 40 61 41 42 42 45 43 60 44
REMARK SMILES IDX 80 45 43 46 44 47 59 49 81 50 46 51 29 52 30 53 39 54 31 55
REMARK SMILES IDX 32 56 38 57 40 58 33 59 34 60 35 61 36 62 37 63 63 64 64 65
REMARK SMILES IDX 73 66 65 67 66 68 72 69 74 70 67 71 68 72 69 73 70 74 71 75
REMARK SMILES IDX 47 76 48 77 57 78 49 79 50 80 56 81 58 82 51 83 52 84 53 85
REMARK SMILES IDX 54 86 55 87
REMARK H PARENT 79 37 45 48
REMARK Flexibility Score: inf
ROOT
ATOM      1  C   UNL A   1      44.037  25.282  25.065  1.00  0.00     0.275 C 
ENDROOT
BRANCH   1   2
ATOM      2  C   UNL A   1      45.474  25.705  25.373  1.00  0.00     0.274 C 
BRANCH   2   3
ATOM      3  O   UNL A   1      46.437  24.692  25.020  1.00  0.00    -0.462 OA
BRANCH   3   4
ATOM      4  C   UNL A   1      46.327  23.384  25.361  1.00  0.00     0.310 C 
ATOM      5  O   UNL A   1      46.497  23.037  26.529  1.00  0.00    -0.252 OA
BRANCH   4   6
ATOM      6  C   UNL A   1      46.096  22.356  24.264  1.00  0.00     0.159 C 
BRANCH   6   7
ATOM      7  C   UNL A   1      45.216  21.216  24.692  1.00  0.00    -0.020 A 
ATOM      8  C   UNL A   1      45.720  19.868  24.539  1.00  0.00     0.011 A 
ATOM      9  C   UNL A   1      44.028  21.394  25.295  1.00  0.00     0.099 A 
ATOM     10  C   UNL A   1      44.974  18.811  24.874  1.00  0.00     0.072 A 
ATOM     11  N   UNL A   1      43.256  20.316  25.700  1.00  0.00    -0.258 N 
ATOM     12  C   UNL A   1      43.615  19.001  25.444  1.00  0.00     0.254 A 
ATOM     13  O   UNL A   1      42.939  18.001  25.658  1.00  0.00    -0.269 OA
BRANCH  11  14
ATOM     14  C   UNL A   1      41.986  20.527  26.351  1.00  0.00     0.451 C 
ATOM     15  F   UNL A   1      42.180  20.945  27.625  1.00  0.00    -0.185 F 
ATOM     16  F   UNL A   1      41.262  21.471  25.703  1.00  0.00    -0.185 F 
ENDBRANCH  11  14
ENDBRANCH   6   7
ENDBRANCH   4   6
ENDBRANCH   3   4
ENDBRANCH   2   3
ENDBRANCH   1   2
BRANCH   1  17
ATOM     17  O   UNL A   1      43.164  26.423  25.064  1.00  0.00    -0.458 OA
BRANCH  17  18
ATOM     18  C   UNL A   1      41.915  26.201  25.550  1.00  0.00     0.338 C 
ATOM     19  O   UNL A   1      41.100  25.410  25.109  1.00  0.00    -0.246 OA
BRANCH  18  20
ATOM     20  C   UNL A   1      41.754  26.923  26.835  1.00  0.00     0.060 A 
ATOM     21  C   UNL A   1      42.395  28.141  27.086  1.00  0.00     0.016 A 
ATOM     22  C   UNL A   1      40.971  26.327  27.832  1.00  0.00     0.016 A 
ATOM     23  C   UNL A   1      42.239  28.763  28.328  1.00  0.00     0.010 A 
ATOM     24  C   UNL A   1      40.810  26.954  29.071  1.00  0.00     0.010 A 
ATOM     25  C   UNL A   1      41.434  28.183  29.324  1.00  0.00    -0.014 A 
BRANCH  25  26
ATOM     26  C   UNL A   1      41.131  28.947  30.561  1.00  0.00     0.031 A 
ATOM     27  C   UNL A   1      41.958  28.813  31.804  1.00  0.00     0.074 A 
ATOM     28  C   UNL A   1      40.078  29.785  30.545  1.00  0.00     0.049 A 
ATOM     29  N   UNL A   1      41.894  29.517  32.906  1.00  0.00    -0.248 NA
ATOM     30  C   UNL A   1      42.981  27.759  31.819  1.00  0.00     0.031 C 
ATOM     31  C   UNL A   1      39.170  29.966  29.410  1.00  0.00     0.029 A 
ATOM     32  N   UNL A   1      39.599  30.645  31.500  1.00  0.00    -0.354 N 
ATOM     33  C   UNL A   1      42.882  29.012  33.740  1.00  0.00     0.074 A 
ATOM     34  C   UNL A   1      43.499  27.906  33.032  1.00  0.00     0.031 C 
ATOM     35  C   UNL A   1      38.264  30.905  29.722  1.00  0.00     0.029 A 
ATOM     36  C   UNL A   1      38.514  31.377  31.082  1.00  0.00     0.049 A 
ATOM     37  H   UNL A   1      39.994  30.730  32.396  1.00  0.00     0.167 HD
ATOM     38  C   UNL A   1      43.248  29.443  34.972  1.00  0.00     0.037 A 
ATOM     39  C   UNL A   1      37.805  32.332  31.712  1.00  0.00     0.037 A 
ATOM     40  C   UNL A   1      42.614  30.528  35.680  1.00  0.00     0.049 A 
ATOM     41  C   UNL A   1      38.203  32.766  33.093  1.00  0.00     0.074 A 
ATOM     42  C   UNL A   1      42.965  31.078  36.903  1.00  0.00     0.029 A 
ATOM     43  N   UNL A   1      41.486  31.210  35.249  1.00  0.00    -0.354 N 
ATOM     44  N   UNL A   1      39.210  32.353  33.824  1.00  0.00    -0.248 NA
ATOM     45  C   UNL A   1      37.373  33.795  33.734  1.00  0.00     0.031 C 
ATOM     46  C   UNL A   1      42.018  32.053  37.234  1.00  0.00     0.029 A 
ATOM     47  C   UNL A   1      41.104  32.146  36.198  1.00  0.00     0.049 A 
ATOM     48  H   UNL A   1      41.024  31.054  34.394  1.00  0.00     0.167 HD
ATOM     49  C   UNL A   1      39.144  33.082  35.006  1.00  0.00     0.074 A 
ATOM     50  C   UNL A   1      38.005  33.969  34.888  1.00  0.00     0.031 C 
ATOM     51  C   UNL A   1      39.959  33.018  36.087  1.00  0.00     0.037 A 
BRANCH  38  52
ATOM     52  C   UNL A   1      44.401  28.750  35.644  1.00  0.00     0.058 A 
ATOM     53  C   UNL A   1      45.718  29.209  35.489  1.00  0.00     0.135 A 
ATOM     54  C   UNL A   1      44.183  27.661  36.504  1.00  0.00     0.135 A 
ATOM     55  F   UNL A   1      45.982  30.242  34.671  1.00  0.00    -0.206 F 
ATOM     56  C   UNL A   1      46.783  28.601  36.145  1.00  0.00     0.059 A 
ATOM     57  C   UNL A   1      45.231  27.052  37.189  1.00  0.00     0.059 A 
ATOM     58  F   UNL A   1      42.943  27.185  36.691  1.00  0.00    -0.206 F 
ATOM     59  C   UNL A   1      46.529  27.521  36.992  1.00  0.00     0.060 A 
BRANCH  59  60
ATOM     60  S   UNL A   1      47.923  26.738  37.829  1.00  0.00     0.124 S 
ATOM     61  O   UNL A   1      49.036  27.162  36.985  1.00  0.00    -0.237 OA
ATOM     62  O   UNL A   1      47.867  27.338  39.157  1.00  0.00    -0.237 OA
ATOM     63  O   UNL A   1      47.600  25.316  37.770  1.00  0.00    -0.744 OA
ENDBRANCH  59  60
ENDBRANCH  38  52
BRANCH  39  64
ATOM     64  C   UNL A   1      36.671  32.974  31.001  1.00  0.00     0.058 A 
ATOM     65  C   UNL A   1      35.350  32.740  31.406  1.00  0.00     0.135 A 
ATOM     66  C   UNL A   1      36.891  33.889  29.959  1.00  0.00     0.135 A 
ATOM     67  F   UNL A   1      35.094  31.871  32.396  1.00  0.00    -0.206 F 
ATOM     68  C   UNL A   1      34.282  33.398  30.806  1.00  0.00     0.059 A 
ATOM     69  C   UNL A   1      35.841  34.573  29.360  1.00  0.00     0.059 A 
ATOM     70  F   UNL A   1      38.142  34.155  29.552  1.00  0.00    -0.206 F 
ATOM     71  C   UNL A   1      34.539  34.322  29.792  1.00  0.00     0.060 A 
BRANCH  71  72
ATOM     72  S   UNL A   1      33.151  35.238  29.089  1.00  0.00     0.124 S 
ATOM     73  O   UNL A   1      33.817  36.419  28.555  1.00  0.00    -0.237 OA
ATOM     74  O   UNL A   1      32.633  34.295  28.103  1.00  0.00    -0.237 OA
ATOM     75  O   UNL A   1      32.283  35.469  30.241  1.00  0.00    -0.744 OA
ENDBRANCH  71  72
ENDBRANCH  39  64
BRANCH  51  76
ATOM     76  C   UNL A   1      39.653  33.923  37.249  1.00  0.00     0.058 A 
ATOM     77  C   UNL A   1      38.853  33.491  38.319  1.00  0.00     0.135 A 
ATOM     78  C   UNL A   1      40.231  35.200  37.336  1.00  0.00     0.135 A 
ATOM     79  F   UNL A   1      38.267  32.284  38.280  1.00  0.00    -0.206 F 
ATOM     80  C   UNL A   1      38.637  34.293  39.434  1.00  0.00     0.059 A 
ATOM     81  C   UNL A   1      40.047  36.009  38.453  1.00  0.00     0.059 A 
ATOM     82  F   UNL A   1      41.008  35.659  36.342  1.00  0.00    -0.206 F 
ATOM     83  C   UNL A   1      39.246  35.549  39.497  1.00  0.00     0.060 A 
BRANCH  83  84
ATOM     84  S   UNL A   1      39.009  36.549  40.982  1.00  0.00     0.124 S 
ATOM     85  O   UNL A   1      37.938  35.825  41.659  1.00  0.00    -0.237 OA
ATOM     86  O   UNL A   1      40.321  36.478  41.617  1.00  0.00    -0.237 OA
ATOM     87  O   UNL A   1      38.645  37.861  40.455  1.00  0.00    -0.744 OA
ENDBRANCH  83  84
ENDBRANCH  51  76
ENDBRANCH  25  26
ENDBRANCH  18  20
ENDBRANCH  17  18
ENDBRANCH   1  17
TORSDOF 16
ENDMDL
MODEL 3
REMARK VINA RESULT:     -10.4      6.620     13.649
REMARK SMILES O=C(Cc1ccc(=O)n(C(F)F)c1)OCCOC(=O)c1ccc(-c2c3nc(c(-c4c(F)cc(S(=O)(=O)[O-])cc4F)c4ccc([nH]4)c(-c4c(F)cc(S(=O)(=O)[O-])cc4F)c4nc(c(-c5c(F)cc(S(=O)(=O)[O-])cc5F)c5ccc2[nH]5)C=C4)C=C3)cc1
REMARK SMILES IDX 16 1 15 2 14 3 2 4 1 5 3 6 4 7 5 8 13 9 6 10 9 11 7 12 8 13
REMARK SMILES IDX 10 14 11 15 12 16 17 17 18 18 19 19 20 20 21 21 85 22 22 23
REMARK SMILES IDX 84 24 23 25 24 26 25 27 78 28 26 29 83 30 77 31 79 32 27 33
REMARK SMILES IDX 82 34 76 35 75 36 28 38 62 39 41 40 61 41 42 42 45 43 60 44
REMARK SMILES IDX 80 45 43 46 44 47 59 49 81 50 46 51 29 52 30 53 39 54 31 55
REMARK SMILES IDX 32 56 38 57 40 58 33 59 34 60 35 61 36 62 37 63 63 64 64 65
REMARK SMILES IDX 73 66 65 67 66 68 72 69 74 70 67 71 68 72 69 73 70 74 71 75
REMARK SMILES IDX 47 76 48 77 57 78 49 79 50 80 56 81 58 82 51 83 52 84 53 85
REMARK SMILES IDX 54 86 55 87
REMARK H PARENT 79 37 45 48
REMARK Flexibility Score: inf
ROOT
ATOM      1  C   UNL A   1      41.297  22.405  26.409  1.00  0.00     0.275 C 
ENDROOT
BRANCH   1   2
ATOM      2  C   UNL A   1      40.222  21.328  26.264  1.00  0.00     0.274 C 
BRANCH   2   3
ATOM      3  O   UNL A   1      38.899  21.882  26.120  1.00  0.00    -0.462 OA
BRANCH   3   4
ATOM      4  C   UNL A   1      37.967  21.417  25.251  1.00  0.00     0.310 C 
ATOM      5  O   UNL A   1      37.963  20.229  24.932  1.00  0.00    -0.252 OA
BRANCH   4   6
ATOM      6  C   UNL A   1      37.008  22.405  24.606  1.00  0.00     0.159 C 
BRANCH   6   7
ATOM      7  C   UNL A   1      35.565  22.013  24.748  1.00  0.00    -0.020 A 
ATOM      8  C   UNL A   1      35.107  21.543  26.038  1.00  0.00     0.011 A 
ATOM      9  C   UNL A   1      34.664  22.168  23.762  1.00  0.00     0.099 A 
ATOM     10  C   UNL A   1      33.842  21.153  26.220  1.00  0.00     0.072 A 
ATOM     11  N   UNL A   1      33.334  21.820  23.941  1.00  0.00    -0.258 N 
ATOM     12  C   UNL A   1      32.866  21.224  25.101  1.00  0.00     0.254 A 
ATOM     13  O   UNL A   1      31.740  20.777  25.295  1.00  0.00    -0.269 OA
BRANCH  11  14
ATOM     14  C   UNL A   1      32.380  21.999  22.873  1.00  0.00     0.451 C 
ATOM     15  F   UNL A   1      32.840  22.917  21.987  1.00  0.00    -0.185 F 
ATOM     16  F   UNL A   1      32.175  20.838  22.208  1.00  0.00    -0.185 F 
ENDBRANCH  11  14
ENDBRANCH   6   7
ENDBRANCH   4   6
ENDBRANCH   3   4
ENDBRANCH   2   3
ENDBRANCH   1   2
BRANCH   1  17
ATOM     17  O   UNL A   1      40.702  23.713  26.423  1.00  0.00    -0.458 OA
BRANCH  17  18
ATOM     18  C   UNL A   1      41.576  24.750  26.349  1.00  0.00     0.338 C 
ATOM     19  O   UNL A   1      42.359  24.971  25.442  1.00  0.00    -0.246 OA
BRANCH  18  20
ATOM     20  C   UNL A   1      41.298  25.704  27.450  1.00  0.00     0.060 A 
ATOM     21  C   UNL A   1      40.197  25.555  28.299  1.00  0.00     0.016 A 
ATOM     22  C   UNL A   1      42.148  26.807  27.596  1.00  0.00     0.016 A 
ATOM     23  C   UNL A   1      39.959  26.502  29.299  1.00  0.00     0.010 A 
ATOM     24  C   UNL A   1      41.914  27.750  28.601  1.00  0.00     0.010 A 
ATOM     25  C   UNL A   1      40.823  27.598  29.468  1.00  0.00    -0.014 A 
BRANCH  25  26
ATOM     26  C   UNL A   1      40.662  28.486  30.647  1.00  0.00     0.031 A 
ATOM     27  C   UNL A   1      41.539  28.374  31.857  1.00  0.00     0.074 A 
ATOM     28  C   UNL A   1      39.691  29.419  30.609  1.00  0.00     0.049 A 
ATOM     29  N   UNL A   1      41.602  29.167  32.897  1.00  0.00    -0.248 NA
ATOM     30  C   UNL A   1      42.459  27.230  31.914  1.00  0.00     0.031 C 
ATOM     31  C   UNL A   1      38.743  29.594  29.507  1.00  0.00     0.029 A 
ATOM     32  N   UNL A   1      39.347  30.395  31.508  1.00  0.00    -0.354 N 
ATOM     33  C   UNL A   1      42.583  28.638  33.723  1.00  0.00     0.074 A 
ATOM     34  C   UNL A   1      43.055  27.425  33.085  1.00  0.00     0.031 C 
ATOM     35  C   UNL A   1      37.946  30.638  29.779  1.00  0.00     0.029 A 
ATOM     36  C   UNL A   1      38.313  31.193  31.080  1.00  0.00     0.049 A 
ATOM     37  H   UNL A   1      39.798  30.514  32.374  1.00  0.00     0.167 HD
ATOM     38  C   UNL A   1      43.055  29.130  34.895  1.00  0.00     0.037 A 
ATOM     39  C   UNL A   1      37.732  32.260  31.658  1.00  0.00     0.037 A 
ATOM     40  C   UNL A   1      42.564  30.325  35.536  1.00  0.00     0.049 A 
ATOM     41  C   UNL A   1      38.243  32.763  32.977  1.00  0.00     0.074 A 
ATOM     42  C   UNL A   1      43.031  30.936  36.689  1.00  0.00     0.029 A 
ATOM     43  N   UNL A   1      41.482  31.077  35.102  1.00  0.00    -0.354 N 
ATOM     44  N   UNL A   1      39.247  32.315  33.693  1.00  0.00    -0.248 NA
ATOM     45  C   UNL A   1      37.549  33.917  33.566  1.00  0.00     0.031 C 
ATOM     46  C   UNL A   1      42.199  32.022  36.980  1.00  0.00     0.029 A 
ATOM     47  C   UNL A   1      41.241  32.119  35.983  1.00  0.00     0.049 A 
ATOM     48  H   UNL A   1      40.961  30.897  34.286  1.00  0.00     0.167 HD
ATOM     49  C   UNL A   1      39.314  33.141  34.809  1.00  0.00     0.074 A 
ATOM     50  C   UNL A   1      38.257  34.122  34.669  1.00  0.00     0.031 C 
ATOM     51  C   UNL A   1      40.177  33.086  35.853  1.00  0.00     0.037 A 
BRANCH  38  52
ATOM     52  C   UNL A   1      44.174  28.385  35.568  1.00  0.00     0.058 A 
ATOM     53  C   UNL A   1      43.915  27.378  36.512  1.00  0.00     0.135 A 
ATOM     54  C   UNL A   1      45.512  28.628  35.219  1.00  0.00     0.135 A 
ATOM     55  F   UNL A   1      42.653  27.112  36.888  1.00  0.00    -0.206 F 
ATOM     56  C   UNL A   1      44.944  26.654  37.103  1.00  0.00     0.059 A 
ATOM     57  C   UNL A   1      46.557  27.899  35.781  1.00  0.00     0.059 A 
ATOM     58  F   UNL A   1      45.814  29.576  34.319  1.00  0.00    -0.206 F 
ATOM     59  C   UNL A   1      46.263  26.923  36.731  1.00  0.00     0.060 A 
BRANCH  59  60
ATOM     60  S   UNL A   1      47.587  25.979  37.515  1.00  0.00     0.124 S 
ATOM     61  O   UNL A   1      46.823  25.035  38.325  1.00  0.00    -0.237 OA
ATOM     62  O   UNL A   1      48.287  25.412  36.367  1.00  0.00    -0.237 OA
ATOM     63  O   UNL A   1      48.328  26.989  38.263  1.00  0.00    -0.744 OA
ENDBRANCH  59  60
ENDBRANCH  38  52
BRANCH  39  64
ATOM     64  C   UNL A   1      36.625  32.949  30.950  1.00  0.00     0.058 A 
ATOM     65  C   UNL A   1      35.301  32.817  31.392  1.00  0.00     0.135 A 
ATOM     66  C   UNL A   1      36.878  33.810  29.870  1.00  0.00     0.135 A 
ATOM     67  F   UNL A   1      35.014  32.003  32.418  1.00  0.00    -0.206 F 
ATOM     68  C   UNL A   1      34.264  33.522  30.792  1.00  0.00     0.059 A 
ATOM     69  C   UNL A   1      35.860  34.540  29.268  1.00  0.00     0.059 A 
ATOM     70  F   UNL A   1      38.133  33.979  29.426  1.00  0.00    -0.206 F 
ATOM     71  C   UNL A   1      34.555  34.390  29.738  1.00  0.00     0.060 A 
BRANCH  71  72
ATOM     72  S   UNL A   1      33.213  35.369  29.033  1.00  0.00     0.124 S 
ATOM     73  O   UNL A   1      32.519  35.825  30.232  1.00  0.00    -0.237 OA
ATOM     74  O   UNL A   1      33.941  36.391  28.288  1.00  0.00    -0.237 OA
ATOM     75  O   UNL A   1      32.487  34.403  28.212  1.00  0.00    -0.744 OA
ENDBRANCH  71  72
ENDBRANCH  39  64
BRANCH  51  76
ATOM     76  C   UNL A   1      40.021  34.107  36.946  1.00  0.00     0.058 A 
ATOM     77  C   UNL A   1      40.573  35.392  36.828  1.00  0.00     0.135 A 
ATOM     78  C   UNL A   1      39.243  33.830  38.081  1.00  0.00     0.135 A 
ATOM     79  F   UNL A   1      41.335  35.705  35.768  1.00  0.00    -0.206 F 
ATOM     80  C   UNL A   1      40.359  36.367  37.797  1.00  0.00     0.059 A 
ATOM     81  C   UNL A   1      38.996  34.797  39.052  1.00  0.00     0.059 A 
ATOM     82  F   UNL A   1      38.688  32.617  38.240  1.00  0.00    -0.206 F 
ATOM     83  C   UNL A   1      39.561  36.062  38.902  1.00  0.00     0.060 A 
BRANCH  83  84
ATOM     84  S   UNL A   1      39.239  37.359  40.116  1.00  0.00     0.124 S 
ATOM     85  O   UNL A   1      40.591  37.805  40.440  1.00  0.00    -0.237 OA
ATOM     86  O   UNL A   1      38.426  38.303  39.356  1.00  0.00    -0.237 OA
ATOM     87  O   UNL A   1      38.536  36.658  41.187  1.00  0.00    -0.744 OA
ENDBRANCH  83  84
ENDBRANCH  51  76
ENDBRANCH  25  26
ENDBRANCH  18  20
ENDBRANCH  17  18
ENDBRANCH   1  17
TORSDOF 16
ENDMDL
