MODEL 1
REMARK VINA RESULT:     -10.0      0.000      0.000
REMARK SMILES COc1ccc(-c2nc(NCC(=O)OCCOC(=O)c3ccc(-c4c5nc(c(-c6c(F)cc(S(=O)(=O)[O-])cc6F)c6ccc([nH]6)c(-c6c(F)cc(S(=O)(=O)[O-])cc6F)c6nc(c(-c7c(F)cc(S(=O)(=O)[O-])cc7F)c7ccc4[nH]7)C=C6)C=C5)cc3)sc2-c2ccc(OC)cc2)cc1
REMARK SMILES IDX 15 1 14 2 12 3 13 4 11 5 10 6 9 8 7 9 8 10 87 11 86 12 6 13
REMARK SMILES IDX 3 14 4 15 97 16 5 17 96 18 2 19 1 20 88 21 89 22 95 23 90 24
REMARK SMILES IDX 94 25 91 26 92 27 93 28 16 29 17 30 18 31 19 32 20 33 21 34
REMARK SMILES IDX 85 35 22 36 84 37 23 38 24 39 25 40 78 41 26 42 83 43 77 44
REMARK SMILES IDX 79 45 27 46 82 47 76 48 75 49 28 51 62 52 41 53 61 54 42 55
REMARK SMILES IDX 45 56 60 57 80 58 43 59 44 60 59 62 81 63 46 64 29 65 30 66
REMARK SMILES IDX 39 67 31 68 32 69 38 70 40 71 33 72 34 73 35 74 36 75 37 76
REMARK SMILES IDX 63 77 64 78 73 79 65 80 66 81 72 82 74 83 67 84 68 85 69 86
REMARK SMILES IDX 70 87 71 88 47 89 48 90 57 91 49 92 50 93 56 94 58 95 51 96
REMARK SMILES IDX 52 97 53 98 54 99 55 100
REMARK H PARENT 10 7 79 50 45 61
REMARK Flexibility Score: inf
ROOT
ATOM      1  C   UNL A   1      40.830  20.827  27.561  1.00  0.00     0.274 C 
ENDROOT
BRANCH   1   2
ATOM      2  O   UNL A   1      42.128  20.237  27.388  1.00  0.00    -0.461 OA
BRANCH   2   3
ATOM      3  C   UNL A   1      42.389  19.711  26.159  1.00  0.00     0.325 C 
ATOM      4  O   UNL A   1      41.641  18.954  25.551  1.00  0.00    -0.250 OA
BRANCH   3   5
ATOM      5  C   UNL A   1      43.749  20.131  25.622  1.00  0.00     0.238 C 
BRANCH   5   6
ATOM      6  N   UNL A   1      43.734  21.412  24.927  1.00  0.00    -0.351 N 
ATOM      7  H   UNL A   1      43.497  21.417  23.971  1.00  0.00     0.163 HD
BRANCH   6   8
ATOM      8  C   UNL A   1      44.027  22.591  25.513  1.00  0.00     0.184 A 
ATOM      9  C   UNL A   1      44.681  24.016  27.088  1.00  0.00     0.091 A 
ATOM     10  N   UNL A   1      44.377  22.697  26.776  1.00  0.00    -0.220 NA
ATOM     11  C   UNL A   1      44.635  24.897  26.019  1.00  0.00     0.064 A 
ATOM     12  S   UNL A   1      44.008  24.086  24.657  1.00  0.00    -0.096 S 
BRANCH   9  13
ATOM     13  C   UNL A   1      45.109  24.415  28.422  1.00  0.00     0.002 A 
ATOM     14  C   UNL A   1      45.816  25.440  30.937  1.00  0.00     0.118 A 
ATOM     15  C   UNL A   1      44.605  24.772  30.771  1.00  0.00     0.047 A 
ATOM     16  C   UNL A   1      46.710  25.531  29.868  1.00  0.00     0.047 A 
ATOM     17  C   UNL A   1      44.249  24.267  29.519  1.00  0.00     0.014 A 
ATOM     18  C   UNL A   1      46.358  25.014  28.614  1.00  0.00     0.014 A 
BRANCH  14  19
ATOM     19  O   UNL A   1      46.054  25.934  32.191  1.00  0.00    -0.497 OA
ATOM     20  C   UNL A   1      47.424  25.903  32.581  1.00  0.00     0.278 C 
ENDBRANCH  14  19
ENDBRANCH   9  13
BRANCH  11  21
ATOM     21  C   UNL A   1      45.089  26.276  25.864  1.00  0.00    -0.006 A 
ATOM     22  C   UNL A   1      46.138  26.607  25.000  1.00  0.00     0.013 A 
ATOM     23  C   UNL A   1      44.510  27.283  26.647  1.00  0.00     0.013 A 
ATOM     24  C   UNL A   1      46.606  27.920  24.937  1.00  0.00     0.047 A 
ATOM     25  C   UNL A   1      44.977  28.597  26.578  1.00  0.00     0.047 A 
ATOM     26  C   UNL A   1      46.029  28.920  25.723  1.00  0.00     0.118 A 
BRANCH  26  27
ATOM     27  O   UNL A   1      46.588  30.160  25.575  1.00  0.00    -0.497 OA
ATOM     28  C   UNL A   1      45.956  31.224  26.273  1.00  0.00     0.278 C 
ENDBRANCH  26  27
ENDBRANCH  11  21
ENDBRANCH   6   8
ENDBRANCH   5   6
ENDBRANCH   3   5
ENDBRANCH   2   3
ENDBRANCH   1   2
BRANCH   1  29
ATOM     29  C   UNL A   1      40.698  22.117  26.746  1.00  0.00     0.275 C 
BRANCH  29  30
ATOM     30  O   UNL A   1      40.985  23.294  27.527  1.00  0.00    -0.458 OA
BRANCH  30  31
ATOM     31  C   UNL A   1      40.736  24.477  26.913  1.00  0.00     0.338 C 
ATOM     32  O   UNL A   1      40.494  24.658  25.732  1.00  0.00    -0.246 OA
BRANCH  31  33
ATOM     33  C   UNL A   1      40.621  25.540  27.927  1.00  0.00     0.060 A 
ATOM     34  C   UNL A   1      41.710  26.400  28.096  1.00  0.00     0.016 A 
ATOM     35  C   UNL A   1      39.486  25.670  28.729  1.00  0.00     0.016 A 
ATOM     36  C   UNL A   1      41.670  27.402  29.058  1.00  0.00     0.010 A 
ATOM     37  C   UNL A   1      39.447  26.679  29.697  1.00  0.00     0.010 A 
ATOM     38  C   UNL A   1      40.536  27.551  29.864  1.00  0.00    -0.014 A 
BRANCH  38  39
ATOM     39  C   UNL A   1      40.500  28.624  30.885  1.00  0.00     0.031 A 
ATOM     40  C   UNL A   1      41.418  28.564  32.069  1.00  0.00     0.074 A 
ATOM     41  C   UNL A   1      39.646  29.654  30.732  1.00  0.00     0.049 A 
ATOM     42  N   UNL A   1      41.456  29.336  33.124  1.00  0.00    -0.248 NA
ATOM     43  C   UNL A   1      42.428  27.493  32.068  1.00  0.00     0.031 C 
ATOM     44  C   UNL A   1      38.747  29.840  29.591  1.00  0.00     0.029 A 
ATOM     45  N   UNL A   1      39.389  30.730  31.540  1.00  0.00    -0.354 N 
ATOM     46  C   UNL A   1      42.476  28.836  33.923  1.00  0.00     0.074 A 
ATOM     47  C   UNL A   1      43.027  27.687  33.234  1.00  0.00     0.031 C 
ATOM     48  C   UNL A   1      38.031  30.961  29.777  1.00  0.00     0.029 A 
ATOM     49  C   UNL A   1      38.379  31.538  31.072  1.00  0.00     0.049 A 
ATOM     50  H   UNL A   1      39.879  30.908  32.376  1.00  0.00     0.167 HD
ATOM     51  C   UNL A   1      42.907  29.297  35.121  1.00  0.00     0.037 A 
ATOM     52  C   UNL A   1      37.774  32.597  31.642  1.00  0.00     0.037 A 
ATOM     53  C   UNL A   1      42.355  30.448  35.787  1.00  0.00     0.049 A 
ATOM     54  C   UNL A   1      38.222  33.047  33.005  1.00  0.00     0.074 A 
ATOM     55  C   UNL A   1      42.728  31.006  36.998  1.00  0.00     0.029 A 
ATOM     56  N   UNL A   1      41.308  31.219  35.300  1.00  0.00    -0.354 N 
ATOM     57  N   UNL A   1      39.176  32.555  33.760  1.00  0.00    -0.248 NA
ATOM     58  C   UNL A   1      37.505  34.181  33.601  1.00  0.00     0.031 C 
ATOM     59  C   UNL A   1      41.880  32.086  37.262  1.00  0.00     0.029 A 
ATOM     60  C   UNL A   1      41.005  32.230  36.197  1.00  0.00     0.049 A 
ATOM     61  H   UNL A   1      40.848  31.068  34.443  1.00  0.00     0.167 HD
ATOM     62  C   UNL A   1      39.179  33.325  34.918  1.00  0.00     0.074 A 
ATOM     63  C   UNL A   1      38.144  34.326  34.754  1.00  0.00     0.031 C 
ATOM     64  C   UNL A   1      39.965  33.212  36.017  1.00  0.00     0.037 A 
BRANCH  51  65
ATOM     65  C   UNL A   1      44.005  28.533  35.806  1.00  0.00     0.058 A 
ATOM     66  C   UNL A   1      43.733  27.484  36.699  1.00  0.00     0.135 A 
ATOM     67  C   UNL A   1      45.351  28.837  35.542  1.00  0.00     0.135 A 
ATOM     68  F   UNL A   1      42.465  27.164  37.000  1.00  0.00    -0.206 F 
ATOM     69  C   UNL A   1      44.758  26.779  37.324  1.00  0.00     0.059 A 
ATOM     70  C   UNL A   1      46.390  28.131  36.138  1.00  0.00     0.059 A 
ATOM     71  F   UNL A   1      45.665  29.832  34.698  1.00  0.00    -0.206 F 
ATOM     72  C   UNL A   1      46.084  27.111  37.040  1.00  0.00     0.060 A 
BRANCH  72  73
ATOM     73  S   UNL A   1      47.403  26.190  37.858  1.00  0.00     0.124 S 
ATOM     74  O   UNL A   1      46.841  26.000  39.191  1.00  0.00    -0.237 OA
ATOM     75  O   UNL A   1      47.504  24.989  37.036  1.00  0.00    -0.237 OA
ATOM     76  O   UNL A   1      48.546  27.094  37.782  1.00  0.00    -0.744 OA
ENDBRANCH  72  73
ENDBRANCH  51  65
BRANCH  52  77
ATOM     77  C   UNL A   1      36.650  33.271  30.942  1.00  0.00     0.058 A 
ATOM     78  C   UNL A   1      35.321  33.065  31.335  1.00  0.00     0.135 A 
ATOM     79  C   UNL A   1      36.888  34.154  29.876  1.00  0.00     0.135 A 
ATOM     80  F   UNL A   1      35.043  32.221  32.341  1.00  0.00    -0.206 F 
ATOM     81  C   UNL A   1      34.265  33.706  30.695  1.00  0.00     0.059 A 
ATOM     82  C   UNL A   1      35.852  34.825  29.236  1.00  0.00     0.059 A 
ATOM     83  F   UNL A   1      38.144  34.392  29.467  1.00  0.00    -0.206 F 
ATOM     84  C   UNL A   1      34.542  34.588  29.648  1.00  0.00     0.060 A 
BRANCH  84  85
ATOM     85  S   UNL A   1      33.171  35.462  28.862  1.00  0.00     0.124 S 
ATOM     86  O   UNL A   1      33.878  36.436  28.038  1.00  0.00    -0.237 OA
ATOM     87  O   UNL A   1      32.493  34.389  28.141  1.00  0.00    -0.237 OA
ATOM     88  O   UNL A   1      32.430  36.011  29.994  1.00  0.00    -0.744 OA
ENDBRANCH  84  85
ENDBRANCH  52  77
BRANCH  64  89
ATOM     89  C   UNL A   1      39.740  34.203  37.124  1.00  0.00     0.058 A 
ATOM     90  C   UNL A   1      38.947  33.888  38.238  1.00  0.00     0.135 A 
ATOM     91  C   UNL A   1      40.361  35.462  37.092  1.00  0.00     0.135 A 
ATOM     92  F   UNL A   1      38.324  32.701  38.310  1.00  0.00    -0.206 F 
ATOM     93  C   UNL A   1      38.763  34.796  39.276  1.00  0.00     0.059 A 
ATOM     94  C   UNL A   1      40.209  36.375  38.129  1.00  0.00     0.059 A 
ATOM     95  F   UNL A   1      41.137  35.806  36.052  1.00  0.00    -0.206 F 
ATOM     96  C   UNL A   1      39.399  36.037  39.213  1.00  0.00     0.060 A 
BRANCH  96  97
ATOM     97  S   UNL A   1      39.182  37.192  40.583  1.00  0.00     0.124 S 
ATOM     98  O   UNL A   1      38.269  38.170  40.001  1.00  0.00    -0.237 OA
ATOM     99  O   UNL A   1      38.619  36.341  41.627  1.00  0.00    -0.237 OA
ATOM    100  O   UNL A   1      40.537  37.673  40.839  1.00  0.00    -0.744 OA
ENDBRANCH  96  97
ENDBRANCH  64  89
ENDBRANCH  38  39
ENDBRANCH  31  33
ENDBRANCH  30  31
ENDBRANCH  29  30
ENDBRANCH   1  29
TORSDOF 20
ENDMDL
MODEL 2
REMARK VINA RESULT:      -9.9      3.666      6.340
REMARK SMILES COc1ccc(-c2nc(NCC(=O)OCCOC(=O)c3ccc(-c4c5nc(c(-c6c(F)cc(S(=O)(=O)[O-])cc6F)c6ccc([nH]6)c(-c6c(F)cc(S(=O)(=O)[O-])cc6F)c6nc(c(-c7c(F)cc(S(=O)(=O)[O-])cc7F)c7ccc4[nH]7)C=C6)C=C5)cc3)sc2-c2ccc(OC)cc2)cc1
REMARK SMILES IDX 15 1 14 2 12 3 13 4 11 5 10 6 9 8 7 9 8 10 87 11 86 12 6 13
REMARK SMILES IDX 3 14 4 15 97 16 5 17 96 18 2 19 1 20 88 21 89 22 95 23 90 24
REMARK SMILES IDX 94 25 91 26 92 27 93 28 16 29 17 30 18 31 19 32 20 33 21 34
REMARK SMILES IDX 85 35 22 36 84 37 23 38 24 39 25 40 78 41 26 42 83 43 77 44
REMARK SMILES IDX 79 45 27 46 82 47 76 48 75 49 28 51 62 52 41 53 61 54 42 55
REMARK SMILES IDX 45 56 60 57 80 58 43 59 44 60 59 62 81 63 46 64 29 65 30 66
REMARK SMILES IDX 39 67 31 68 32 69 38 70 40 71 33 72 34 73 35 74 36 75 37 76
REMARK SMILES IDX 63 77 64 78 73 79 65 80 66 81 72 82 74 83 67 84 68 85 69 86
REMARK SMILES IDX 70 87 71 88 47 89 48 90 57 91 49 92 50 93 56 94 58 95 51 96
REMARK SMILES IDX 52 97 53 98 54 99 55 100
REMARK H PARENT 10 7 79 50 45 61
REMARK Flexibility Score: inf
ROOT
ATOM      1  C   UNL A   1      42.890  21.810  25.744  1.00  0.00     0.274 C 
ENDROOT
BRANCH   1   2
ATOM      2  O   UNL A   1      42.460  20.800  26.670  1.00  0.00    -0.461 OA
BRANCH   2   3
ATOM      3  C   UNL A   1      41.161  20.869  27.072  1.00  0.00     0.325 C 
ATOM      4  O   UNL A   1      40.784  20.764  28.234  1.00  0.00    -0.250 OA
BRANCH   3   5
ATOM      5  C   UNL A   1      40.199  21.050  25.907  1.00  0.00     0.238 C 
BRANCH   5   6
ATOM      6  N   UNL A   1      39.330  22.213  26.040  1.00  0.00    -0.351 N 
ATOM      7  H   UNL A   1      39.711  23.034  26.429  1.00  0.00     0.163 HD
BRANCH   6   8
ATOM      8  C   UNL A   1      38.036  22.233  25.663  1.00  0.00     0.184 A 
ATOM      9  C   UNL A   1      35.988  21.477  25.239  1.00  0.00     0.091 A 
ATOM     10  N   UNL A   1      37.292  21.151  25.590  1.00  0.00    -0.220 NA
ATOM     11  C   UNL A   1      35.734  22.835  25.128  1.00  0.00     0.064 A 
ATOM     12  S   UNL A   1      37.202  23.689  25.271  1.00  0.00    -0.096 S 
BRANCH   9  13
ATOM     13  C   UNL A   1      34.951  20.465  25.097  1.00  0.00     0.002 A 
ATOM     14  C   UNL A   1      33.020  18.428  25.088  1.00  0.00     0.118 A 
ATOM     15  C   UNL A   1      32.682  19.709  25.518  1.00  0.00     0.047 A 
ATOM     16  C   UNL A   1      34.302  18.180  24.590  1.00  0.00     0.047 A 
ATOM     17  C   UNL A   1      33.643  20.722  25.529  1.00  0.00     0.014 A 
ATOM     18  C   UNL A   1      35.263  19.199  24.590  1.00  0.00     0.014 A 
BRANCH  14  19
ATOM     19  O   UNL A   1      32.021  17.496  25.155  1.00  0.00    -0.497 OA
ATOM     20  C   UNL A   1      32.480  16.155  25.294  1.00  0.00     0.278 C 
ENDBRANCH  14  19
ENDBRANCH   9  13
BRANCH  11  21
ATOM     21  C   UNL A   1      34.493  23.593  25.009  1.00  0.00    -0.006 A 
ATOM     22  C   UNL A   1      33.829  24.090  26.136  1.00  0.00     0.013 A 
ATOM     23  C   UNL A   1      33.914  23.771  23.746  1.00  0.00     0.013 A 
ATOM     24  C   UNL A   1      32.601  24.738  25.996  1.00  0.00     0.047 A 
ATOM     25  C   UNL A   1      32.687  24.424  23.609  1.00  0.00     0.047 A 
ATOM     26  C   UNL A   1      32.025  24.908  24.735  1.00  0.00     0.118 A 
BRANCH  26  27
ATOM     27  O   UNL A   1      30.815  25.548  24.738  1.00  0.00    -0.497 OA
ATOM     28  C   UNL A   1      30.631  26.553  23.752  1.00  0.00     0.278 C 
ENDBRANCH  26  27
ENDBRANCH  11  21
ENDBRANCH   6   8
ENDBRANCH   5   6
ENDBRANCH   3   5
ENDBRANCH   2   3
ENDBRANCH   1   2
BRANCH   1  29
ATOM     29  C   UNL A   1      43.120  23.148  26.455  1.00  0.00     0.275 C 
BRANCH  29  30
ATOM     30  O   UNL A   1      41.927  23.953  26.513  1.00  0.00    -0.458 OA
BRANCH  30  31
ATOM     31  C   UNL A   1      42.070  25.239  26.106  1.00  0.00     0.338 C 
ATOM     32  O   UNL A   1      42.238  25.636  24.966  1.00  0.00    -0.246 OA
BRANCH  31  33
ATOM     33  C   UNL A   1      41.815  26.144  27.241  1.00  0.00     0.060 A 
ATOM     34  C   UNL A   1      42.647  27.257  27.386  1.00  0.00     0.016 A 
ATOM     35  C   UNL A   1      40.809  25.886  28.173  1.00  0.00     0.016 A 
ATOM     36  C   UNL A   1      42.473  28.128  28.454  1.00  0.00     0.010 A 
ATOM     37  C   UNL A   1      40.634  26.763  29.248  1.00  0.00     0.010 A 
ATOM     38  C   UNL A   1      41.463  27.890  29.393  1.00  0.00    -0.014 A 
BRANCH  38  39
ATOM     39  C   UNL A   1      41.282  28.825  30.527  1.00  0.00     0.031 A 
ATOM     40  C   UNL A   1      42.173  28.729  31.728  1.00  0.00     0.074 A 
ATOM     41  C   UNL A   1      40.320  29.765  30.461  1.00  0.00     0.049 A 
ATOM     42  N   UNL A   1      42.100  29.371  32.865  1.00  0.00    -0.248 NA
ATOM     43  C   UNL A   1      43.298  27.784  31.641  1.00  0.00     0.031 C 
ATOM     44  C   UNL A   1      39.431  29.983  29.318  1.00  0.00     0.029 A 
ATOM     45  N   UNL A   1      39.923  30.704  31.377  1.00  0.00    -0.354 N 
ATOM     46  C   UNL A   1      43.152  28.897  33.638  1.00  0.00     0.074 A 
ATOM     47  C   UNL A   1      43.845  27.905  32.843  1.00  0.00     0.031 C 
ATOM     48  C   UNL A   1      38.588  30.988  29.605  1.00  0.00     0.029 A 
ATOM     49  C   UNL A   1      38.839  31.444  30.969  1.00  0.00     0.049 A 
ATOM     50  H   UNL A   1      40.371  30.836  32.245  1.00  0.00     0.167 HD
ATOM     51  C   UNL A   1      43.500  29.260  34.895  1.00  0.00     0.037 A 
ATOM     52  C   UNL A   1      38.105  32.356  31.634  1.00  0.00     0.037 A 
ATOM     53  C   UNL A   1      42.806  30.257  35.667  1.00  0.00     0.049 A 
ATOM     54  C   UNL A   1      38.468  32.690  33.054  1.00  0.00     0.074 A 
ATOM     55  C   UNL A   1      43.086  30.706  36.946  1.00  0.00     0.029 A 
ATOM     56  N   UNL A   1      41.689  30.959  35.235  1.00  0.00    -0.354 N 
ATOM     57  N   UNL A   1      39.454  32.221  33.782  1.00  0.00    -0.248 NA
ATOM     58  C   UNL A   1      37.613  33.660  33.749  1.00  0.00     0.031 C 
ATOM     59  C   UNL A   1      42.115  31.648  37.302  1.00  0.00     0.029 A 
ATOM     60  C   UNL A   1      41.252  31.818  36.229  1.00  0.00     0.049 A 
ATOM     61  H   UNL A   1      41.269  30.859  34.350  1.00  0.00     0.167 HD
ATOM     62  C   UNL A   1      39.343  32.847  35.019  1.00  0.00     0.074 A 
ATOM     63  C   UNL A   1      38.205  33.740  34.933  1.00  0.00     0.031 C 
ATOM     64  C   UNL A   1      40.112  32.693  36.125  1.00  0.00     0.037 A 
BRANCH  51  65
ATOM     65  C   UNL A   1      44.662  28.546  35.527  1.00  0.00     0.058 A 
ATOM     66  C   UNL A   1      44.493  27.369  36.273  1.00  0.00     0.135 A 
ATOM     67  C   UNL A   1      45.969  29.034  35.360  1.00  0.00     0.135 A 
ATOM     68  F   UNL A   1      43.265  26.869  36.477  1.00  0.00    -0.206 F 
ATOM     69  C   UNL A   1      45.577  26.713  36.849  1.00  0.00     0.059 A 
ATOM     70  C   UNL A   1      47.068  28.384  35.909  1.00  0.00     0.059 A 
ATOM     71  F   UNL A   1      46.185  30.158  34.659  1.00  0.00    -0.206 F 
ATOM     72  C   UNL A   1      46.861  27.229  36.665  1.00  0.00     0.060 A 
BRANCH  72  73
ATOM     73  S   UNL A   1      48.258  26.369  37.419  1.00  0.00     0.124 S 
ATOM     74  O   UNL A   1      47.660  25.080  37.752  1.00  0.00    -0.237 OA
ATOM     75  O   UNL A   1      49.238  26.353  36.339  1.00  0.00    -0.237 OA
ATOM     76  O   UNL A   1      48.601  27.214  38.559  1.00  0.00    -0.744 OA
ENDBRANCH  72  73
ENDBRANCH  51  65
BRANCH  52  77
ATOM     77  C   UNL A   1      36.927  32.980  30.975  1.00  0.00     0.058 A 
ATOM     78  C   UNL A   1      37.068  34.097  30.141  1.00  0.00     0.135 A 
ATOM     79  C   UNL A   1      35.638  32.452  31.152  1.00  0.00     0.135 A 
ATOM     80  F   UNL A   1      38.279  34.643  29.950  1.00  0.00    -0.206 F 
ATOM     81  C   UNL A   1      35.972  34.674  29.508  1.00  0.00     0.059 A 
ATOM     82  C   UNL A   1      34.530  32.996  30.510  1.00  0.00     0.059 A 
ATOM     83  F   UNL A   1      35.452  31.378  31.933  1.00  0.00    -0.206 F 
ATOM     84  C   UNL A   1      34.707  34.114  29.696  1.00  0.00     0.060 A 
BRANCH  84  85
ATOM     85  S   UNL A   1      33.298  34.832  28.823  1.00  0.00     0.124 S 
ATOM     86  O   UNL A   1      32.883  33.722  27.973  1.00  0.00    -0.237 OA
ATOM     87  O   UNL A   1      32.395  35.170  29.918  1.00  0.00    -0.237 OA
ATOM     88  O   UNL A   1      33.883  35.976  28.128  1.00  0.00    -0.744 OA
ENDBRANCH  84  85
ENDBRANCH  52  77
BRANCH  64  89
ATOM     89  C   UNL A   1      39.751  33.516  37.329  1.00  0.00     0.058 A 
ATOM     90  C   UNL A   1      38.814  33.065  38.270  1.00  0.00     0.135 A 
ATOM     91  C   UNL A   1      40.382  34.748  37.567  1.00  0.00     0.135 A 
ATOM     92  F   UNL A   1      38.175  31.899  38.083  1.00  0.00    -0.206 F 
ATOM     93  C   UNL A   1      38.501  33.815  39.399  1.00  0.00     0.059 A 
ATOM     94  C   UNL A   1      40.102  35.504  38.700  1.00  0.00     0.059 A 
ATOM     95  F   UNL A   1      41.293  35.219  36.700  1.00  0.00    -0.206 F 
ATOM     96  C   UNL A   1      39.152  35.033  39.606  1.00  0.00     0.060 A 
BRANCH  96  97
ATOM     97  S   UNL A   1      38.765  35.980  41.094  1.00  0.00     0.124 S 
ATOM     98  O   UNL A   1      39.963  35.767  41.897  1.00  0.00    -0.237 OA
ATOM     99  O   UNL A   1      38.584  37.330  40.569  1.00  0.00    -0.237 OA
ATOM    100  O   UNL A   1      37.551  35.342  41.596  1.00  0.00    -0.744 OA
ENDBRANCH  96  97
ENDBRANCH  64  89
ENDBRANCH  38  39
ENDBRANCH  31  33
ENDBRANCH  30  31
ENDBRANCH  29  30
ENDBRANCH   1  29
TORSDOF 20
ENDMDL
MODEL 3
REMARK VINA RESULT:      -9.9      3.673     10.146
REMARK SMILES COc1ccc(-c2nc(NCC(=O)OCCOC(=O)c3ccc(-c4c5nc(c(-c6c(F)cc(S(=O)(=O)[O-])cc6F)c6ccc([nH]6)c(-c6c(F)cc(S(=O)(=O)[O-])cc6F)c6nc(c(-c7c(F)cc(S(=O)(=O)[O-])cc7F)c7ccc4[nH]7)C=C6)C=C5)cc3)sc2-c2ccc(OC)cc2)cc1
REMARK SMILES IDX 15 1 14 2 12 3 13 4 11 5 10 6 9 8 7 9 8 10 87 11 86 12 6 13
REMARK SMILES IDX 3 14 4 15 97 16 5 17 96 18 2 19 1 20 88 21 89 22 95 23 90 24
REMARK SMILES IDX 94 25 91 26 92 27 93 28 16 29 17 30 18 31 19 32 20 33 21 34
REMARK SMILES IDX 85 35 22 36 84 37 23 38 24 39 25 40 78 41 26 42 83 43 77 44
REMARK SMILES IDX 79 45 27 46 82 47 76 48 75 49 28 51 62 52 41 53 61 54 42 55
REMARK SMILES IDX 45 56 60 57 80 58 43 59 44 60 59 62 81 63 46 64 29 65 30 66
REMARK SMILES IDX 39 67 31 68 32 69 38 70 40 71 33 72 34 73 35 74 36 75 37 76
REMARK SMILES IDX 63 77 64 78 73 79 65 80 66 81 72 82 74 83 67 84 68 85 69 86
REMARK SMILES IDX 70 87 71 88 47 89 48 90 57 91 49 92 50 93 56 94 58 95 51 96
REMARK SMILES IDX 52 97 53 98 54 99 55 100
REMARK H PARENT 10 7 79 50 45 61
REMARK Flexibility Score: inf
ROOT
ATOM      1  C   UNL A   1      43.309  22.487  25.644  1.00  0.00     0.274 C 
ENDROOT
BRANCH   1   2
ATOM      2  O   UNL A   1      42.005  21.906  25.491  1.00  0.00    -0.461 OA
BRANCH   2   3
ATOM      3  C   UNL A   1      41.445  21.383  26.617  1.00  0.00     0.325 C 
ATOM      4  O   UNL A   1      42.065  21.095  27.635  1.00  0.00    -0.250 OA
BRANCH   3   5
ATOM      5  C   UNL A   1      39.950  21.146  26.469  1.00  0.00     0.238 C 
BRANCH   5   6
ATOM      6  N   UNL A   1      39.247  22.239  25.807  1.00  0.00    -0.351 N 
ATOM      7  H   UNL A   1      39.757  23.053  25.589  1.00  0.00     0.163 HD
BRANCH   6   8
ATOM      8  C   UNL A   1      37.940  22.204  25.477  1.00  0.00     0.184 A 
ATOM      9  C   UNL A   1      35.912  21.361  25.131  1.00  0.00     0.091 A 
ATOM     10  N   UNL A   1      37.240  21.091  25.436  1.00  0.00    -0.220 NA
ATOM     11  C   UNL A   1      35.598  22.706  25.022  1.00  0.00     0.064 A 
ATOM     12  S   UNL A   1      37.034  23.622  25.108  1.00  0.00    -0.096 S 
BRANCH   9  13
ATOM     13  C   UNL A   1      34.913  20.306  25.031  1.00  0.00     0.002 A 
ATOM     14  C   UNL A   1      33.083  18.179  25.092  1.00  0.00     0.118 A 
ATOM     15  C   UNL A   1      32.727  19.421  25.611  1.00  0.00     0.047 A 
ATOM     16  C   UNL A   1      34.325  18.017  24.474  1.00  0.00     0.047 A 
ATOM     17  C   UNL A   1      33.638  20.479  25.586  1.00  0.00     0.014 A 
ATOM     18  C   UNL A   1      35.235  19.080  24.439  1.00  0.00     0.014 A 
BRANCH  14  19
ATOM     19  O   UNL A   1      32.136  17.196  25.200  1.00  0.00    -0.497 OA
ATOM     20  C   UNL A   1      32.622  15.975  25.750  1.00  0.00     0.278 C 
ENDBRANCH  14  19
ENDBRANCH   9  13
BRANCH  11  21
ATOM     21  C   UNL A   1      34.323  23.413  24.944  1.00  0.00    -0.006 A 
ATOM     22  C   UNL A   1      33.738  23.993  26.075  1.00  0.00     0.013 A 
ATOM     23  C   UNL A   1      33.633  23.453  23.726  1.00  0.00     0.013 A 
ATOM     24  C   UNL A   1      32.479  24.587  25.986  1.00  0.00     0.047 A 
ATOM     25  C   UNL A   1      32.374  24.053  23.638  1.00  0.00     0.047 A 
ATOM     26  C   UNL A   1      31.792  24.620  24.770  1.00  0.00     0.118 A 
BRANCH  26  27
ATOM     27  O   UNL A   1      30.563  25.221  24.821  1.00  0.00    -0.497 OA
ATOM     28  C   UNL A   1      30.529  26.612  24.536  1.00  0.00     0.278 C 
ENDBRANCH  26  27
ENDBRANCH  11  21
ENDBRANCH   6   8
ENDBRANCH   5   6
ENDBRANCH   3   5
ENDBRANCH   2   3
ENDBRANCH   1   2
BRANCH   1  29
ATOM     29  C   UNL A   1      43.293  23.979  25.296  1.00  0.00     0.275 C 
BRANCH  29  30
ATOM     30  O   UNL A   1      42.872  24.798  26.404  1.00  0.00    -0.458 OA
BRANCH  30  31
ATOM     31  C   UNL A   1      41.834  25.634  26.152  1.00  0.00     0.338 C 
ATOM     32  O   UNL A   1      41.143  25.667  25.148  1.00  0.00    -0.246 OA
BRANCH  31  33
ATOM     33  C   UNL A   1      41.527  26.414  27.363  1.00  0.00     0.060 A 
ATOM     34  C   UNL A   1      42.277  27.569  27.602  1.00  0.00     0.016 A 
ATOM     35  C   UNL A   1      40.552  26.003  28.273  1.00  0.00     0.016 A 
ATOM     36  C   UNL A   1      42.052  28.328  28.744  1.00  0.00     0.010 A 
ATOM     37  C   UNL A   1      40.326  26.767  29.422  1.00  0.00     0.010 A 
ATOM     38  C   UNL A   1      41.072  27.935  29.662  1.00  0.00    -0.014 A 
BRANCH  38  39
ATOM     39  C   UNL A   1      40.836  28.751  30.876  1.00  0.00     0.031 A 
ATOM     40  C   UNL A   1      39.759  29.793  30.881  1.00  0.00     0.074 A 
ATOM     41  C   UNL A   1      41.589  28.538  31.971  1.00  0.00     0.049 A 
ATOM     42  N   UNL A   1      39.476  30.684  31.796  1.00  0.00    -0.248 NA
ATOM     43  C   UNL A   1      38.880  29.840  29.701  1.00  0.00     0.031 C 
ATOM     44  C   UNL A   1      42.628  27.514  32.094  1.00  0.00     0.029 A 
ATOM     45  N   UNL A   1      41.604  29.176  33.185  1.00  0.00    -0.354 N 
ATOM     46  C   UNL A   1      38.404  31.413  31.297  1.00  0.00     0.074 A 
ATOM     47  C   UNL A   1      38.092  30.865  29.994  1.00  0.00     0.031 C 
ATOM     48  C   UNL A   1      43.184  27.599  33.313  1.00  0.00     0.029 A 
ATOM     49  C   UNL A   1      42.582  28.716  34.034  1.00  0.00     0.049 A 
ATOM     50  H   UNL A   1      40.974  29.895  33.425  1.00  0.00     0.167 HD
ATOM     51  C   UNL A   1      37.748  32.445  31.879  1.00  0.00     0.037 A 
ATOM     52  C   UNL A   1      42.975  29.171  35.238  1.00  0.00     0.037 A 
ATOM     53  C   UNL A   1      38.065  32.970  33.181  1.00  0.00     0.049 A 
ATOM     54  C   UNL A   1      42.278  30.363  35.832  1.00  0.00     0.074 A 
ATOM     55  C   UNL A   1      37.453  34.005  33.866  1.00  0.00     0.029 A 
ATOM     56  N   UNL A   1      39.087  32.503  33.996  1.00  0.00    -0.354 N 
ATOM     57  N   UNL A   1      41.277  31.057  35.343  1.00  0.00    -0.248 NA
ATOM     58  C   UNL A   1      42.771  30.846  37.128  1.00  0.00     0.031 C 
ATOM     59  C   UNL A   1      38.130  34.191  35.075  1.00  0.00     0.029 A 
ATOM     60  C   UNL A   1      39.140  33.245  35.165  1.00  0.00     0.049 A 
ATOM     61  H   UNL A   1      39.687  31.755  33.776  1.00  0.00     0.167 HD
ATOM     62  C   UNL A   1      41.014  32.053  36.276  1.00  0.00     0.074 A 
ATOM     63  C   UNL A   1      41.950  31.860  37.366  1.00  0.00     0.031 C 
ATOM     64  C   UNL A   1      40.085  33.040  36.233  1.00  0.00     0.037 A 
BRANCH  51  65
ATOM     65  C   UNL A   1      36.645  33.097  31.093  1.00  0.00     0.058 A 
ATOM     66  C   UNL A   1      35.291  32.859  31.376  1.00  0.00     0.135 A 
ATOM     67  C   UNL A   1      36.950  33.996  30.058  1.00  0.00     0.135 A 
ATOM     68  F   UNL A   1      34.945  31.995  32.343  1.00  0.00    -0.206 F 
ATOM     69  C   UNL A   1      34.278  33.473  30.646  1.00  0.00     0.059 A 
ATOM     70  C   UNL A   1      35.954  34.638  29.329  1.00  0.00     0.059 A 
ATOM     71  F   UNL A   1      38.229  34.257  29.744  1.00  0.00    -0.206 F 
ATOM     72  C   UNL A   1      34.618  34.359  29.622  1.00  0.00     0.060 A 
BRANCH  72  73
ATOM     73  S   UNL A   1      33.294  35.147  28.681  1.00  0.00     0.124 S 
ATOM     74  O   UNL A   1      32.515  35.772  29.745  1.00  0.00    -0.237 OA
ATOM     75  O   UNL A   1      34.027  36.061  27.812  1.00  0.00    -0.237 OA
ATOM     76  O   UNL A   1      32.646  34.028  28.004  1.00  0.00    -0.744 OA
ENDBRANCH  72  73
ENDBRANCH  51  65
BRANCH  52  77
ATOM     77  C   UNL A   1      44.117  28.522  35.936  1.00  0.00     0.058 A 
ATOM     78  C   UNL A   1      43.920  27.426  36.786  1.00  0.00     0.135 A 
ATOM     79  C   UNL A   1      45.431  28.978  35.748  1.00  0.00     0.135 A 
ATOM     80  F   UNL A   1      42.680  26.962  37.006  1.00  0.00    -0.206 F 
ATOM     81  C   UNL A   1      44.985  26.803  37.428  1.00  0.00     0.059 A 
ATOM     82  C   UNL A   1      46.515  28.357  36.359  1.00  0.00     0.059 A 
ATOM     83  F   UNL A   1      45.673  30.019  34.937  1.00  0.00    -0.206 F 
ATOM     84  C   UNL A   1      46.280  27.274  37.205  1.00  0.00     0.060 A 
BRANCH  84  85
ATOM     85  S   UNL A   1      47.664  26.424  37.995  1.00  0.00     0.124 S 
ATOM     86  O   UNL A   1      48.639  27.502  38.120  1.00  0.00    -0.237 OA
ATOM     87  O   UNL A   1      47.068  25.955  39.242  1.00  0.00    -0.237 OA
ATOM     88  O   UNL A   1      48.002  25.374  37.038  1.00  0.00    -0.744 OA
ENDBRANCH  84  85
ENDBRANCH  52  77
BRANCH  64  89
ATOM     89  C   UNL A   1      40.030  33.979  37.405  1.00  0.00     0.058 A 
ATOM     90  C   UNL A   1      39.181  33.740  38.496  1.00  0.00     0.135 A 
ATOM     91  C   UNL A   1      40.868  35.105  37.456  1.00  0.00     0.135 A 
ATOM     92  F   UNL A   1      38.354  32.683  38.489  1.00  0.00    -0.206 F 
ATOM     93  C   UNL A   1      39.152  34.595  39.593  1.00  0.00     0.059 A 
ATOM     94  C   UNL A   1      40.872  35.961  38.553  1.00  0.00     0.059 A 
ATOM     95  F   UNL A   1      41.704  35.372  36.441  1.00  0.00    -0.206 F 
ATOM     96  C   UNL A   1      40.002  35.702  39.613  1.00  0.00     0.060 A 
BRANCH  96  97
ATOM     97  S   UNL A   1      39.981  36.785  41.057  1.00  0.00     0.124 S 
ATOM     98  O   UNL A   1      38.777  37.572  40.817  1.00  0.00    -0.237 OA
ATOM     99  O   UNL A   1      39.907  35.834  42.162  1.00  0.00    -0.237 OA
ATOM    100  O   UNL A   1      41.241  37.516  40.951  1.00  0.00    -0.744 OA
ENDBRANCH  96  97
ENDBRANCH  64  89
ENDBRANCH  38  39
ENDBRANCH  31  33
ENDBRANCH  30  31
ENDBRANCH  29  30
ENDBRANCH   1  29
TORSDOF 20
ENDMDL
