MODEL 1
REMARK VINA RESULT:     -10.6      0.000      0.000
REMARK SMILES COCCC[C@@]1(C(=O)OCCOC(=O)c2ccc(-c3c4nc(c(-c5c(F)cc(S(=O)(=O)[O-])cc5F)c5ccc([nH]5)c(-c5c(F)cc(S(=O)(=O)[O-])cc5F)c5nc(c(-c6c(F)cc(S(=O)(=O)[O-])cc6F)c6ccc3[nH]6)C=C5)C=C4)cc2)CCCN(C(=O)C2CCC2)C1
REMARK SMILES IDX 10 1 9 2 7 3 8 4 6 5 81 6 91 7 82 8 84 9 83 10 5 11 4 12
REMARK SMILES IDX 3 13 2 14 1 15 85 16 86 17 87 18 88 19 90 20 89 21 11 22
REMARK SMILES IDX 12 23 13 24 14 25 15 26 16 27 80 28 17 29 79 30 18 31 19 32
REMARK SMILES IDX 20 33 73 34 21 35 78 36 72 37 74 38 22 39 77 40 71 41 70 42
REMARK SMILES IDX 23 44 57 45 36 46 56 47 37 48 40 49 55 50 75 51 38 52 39 53
REMARK SMILES IDX 54 55 76 56 41 57 24 58 25 59 34 60 26 61 27 62 33 63 35 64
REMARK SMILES IDX 28 65 29 66 30 67 31 68 32 69 58 70 59 71 68 72 60 73 61 74
REMARK SMILES IDX 67 75 69 76 62 77 63 78 64 79 65 80 66 81 42 82 43 83 52 84
REMARK SMILES IDX 44 85 45 86 51 87 53 88 46 89 47 90 48 91 49 92 50 93
REMARK H PARENT 74 43 40 54
REMARK Flexibility Score: inf
ROOT
ATOM      1  C   UNL A   1      31.887  28.260  26.434  1.00  0.00     0.274 C 
ENDROOT
BRANCH   1   2
ATOM      2  O   UNL A   1      31.010  28.684  25.363  1.00  0.00    -0.462 OA
BRANCH   2   3
ATOM      3  C   UNL A   1      31.517  28.509  24.112  1.00  0.00     0.314 C 
ATOM      4  O   UNL A   1      32.635  28.906  23.811  1.00  0.00    -0.252 OA
BRANCH   3   5
ATOM      5  C   UNL A   1      30.575  27.761  23.140  1.00  0.00     0.086 C 
ATOM      6  C   UNL A   1      29.503  26.889  23.870  1.00  0.00     0.022 C 
ATOM      7  C   UNL A   1      31.420  26.850  22.226  1.00  0.00     0.138 C 
ATOM      8  C   UNL A   1      29.971  25.530  24.397  1.00  0.00     0.023 C 
ATOM      9  N   UNL A   1      31.856  25.606  22.866  1.00  0.00    -0.341 N 
ATOM     10  C   UNL A   1      30.780  24.773  23.360  1.00  0.00     0.119 C 
BRANCH   5  11
ATOM     11  C   UNL A   1      29.737  28.787  22.268  1.00  0.00     0.023 C 
BRANCH  11  12
ATOM     12  C   UNL A   1      28.303  29.240  22.612  1.00  0.00     0.030 C 
BRANCH  12  13
ATOM     13  C   UNL A   1      27.860  30.644  22.216  1.00  0.00     0.159 C 
BRANCH  13  14
ATOM     14  O   UNL A   1      27.934  30.869  20.813  1.00  0.00    -0.385 OA
ATOM     15  C   UNL A   1      27.877  32.227  20.423  1.00  0.00     0.194 C 
ENDBRANCH  13  14
ENDBRANCH  12  13
ENDBRANCH  11  12
ENDBRANCH   5  11
BRANCH   9  16
ATOM     16  C   UNL A   1      33.139  25.108  22.602  1.00  0.00     0.225 C 
ATOM     17  O   UNL A   1      33.705  25.453  21.552  1.00  0.00    -0.275 OA
BRANCH  16  18
ATOM     18  C   UNL A   1      33.860  24.192  23.623  1.00  0.00     0.078 C 
ATOM     19  C   UNL A   1      35.293  23.646  23.451  1.00  0.00     0.013 C 
ATOM     20  C   UNL A   1      34.272  24.791  24.980  1.00  0.00     0.013 C 
ATOM     21  C   UNL A   1      35.601  24.030  24.906  1.00  0.00     0.002 C 
ENDBRANCH  16  18
ENDBRANCH   9  16
ENDBRANCH   3   5
ENDBRANCH   2   3
ENDBRANCH   1   2
BRANCH   1  22
ATOM     22  C   UNL A   1      32.510  29.409  27.237  1.00  0.00     0.275 C 
BRANCH  22  23
ATOM     23  O   UNL A   1      33.886  29.171  27.606  1.00  0.00    -0.458 OA
BRANCH  23  24
ATOM     24  C   UNL A   1      34.562  30.271  28.024  1.00  0.00     0.338 C 
ATOM     25  O   UNL A   1      34.076  31.371  28.217  1.00  0.00    -0.246 OA
BRANCH  24  26
ATOM     26  C   UNL A   1      35.965  29.943  28.367  1.00  0.00     0.060 A 
ATOM     27  C   UNL A   1      36.892  30.019  27.331  1.00  0.00     0.016 A 
ATOM     28  C   UNL A   1      36.388  29.504  29.621  1.00  0.00     0.016 A 
ATOM     29  C   UNL A   1      38.244  29.792  27.546  1.00  0.00     0.010 A 
ATOM     30  C   UNL A   1      37.747  29.188  29.826  1.00  0.00     0.010 A 
ATOM     31  C   UNL A   1      38.685  29.358  28.791  1.00  0.00    -0.014 A 
BRANCH  31  32
ATOM     32  C   UNL A   1      40.123  29.023  28.914  1.00  0.00     0.031 A 
ATOM     33  C   UNL A   1      41.070  30.044  29.479  1.00  0.00     0.074 A 
ATOM     34  C   UNL A   1      40.545  27.761  28.709  1.00  0.00     0.049 A 
ATOM     35  N   UNL A   1      42.364  29.971  29.645  1.00  0.00    -0.248 NA
ATOM     36  C   UNL A   1      40.471  31.300  29.960  1.00  0.00     0.031 C 
ATOM     37  C   UNL A   1      39.679  26.629  28.382  1.00  0.00     0.029 A 
ATOM     38  N   UNL A   1      41.803  27.215  28.770  1.00  0.00    -0.354 N 
ATOM     39  C   UNL A   1      42.736  31.169  30.243  1.00  0.00     0.074 A 
ATOM     40  C   UNL A   1      41.530  31.945  30.427  1.00  0.00     0.031 C 
ATOM     41  C   UNL A   1      40.436  25.527  28.244  1.00  0.00     0.029 A 
ATOM     42  C   UNL A   1      41.842  25.887  28.414  1.00  0.00     0.049 A 
ATOM     43  H   UNL A   1      42.600  27.724  29.043  1.00  0.00     0.167 HD
ATOM     44  C   UNL A   1      43.978  31.590  30.583  1.00  0.00     0.037 A 
ATOM     45  C   UNL A   1      42.898  25.074  28.199  1.00  0.00     0.037 A 
ATOM     46  C   UNL A   1      45.172  30.817  30.359  1.00  0.00     0.049 A 
ATOM     47  C   UNL A   1      44.288  25.625  28.405  1.00  0.00     0.074 A 
ATOM     48  C   UNL A   1      46.489  31.185  30.567  1.00  0.00     0.029 A 
ATOM     49  N   UNL A   1      45.193  29.520  29.865  1.00  0.00    -0.354 N 
ATOM     50  N   UNL A   1      44.649  26.801  28.863  1.00  0.00    -0.248 NA
ATOM     51  C   UNL A   1      45.413  24.749  28.052  1.00  0.00     0.031 C 
ATOM     52  C   UNL A   1      47.308  30.133  30.141  1.00  0.00     0.029 A 
ATOM     53  C   UNL A   1      46.500  29.084  29.732  1.00  0.00     0.049 A 
ATOM     54  H   UNL A   1      44.395  28.988  29.642  1.00  0.00     0.167 HD
ATOM     55  C   UNL A   1      46.041  26.797  28.876  1.00  0.00     0.074 A 
ATOM     56  C   UNL A   1      46.455  25.497  28.391  1.00  0.00     0.031 C 
ATOM     57  C   UNL A   1      46.896  27.780  29.254  1.00  0.00     0.037 A 
BRANCH  44  58
ATOM     58  C   UNL A   1      44.106  32.985  31.127  1.00  0.00     0.058 A 
ATOM     59  C   UNL A   1      44.147  33.256  32.504  1.00  0.00     0.135 A 
ATOM     60  C   UNL A   1      44.179  34.075  30.244  1.00  0.00     0.135 A 
ATOM     61  F   UNL A   1      44.055  32.255  33.394  1.00  0.00    -0.206 F 
ATOM     62  C   UNL A   1      44.229  34.561  32.985  1.00  0.00     0.059 A 
ATOM     63  C   UNL A   1      44.288  35.383  30.701  1.00  0.00     0.059 A 
ATOM     64  F   UNL A   1      44.135  33.873  28.917  1.00  0.00    -0.206 F 
ATOM     65  C   UNL A   1      44.295  35.618  32.074  1.00  0.00     0.060 A 
BRANCH  65  66
ATOM     66  S   UNL A   1      44.388  37.306  32.709  1.00  0.00     0.124 S 
ATOM     67  O   UNL A   1      43.114  37.425  33.414  1.00  0.00    -0.237 OA
ATOM     68  O   UNL A   1      45.576  37.256  33.555  1.00  0.00    -0.237 OA
ATOM     69  O   UNL A   1      44.514  38.118  31.504  1.00  0.00    -0.744 OA
ENDBRANCH  65  66
ENDBRANCH  44  58
BRANCH  45  70
ATOM     70  C   UNL A   1      42.690  23.695  27.672  1.00  0.00     0.058 A 
ATOM     71  C   UNL A   1      42.568  22.585  28.522  1.00  0.00     0.135 A 
ATOM     72  C   UNL A   1      42.645  23.455  26.287  1.00  0.00     0.135 A 
ATOM     73  F   UNL A   1      42.627  22.749  29.852  1.00  0.00    -0.206 F 
ATOM     74  C   UNL A   1      42.422  21.293  28.021  1.00  0.00     0.059 A 
ATOM     75  C   UNL A   1      42.468  22.179  25.764  1.00  0.00     0.059 A 
ATOM     76  F   UNL A   1      42.765  24.475  25.423  1.00  0.00    -0.206 F 
ATOM     77  C   UNL A   1      42.369  21.101  26.639  1.00  0.00     0.060 A 
BRANCH  77  78
ATOM     78  S   UNL A   1      42.150  19.426  25.998  1.00  0.00     0.124 S 
ATOM     79  O   UNL A   1      40.707  19.376  25.791  1.00  0.00    -0.237 OA
ATOM     80  O   UNL A   1      42.968  19.449  24.789  1.00  0.00    -0.237 OA
ATOM     81  O   UNL A   1      42.660  18.583  27.076  1.00  0.00    -0.744 OA
ENDBRANCH  77  78
ENDBRANCH  45  70
BRANCH  57  82
ATOM     82  C   UNL A   1      48.370  27.480  29.200  1.00  0.00     0.058 A 
ATOM     83  C   UNL A   1      49.136  27.719  28.049  1.00  0.00     0.135 A 
ATOM     84  C   UNL A   1      49.040  27.011  30.344  1.00  0.00     0.135 A 
ATOM     85  F   UNL A   1      48.548  28.163  26.926  1.00  0.00    -0.206 F 
ATOM     86  C   UNL A   1      50.507  27.486  28.026  1.00  0.00     0.059 A 
ATOM     87  C   UNL A   1      50.415  26.800  30.353  1.00  0.00     0.059 A 
ATOM     88  F   UNL A   1      48.358  26.776  31.477  1.00  0.00    -0.206 F 
ATOM     89  C   UNL A   1      51.138  27.031  29.185  1.00  0.00     0.060 A 
BRANCH  89  90
ATOM     90  S   UNL A   1      52.925  26.773  29.154  1.00  0.00     0.124 S 
ATOM     91  O   UNL A   1      53.136  26.017  30.384  1.00  0.00    -0.237 OA
ATOM     92  O   UNL A   1      53.112  26.028  27.912  1.00  0.00    -0.237 OA
ATOM     93  O   UNL A   1      53.466  28.130  29.150  1.00  0.00    -0.744 OA
ENDBRANCH  89  90
ENDBRANCH  57  82
ENDBRANCH  31  32
ENDBRANCH  24  26
ENDBRANCH  23  24
ENDBRANCH  22  23
ENDBRANCH   1  22
TORSDOF 20
ENDMDL
MODEL 2
REMARK VINA RESULT:     -10.3      3.579      6.205
REMARK SMILES COCCC[C@@]1(C(=O)OCCOC(=O)c2ccc(-c3c4nc(c(-c5c(F)cc(S(=O)(=O)[O-])cc5F)c5ccc([nH]5)c(-c5c(F)cc(S(=O)(=O)[O-])cc5F)c5nc(c(-c6c(F)cc(S(=O)(=O)[O-])cc6F)c6ccc3[nH]6)C=C5)C=C4)cc2)CCCN(C(=O)C2CCC2)C1
REMARK SMILES IDX 10 1 9 2 7 3 8 4 6 5 81 6 91 7 82 8 84 9 83 10 5 11 4 12
REMARK SMILES IDX 3 13 2 14 1 15 85 16 86 17 87 18 88 19 90 20 89 21 11 22
REMARK SMILES IDX 12 23 13 24 14 25 15 26 16 27 80 28 17 29 79 30 18 31 19 32
REMARK SMILES IDX 20 33 73 34 21 35 78 36 72 37 74 38 22 39 77 40 71 41 70 42
REMARK SMILES IDX 23 44 57 45 36 46 56 47 37 48 40 49 55 50 75 51 38 52 39 53
REMARK SMILES IDX 54 55 76 56 41 57 24 58 25 59 34 60 26 61 27 62 33 63 35 64
REMARK SMILES IDX 28 65 29 66 30 67 31 68 32 69 58 70 59 71 68 72 60 73 61 74
REMARK SMILES IDX 67 75 69 76 62 77 63 78 64 79 65 80 66 81 42 82 43 83 52 84
REMARK SMILES IDX 44 85 45 86 51 87 53 88 46 89 47 90 48 91 49 92 50 93
REMARK H PARENT 74 43 40 54
REMARK Flexibility Score: inf
ROOT
ATOM      1  C   UNL A   1      35.024  33.521  29.494  1.00  0.00     0.274 C 
ENDROOT
BRANCH   1   2
ATOM      2  O   UNL A   1      36.171  33.180  30.308  1.00  0.00    -0.462 OA
BRANCH   2   3
ATOM      3  C   UNL A   1      35.866  32.715  31.551  1.00  0.00     0.314 C 
ATOM      4  O   UNL A   1      35.194  31.704  31.710  1.00  0.00    -0.252 OA
BRANCH   3   5
ATOM      5  C   UNL A   1      36.453  33.554  32.710  1.00  0.00     0.086 C 
ATOM      6  C   UNL A   1      37.548  34.567  32.243  1.00  0.00     0.022 C 
ATOM      7  C   UNL A   1      37.068  32.601  33.755  1.00  0.00     0.138 C 
ATOM      8  C   UNL A   1      38.948  33.996  32.002  1.00  0.00     0.023 C 
ATOM      9  N   UNL A   1      38.384  32.077  33.380  1.00  0.00    -0.341 N 
ATOM     10  C   UNL A   1      39.389  33.090  33.136  1.00  0.00     0.119 C 
BRANCH   5  11
ATOM     11  C   UNL A   1      35.330  34.452  33.379  1.00  0.00     0.023 C 
BRANCH  11  12
ATOM     12  C   UNL A   1      34.775  35.748  32.752  1.00  0.00     0.030 C 
BRANCH  12  13
ATOM     13  C   UNL A   1      33.360  36.189  33.106  1.00  0.00     0.159 C 
BRANCH  13  14
ATOM     14  O   UNL A   1      32.363  35.436  32.426  1.00  0.00    -0.385 OA
ATOM     15  C   UNL A   1      31.034  35.861  32.657  1.00  0.00     0.194 C 
ENDBRANCH  13  14
ENDBRANCH  12  13
ENDBRANCH  11  12
ENDBRANCH   5  11
BRANCH   9  16
ATOM     16  C   UNL A   1      38.706  30.747  33.680  1.00  0.00     0.225 C 
ATOM     17  O   UNL A   1      38.115  30.190  34.619  1.00  0.00    -0.275 OA
BRANCH  16  18
ATOM     18  C   UNL A   1      39.738  29.969  32.825  1.00  0.00     0.078 C 
ATOM     19  C   UNL A   1      41.229  29.804  33.186  1.00  0.00     0.013 C 
ATOM     20  C   UNL A   1      39.610  28.437  32.739  1.00  0.00     0.013 C 
ATOM     21  C   UNL A   1      41.134  28.309  32.848  1.00  0.00     0.002 C 
ENDBRANCH  16  18
ENDBRANCH   9  16
ENDBRANCH   3   5
ENDBRANCH   2   3
ENDBRANCH   1   2
BRANCH   1  22
ATOM     22  C   UNL A   1      34.791  32.583  28.302  1.00  0.00     0.275 C 
BRANCH  22  23
ATOM     23  O   UNL A   1      34.082  31.376  28.653  1.00  0.00    -0.458 OA
BRANCH  23  24
ATOM     24  C   UNL A   1      34.505  30.259  28.009  1.00  0.00     0.338 C 
ATOM     25  O   UNL A   1      33.868  29.635  27.178  1.00  0.00    -0.246 OA
BRANCH  24  26
ATOM     26  C   UNL A   1      35.918  29.954  28.331  1.00  0.00     0.060 A 
ATOM     27  C   UNL A   1      36.828  30.041  27.282  1.00  0.00     0.016 A 
ATOM     28  C   UNL A   1      36.367  29.527  29.581  1.00  0.00     0.016 A 
ATOM     29  C   UNL A   1      38.186  29.835  27.476  1.00  0.00     0.010 A 
ATOM     30  C   UNL A   1      37.734  29.233  29.766  1.00  0.00     0.010 A 
ATOM     31  C   UNL A   1      38.653  29.413  28.716  1.00  0.00    -0.014 A 
BRANCH  31  32
ATOM     32  C   UNL A   1      40.097  29.102  28.819  1.00  0.00     0.031 A 
ATOM     33  C   UNL A   1      41.039  30.144  29.354  1.00  0.00     0.074 A 
ATOM     34  C   UNL A   1      40.535  27.844  28.621  1.00  0.00     0.049 A 
ATOM     35  N   UNL A   1      42.337  30.093  29.498  1.00  0.00    -0.248 NA
ATOM     36  C   UNL A   1      40.429  31.396  29.829  1.00  0.00     0.031 C 
ATOM     37  C   UNL A   1      39.681  26.695  28.323  1.00  0.00     0.029 A 
ATOM     38  N   UNL A   1      41.802  27.317  28.667  1.00  0.00    -0.354 N 
ATOM     39  C   UNL A   1      42.701  31.303  30.074  1.00  0.00     0.074 A 
ATOM     40  C   UNL A   1      41.486  32.063  30.270  1.00  0.00     0.031 C 
ATOM     41  C   UNL A   1      40.452  25.602  28.186  1.00  0.00     0.029 A 
ATOM     42  C   UNL A   1      41.855  25.985  28.327  1.00  0.00     0.049 A 
ATOM     43  H   UNL A   1      42.596  27.842  28.920  1.00  0.00     0.167 HD
ATOM     44  C   UNL A   1      43.941  31.747  30.388  1.00  0.00     0.037 A 
ATOM     45  C   UNL A   1      42.919  25.186  28.104  1.00  0.00     0.037 A 
ATOM     46  C   UNL A   1      45.143  30.989  30.153  1.00  0.00     0.049 A 
ATOM     47  C   UNL A   1      44.304  25.760  28.279  1.00  0.00     0.074 A 
ATOM     48  C   UNL A   1      46.458  31.379  30.334  1.00  0.00     0.029 A 
ATOM     49  N   UNL A   1      45.175  29.686  29.675  1.00  0.00    -0.354 N 
ATOM     50  N   UNL A   1      44.655  26.947  28.716  1.00  0.00    -0.248 NA
ATOM     51  C   UNL A   1      45.436  24.897  27.918  1.00  0.00     0.031 C 
ATOM     52  C   UNL A   1      47.285  30.334  29.907  1.00  0.00     0.029 A 
ATOM     53  C   UNL A   1      46.487  29.268  29.524  1.00  0.00     0.049 A 
ATOM     54  H   UNL A   1      44.381  29.140  29.472  1.00  0.00     0.167 HD
ATOM     55  C   UNL A   1      46.047  26.964  28.705  1.00  0.00     0.074 A 
ATOM     56  C   UNL A   1      46.473  25.664  28.229  1.00  0.00     0.031 C 
ATOM     57  C   UNL A   1      46.893  27.964  29.056  1.00  0.00     0.037 A 
BRANCH  44  58
ATOM     58  C   UNL A   1      44.058  33.150  30.912  1.00  0.00     0.058 A 
ATOM     59  C   UNL A   1      44.083  33.442  32.286  1.00  0.00     0.135 A 
ATOM     60  C   UNL A   1      44.135  34.227  30.014  1.00  0.00     0.135 A 
ATOM     61  F   UNL A   1      43.987  32.454  33.189  1.00  0.00    -0.206 F 
ATOM     62  C   UNL A   1      44.154  34.754  32.747  1.00  0.00     0.059 A 
ATOM     63  C   UNL A   1      44.233  35.543  30.452  1.00  0.00     0.059 A 
ATOM     64  F   UNL A   1      44.105  34.005  28.690  1.00  0.00    -0.206 F 
ATOM     65  C   UNL A   1      44.225  35.798  31.822  1.00  0.00     0.060 A 
BRANCH  65  66
ATOM     66  S   UNL A   1      44.304  37.495  32.432  1.00  0.00     0.124 S 
ATOM     67  O   UNL A   1      43.232  37.500  33.424  1.00  0.00    -0.237 OA
ATOM     68  O   UNL A   1      45.660  37.572  32.967  1.00  0.00    -0.237 OA
ATOM     69  O   UNL A   1      44.057  38.300  31.240  1.00  0.00    -0.744 OA
ENDBRANCH  65  66
ENDBRANCH  44  58
BRANCH  45  70
ATOM     70  C   UNL A   1      42.723  23.797  27.598  1.00  0.00     0.058 A 
ATOM     71  C   UNL A   1      42.552  23.521  26.233  1.00  0.00     0.135 A 
ATOM     72  C   UNL A   1      42.668  22.710  28.489  1.00  0.00     0.135 A 
ATOM     73  F   UNL A   1      42.570  24.520  25.338  1.00  0.00    -0.206 F 
ATOM     74  C   UNL A   1      42.321  22.226  25.772  1.00  0.00     0.059 A 
ATOM     75  C   UNL A   1      42.473  21.405  28.049  1.00  0.00     0.059 A 
ATOM     76  F   UNL A   1      42.818  22.912  29.807  1.00  0.00    -0.206 F 
ATOM     77  C   UNL A   1      42.287  21.173  26.690  1.00  0.00     0.060 A 
BRANCH  77  78
ATOM     78  S   UNL A   1      42.019  19.493  26.081  1.00  0.00     0.124 S 
ATOM     79  O   UNL A   1      42.857  19.473  24.889  1.00  0.00    -0.237 OA
ATOM     80  O   UNL A   1      42.483  18.682  27.203  1.00  0.00    -0.237 OA
ATOM     81  O   UNL A   1      40.579  19.449  25.839  1.00  0.00    -0.744 OA
ENDBRANCH  77  78
ENDBRANCH  45  70
BRANCH  57  82
ATOM     82  C   UNL A   1      48.371  27.685  28.980  1.00  0.00     0.058 A 
ATOM     83  C   UNL A   1      49.071  27.089  30.040  1.00  0.00     0.135 A 
ATOM     84  C   UNL A   1      49.083  27.958  27.799  1.00  0.00     0.135 A 
ATOM     85  F   UNL A   1      48.442  26.811  31.194  1.00  0.00    -0.206 F 
ATOM     86  C   UNL A   1      50.426  26.790  29.940  1.00  0.00     0.059 A 
ATOM     87  C   UNL A   1      50.430  27.640  27.665  1.00  0.00     0.059 A 
ATOM     88  F   UNL A   1      48.460  28.518  26.749  1.00  0.00    -0.206 F 
ATOM     89  C   UNL A   1      51.096  27.065  28.746  1.00  0.00     0.060 A 
BRANCH  89  90
ATOM     90  S   UNL A   1      52.844  26.633  28.615  1.00  0.00     0.124 S 
ATOM     91  O   UNL A   1      53.097  26.024  29.916  1.00  0.00    -0.237 OA
ATOM     92  O   UNL A   1      52.855  25.720  27.475  1.00  0.00    -0.237 OA
ATOM     93  O   UNL A   1      53.497  27.918  28.385  1.00  0.00    -0.744 OA
ENDBRANCH  89  90
ENDBRANCH  57  82
ENDBRANCH  31  32
ENDBRANCH  24  26
ENDBRANCH  23  24
ENDBRANCH  22  23
ENDBRANCH   1  22
TORSDOF 20
ENDMDL
MODEL 3
REMARK VINA RESULT:     -10.1      3.705      9.893
REMARK SMILES COCCC[C@@]1(C(=O)OCCOC(=O)c2ccc(-c3c4nc(c(-c5c(F)cc(S(=O)(=O)[O-])cc5F)c5ccc([nH]5)c(-c5c(F)cc(S(=O)(=O)[O-])cc5F)c5nc(c(-c6c(F)cc(S(=O)(=O)[O-])cc6F)c6ccc3[nH]6)C=C5)C=C4)cc2)CCCN(C(=O)C2CCC2)C1
REMARK SMILES IDX 10 1 9 2 7 3 8 4 6 5 81 6 91 7 82 8 84 9 83 10 5 11 4 12
REMARK SMILES IDX 3 13 2 14 1 15 85 16 86 17 87 18 88 19 90 20 89 21 11 22
REMARK SMILES IDX 12 23 13 24 14 25 15 26 16 27 80 28 17 29 79 30 18 31 19 32
REMARK SMILES IDX 20 33 73 34 21 35 78 36 72 37 74 38 22 39 77 40 71 41 70 42
REMARK SMILES IDX 23 44 57 45 36 46 56 47 37 48 40 49 55 50 75 51 38 52 39 53
REMARK SMILES IDX 54 55 76 56 41 57 24 58 25 59 34 60 26 61 27 62 33 63 35 64
REMARK SMILES IDX 28 65 29 66 30 67 31 68 32 69 58 70 59 71 68 72 60 73 61 74
REMARK SMILES IDX 67 75 69 76 62 77 63 78 64 79 65 80 66 81 42 82 43 83 52 84
REMARK SMILES IDX 44 85 45 86 51 87 53 88 46 89 47 90 48 91 49 92 50 93
REMARK H PARENT 74 43 40 54
REMARK Flexibility Score: inf
ROOT
ATOM      1  C   UNL A   1      35.691  21.774  24.924  1.00  0.00     0.274 C 
ENDROOT
BRANCH   1   2
ATOM      2  O   UNL A   1      34.664  22.790  24.829  1.00  0.00    -0.462 OA
BRANCH   2   3
ATOM      3  C   UNL A   1      33.593  22.591  25.646  1.00  0.00     0.314 C 
ATOM      4  O   UNL A   1      33.684  22.701  26.862  1.00  0.00    -0.252 OA
BRANCH   3   5
ATOM      5  C   UNL A   1      32.281  22.240  24.906  1.00  0.00     0.086 C 
ATOM      6  C   UNL A   1      32.351  22.508  23.368  1.00  0.00     0.022 C 
ATOM      7  C   UNL A   1      31.131  23.075  25.505  1.00  0.00     0.138 C 
ATOM      8  C   UNL A   1      32.169  23.960  22.919  1.00  0.00     0.023 C 
ATOM      9  N   UNL A   1      31.099  24.464  25.041  1.00  0.00    -0.341 N 
ATOM     10  C   UNL A   1      30.987  24.617  23.606  1.00  0.00     0.119 C 
BRANCH   5  11
ATOM     11  C   UNL A   1      31.960  20.692  25.033  1.00  0.00     0.023 C 
BRANCH  11  12
ATOM     12  C   UNL A   1      32.945  19.572  24.637  1.00  0.00     0.030 C 
BRANCH  12  13
ATOM     13  C   UNL A   1      32.571  18.635  23.494  1.00  0.00     0.159 C 
BRANCH  13  14
ATOM     14  O   UNL A   1      33.296  17.412  23.526  1.00  0.00    -0.385 OA
ATOM     15  C   UNL A   1      34.557  17.483  24.163  1.00  0.00     0.194 C 
ENDBRANCH  13  14
ENDBRANCH  12  13
ENDBRANCH  11  12
ENDBRANCH   5  11
BRANCH   9  16
ATOM     16  C   UNL A   1      30.762  25.484  25.941  1.00  0.00     0.225 C 
ATOM     17  O   UNL A   1      29.696  25.390  26.571  1.00  0.00    -0.275 OA
BRANCH  16  18
ATOM     18  C   UNL A   1      31.722  26.675  26.186  1.00  0.00     0.078 C 
ATOM     19  C   UNL A   1      33.262  26.575  26.179  1.00  0.00     0.013 C 
ATOM     20  C   UNL A   1      31.808  27.777  25.114  1.00  0.00     0.013 C 
ATOM     21  C   UNL A   1      33.328  27.838  25.307  1.00  0.00     0.002 C 
ENDBRANCH  16  18
ENDBRANCH   9  16
ENDBRANCH   3   5
ENDBRANCH   2   3
ENDBRANCH   1   2
BRANCH   1  22
ATOM     22  C   UNL A   1      37.095  22.253  24.531  1.00  0.00     0.275 C 
BRANCH  22  23
ATOM     23  O   UNL A   1      37.595  23.312  25.375  1.00  0.00    -0.458 OA
BRANCH  23  24
ATOM     24  C   UNL A   1      38.789  23.055  25.966  1.00  0.00     0.338 C 
ATOM     25  O   UNL A   1      39.441  22.035  25.831  1.00  0.00    -0.246 OA
BRANCH  24  26
ATOM     26  C   UNL A   1      39.295  24.238  26.698  1.00  0.00     0.060 A 
ATOM     27  C   UNL A   1      38.810  24.424  27.990  1.00  0.00     0.016 A 
ATOM     28  C   UNL A   1      40.154  25.193  26.156  1.00  0.00     0.016 A 
ATOM     29  C   UNL A   1      39.256  25.464  28.793  1.00  0.00     0.010 A 
ATOM     30  C   UNL A   1      40.546  26.300  26.937  1.00  0.00     0.010 A 
ATOM     31  C   UNL A   1      40.117  26.423  28.271  1.00  0.00    -0.014 A 
BRANCH  31  32
ATOM     32  C   UNL A   1      40.458  27.566  29.148  1.00  0.00     0.031 A 
ATOM     33  C   UNL A   1      41.775  27.570  29.873  1.00  0.00     0.074 A 
ATOM     34  C   UNL A   1      39.693  28.674  29.147  1.00  0.00     0.049 A 
ATOM     35  N   UNL A   1      42.258  28.450  30.710  1.00  0.00    -0.248 NA
ATOM     36  C   UNL A   1      42.686  26.451  29.583  1.00  0.00     0.031 C 
ATOM     37  C   UNL A   1      38.514  28.879  28.307  1.00  0.00     0.029 A 
ATOM     38  N   UNL A   1      39.809  29.845  29.854  1.00  0.00    -0.354 N 
ATOM     39  C   UNL A   1      43.524  27.992  31.050  1.00  0.00     0.074 A 
ATOM     40  C   UNL A   1      43.744  26.765  30.317  1.00  0.00     0.031 C 
ATOM     41  C   UNL A   1      37.998  30.092  28.568  1.00  0.00     0.029 A 
ATOM     42  C   UNL A   1      38.773  30.724  29.633  1.00  0.00     0.049 A 
ATOM     43  H   UNL A   1      40.560  30.038  30.460  1.00  0.00     0.167 HD
ATOM     44  C   UNL A   1      44.412  28.537  31.916  1.00  0.00     0.037 A 
ATOM     45  C   UNL A   1      38.463  31.878  30.259  1.00  0.00     0.037 A 
ATOM     46  C   UNL A   1      44.161  29.742  32.664  1.00  0.00     0.049 A 
ATOM     47  C   UNL A   1      39.372  32.372  31.358  1.00  0.00     0.074 A 
ATOM     48  C   UNL A   1      44.942  30.326  33.645  1.00  0.00     0.029 A 
ATOM     49  N   UNL A   1      43.035  30.541  32.520  1.00  0.00    -0.354 N 
ATOM     50  N   UNL A   1      40.518  31.878  31.764  1.00  0.00    -0.248 NA
ATOM     51  C   UNL A   1      38.943  33.568  32.094  1.00  0.00     0.031 C 
ATOM     52  C   UNL A   1      44.259  31.445  34.135  1.00  0.00     0.029 A 
ATOM     53  C   UNL A   1      43.085  31.597  33.415  1.00  0.00     0.049 A 
ATOM     54  H   UNL A   1      42.308  30.380  31.876  1.00  0.00     0.167 HD
ATOM     55  C   UNL A   1      40.958  32.715  32.784  1.00  0.00     0.074 A 
ATOM     56  C   UNL A   1      39.960  33.755  32.926  1.00  0.00     0.031 C 
ATOM     57  C   UNL A   1      42.084  32.630  33.536  1.00  0.00     0.037 A 
BRANCH  44  58
ATOM     58  C   UNL A   1      45.679  27.771  32.176  1.00  0.00     0.058 A 
ATOM     59  C   UNL A   1      46.862  28.006  31.456  1.00  0.00     0.135 A 
ATOM     60  C   UNL A   1      45.701  26.771  33.162  1.00  0.00     0.135 A 
ATOM     61  F   UNL A   1      46.891  28.931  30.485  1.00  0.00    -0.206 F 
ATOM     62  C   UNL A   1      48.013  27.257  31.689  1.00  0.00     0.059 A 
ATOM     63  C   UNL A   1      46.846  26.030  33.429  1.00  0.00     0.059 A 
ATOM     64  F   UNL A   1      44.595  26.499  33.872  1.00  0.00    -0.206 F 
ATOM     65  C   UNL A   1      47.994  26.269  32.676  1.00  0.00     0.060 A 
BRANCH  65  66
ATOM     66  S   UNL A   1      49.488  25.296  32.960  1.00  0.00     0.124 S 
ATOM     67  O   UNL A   1      48.974  24.198  33.773  1.00  0.00    -0.237 OA
ATOM     68  O   UNL A   1      49.893  24.942  31.603  1.00  0.00    -0.237 OA
ATOM     69  O   UNL A   1      50.375  26.226  33.652  1.00  0.00    -0.744 OA
ENDBRANCH  65  66
ENDBRANCH  44  58
BRANCH  45  70
ATOM     70  C   UNL A   1      37.193  32.590  29.937  1.00  0.00     0.058 A 
ATOM     71  C   UNL A   1      37.152  33.665  29.036  1.00  0.00     0.135 A 
ATOM     72  C   UNL A   1      35.987  32.225  30.561  1.00  0.00     0.135 A 
ATOM     73  F   UNL A   1      38.276  34.075  28.428  1.00  0.00    -0.206 F 
ATOM     74  C   UNL A   1      35.971  34.357  28.776  1.00  0.00     0.059 A 
ATOM     75  C   UNL A   1      34.790  32.879  30.293  1.00  0.00     0.059 A 
ATOM     76  F   UNL A   1      35.963  31.210  31.439  1.00  0.00    -0.206 F 
ATOM     77  C   UNL A   1      34.792  33.953  29.408  1.00  0.00     0.060 A 
BRANCH  77  78
ATOM     78  S   UNL A   1      33.259  34.836  29.043  1.00  0.00     0.124 S 
ATOM     79  O   UNL A   1      32.619  34.872  30.353  1.00  0.00    -0.237 OA
ATOM     80  O   UNL A   1      33.752  36.113  28.537  1.00  0.00    -0.237 OA
ATOM     81  O   UNL A   1      32.609  33.986  28.049  1.00  0.00    -0.744 OA
ENDBRANCH  77  78
ENDBRANCH  45  70
BRANCH  57  82
ATOM     82  C   UNL A   1      42.326  33.712  34.555  1.00  0.00     0.058 A 
ATOM     83  C   UNL A   1      41.832  33.622  35.866  1.00  0.00     0.135 A 
ATOM     84  C   UNL A   1      43.124  34.823  34.232  1.00  0.00     0.135 A 
ATOM     85  F   UNL A   1      41.060  32.584  36.228  1.00  0.00    -0.206 F 
ATOM     86  C   UNL A   1      42.104  34.603  36.813  1.00  0.00     0.059 A 
ATOM     87  C   UNL A   1      43.434  35.800  35.173  1.00  0.00     0.059 A 
ATOM     88  F   UNL A   1      43.632  34.954  32.996  1.00  0.00    -0.206 F 
ATOM     89  C   UNL A   1      42.910  35.686  36.459  1.00  0.00     0.060 A 
BRANCH  89  90
ATOM     90  S   UNL A   1      43.289  36.930  37.711  1.00  0.00     0.124 S 
ATOM     91  O   UNL A   1      41.987  37.127  38.337  1.00  0.00    -0.237 OA
ATOM     92  O   UNL A   1      44.290  36.253  38.530  1.00  0.00    -0.237 OA
ATOM     93  O   UNL A   1      43.788  38.059  36.931  1.00  0.00    -0.744 OA
ENDBRANCH  89  90
ENDBRANCH  57  82
ENDBRANCH  31  32
ENDBRANCH  24  26
ENDBRANCH  23  24
ENDBRANCH  22  23
ENDBRANCH   1  22
TORSDOF 20
ENDMDL
