MODEL 1
REMARK VINA RESULT:     -14.3      0.000      0.000
REMARK SMILES O=C(OCCOC(=O)c1ccc(-c2c3nc(c(-c4c(F)cc(S(=O)(=O)[O-])cc4F)c4ccc([nH]4)c(-c4c(F)cc(S(=O)(=O)[O-])cc4F)c4nc(c(-c5c(F)cc(S(=O)(=O)[O-])cc5F)c5ccc2[nH]5)C=C4)C=C3)cc1)C1=Cc2cc(Cl)cc(-c3ccccc3)c2O[C@@H]1C(F)(F)F
REMARK SMILES IDX 5 1 4 2 3 3 2 4 1 5 75 6 76 7 91 8 77 9 90 10 78 11 89 12
REMARK SMILES IDX 79 13 82 14 80 15 81 16 92 17 93 18 94 19 95 20 83 21 84 22
REMARK SMILES IDX 88 23 85 24 87 25 86 26 6 27 7 28 8 29 9 30 10 31 74 32
REMARK SMILES IDX 11 33 73 34 12 35 13 36 14 37 67 38 15 39 72 40 66 41 68 42
REMARK SMILES IDX 16 43 71 44 65 45 64 46 17 48 51 49 30 50 50 51 31 52 34 53
REMARK SMILES IDX 49 54 69 55 32 56 33 57 48 59 70 60 35 61 18 62 19 63 28 64
REMARK SMILES IDX 20 65 21 66 27 67 29 68 22 69 23 70 24 71 25 72 26 73 52 74
REMARK SMILES IDX 53 75 62 76 54 77 55 78 61 79 63 80 56 81 57 82 58 83 59 84
REMARK SMILES IDX 60 85 36 86 37 87 46 88 38 89 39 90 45 91 47 92 40 93 41 94
REMARK SMILES IDX 42 95 43 96 44 97
REMARK H PARENT 68 47 34 58
REMARK Flexibility Score: inf
ROOT
ATOM      1  C   UNL A   1      37.023  21.570  24.754  1.00  0.00     0.275 C 
ENDROOT
BRANCH   1   2
ATOM      2  C   UNL A   1      35.276  22.678  24.134  1.00  0.00     0.275 C 
BRANCH   2   3
ATOM      3  O   UNL A   1      35.040  24.215  24.312  1.00  0.00    -0.459 OA
BRANCH   3   4
ATOM      4  C   UNL A   1      34.094  24.704  23.503  1.00  0.00     0.338 C 
ATOM      5  O   UNL A   1      34.160  25.116  22.374  1.00  0.00    -0.246 OA
BRANCH   4   6
ATOM      6  C   UNL A   1      33.100  24.828  24.536  1.00  0.00     0.087 C 
ATOM      7  C   UNL A   1      33.516  25.827  25.534  1.00  0.00     0.027 C 
ATOM      8  C   UNL A   1      31.565  24.986  23.373  1.00  0.00     0.316 C 
ATOM      9  C   UNL A   1      32.721  27.439  25.708  1.00  0.00     0.019 A 
ATOM     10  O   UNL A   1      30.732  26.721  23.514  1.00  0.00    -0.475 OA
ATOM     11  C   UNL A   1      33.360  28.342  26.517  1.00  0.00     0.032 A 
ATOM     12  C   UNL A   1      31.419  27.961  24.665  1.00  0.00     0.135 A 
ATOM     13  C   UNL A   1      32.892  29.651  26.415  1.00  0.00     0.042 A 
ATOM     14  C   UNL A   1      31.064  29.292  24.605  1.00  0.00     0.026 A 
ATOM     15  Cl  UNL A   1      33.707  30.858  27.356  1.00  0.00    -0.084 Cl
ATOM     16  C   UNL A   1      31.831  30.086  25.531  1.00  0.00     0.033 A 
BRANCH   8  17
ATOM     17  C   UNL A   1      31.046  23.507  23.507  1.00  0.00     0.430 C 
ATOM     18  F   UNL A   1      30.653  23.228  24.757  1.00  0.00    -0.167 F 
ATOM     19  F   UNL A   1      29.903  23.391  22.763  1.00  0.00    -0.167 F 
ATOM     20  F   UNL A   1      31.823  22.534  23.004  1.00  0.00    -0.167 F 
ENDBRANCH   8  17
BRANCH  14  21
ATOM     21  C   UNL A   1      30.179  30.018  23.706  1.00  0.00    -0.015 A 
ATOM     22  C   UNL A   1      29.463  31.129  24.205  1.00  0.00     0.009 A 
ATOM     23  C   UNL A   1      29.805  29.497  22.465  1.00  0.00     0.009 A 
ATOM     24  C   UNL A   1      28.399  31.686  23.497  1.00  0.00     0.001 A 
ATOM     25  C   UNL A   1      28.737  30.056  21.754  1.00  0.00     0.001 A 
ATOM     26  C   UNL A   1      28.031  31.143  22.271  1.00  0.00     0.000 A 
ENDBRANCH  14  21
ENDBRANCH   4   6
ENDBRANCH   3   4
ENDBRANCH   2   3
ENDBRANCH   1   2
BRANCH   1  27
ATOM     27  O   UNL A   1      38.438  22.219  25.463  1.00  0.00    -0.458 OA
BRANCH  27  28
ATOM     28  C   UNL A   1      39.475  21.956  26.316  1.00  0.00     0.338 C 
ATOM     29  O   UNL A   1      40.317  21.080  26.262  1.00  0.00    -0.246 OA
BRANCH  28  30
ATOM     30  C   UNL A   1      39.605  23.185  27.171  1.00  0.00     0.060 A 
ATOM     31  C   UNL A   1      40.732  23.316  28.001  1.00  0.00     0.016 A 
ATOM     32  C   UNL A   1      38.850  24.317  26.859  1.00  0.00     0.016 A 
ATOM     33  C   UNL A   1      41.236  24.600  28.298  1.00  0.00     0.010 A 
ATOM     34  C   UNL A   1      39.339  25.588  27.184  1.00  0.00     0.010 A 
ATOM     35  C   UNL A   1      40.577  25.747  27.833  1.00  0.00    -0.014 A 
BRANCH  35  36
ATOM     36  C   UNL A   1      41.046  27.118  28.186  1.00  0.00     0.031 A 
ATOM     37  C   UNL A   1      42.524  27.359  28.077  1.00  0.00     0.074 A 
ATOM     38  C   UNL A   1      40.239  28.097  28.654  1.00  0.00     0.049 A 
ATOM     39  N   UNL A   1      43.225  28.414  28.393  1.00  0.00    -0.248 NA
ATOM     40  C   UNL A   1      43.319  26.231  27.561  1.00  0.00     0.031 C 
ATOM     41  C   UNL A   1      38.788  28.007  28.829  1.00  0.00     0.029 A 
ATOM     42  N   UNL A   1      40.537  29.371  29.094  1.00  0.00    -0.354 N 
ATOM     43  C   UNL A   1      44.540  28.080  28.100  1.00  0.00     0.074 A 
ATOM     44  C   UNL A   1      44.548  26.708  27.647  1.00  0.00     0.031 C 
ATOM     45  C   UNL A   1      38.330  29.164  29.353  1.00  0.00     0.029 A 
ATOM     46  C   UNL A   1      39.449  30.082  29.564  1.00  0.00     0.049 A 
ATOM     47  H   UNL A   1      41.449  29.743  29.076  1.00  0.00     0.167 HD
ATOM     48  C   UNL A   1      45.648  28.852  28.172  1.00  0.00     0.037 A 
ATOM     49  C   UNL A   1      39.375  31.321  30.102  1.00  0.00     0.037 A 
ATOM     50  C   UNL A   1      45.657  30.203  28.651  1.00  0.00     0.049 A 
ATOM     51  C   UNL A   1      40.643  32.144  30.234  1.00  0.00     0.074 A 
ATOM     52  C   UNL A   1      46.732  31.063  28.774  1.00  0.00     0.029 A 
ATOM     53  N   UNL A   1      44.537  30.888  29.095  1.00  0.00    -0.354 N 
ATOM     54  N   UNL A   1      41.872  31.837  29.886  1.00  0.00    -0.248 NA
ATOM     55  C   UNL A   1      40.515  33.488  30.824  1.00  0.00     0.031 C 
ATOM     56  C   UNL A   1      46.267  32.261  29.326  1.00  0.00     0.029 A 
ATOM     57  C   UNL A   1      44.895  32.160  29.502  1.00  0.00     0.049 A 
ATOM     58  H   UNL A   1      43.623  30.523  29.116  1.00  0.00     0.167 HD
ATOM     59  C   UNL A   1      42.646  32.960  30.175  1.00  0.00     0.074 A 
ATOM     60  C   UNL A   1      41.750  33.957  30.716  1.00  0.00     0.031 C 
ATOM     61  C   UNL A   1      43.979  33.151  30.008  1.00  0.00     0.037 A 
BRANCH  48  62
ATOM     62  C   UNL A   1      46.928  28.223  27.713  1.00  0.00     0.058 A 
ATOM     63  C   UNL A   1      47.326  28.297  26.367  1.00  0.00     0.135 A 
ATOM     64  C   UNL A   1      47.740  27.509  28.605  1.00  0.00     0.135 A 
ATOM     65  F   UNL A   1      46.560  28.938  25.469  1.00  0.00    -0.206 F 
ATOM     66  C   UNL A   1      48.470  27.655  25.915  1.00  0.00     0.059 A 
ATOM     67  C   UNL A   1      48.907  26.882  28.178  1.00  0.00     0.059 A 
ATOM     68  F   UNL A   1      47.393  27.396  29.895  1.00  0.00    -0.206 F 
ATOM     69  C   UNL A   1      49.254  26.948  26.828  1.00  0.00     0.060 A 
BRANCH  69  70
ATOM     70  S   UNL A   1      50.735  26.118  26.221  1.00  0.00     0.124 S 
ATOM     71  O   UNL A   1      50.478  26.078  24.784  1.00  0.00    -0.237 OA
ATOM     72  O   UNL A   1      51.797  27.021  26.650  1.00  0.00    -0.237 OA
ATOM     73  O   UNL A   1      50.702  24.825  26.899  1.00  0.00    -0.744 OA
ENDBRANCH  69  70
ENDBRANCH  48  62
BRANCH  49  74
ATOM     74  C   UNL A   1      38.076  31.906  30.568  1.00  0.00     0.058 A 
ATOM     75  C   UNL A   1      37.273  32.673  29.704  1.00  0.00     0.135 A 
ATOM     76  C   UNL A   1      37.661  31.808  31.906  1.00  0.00     0.135 A 
ATOM     77  F   UNL A   1      37.630  32.824  28.419  1.00  0.00    -0.206 F 
ATOM     78  C   UNL A   1      36.139  33.350  30.153  1.00  0.00     0.059 A 
ATOM     79  C   UNL A   1      36.515  32.455  32.374  1.00  0.00     0.059 A 
ATOM     80  F   UNL A   1      38.383  31.094  32.782  1.00  0.00    -0.206 F 
ATOM     81  C   UNL A   1      35.772  33.242  31.494  1.00  0.00     0.060 A 
BRANCH  81  82
ATOM     82  S   UNL A   1      34.306  34.133  32.070  1.00  0.00     0.124 S 
ATOM     83  O   UNL A   1      34.904  35.242  32.805  1.00  0.00    -0.237 OA
ATOM     84  O   UNL A   1      33.644  34.482  30.818  1.00  0.00    -0.237 OA
ATOM     85  O   UNL A   1      33.609  33.141  32.885  1.00  0.00    -0.744 OA
ENDBRANCH  81  82
ENDBRANCH  49  74
BRANCH  61  86
ATOM     86  C   UNL A   1      44.549  34.500  30.356  1.00  0.00     0.058 A 
ATOM     87  C   UNL A   1      44.594  35.549  29.426  1.00  0.00     0.135 A 
ATOM     88  C   UNL A   1      44.979  34.768  31.667  1.00  0.00     0.135 A 
ATOM     89  F   UNL A   1      44.195  35.348  28.161  1.00  0.00    -0.206 F 
ATOM     90  C   UNL A   1      45.068  36.810  29.777  1.00  0.00     0.059 A 
ATOM     91  C   UNL A   1      45.429  36.028  32.047  1.00  0.00     0.059 A 
ATOM     92  F   UNL A   1      44.941  33.804  32.602  1.00  0.00    -0.206 F 
ATOM     93  C   UNL A   1      45.480  37.040  31.091  1.00  0.00     0.060 A 
BRANCH  93  94
ATOM     94  S   UNL A   1      46.050  38.693  31.545  1.00  0.00     0.124 S 
ATOM     95  O   UNL A   1      45.037  39.097  32.514  1.00  0.00    -0.237 OA
ATOM     96  O   UNL A   1      47.378  38.428  32.089  1.00  0.00    -0.237 OA
ATOM     97  O   UNL A   1      46.033  39.418  30.278  1.00  0.00    -0.744 OA
ENDBRANCH  93  94
ENDBRANCH  61  86
ENDBRANCH  35  36
ENDBRANCH  28  30
ENDBRANCH  27  28
ENDBRANCH   1  27
TORSDOF 16
ENDMDL
MODEL 2
REMARK VINA RESULT:     -14.3      5.128      9.068
REMARK SMILES O=C(OCCOC(=O)c1ccc(-c2c3nc(c(-c4c(F)cc(S(=O)(=O)[O-])cc4F)c4ccc([nH]4)c(-c4c(F)cc(S(=O)(=O)[O-])cc4F)c4nc(c(-c5c(F)cc(S(=O)(=O)[O-])cc5F)c5ccc2[nH]5)C=C4)C=C3)cc1)C1=Cc2cc(Cl)cc(-c3ccccc3)c2O[C@@H]1C(F)(F)F
REMARK SMILES IDX 5 1 4 2 3 3 2 4 1 5 75 6 76 7 91 8 77 9 90 10 78 11 89 12
REMARK SMILES IDX 79 13 82 14 80 15 81 16 92 17 93 18 94 19 95 20 83 21 84 22
REMARK SMILES IDX 88 23 85 24 87 25 86 26 6 27 7 28 8 29 9 30 10 31 74 32
REMARK SMILES IDX 11 33 73 34 12 35 13 36 14 37 67 38 15 39 72 40 66 41 68 42
REMARK SMILES IDX 16 43 71 44 65 45 64 46 17 48 51 49 30 50 50 51 31 52 34 53
REMARK SMILES IDX 49 54 69 55 32 56 33 57 48 59 70 60 35 61 18 62 19 63 28 64
REMARK SMILES IDX 20 65 21 66 27 67 29 68 22 69 23 70 24 71 25 72 26 73 52 74
REMARK SMILES IDX 53 75 62 76 54 77 55 78 61 79 63 80 56 81 57 82 58 83 59 84
REMARK SMILES IDX 60 85 36 86 37 87 46 88 38 89 39 90 45 91 47 92 40 93 41 94
REMARK SMILES IDX 42 95 43 96 44 97
REMARK H PARENT 68 47 34 58
REMARK Flexibility Score: inf
ROOT
ATOM      1  C   UNL A   1      38.116  24.196  26.160  1.00  0.00     0.275 C 
ENDROOT
BRANCH   1   2
ATOM      2  C   UNL A   1      37.167  23.189  24.502  1.00  0.00     0.275 C 
BRANCH   2   3
ATOM      3  O   UNL A   1      35.662  22.767  24.411  1.00  0.00    -0.459 OA
BRANCH   3   4
ATOM      4  C   UNL A   1      34.899  23.655  23.764  1.00  0.00     0.338 C 
ATOM      5  O   UNL A   1      35.120  24.314  22.782  1.00  0.00    -0.246 OA
BRANCH   4   6
ATOM      6  C   UNL A   1      33.905  23.741  24.801  1.00  0.00     0.087 C 
ATOM      7  C   UNL A   1      34.165  24.901  25.670  1.00  0.00     0.027 C 
ATOM      8  C   UNL A   1      32.357  23.526  23.665  1.00  0.00     0.316 C 
ATOM      9  C   UNL A   1      33.129  26.380  25.681  1.00  0.00     0.019 A 
ATOM     10  O   UNL A   1      31.263  25.116  23.631  1.00  0.00    -0.475 OA
ATOM     11  C   UNL A   1      33.625  27.458  26.367  1.00  0.00     0.032 A 
ATOM     12  C   UNL A   1      31.755  26.571  24.618  1.00  0.00     0.135 A 
ATOM     13  C   UNL A   1      32.957  28.658  26.130  1.00  0.00     0.042 A 
ATOM     14  C   UNL A   1      31.195  27.815  24.417  1.00  0.00     0.026 A 
ATOM     15  Cl  UNL A   1      33.578  30.076  26.911  1.00  0.00    -0.084 Cl
ATOM     16  C   UNL A   1      31.835  28.819  25.229  1.00  0.00     0.033 A 
BRANCH   8  17
ATOM     17  C   UNL A   1      32.076  22.010  23.977  1.00  0.00     0.430 C 
ATOM     18  F   UNL A   1      31.205  21.860  24.983  1.00  0.00    -0.167 F 
ATOM     19  F   UNL A   1      31.436  21.467  22.895  1.00  0.00    -0.167 F 
ATOM     20  F   UNL A   1      33.141  21.204  24.121  1.00  0.00    -0.167 F 
ENDBRANCH   8  17
BRANCH  14  21
ATOM     21  C   UNL A   1      30.202  28.288  23.464  1.00  0.00    -0.015 A 
ATOM     22  C   UNL A   1      30.516  29.397  22.648  1.00  0.00     0.009 A 
ATOM     23  C   UNL A   1      28.871  27.868  23.523  1.00  0.00     0.009 A 
ATOM     24  C   UNL A   1      29.530  30.074  21.931  1.00  0.00     0.001 A 
ATOM     25  C   UNL A   1      27.881  28.547  22.803  1.00  0.00     0.001 A 
ATOM     26  C   UNL A   1      28.208  29.651  22.014  1.00  0.00     0.000 A 
ENDBRANCH  14  21
ENDBRANCH   4   6
ENDBRANCH   3   4
ENDBRANCH   2   3
ENDBRANCH   1   2
BRANCH   1  27
ATOM     27  O   UNL A   1      39.782  24.544  26.317  1.00  0.00    -0.458 OA
BRANCH  27  28
ATOM     28  C   UNL A   1      40.728  25.526  26.201  1.00  0.00     0.338 C 
ATOM     29  O   UNL A   1      41.080  26.149  25.217  1.00  0.00    -0.246 OA
BRANCH  28  30
ATOM     30  C   UNL A   1      41.025  25.957  27.610  1.00  0.00     0.060 A 
ATOM     31  C   UNL A   1      42.052  26.892  27.830  1.00  0.00     0.016 A 
ATOM     32  C   UNL A   1      40.069  25.744  28.605  1.00  0.00     0.016 A 
ATOM     33  C   UNL A   1      41.967  27.779  28.924  1.00  0.00     0.010 A 
ATOM     34  C   UNL A   1      40.008  26.608  29.705  1.00  0.00     0.010 A 
ATOM     35  C   UNL A   1      40.903  27.685  29.833  1.00  0.00    -0.014 A 
BRANCH  35  36
ATOM     36  C   UNL A   1      40.821  28.564  31.036  1.00  0.00     0.031 A 
ATOM     37  C   UNL A   1      39.817  29.678  30.972  1.00  0.00     0.074 A 
ATOM     38  C   UNL A   1      41.634  28.452  32.111  1.00  0.00     0.049 A 
ATOM     39  N   UNL A   1      39.580  30.640  31.823  1.00  0.00    -0.248 NA
ATOM     40  C   UNL A   1      38.982  29.718  29.759  1.00  0.00     0.031 C 
ATOM     41  C   UNL A   1      42.666  27.434  32.309  1.00  0.00     0.029 A 
ATOM     42  N   UNL A   1      41.731  29.232  33.246  1.00  0.00    -0.354 N 
ATOM     43  C   UNL A   1      38.561  31.389  31.252  1.00  0.00     0.074 A 
ATOM     44  C   UNL A   1      38.271  30.813  29.959  1.00  0.00     0.031 C 
ATOM     45  C   UNL A   1      43.299  27.661  33.480  1.00  0.00     0.029 A 
ATOM     46  C   UNL A   1      42.730  28.848  34.119  1.00  0.00     0.049 A 
ATOM     47  H   UNL A   1      41.137  29.999  33.420  1.00  0.00     0.167 HD
ATOM     48  C   UNL A   1      37.898  32.450  31.766  1.00  0.00     0.037 A 
ATOM     49  C   UNL A   1      43.134  29.395  35.289  1.00  0.00     0.037 A 
ATOM     50  C   UNL A   1      38.198  33.050  33.032  1.00  0.00     0.049 A 
ATOM     51  C   UNL A   1      42.417  30.626  35.813  1.00  0.00     0.074 A 
ATOM     52  C   UNL A   1      37.590  34.136  33.633  1.00  0.00     0.029 A 
ATOM     53  N   UNL A   1      39.198  32.620  33.889  1.00  0.00    -0.354 N 
ATOM     54  N   UNL A   1      41.406  31.283  35.292  1.00  0.00    -0.248 NA
ATOM     55  C   UNL A   1      42.890  31.188  37.090  1.00  0.00     0.031 C 
ATOM     56  C   UNL A   1      38.247  34.385  34.842  1.00  0.00     0.029 A 
ATOM     57  C   UNL A   1      39.232  33.425  35.013  1.00  0.00     0.049 A 
ATOM     58  H   UNL A   1      39.795  31.855  33.722  1.00  0.00     0.167 HD
ATOM     59  C   UNL A   1      41.099  32.299  36.195  1.00  0.00     0.074 A 
ATOM     60  C   UNL A   1      42.023  32.168  37.300  1.00  0.00     0.031 C 
ATOM     61  C   UNL A   1      40.140  33.256  36.119  1.00  0.00     0.037 A 
BRANCH  48  62
ATOM     62  C   UNL A   1      36.784  33.005  30.931  1.00  0.00     0.058 A 
ATOM     63  C   UNL A   1      37.037  33.965  29.937  1.00  0.00     0.135 A 
ATOM     64  C   UNL A   1      35.456  32.612  31.148  1.00  0.00     0.135 A 
ATOM     65  F   UNL A   1      38.289  34.401  29.719  1.00  0.00    -0.206 F 
ATOM     66  C   UNL A   1      36.005  34.542  29.208  1.00  0.00     0.059 A 
ATOM     67  C   UNL A   1      34.410  33.156  30.410  1.00  0.00     0.059 A 
ATOM     68  F   UNL A   1      35.163  31.711  32.098  1.00  0.00    -0.206 F 
ATOM     69  C   UNL A   1      34.694  34.132  29.454  1.00  0.00     0.060 A 
BRANCH  69  70
ATOM     70  S   UNL A   1      33.367  34.895  28.501  1.00  0.00     0.124 S 
ATOM     71  O   UNL A   1      32.618  35.586  29.546  1.00  0.00    -0.237 OA
ATOM     72  O   UNL A   1      34.101  35.753  27.575  1.00  0.00    -0.237 OA
ATOM     73  O   UNL A   1      32.688  33.755  27.891  1.00  0.00    -0.744 OA
ENDBRANCH  69  70
ENDBRANCH  48  62
BRANCH  49  74
ATOM     74  C   UNL A   1      44.267  28.820  36.083  1.00  0.00     0.058 A 
ATOM     75  C   UNL A   1      44.050  27.787  37.014  1.00  0.00     0.135 A 
ATOM     76  C   UNL A   1      45.564  29.356  36.015  1.00  0.00     0.135 A 
ATOM     77  F   UNL A   1      42.828  27.250  37.144  1.00  0.00    -0.206 F 
ATOM     78  C   UNL A   1      45.057  27.339  37.871  1.00  0.00     0.059 A 
ATOM     79  C   UNL A   1      46.594  28.906  36.844  1.00  0.00     0.059 A 
ATOM     80  F   UNL A   1      45.836  30.345  35.151  1.00  0.00    -0.206 F 
ATOM     81  C   UNL A   1      46.325  27.911  37.783  1.00  0.00     0.060 A 
BRANCH  81  82
ATOM     82  S   UNL A   1      47.621  27.331  38.905  1.00  0.00     0.124 S 
ATOM     83  O   UNL A   1      47.863  28.518  39.716  1.00  0.00    -0.237 OA
ATOM     84  O   UNL A   1      46.967  26.218  39.585  1.00  0.00    -0.237 OA
ATOM     85  O   UNL A   1      48.705  26.955  38.001  1.00  0.00    -0.744 OA
ENDBRANCH  81  82
ENDBRANCH  49  74
BRANCH  61  86
ATOM     86  C   UNL A   1      39.994  34.203  37.280  1.00  0.00     0.058 A 
ATOM     87  C   UNL A   1      40.597  35.470  37.284  1.00  0.00     0.135 A 
ATOM     88  C   UNL A   1      39.169  33.867  38.367  1.00  0.00     0.135 A 
ATOM     89  F   UNL A   1      41.394  35.843  36.270  1.00  0.00    -0.206 F 
ATOM     90  C   UNL A   1      40.406  36.362  38.336  1.00  0.00     0.059 A 
ATOM     91  C   UNL A   1      38.940  34.754  39.414  1.00  0.00     0.059 A 
ATOM     92  F   UNL A   1      38.554  32.674  38.405  1.00  0.00    -0.206 F 
ATOM     93  C   UNL A   1      39.573  35.995  39.395  1.00  0.00     0.060 A 
BRANCH  93  94
ATOM     94  S   UNL A   1      39.297  37.178  40.731  1.00  0.00     0.124 S 
ATOM     95  O   UNL A   1      40.640  37.712  40.932  1.00  0.00    -0.237 OA
ATOM     96  O   UNL A   1      38.331  38.099  40.141  1.00  0.00    -0.237 OA
ATOM     97  O   UNL A   1      38.781  36.350  41.817  1.00  0.00    -0.744 OA
ENDBRANCH  93  94
ENDBRANCH  61  86
ENDBRANCH  35  36
ENDBRANCH  28  30
ENDBRANCH  27  28
ENDBRANCH   1  27
TORSDOF 16
ENDMDL
MODEL 3
REMARK VINA RESULT:     -14.2      5.094      7.922
REMARK SMILES O=C(OCCOC(=O)c1ccc(-c2c3nc(c(-c4c(F)cc(S(=O)(=O)[O-])cc4F)c4ccc([nH]4)c(-c4c(F)cc(S(=O)(=O)[O-])cc4F)c4nc(c(-c5c(F)cc(S(=O)(=O)[O-])cc5F)c5ccc2[nH]5)C=C4)C=C3)cc1)C1=Cc2cc(Cl)cc(-c3ccccc3)c2O[C@@H]1C(F)(F)F
REMARK SMILES IDX 5 1 4 2 3 3 2 4 1 5 75 6 76 7 91 8 77 9 90 10 78 11 89 12
REMARK SMILES IDX 79 13 82 14 80 15 81 16 92 17 93 18 94 19 95 20 83 21 84 22
REMARK SMILES IDX 88 23 85 24 87 25 86 26 6 27 7 28 8 29 9 30 10 31 74 32
REMARK SMILES IDX 11 33 73 34 12 35 13 36 14 37 67 38 15 39 72 40 66 41 68 42
REMARK SMILES IDX 16 43 71 44 65 45 64 46 17 48 51 49 30 50 50 51 31 52 34 53
REMARK SMILES IDX 49 54 69 55 32 56 33 57 48 59 70 60 35 61 18 62 19 63 28 64
REMARK SMILES IDX 20 65 21 66 27 67 29 68 22 69 23 70 24 71 25 72 26 73 52 74
REMARK SMILES IDX 53 75 62 76 54 77 55 78 61 79 63 80 56 81 57 82 58 83 59 84
REMARK SMILES IDX 60 85 36 86 37 87 46 88 38 89 39 90 45 91 47 92 40 93 41 94
REMARK SMILES IDX 42 95 43 96 44 97
REMARK H PARENT 68 47 34 58
REMARK Flexibility Score: inf
ROOT
ATOM      1  C   UNL A   1      40.224  21.013  26.480  1.00  0.00     0.275 C 
ENDROOT
BRANCH   1   2
ATOM      2  C   UNL A   1      42.091  20.097  25.899  1.00  0.00     0.275 C 
BRANCH   2   3
ATOM      3  O   UNL A   1      43.483  20.805  25.807  1.00  0.00    -0.459 OA
BRANCH   3   4
ATOM      4  C   UNL A   1      43.397  22.119  25.569  1.00  0.00     0.338 C 
ATOM      5  O   UNL A   1      42.820  22.725  24.705  1.00  0.00    -0.246 OA
BRANCH   4   6
ATOM      6  C   UNL A   1      44.439  22.480  26.493  1.00  0.00     0.087 C 
ATOM      7  C   UNL A   1      45.665  22.855  25.768  1.00  0.00     0.027 C 
ATOM      8  C   UNL A   1      43.384  23.672  27.588  1.00  0.00     0.316 C 
ATOM      9  C   UNL A   1      46.279  24.551  25.677  1.00  0.00     0.019 A 
ATOM     10  O   UNL A   1      44.001  25.497  27.465  1.00  0.00    -0.475 OA
ATOM     11  C   UNL A   1      47.293  24.777  24.783  1.00  0.00     0.032 A 
ATOM     12  C   UNL A   1      45.434  25.895  26.407  1.00  0.00     0.135 A 
ATOM     13  C   UNL A   1      47.555  26.122  24.526  1.00  0.00     0.042 A 
ATOM     14  C   UNL A   1      45.741  27.191  26.047  1.00  0.00     0.026 A 
ATOM     15  Cl  UNL A   1      48.776  26.478  23.348  1.00  0.00    -0.084 Cl
ATOM     16  C   UNL A   1      46.836  27.233  25.112  1.00  0.00     0.033 A 
BRANCH   8  17
ATOM     17  C   UNL A   1      43.120  22.683  28.783  1.00  0.00     0.430 C 
ATOM     18  F   UNL A   1      44.186  22.576  29.586  1.00  0.00    -0.167 F 
ATOM     19  F   UNL A   1      42.153  23.232  29.581  1.00  0.00    -0.167 F 
ATOM     20  F   UNL A   1      42.605  21.480  28.483  1.00  0.00    -0.167 F 
ENDBRANCH   8  17
BRANCH  14  21
ATOM     21  C   UNL A   1      45.085  28.457  26.335  1.00  0.00    -0.015 A 
ATOM     22  C   UNL A   1      45.844  29.505  26.901  1.00  0.00     0.009 A 
ATOM     23  C   UNL A   1      43.692  28.579  26.333  1.00  0.00     0.009 A 
ATOM     24  C   UNL A   1      45.233  30.626  27.462  1.00  0.00     0.001 A 
ATOM     25  C   UNL A   1      43.079  29.705  26.895  1.00  0.00     0.001 A 
ATOM     26  C   UNL A   1      43.846  30.722  27.464  1.00  0.00     0.000 A 
ENDBRANCH  14  21
ENDBRANCH   4   6
ENDBRANCH   3   4
ENDBRANCH   2   3
ENDBRANCH   1   2
BRANCH   1  27
ATOM     27  O   UNL A   1      39.526  22.417  25.797  1.00  0.00    -0.458 OA
BRANCH  27  28
ATOM     28  C   UNL A   1      38.736  23.505  26.056  1.00  0.00     0.338 C 
ATOM     29  O   UNL A   1      37.538  23.644  25.904  1.00  0.00    -0.246 OA
BRANCH  28  30
ATOM     30  C   UNL A   1      39.579  24.410  26.910  1.00  0.00     0.060 A 
ATOM     31  C   UNL A   1      40.365  25.393  26.284  1.00  0.00     0.016 A 
ATOM     32  C   UNL A   1      39.289  24.530  28.270  1.00  0.00     0.016 A 
ATOM     33  C   UNL A   1      40.636  26.604  26.955  1.00  0.00     0.010 A 
ATOM     34  C   UNL A   1      39.588  25.722  28.941  1.00  0.00     0.010 A 
ATOM     35  C   UNL A   1      40.188  26.802  28.270  1.00  0.00    -0.014 A 
BRANCH  35  36
ATOM     36  C   UNL A   1      40.516  28.044  29.029  1.00  0.00     0.031 A 
ATOM     37  C   UNL A   1      41.819  28.039  29.773  1.00  0.00     0.074 A 
ATOM     38  C   UNL A   1      39.687  29.107  29.133  1.00  0.00     0.049 A 
ATOM     39  N   UNL A   1      42.327  28.933  30.578  1.00  0.00    -0.248 NA
ATOM     40  C   UNL A   1      42.650  26.834  29.600  1.00  0.00     0.031 C 
ATOM     41  C   UNL A   1      38.384  29.251  28.482  1.00  0.00     0.029 A 
ATOM     42  N   UNL A   1      39.814  30.276  29.857  1.00  0.00    -0.354 N 
ATOM     43  C   UNL A   1      43.541  28.405  30.993  1.00  0.00     0.074 A 
ATOM     44  C   UNL A   1      43.663  27.090  30.408  1.00  0.00     0.031 C 
ATOM     45  C   UNL A   1      37.829  30.426  28.848  1.00  0.00     0.029 A 
ATOM     46  C   UNL A   1      38.726  31.123  29.770  1.00  0.00     0.049 A 
ATOM     47  H   UNL A   1      40.613  30.489  30.392  1.00  0.00     0.167 HD
ATOM     48  C   UNL A   1      44.491  28.971  31.771  1.00  0.00     0.037 A 
ATOM     49  C   UNL A   1      38.489  32.314  30.368  1.00  0.00     0.037 A 
ATOM     50  C   UNL A   1      44.367  30.261  32.383  1.00  0.00     0.049 A 
ATOM     51  C   UNL A   1      39.544  32.898  31.290  1.00  0.00     0.074 A 
ATOM     52  C   UNL A   1      45.271  30.915  33.198  1.00  0.00     0.029 A 
ATOM     53  N   UNL A   1      43.264  31.090  32.252  1.00  0.00    -0.354 N 
ATOM     54  N   UNL A   1      40.720  32.414  31.618  1.00  0.00    -0.248 NA
ATOM     55  C   UNL A   1      39.243  34.196  31.920  1.00  0.00     0.031 C 
ATOM     56  C   UNL A   1      44.699  32.129  33.591  1.00  0.00     0.029 A 
ATOM     57  C   UNL A   1      43.460  32.249  32.981  1.00  0.00     0.049 A 
ATOM     58  H   UNL A   1      42.462  30.884  31.720  1.00  0.00     0.167 HD
ATOM     59  C   UNL A   1      41.310  33.365  32.449  1.00  0.00     0.074 A 
ATOM     60  C   UNL A   1      40.368  34.457  32.569  1.00  0.00     0.031 C 
ATOM     61  C   UNL A   1      42.521  33.340  33.060  1.00  0.00     0.037 A 
BRANCH  48  62
ATOM     62  C   UNL A   1      45.740  28.170  31.983  1.00  0.00     0.058 A 
ATOM     63  C   UNL A   1      45.850  27.277  33.061  1.00  0.00     0.135 A 
ATOM     64  C   UNL A   1      46.846  28.323  31.135  1.00  0.00     0.135 A 
ATOM     65  F   UNL A   1      44.830  27.126  33.922  1.00  0.00    -0.206 F 
ATOM     66  C   UNL A   1      47.028  26.586  33.312  1.00  0.00     0.059 A 
ATOM     67  C   UNL A   1      48.026  27.618  31.350  1.00  0.00     0.059 A 
ATOM     68  F   UNL A   1      46.795  29.177  30.102  1.00  0.00    -0.206 F 
ATOM     69  C   UNL A   1      48.112  26.765  32.452  1.00  0.00     0.060 A 
BRANCH  69  70
ATOM     70  S   UNL A   1      49.634  25.862  32.795  1.00  0.00     0.124 S 
ATOM     71  O   UNL A   1      49.294  25.182  34.042  1.00  0.00    -0.237 OA
ATOM     72  O   UNL A   1      49.761  25.006  31.620  1.00  0.00    -0.237 OA
ATOM     73  O   UNL A   1      50.637  26.918  32.910  1.00  0.00    -0.744 OA
ENDBRANCH  69  70
ENDBRANCH  48  62
BRANCH  49  74
ATOM     74  C   UNL A   1      37.216  33.073  30.145  1.00  0.00     0.058 A 
ATOM     75  C   UNL A   1      36.098  32.875  30.976  1.00  0.00     0.135 A 
ATOM     76  C   UNL A   1      37.048  33.924  29.041  1.00  0.00     0.135 A 
ATOM     77  F   UNL A   1      36.188  32.054  32.033  1.00  0.00    -0.206 F 
ATOM     78  C   UNL A   1      34.859  33.454  30.700  1.00  0.00     0.059 A 
ATOM     79  C   UNL A   1      35.826  34.536  28.758  1.00  0.00     0.059 A 
ATOM     80  F   UNL A   1      38.075  34.152  28.208  1.00  0.00    -0.206 F 
ATOM     81  C   UNL A   1      34.730  34.278  29.582  1.00  0.00     0.060 A 
BRANCH  81  82
ATOM     82  S   UNL A   1      33.117  35.017  29.226  1.00  0.00     0.124 S 
ATOM     83  O   UNL A   1      32.599  34.116  28.204  1.00  0.00    -0.237 OA
ATOM     84  O   UNL A   1      32.455  34.954  30.525  1.00  0.00    -0.237 OA
ATOM     85  O   UNL A   1      33.457  36.361  28.767  1.00  0.00    -0.744 OA
ENDBRANCH  81  82
ENDBRANCH  49  74
BRANCH  61  86
ATOM     86  C   UNL A   1      42.931  34.543  33.866  1.00  0.00     0.058 A 
ATOM     87  C   UNL A   1      42.621  34.665  35.229  1.00  0.00     0.135 A 
ATOM     88  C   UNL A   1      43.719  35.550  33.282  1.00  0.00     0.135 A 
ATOM     89  F   UNL A   1      41.872  33.731  35.837  1.00  0.00    -0.206 F 
ATOM     90  C   UNL A   1      43.057  35.753  35.979  1.00  0.00     0.059 A 
ATOM     91  C   UNL A   1      44.191  36.631  34.019  1.00  0.00     0.059 A 
ATOM     92  F   UNL A   1      44.060  35.474  31.985  1.00  0.00    -0.206 F 
ATOM     93  C   UNL A   1      43.844  36.730  35.365  1.00  0.00     0.060 A 
BRANCH  93  94
ATOM     94  S   UNL A   1      44.441  38.114  36.359  1.00  0.00     0.124 S 
ATOM     95  O   UNL A   1      45.859  37.793  36.488  1.00  0.00    -0.237 OA
ATOM     96  O   UNL A   1      44.126  39.264  35.518  1.00  0.00    -0.237 OA
ATOM     97  O   UNL A   1      43.659  38.012  37.588  1.00  0.00    -0.744 OA
ENDBRANCH  93  94
ENDBRANCH  61  86
ENDBRANCH  35  36
ENDBRANCH  28  30
ENDBRANCH  27  28
ENDBRANCH   1  27
TORSDOF 16
ENDMDL
