MODEL 1
REMARK VINA RESULT:     -12.1      0.000      0.000
REMARK SMILES O=C(C[C@H](Cc1ccc(Cl)cc1)C(=O)Nc1cc(Cl)ccc1Cl)OCCOC(=O)c1ccc(-c2c3nc(c(-c4c(F)cc(S(=O)(=O)[O-])cc4F)c4ccc([nH]4)c(-c4c(F)cc(S(=O)(=O)[O-])cc4F)c4nc(c(-c5c(F)cc(S(=O)(=O)[O-])cc5F)c5ccc2[nH]5)C=C4)C=C3)cc1
REMARK SMILES IDX 25 1 24 2 2 3 1 4 3 5 4 6 13 7 14 8 15 9 16 11 17 12 22 13
REMARK SMILES IDX 18 14 21 15 23 16 19 17 20 18 5 19 6 20 7 21 12 22 8 23
REMARK SMILES IDX 11 24 9 25 10 26 26 27 27 28 28 29 29 30 30 31 31 32 95 33
REMARK SMILES IDX 32 34 94 35 33 36 34 37 35 38 88 39 36 40 93 41 87 42 89 43
REMARK SMILES IDX 37 44 92 45 86 46 85 47 38 49 72 50 51 51 71 52 52 53 55 54
REMARK SMILES IDX 70 55 90 56 53 57 54 58 69 60 91 61 56 62 39 63 40 64 49 65
REMARK SMILES IDX 41 66 42 67 48 68 50 69 43 70 44 71 45 72 46 73 47 74 73 75
REMARK SMILES IDX 74 76 83 77 75 78 76 79 82 80 84 81 77 82 78 83 79 84 80 85
REMARK SMILES IDX 81 86 57 87 58 88 67 89 59 90 60 91 66 92 68 93 61 94 62 95
REMARK SMILES IDX 63 96 64 97 65 98
REMARK H PARENT 15 10 89 48 55 59
REMARK Flexibility Score: inf
ROOT
ATOM      1  C   UNL A   1      32.887  29.778  26.786  1.00  0.00     0.274 C 
ENDROOT
BRANCH   1   2
ATOM      2  O   UNL A   1      32.430  28.537  26.252  1.00  0.00    -0.462 OA
BRANCH   2   3
ATOM      3  C   UNL A   1      31.570  27.773  26.952  1.00  0.00     0.306 C 
ATOM      4  O   UNL A   1      31.198  28.134  28.062  1.00  0.00    -0.252 OA
BRANCH   3   5
ATOM      5  C   UNL A   1      31.136  26.468  26.324  1.00  0.00     0.136 C 
BRANCH   5   6
ATOM      6  C   UNL A   1      32.256  25.447  25.981  1.00  0.00     0.094 C 
BRANCH   6   7
ATOM      7  C   UNL A   1      31.698  24.081  26.561  1.00  0.00     0.228 C 
ATOM      8  O   UNL A   1      30.579  24.069  27.090  1.00  0.00    -0.274 OA
ATOM      9  N   UNL A   1      32.242  22.861  26.237  1.00  0.00    -0.324 N 
ATOM     10  H   UNL A   1      31.706  22.058  26.428  1.00  0.00     0.169 HD
BRANCH   9  11
ATOM     11  C   UNL A   1      33.490  22.678  25.657  1.00  0.00     0.061 A 
ATOM     12  C   UNL A   1      34.850  23.107  26.610  1.00  0.00     0.048 A 
ATOM     13  C   UNL A   1      33.689  22.456  24.068  1.00  0.00     0.064 A 
ATOM     14  C   UNL A   1      36.699  23.468  25.848  1.00  0.00     0.043 A 
ATOM     15  C   UNL A   1      35.237  22.745  23.290  1.00  0.00     0.024 A 
ATOM     16  Cl  UNL A   1      32.226  22.222  23.158  1.00  0.00    -0.082 Cl
ATOM     17  Cl  UNL A   1      38.320  23.886  26.436  1.00  0.00    -0.084 Cl
ATOM     18  C   UNL A   1      36.778  23.319  24.031  1.00  0.00     0.022 A 
ENDBRANCH   9  11
ENDBRANCH   6   7
BRANCH   6  19
ATOM     19  C   UNL A   1      33.187  25.558  24.627  1.00  0.00     0.049 C 
BRANCH  19  20
ATOM     20  C   UNL A   1      32.519  25.868  23.083  1.00  0.00    -0.047 A 
ATOM     21  C   UNL A   1      30.723  26.056  23.173  1.00  0.00     0.005 A 
ATOM     22  C   UNL A   1      33.581  27.164  22.703  1.00  0.00     0.005 A 
ATOM     23  C   UNL A   1      29.918  27.625  23.170  1.00  0.00     0.021 A 
ATOM     24  C   UNL A   1      32.961  28.803  22.833  1.00  0.00     0.021 A 
ATOM     25  C   UNL A   1      30.942  29.102  23.009  1.00  0.00     0.041 A 
ATOM     26  Cl  UNL A   1      29.635  29.902  21.878  1.00  0.00    -0.084 Cl
ENDBRANCH  19  20
ENDBRANCH   6  19
ENDBRANCH   5   6
ENDBRANCH   3   5
ENDBRANCH   2   3
ENDBRANCH   1   2
BRANCH   1  27
ATOM     27  C   UNL A   1      34.264  29.660  27.499  1.00  0.00     0.275 C 
BRANCH  27  28
ATOM     28  O   UNL A   1      35.052  30.886  27.783  1.00  0.00    -0.458 OA
BRANCH  28  29
ATOM     29  C   UNL A   1      35.924  30.913  28.850  1.00  0.00     0.338 C 
ATOM     30  O   UNL A   1      35.644  31.426  29.922  1.00  0.00    -0.246 OA
BRANCH  29  31
ATOM     31  C   UNL A   1      37.253  30.153  28.624  1.00  0.00     0.060 A 
ATOM     32  C   UNL A   1      37.737  29.911  27.326  1.00  0.00     0.016 A 
ATOM     33  C   UNL A   1      38.056  29.633  29.650  1.00  0.00     0.016 A 
ATOM     34  C   UNL A   1      39.055  29.339  27.087  1.00  0.00     0.010 A 
ATOM     35  C   UNL A   1      39.366  29.043  29.413  1.00  0.00     0.010 A 
ATOM     36  C   UNL A   1      39.958  28.965  28.140  1.00  0.00    -0.014 A 
BRANCH  36  37
ATOM     37  C   UNL A   1      41.598  28.719  27.873  1.00  0.00     0.031 A 
ATOM     38  C   UNL A   1      41.907  27.439  27.241  1.00  0.00     0.074 A 
ATOM     39  C   UNL A   1      42.798  29.293  28.359  1.00  0.00     0.049 A 
ATOM     40  N   UNL A   1      43.088  27.022  26.915  1.00  0.00    -0.248 NA
ATOM     41  C   UNL A   1      40.830  26.451  27.250  1.00  0.00     0.031 C 
ATOM     42  C   UNL A   1      42.961  30.061  29.595  1.00  0.00     0.029 A 
ATOM     43  N   UNL A   1      44.094  29.513  27.792  1.00  0.00    -0.354 N 
ATOM     44  C   UNL A   1      42.947  25.670  26.858  1.00  0.00     0.074 A 
ATOM     45  C   UNL A   1      41.554  25.354  27.124  1.00  0.00     0.031 C 
ATOM     46  C   UNL A   1      44.028  30.883  29.547  1.00  0.00     0.029 A 
ATOM     47  C   UNL A   1      44.824  30.613  28.364  1.00  0.00     0.049 A 
ATOM     48  H   UNL A   1      44.458  28.953  27.068  1.00  0.00     0.167 HD
ATOM     49  C   UNL A   1      43.927  24.776  26.674  1.00  0.00     0.037 A 
ATOM     50  C   UNL A   1      45.946  31.324  27.961  1.00  0.00     0.037 A 
ATOM     51  C   UNL A   1      45.323  25.084  26.574  1.00  0.00     0.049 A 
ATOM     52  C   UNL A   1      46.949  30.392  27.348  1.00  0.00     0.074 A 
ATOM     53  C   UNL A   1      46.342  24.195  26.308  1.00  0.00     0.029 A 
ATOM     54  N   UNL A   1      45.911  26.331  26.782  1.00  0.00    -0.354 N 
ATOM     55  N   UNL A   1      46.727  29.162  26.972  1.00  0.00    -0.248 NA
ATOM     56  C   UNL A   1      48.369  30.790  27.324  1.00  0.00     0.031 C 
ATOM     57  C   UNL A   1      47.550  24.881  26.393  1.00  0.00     0.029 A 
ATOM     58  C   UNL A   1      47.287  26.220  26.624  1.00  0.00     0.049 A 
ATOM     59  H   UNL A   1      45.427  27.159  27.006  1.00  0.00     0.167 HD
ATOM     60  C   UNL A   1      47.969  28.600  26.815  1.00  0.00     0.074 A 
ATOM     61  C   UNL A   1      48.948  29.659  26.946  1.00  0.00     0.031 C 
ATOM     62  C   UNL A   1      48.252  27.289  26.696  1.00  0.00     0.037 A 
BRANCH  49  63
ATOM     63  C   UNL A   1      43.439  23.384  26.578  1.00  0.00     0.058 A 
ATOM     64  C   UNL A   1      43.235  22.638  27.751  1.00  0.00     0.135 A 
ATOM     65  C   UNL A   1      43.287  22.763  25.335  1.00  0.00     0.135 A 
ATOM     66  F   UNL A   1      43.469  23.184  28.956  1.00  0.00    -0.206 F 
ATOM     67  C   UNL A   1      42.896  21.305  27.691  1.00  0.00     0.059 A 
ATOM     68  C   UNL A   1      42.894  21.439  25.255  1.00  0.00     0.059 A 
ATOM     69  F   UNL A   1      43.549  23.431  24.201  1.00  0.00    -0.206 F 
ATOM     70  C   UNL A   1      42.698  20.725  26.439  1.00  0.00     0.060 A 
BRANCH  70  71
ATOM     71  S   UNL A   1      42.106  19.031  26.399  1.00  0.00     0.124 S 
ATOM     72  O   UNL A   1      40.751  19.207  25.885  1.00  0.00    -0.237 OA
ATOM     73  O   UNL A   1      43.056  18.405  25.484  1.00  0.00    -0.237 OA
ATOM     74  O   UNL A   1      42.203  18.607  27.791  1.00  0.00    -0.744 OA
ENDBRANCH  70  71
ENDBRANCH  49  63
BRANCH  50  75
ATOM     75  C   UNL A   1      46.445  32.792  28.236  1.00  0.00     0.058 A 
ATOM     76  C   UNL A   1      46.288  33.810  27.237  1.00  0.00     0.135 A 
ATOM     77  C   UNL A   1      47.070  33.266  29.404  1.00  0.00     0.135 A 
ATOM     78  F   UNL A   1      45.687  33.512  26.071  1.00  0.00    -0.206 F 
ATOM     79  C   UNL A   1      46.775  35.133  27.356  1.00  0.00     0.059 A 
ATOM     80  C   UNL A   1      47.504  34.603  29.573  1.00  0.00     0.059 A 
ATOM     81  F   UNL A   1      47.322  32.446  30.428  1.00  0.00    -0.206 F 
ATOM     82  C   UNL A   1      47.388  35.524  28.537  1.00  0.00     0.060 A 
BRANCH  82  83
ATOM     83  S   UNL A   1      48.030  37.218  28.718  1.00  0.00     0.124 S 
ATOM     84  O   UNL A   1      49.430  37.055  28.347  1.00  0.00    -0.237 OA
ATOM     85  O   UNL A   1      47.208  37.974  27.777  1.00  0.00    -0.237 OA
ATOM     86  O   UNL A   1      47.787  37.521  30.127  1.00  0.00    -0.744 OA
ENDBRANCH  82  83
ENDBRANCH  50  75
BRANCH  62  87
ATOM     87  C   UNL A   1      49.695  26.945  26.581  1.00  0.00     0.058 A 
ATOM     88  C   UNL A   1      50.506  26.713  27.701  1.00  0.00     0.135 A 
ATOM     89  C   UNL A   1      50.252  26.815  25.303  1.00  0.00     0.135 A 
ATOM     90  F   UNL A   1      50.014  26.861  28.942  1.00  0.00    -0.206 F 
ATOM     91  C   UNL A   1      51.838  26.362  27.552  1.00  0.00     0.059 A 
ATOM     92  C   UNL A   1      51.565  26.423  25.131  1.00  0.00     0.059 A 
ATOM     93  F   UNL A   1      49.503  27.043  24.212  1.00  0.00    -0.206 F 
ATOM     94  C   UNL A   1      52.352  26.205  26.261  1.00  0.00     0.060 A 
BRANCH  94  95
ATOM     95  S   UNL A   1      54.061  25.675  26.076  1.00  0.00     0.124 S 
ATOM     96  O   UNL A   1      54.436  25.405  27.460  1.00  0.00    -0.237 OA
ATOM     97  O   UNL A   1      53.927  24.506  25.213  1.00  0.00    -0.237 OA
ATOM     98  O   UNL A   1      54.710  26.830  25.464  1.00  0.00    -0.744 OA
ENDBRANCH  94  95
ENDBRANCH  62  87
ENDBRANCH  36  37
ENDBRANCH  29  31
ENDBRANCH  28  29
ENDBRANCH  27  28
ENDBRANCH   1  27
TORSDOF 19
ENDMDL
MODEL 2
REMARK VINA RESULT:     -11.9      4.633      8.982
REMARK SMILES O=C(C[C@H](Cc1ccc(Cl)cc1)C(=O)Nc1cc(Cl)ccc1Cl)OCCOC(=O)c1ccc(-c2c3nc(c(-c4c(F)cc(S(=O)(=O)[O-])cc4F)c4ccc([nH]4)c(-c4c(F)cc(S(=O)(=O)[O-])cc4F)c4nc(c(-c5c(F)cc(S(=O)(=O)[O-])cc5F)c5ccc2[nH]5)C=C4)C=C3)cc1
REMARK SMILES IDX 25 1 24 2 2 3 1 4 3 5 4 6 13 7 14 8 15 9 16 11 17 12 22 13
REMARK SMILES IDX 18 14 21 15 23 16 19 17 20 18 5 19 6 20 7 21 12 22 8 23
REMARK SMILES IDX 11 24 9 25 10 26 26 27 27 28 28 29 29 30 30 31 31 32 95 33
REMARK SMILES IDX 32 34 94 35 33 36 34 37 35 38 88 39 36 40 93 41 87 42 89 43
REMARK SMILES IDX 37 44 92 45 86 46 85 47 38 49 72 50 51 51 71 52 52 53 55 54
REMARK SMILES IDX 70 55 90 56 53 57 54 58 69 60 91 61 56 62 39 63 40 64 49 65
REMARK SMILES IDX 41 66 42 67 48 68 50 69 43 70 44 71 45 72 46 73 47 74 73 75
REMARK SMILES IDX 74 76 83 77 75 78 76 79 82 80 84 81 77 82 78 83 79 84 80 85
REMARK SMILES IDX 81 86 57 87 58 88 67 89 59 90 60 91 66 92 68 93 61 94 62 95
REMARK SMILES IDX 63 96 64 97 65 98
REMARK H PARENT 15 10 89 48 55 59
REMARK Flexibility Score: inf
ROOT
ATOM      1  C   UNL A   1      32.187  28.867  25.755  1.00  0.00     0.274 C 
ENDROOT
BRANCH   1   2
ATOM      2  O   UNL A   1      33.016  27.914  26.418  1.00  0.00    -0.462 OA
BRANCH   2   3
ATOM      3  C   UNL A   1      33.241  26.707  25.864  1.00  0.00     0.306 C 
ATOM      4  O   UNL A   1      33.932  26.619  24.856  1.00  0.00    -0.252 OA
BRANCH   3   5
ATOM      5  C   UNL A   1      32.581  25.514  26.515  1.00  0.00     0.136 C 
BRANCH   5   6
ATOM      6  C   UNL A   1      31.244  25.025  25.894  1.00  0.00     0.094 C 
BRANCH   6   7
ATOM      7  C   UNL A   1      30.984  23.642  26.625  1.00  0.00     0.228 C 
ATOM      8  O   UNL A   1      29.970  23.516  27.324  1.00  0.00    -0.274 OA
ATOM      9  N   UNL A   1      31.645  22.487  26.282  1.00  0.00    -0.324 N 
ATOM     10  H   UNL A   1      31.267  21.634  26.597  1.00  0.00     0.169 HD
BRANCH   9  11
ATOM     11  C   UNL A   1      32.807  22.433  25.523  1.00  0.00     0.061 A 
ATOM     12  C   UNL A   1      34.289  22.503  26.382  1.00  0.00     0.048 A 
ATOM     13  C   UNL A   1      32.817  22.688  23.927  1.00  0.00     0.064 A 
ATOM     14  C   UNL A   1      36.069  22.998  25.534  1.00  0.00     0.043 A 
ATOM     15  C   UNL A   1      34.290  23.131  23.079  1.00  0.00     0.024 A 
ATOM     16  Cl  UNL A   1      31.251  22.796  23.178  1.00  0.00    -0.082 Cl
ATOM     17  Cl  UNL A   1      37.770  23.155  26.011  1.00  0.00    -0.084 Cl
ATOM     18  C   UNL A   1      35.941  23.395  23.757  1.00  0.00     0.022 A 
ENDBRANCH   9  11
ENDBRANCH   6   7
BRANCH   6  19
ATOM     19  C   UNL A   1      30.048  26.050  25.417  1.00  0.00     0.049 C 
BRANCH  19  20
ATOM     20  C   UNL A   1      29.400  26.023  23.833  1.00  0.00    -0.047 A 
ATOM     21  C   UNL A   1      27.790  26.843  23.772  1.00  0.00     0.005 A 
ATOM     22  C   UNL A   1      30.805  26.654  23.072  1.00  0.00     0.005 A 
ATOM     23  C   UNL A   1      27.571  28.491  23.183  1.00  0.00     0.021 A 
ATOM     24  C   UNL A   1      30.794  28.345  22.592  1.00  0.00     0.021 A 
ATOM     25  C   UNL A   1      29.019  29.367  22.562  1.00  0.00     0.041 A 
ATOM     26  Cl  UNL A   1      27.974  30.132  21.165  1.00  0.00    -0.084 Cl
ENDBRANCH  19  20
ENDBRANCH   6  19
ENDBRANCH   5   6
ENDBRANCH   3   5
ENDBRANCH   2   3
ENDBRANCH   1   2
BRANCH   1  27
ATOM     27  C   UNL A   1      32.478  30.330  26.193  1.00  0.00     0.275 C 
BRANCH  27  28
ATOM     28  O   UNL A   1      32.971  30.601  27.567  1.00  0.00    -0.458 OA
BRANCH  28  29
ATOM     29  C   UNL A   1      33.907  31.591  27.780  1.00  0.00     0.338 C 
ATOM     30  O   UNL A   1      33.610  32.771  27.888  1.00  0.00    -0.246 OA
BRANCH  29  31
ATOM     31  C   UNL A   1      35.357  31.086  27.974  1.00  0.00     0.060 A 
ATOM     32  C   UNL A   1      36.389  31.972  28.334  1.00  0.00     0.016 A 
ATOM     33  C   UNL A   1      35.767  29.757  27.793  1.00  0.00     0.016 A 
ATOM     34  C   UNL A   1      37.725  31.503  28.674  1.00  0.00     0.010 A 
ATOM     35  C   UNL A   1      37.108  29.289  28.114  1.00  0.00     0.010 A 
ATOM     36  C   UNL A   1      38.105  30.116  28.659  1.00  0.00    -0.014 A 
BRANCH  36  37
ATOM     37  C   UNL A   1      39.477  29.553  29.447  1.00  0.00     0.031 A 
ATOM     38  C   UNL A   1      39.616  30.046  30.815  1.00  0.00     0.074 A 
ATOM     39  C   UNL A   1      40.698  28.957  29.048  1.00  0.00     0.049 A 
ATOM     40  N   UNL A   1      40.571  29.746  31.635  1.00  0.00    -0.248 NA
ATOM     41  C   UNL A   1      38.766  31.182  31.169  1.00  0.00     0.031 C 
ATOM     42  C   UNL A   1      41.302  29.011  27.715  1.00  0.00     0.029 A 
ATOM     43  N   UNL A   1      41.582  28.006  29.651  1.00  0.00    -0.354 N 
ATOM     44  C   UNL A   1      40.568  30.775  32.523  1.00  0.00     0.074 A 
ATOM     45  C   UNL A   1      39.476  31.668  32.171  1.00  0.00     0.031 C 
ATOM     46  C   UNL A   1      42.143  27.981  27.495  1.00  0.00     0.029 A 
ATOM     47  C   UNL A   1      42.364  27.235  28.720  1.00  0.00     0.049 A 
ATOM     48  H   UNL A   1      41.650  27.889  30.626  1.00  0.00     0.167 HD
ATOM     49  C   UNL A   1      41.459  30.984  33.501  1.00  0.00     0.037 A 
ATOM     50  C   UNL A   1      43.110  26.071  28.838  1.00  0.00     0.037 A 
ATOM     51  C   UNL A   1      42.627  30.189  33.743  1.00  0.00     0.049 A 
ATOM     52  C   UNL A   1      43.838  26.061  30.150  1.00  0.00     0.074 A 
ATOM     53  C   UNL A   1      43.516  30.334  34.786  1.00  0.00     0.029 A 
ATOM     54  N   UNL A   1      43.107  29.159  32.935  1.00  0.00    -0.354 N 
ATOM     55  N   UNL A   1      43.609  26.852  31.164  1.00  0.00    -0.248 NA
ATOM     56  C   UNL A   1      45.051  25.232  30.286  1.00  0.00     0.031 C 
ATOM     57  C   UNL A   1      44.556  29.428  34.599  1.00  0.00     0.029 A 
ATOM     58  C   UNL A   1      44.277  28.652  33.488  1.00  0.00     0.049 A 
ATOM     59  H   UNL A   1      42.683  28.841  32.105  1.00  0.00     0.167 HD
ATOM     60  C   UNL A   1      44.709  26.732  31.974  1.00  0.00     0.074 A 
ATOM     61  C   UNL A   1      45.525  25.657  31.449  1.00  0.00     0.031 C 
ATOM     62  C   UNL A   1      45.052  27.542  32.993  1.00  0.00     0.037 A 
BRANCH  49  63
ATOM     63  C   UNL A   1      41.133  32.149  34.352  1.00  0.00     0.058 A 
ATOM     64  C   UNL A   1      41.746  33.388  34.096  1.00  0.00     0.135 A 
ATOM     65  C   UNL A   1      40.313  32.008  35.474  1.00  0.00     0.135 A 
ATOM     66  F   UNL A   1      42.616  33.522  33.081  1.00  0.00    -0.206 F 
ATOM     67  C   UNL A   1      41.556  34.458  34.941  1.00  0.00     0.059 A 
ATOM     68  C   UNL A   1      40.066  33.088  36.304  1.00  0.00     0.059 A 
ATOM     69  F   UNL A   1      39.776  30.817  35.783  1.00  0.00    -0.206 F 
ATOM     70  C   UNL A   1      40.689  34.305  36.023  1.00  0.00     0.060 A 
BRANCH  70  71
ATOM     71  S   UNL A   1      40.341  35.762  37.012  1.00  0.00     0.124 S 
ATOM     72  O   UNL A   1      39.692  36.630  36.035  1.00  0.00    -0.237 OA
ATOM     73  O   UNL A   1      39.474  35.215  38.051  1.00  0.00    -0.237 OA
ATOM     74  O   UNL A   1      41.662  36.190  37.457  1.00  0.00    -0.744 OA
ENDBRANCH  70  71
ENDBRANCH  49  63
BRANCH  50  75
ATOM     75  C   UNL A   1      43.517  24.945  27.815  1.00  0.00     0.058 A 
ATOM     76  C   UNL A   1      42.786  23.710  27.769  1.00  0.00     0.135 A 
ATOM     77  C   UNL A   1      44.571  24.990  26.885  1.00  0.00     0.135 A 
ATOM     78  F   UNL A   1      41.734  23.527  28.586  1.00  0.00    -0.206 F 
ATOM     79  C   UNL A   1      43.122  22.611  26.945  1.00  0.00     0.059 A 
ATOM     80  C   UNL A   1      44.884  23.928  26.003  1.00  0.00     0.059 A 
ATOM     81  F   UNL A   1      45.374  26.055  26.810  1.00  0.00    -0.206 F 
ATOM     82  C   UNL A   1      44.182  22.729  26.058  1.00  0.00     0.060 A 
BRANCH  82  83
ATOM     83  S   UNL A   1      44.642  21.328  24.990  1.00  0.00     0.124 S 
ATOM     84  O   UNL A   1      43.608  20.350  25.307  1.00  0.00    -0.237 OA
ATOM     85  O   UNL A   1      44.578  21.910  23.653  1.00  0.00    -0.237 OA
ATOM     86  O   UNL A   1      45.987  20.986  25.447  1.00  0.00    -0.744 OA
ENDBRANCH  82  83
ENDBRANCH  50  75
BRANCH  62  87
ATOM     87  C   UNL A   1      46.327  27.209  33.685  1.00  0.00     0.058 A 
ATOM     88  C   UNL A   1      46.390  26.298  34.750  1.00  0.00     0.135 A 
ATOM     89  C   UNL A   1      47.510  27.802  33.230  1.00  0.00     0.135 A 
ATOM     90  F   UNL A   1      45.271  25.735  35.234  1.00  0.00    -0.206 F 
ATOM     91  C   UNL A   1      47.602  25.988  35.347  1.00  0.00     0.059 A 
ATOM     92  C   UNL A   1      48.734  27.474  33.782  1.00  0.00     0.059 A 
ATOM     93  F   UNL A   1      47.479  28.687  32.221  1.00  0.00    -0.206 F 
ATOM     94  C   UNL A   1      48.769  26.570  34.843  1.00  0.00     0.060 A 
BRANCH  94  95
ATOM     95  S   UNL A   1      50.345  26.105  35.574  1.00  0.00     0.124 S 
ATOM     96  O   UNL A   1      51.133  27.314  35.365  1.00  0.00    -0.237 OA
ATOM     97  O   UNL A   1      49.970  25.819  36.954  1.00  0.00    -0.237 OA
ATOM     98  O   UNL A   1      50.755  24.946  34.786  1.00  0.00    -0.744 OA
ENDBRANCH  94  95
ENDBRANCH  62  87
ENDBRANCH  36  37
ENDBRANCH  29  31
ENDBRANCH  28  29
ENDBRANCH  27  28
ENDBRANCH   1  27
TORSDOF 19
ENDMDL
MODEL 3
REMARK VINA RESULT:     -11.9      0.976      8.194
REMARK SMILES O=C(C[C@H](Cc1ccc(Cl)cc1)C(=O)Nc1cc(Cl)ccc1Cl)OCCOC(=O)c1ccc(-c2c3nc(c(-c4c(F)cc(S(=O)(=O)[O-])cc4F)c4ccc([nH]4)c(-c4c(F)cc(S(=O)(=O)[O-])cc4F)c4nc(c(-c5c(F)cc(S(=O)(=O)[O-])cc5F)c5ccc2[nH]5)C=C4)C=C3)cc1
REMARK SMILES IDX 25 1 24 2 2 3 1 4 3 5 4 6 13 7 14 8 15 9 16 11 17 12 22 13
REMARK SMILES IDX 18 14 21 15 23 16 19 17 20 18 5 19 6 20 7 21 12 22 8 23
REMARK SMILES IDX 11 24 9 25 10 26 26 27 27 28 28 29 29 30 30 31 31 32 95 33
REMARK SMILES IDX 32 34 94 35 33 36 34 37 35 38 88 39 36 40 93 41 87 42 89 43
REMARK SMILES IDX 37 44 92 45 86 46 85 47 38 49 72 50 51 51 71 52 52 53 55 54
REMARK SMILES IDX 70 55 90 56 53 57 54 58 69 60 91 61 56 62 39 63 40 64 49 65
REMARK SMILES IDX 41 66 42 67 48 68 50 69 43 70 44 71 45 72 46 73 47 74 73 75
REMARK SMILES IDX 74 76 83 77 75 78 76 79 82 80 84 81 77 82 78 83 79 84 80 85
REMARK SMILES IDX 81 86 57 87 58 88 67 89 59 90 60 91 66 92 68 93 61 94 62 95
REMARK SMILES IDX 63 96 64 97 65 98
REMARK H PARENT 15 10 89 48 55 59
REMARK Flexibility Score: inf
ROOT
ATOM      1  C   UNL A   1      33.136  30.316  27.347  1.00  0.00     0.274 C 
ENDROOT
BRANCH   1   2
ATOM      2  O   UNL A   1      33.628  29.001  27.101  1.00  0.00    -0.462 OA
BRANCH   2   3
ATOM      3  C   UNL A   1      33.346  28.375  25.942  1.00  0.00     0.306 C 
ATOM      4  O   UNL A   1      33.887  28.742  24.905  1.00  0.00    -0.252 OA
BRANCH   3   5
ATOM      5  C   UNL A   1      32.329  27.258  25.988  1.00  0.00     0.136 C 
BRANCH   5   6
ATOM      6  C   UNL A   1      32.768  25.884  25.412  1.00  0.00     0.094 C 
BRANCH   6   7
ATOM      7  C   UNL A   1      32.085  24.840  26.391  1.00  0.00     0.228 C 
ATOM      8  O   UNL A   1      30.979  25.111  26.876  1.00  0.00    -0.274 OA
ATOM      9  N   UNL A   1      32.499  23.533  26.486  1.00  0.00    -0.324 N 
ATOM     10  H   UNL A   1      31.889  22.892  26.916  1.00  0.00     0.169 HD
BRANCH   9  11
ATOM     11  C   UNL A   1      33.713  23.050  26.018  1.00  0.00     0.061 A 
ATOM     12  C   UNL A   1      35.122  23.602  26.825  1.00  0.00     0.048 A 
ATOM     13  C   UNL A   1      33.869  22.333  24.578  1.00  0.00     0.064 A 
ATOM     14  C   UNL A   1      36.991  23.513  26.031  1.00  0.00     0.043 A 
ATOM     15  C   UNL A   1      35.430  22.203  23.783  1.00  0.00     0.024 A 
ATOM     16  Cl  UNL A   1      32.379  21.989  23.749  1.00  0.00    -0.082 Cl
ATOM     17  Cl  UNL A   1      38.654  23.916  26.499  1.00  0.00    -0.084 Cl
ATOM     18  C   UNL A   1      37.033  22.809  24.348  1.00  0.00     0.022 A 
ENDBRANCH   9  11
ENDBRANCH   6   7
BRANCH   6  19
ATOM     19  C   UNL A   1      33.001  25.618  23.804  1.00  0.00     0.049 C 
BRANCH  19  20
ATOM     20  C   UNL A   1      31.713  25.649  22.677  1.00  0.00    -0.047 A 
ATOM     21  C   UNL A   1      30.134  25.293  23.481  1.00  0.00     0.005 A 
ATOM     22  C   UNL A   1      32.107  27.187  22.022  1.00  0.00     0.005 A 
ATOM     23  C   UNL A   1      28.975  26.546  23.925  1.00  0.00     0.021 A 
ATOM     24  C   UNL A   1      31.143  28.569  22.522  1.00  0.00     0.021 A 
ATOM     25  C   UNL A   1      29.372  28.254  23.500  1.00  0.00     0.041 A 
ATOM     26  Cl  UNL A   1      27.551  28.578  23.045  1.00  0.00    -0.084 Cl
ENDBRANCH  19  20
ENDBRANCH   6  19
ENDBRANCH   5   6
ENDBRANCH   3   5
ENDBRANCH   2   3
ENDBRANCH   1   2
BRANCH   1  27
ATOM     27  C   UNL A   1      34.271  31.353  27.577  1.00  0.00     0.275 C 
BRANCH  27  28
ATOM     28  O   UNL A   1      35.089  31.284  28.815  1.00  0.00    -0.458 OA
BRANCH  28  29
ATOM     29  C   UNL A   1      36.297  31.944  28.880  1.00  0.00     0.338 C 
ATOM     30  O   UNL A   1      36.384  33.157  29.002  1.00  0.00    -0.246 OA
BRANCH  29  31
ATOM     31  C   UNL A   1      37.543  31.026  28.888  1.00  0.00     0.060 A 
ATOM     32  C   UNL A   1      37.745  30.071  27.875  1.00  0.00     0.016 A 
ATOM     33  C   UNL A   1      38.535  31.041  29.879  1.00  0.00     0.016 A 
ATOM     34  C   UNL A   1      38.978  29.304  27.771  1.00  0.00     0.010 A 
ATOM     35  C   UNL A   1      39.761  30.260  29.788  1.00  0.00     0.010 A 
ATOM     36  C   UNL A   1      40.076  29.443  28.688  1.00  0.00    -0.014 A 
BRANCH  36  37
ATOM     37  C   UNL A   1      41.622  28.894  28.328  1.00  0.00     0.031 A 
ATOM     38  C   UNL A   1      42.680  29.835  28.683  1.00  0.00     0.074 A 
ATOM     39  C   UNL A   1      42.167  27.880  27.502  1.00  0.00     0.049 A 
ATOM     40  N   UNL A   1      43.949  29.643  28.525  1.00  0.00    -0.248 NA
ATOM     41  C   UNL A   1      42.244  31.202  28.966  1.00  0.00     0.031 C 
ATOM     42  C   UNL A   1      41.508  27.229  26.368  1.00  0.00     0.029 A 
ATOM     43  N   UNL A   1      43.330  27.050  27.586  1.00  0.00    -0.354 N 
ATOM     44  C   UNL A   1      44.466  30.901  28.500  1.00  0.00     0.074 A 
ATOM     45  C   UNL A   1      43.375  31.836  28.721  1.00  0.00     0.031 C 
ATOM     46  C   UNL A   1      42.025  26.012  26.109  1.00  0.00     0.029 A 
ATOM     47  C   UNL A   1      43.223  25.790  26.899  1.00  0.00     0.049 A 
ATOM     48  H   UNL A   1      44.140  27.321  28.076  1.00  0.00     0.167 HD
ATOM     49  C   UNL A   1      45.736  31.234  28.236  1.00  0.00     0.037 A 
ATOM     50  C   UNL A   1      43.962  24.617  26.939  1.00  0.00     0.037 A 
ATOM     51  C   UNL A   1      46.772  30.318  27.859  1.00  0.00     0.049 A 
ATOM     52  C   UNL A   1      45.423  24.937  27.062  1.00  0.00     0.074 A 
ATOM     53  C   UNL A   1      48.101  30.622  27.658  1.00  0.00     0.029 A 
ATOM     54  N   UNL A   1      46.614  28.963  27.574  1.00  0.00    -0.354 N 
ATOM     55  N   UNL A   1      45.933  26.097  27.375  1.00  0.00    -0.248 NA
ATOM     56  C   UNL A   1      46.411  23.937  26.615  1.00  0.00     0.031 C 
ATOM     57  C   UNL A   1      48.747  29.473  27.213  1.00  0.00     0.029 A 
ATOM     58  C   UNL A   1      47.844  28.424  27.219  1.00  0.00     0.049 A 
ATOM     59  H   UNL A   1      45.764  28.466  27.618  1.00  0.00     0.167 HD
ATOM     60  C   UNL A   1      47.257  26.019  27.023  1.00  0.00     0.074 A 
ATOM     61  C   UNL A   1      47.531  24.646  26.652  1.00  0.00     0.031 C 
ATOM     62  C   UNL A   1      48.123  27.043  26.909  1.00  0.00     0.037 A 
BRANCH  49  63
ATOM     63  C   UNL A   1      46.001  32.682  28.368  1.00  0.00     0.058 A 
ATOM     64  C   UNL A   1      45.930  33.507  27.232  1.00  0.00     0.135 A 
ATOM     65  C   UNL A   1      46.431  33.224  29.582  1.00  0.00     0.135 A 
ATOM     66  F   UNL A   1      45.614  32.990  26.032  1.00  0.00    -0.206 F 
ATOM     67  C   UNL A   1      46.287  34.834  27.299  1.00  0.00     0.059 A 
ATOM     68  C   UNL A   1      46.742  34.568  29.681  1.00  0.00     0.059 A 
ATOM     69  F   UNL A   1      46.580  32.442  30.664  1.00  0.00    -0.206 F 
ATOM     70  C   UNL A   1      46.661  35.361  28.535  1.00  0.00     0.060 A 
BRANCH  70  71
ATOM     71  S   UNL A   1      46.968  37.127  28.620  1.00  0.00     0.124 S 
ATOM     72  O   UNL A   1      45.858  37.577  29.453  1.00  0.00    -0.237 OA
ATOM     73  O   UNL A   1      48.288  37.169  29.242  1.00  0.00    -0.237 OA
ATOM     74  O   UNL A   1      46.919  37.545  27.223  1.00  0.00    -0.744 OA
ENDBRANCH  70  71
ENDBRANCH  49  63
BRANCH  50  75
ATOM     75  C   UNL A   1      43.608  23.111  26.644  1.00  0.00     0.058 A 
ATOM     76  C   UNL A   1      42.930  22.320  27.631  1.00  0.00     0.135 A 
ATOM     77  C   UNL A   1      43.890  22.392  25.469  1.00  0.00     0.135 A 
ATOM     78  F   UNL A   1      42.573  22.877  28.802  1.00  0.00    -0.206 F 
ATOM     79  C   UNL A   1      42.641  20.942  27.494  1.00  0.00     0.059 A 
ATOM     80  C   UNL A   1      43.551  21.031  25.282  1.00  0.00     0.059 A 
ATOM     81  F   UNL A   1      44.545  22.966  24.455  1.00  0.00    -0.206 F 
ATOM     82  C   UNL A   1      42.958  20.299  26.306  1.00  0.00     0.060 A 
BRANCH  82  83
ATOM     83  S   UNL A   1      42.604  18.525  26.103  1.00  0.00     0.124 S 
ATOM     84  O   UNL A   1      42.935  17.994  27.419  1.00  0.00    -0.237 OA
ATOM     85  O   UNL A   1      41.187  18.519  25.753  1.00  0.00    -0.237 OA
ATOM     86  O   UNL A   1      43.505  18.125  25.023  1.00  0.00    -0.744 OA
ENDBRANCH  82  83
ENDBRANCH  50  75
BRANCH  62  87
ATOM     87  C   UNL A   1      49.497  26.684  26.467  1.00  0.00     0.058 A 
ATOM     88  C   UNL A   1      50.493  26.270  27.364  1.00  0.00     0.135 A 
ATOM     89  C   UNL A   1      49.794  26.726  25.100  1.00  0.00     0.135 A 
ATOM     90  F   UNL A   1      50.254  26.248  28.686  1.00  0.00    -0.206 F 
ATOM     91  C   UNL A   1      51.752  25.911  26.911  1.00  0.00     0.059 A 
ATOM     92  C   UNL A   1      51.028  26.330  24.622  1.00  0.00     0.059 A 
ATOM     93  F   UNL A   1      48.865  27.130  24.218  1.00  0.00    -0.206 F 
ATOM     94  C   UNL A   1      52.002  25.930  25.536  1.00  0.00     0.060 A 
BRANCH  94  95
ATOM     95  S   UNL A   1      53.615  25.389  24.949  1.00  0.00     0.124 S 
ATOM     96  O   UNL A   1      53.487  23.939  25.036  1.00  0.00    -0.237 OA
ATOM     97  O   UNL A   1      53.651  25.946  23.600  1.00  0.00    -0.237 OA
ATOM     98  O   UNL A   1      54.543  25.996  25.899  1.00  0.00    -0.744 OA
ENDBRANCH  94  95
ENDBRANCH  62  87
ENDBRANCH  36  37
ENDBRANCH  29  31
ENDBRANCH  28  29
ENDBRANCH  27  28
ENDBRANCH   1  27
TORSDOF 19
ENDMDL
