MODEL 1
REMARK VINA RESULT:      -9.5      0.000      0.000
REMARK SMILES Cc1ncccc1C(=O)NCCOCC(=O)OCCOC(=O)c1ccc(-c2c3nc(c(-c4c(F)cc(S(=O)(=O)[O-])cc4F)c4ccc([nH]4)c(-c4c(F)cc(S(=O)(=O)[O-])cc4F)c4nc(c(-c5c(F)cc(S(=O)(=O)[O-])cc5F)c5ccc2[nH]5)C=C4)C=C3)cc1
REMARK SMILES IDX 18 1 17 2 15 3 16 4 14 5 13 6 12 7 11 8 10 9 8 10 9 11 7 13
REMARK SMILES IDX 1 14 2 15 3 16 4 17 6 18 5 19 19 20 20 21 21 22 22 23 23 24
REMARK SMILES IDX 24 25 88 26 25 27 87 28 26 29 27 30 28 31 81 32 29 33 86 34
REMARK SMILES IDX 80 35 82 36 30 37 85 38 79 39 78 40 31 42 65 43 44 44 64 45
REMARK SMILES IDX 45 46 48 47 63 48 83 49 46 50 47 51 62 53 84 54 49 55 32 56
REMARK SMILES IDX 33 57 42 58 34 59 35 60 41 61 43 62 36 63 37 64 38 65 39 66
REMARK SMILES IDX 40 67 66 68 67 69 76 70 68 71 69 72 75 73 77 74 70 75 71 76
REMARK SMILES IDX 72 77 73 78 74 79 50 80 51 81 60 82 52 83 53 84 59 85 61 86
REMARK SMILES IDX 54 87 55 88 56 89 57 90 58 91
REMARK H PARENT 10 12 82 41 48 52
REMARK Flexibility Score: inf
ROOT
ATOM      1  C   UNL A   1      41.220  20.005  26.598  1.00  0.00     0.274 C 
ENDROOT
BRANCH   1   2
ATOM      2  O   UNL A   1      42.577  19.980  26.100  1.00  0.00    -0.460 OA
BRANCH   2   3
ATOM      3  C   UNL A   1      43.075  18.766  25.737  1.00  0.00     0.332 C 
ATOM      4  O   UNL A   1      42.662  17.692  26.169  1.00  0.00    -0.250 OA
BRANCH   3   5
ATOM      5  C   UNL A   1      44.149  18.857  24.630  1.00  0.00     0.282 C 
BRANCH   5   6
ATOM      6  O   UNL A   1      45.493  18.450  24.839  1.00  0.00    -0.368 OA
BRANCH   6   7
ATOM      7  C   UNL A   1      46.427  19.518  25.072  1.00  0.00     0.182 C 
BRANCH   7   8
ATOM      8  C   UNL A   1      45.820  20.923  24.874  1.00  0.00     0.144 C 
BRANCH   8   9
ATOM      9  N   UNL A   1      45.755  21.847  26.003  1.00  0.00    -0.350 N 
ATOM     10  C   UNL A   1      45.152  23.086  25.930  1.00  0.00     0.253 C 
ATOM     11  O   UNL A   1      45.036  23.764  24.918  1.00  0.00    -0.269 OA
ATOM     12  H   UNL A   1      46.160  21.573  26.858  1.00  0.00     0.163 HD
BRANCH  10  13
ATOM     13  C   UNL A   1      44.482  23.540  27.166  1.00  0.00     0.061 A 
ATOM     14  C   UNL A   1      46.696  24.458  27.991  1.00  0.00     0.067 C 
ATOM     15  C   UNL A   1      45.241  24.146  28.171  1.00  0.00     0.050 A 
ATOM     16  N   UNL A   1      44.715  24.467  29.381  1.00  0.00    -0.261 NA
ATOM     17  C   UNL A   1      43.423  24.150  29.613  1.00  0.00     0.111 A 
ATOM     18  C   UNL A   1      43.147  23.229  27.427  1.00  0.00     0.017 A 
ATOM     19  C   UNL A   1      42.604  23.549  28.673  1.00  0.00     0.021 A 
ENDBRANCH  10  13
ENDBRANCH   8   9
ENDBRANCH   7   8
ENDBRANCH   6   7
ENDBRANCH   5   6
ENDBRANCH   3   5
ENDBRANCH   2   3
ENDBRANCH   1   2
BRANCH   1  20
ATOM     20  C   UNL A   1      40.453  21.255  26.110  1.00  0.00     0.275 C 
BRANCH  20  21
ATOM     21  O   UNL A   1      39.628  21.906  27.113  1.00  0.00    -0.458 OA
BRANCH  21  22
ATOM     22  C   UNL A   1      38.887  22.910  26.606  1.00  0.00     0.338 C 
ATOM     23  O   UNL A   1      38.001  22.782  25.783  1.00  0.00    -0.246 OA
BRANCH  22  24
ATOM     24  C   UNL A   1      39.162  24.279  27.034  1.00  0.00     0.060 A 
ATOM     25  C   UNL A   1      39.867  25.053  26.099  1.00  0.00     0.016 A 
ATOM     26  C   UNL A   1      39.058  24.680  28.364  1.00  0.00     0.016 A 
ATOM     27  C   UNL A   1      40.546  26.187  26.504  1.00  0.00     0.010 A 
ATOM     28  C   UNL A   1      39.719  25.847  28.766  1.00  0.00     0.010 A 
ATOM     29  C   UNL A   1      40.485  26.585  27.844  1.00  0.00    -0.014 A 
BRANCH  29  30
ATOM     30  C   UNL A   1      41.111  27.868  28.212  1.00  0.00     0.031 A 
ATOM     31  C   UNL A   1      42.579  28.113  28.053  1.00  0.00     0.074 A 
ATOM     32  C   UNL A   1      40.288  28.840  28.637  1.00  0.00     0.049 A 
ATOM     33  N   UNL A   1      43.293  29.120  28.480  1.00  0.00    -0.248 NA
ATOM     34  C   UNL A   1      43.346  27.101  27.319  1.00  0.00     0.031 C 
ATOM     35  C   UNL A   1      38.831  28.716  28.737  1.00  0.00     0.029 A 
ATOM     36  N   UNL A   1      40.550  30.115  29.052  1.00  0.00    -0.354 N 
ATOM     37  C   UNL A   1      44.606  28.835  28.122  1.00  0.00     0.074 A 
ATOM     38  C   UNL A   1      44.584  27.573  27.415  1.00  0.00     0.031 C 
ATOM     39  C   UNL A   1      38.326  29.870  29.191  1.00  0.00     0.029 A 
ATOM     40  C   UNL A   1      39.427  30.783  29.471  1.00  0.00     0.049 A 
ATOM     41  H   UNL A   1      41.450  30.513  29.049  1.00  0.00     0.167 HD
ATOM     42  C   UNL A   1      45.716  29.571  28.379  1.00  0.00     0.037 A 
ATOM     43  C   UNL A   1      39.305  31.983  30.063  1.00  0.00     0.037 A 
ATOM     44  C   UNL A   1      45.680  30.874  29.000  1.00  0.00     0.049 A 
ATOM     45  C   UNL A   1      40.538  32.793  30.302  1.00  0.00     0.074 A 
ATOM     46  C   UNL A   1      46.734  31.731  29.268  1.00  0.00     0.029 A 
ATOM     47  N   UNL A   1      44.526  31.523  29.419  1.00  0.00    -0.354 N 
ATOM     48  N   UNL A   1      41.786  32.474  30.054  1.00  0.00    -0.248 NA
ATOM     49  C   UNL A   1      40.353  34.120  30.894  1.00  0.00     0.031 C 
ATOM     50  C   UNL A   1      46.219  32.889  29.863  1.00  0.00     0.029 A 
ATOM     51  C   UNL A   1      44.841  32.769  29.937  1.00  0.00     0.049 A 
ATOM     52  H   UNL A   1      43.616  31.151  29.357  1.00  0.00     0.167 HD
ATOM     53  C   UNL A   1      42.542  33.564  30.460  1.00  0.00     0.074 A 
ATOM     54  C   UNL A   1      41.604  34.558  30.950  1.00  0.00     0.031 C 
ATOM     55  C   UNL A   1      43.887  33.728  30.433  1.00  0.00     0.037 A 
BRANCH  42  56
ATOM     56  C   UNL A   1      47.063  28.998  28.026  1.00  0.00     0.058 A 
ATOM     57  C   UNL A   1      47.833  28.264  28.938  1.00  0.00     0.135 A 
ATOM     58  C   UNL A   1      47.536  29.098  26.705  1.00  0.00     0.135 A 
ATOM     59  F   UNL A   1      47.437  28.147  30.216  1.00  0.00    -0.206 F 
ATOM     60  C   UNL A   1      49.022  27.645  28.556  1.00  0.00     0.059 A 
ATOM     61  C   UNL A   1      48.708  28.468  26.295  1.00  0.00     0.059 A 
ATOM     62  F   UNL A   1      46.842  29.793  25.790  1.00  0.00    -0.206 F 
ATOM     63  C   UNL A   1      49.447  27.745  27.229  1.00  0.00     0.060 A 
BRANCH  63  64
ATOM     64  S   UNL A   1      50.946  26.874  26.719  1.00  0.00     0.124 S 
ATOM     65  O   UNL A   1      51.912  27.352  27.704  1.00  0.00    -0.237 OA
ATOM     66  O   UNL A   1      50.557  25.473  26.841  1.00  0.00    -0.237 OA
ATOM     67  O   UNL A   1      51.160  27.343  25.353  1.00  0.00    -0.744 OA
ENDBRANCH  63  64
ENDBRANCH  42  56
BRANCH  43  68
ATOM     68  C   UNL A   1      37.958  32.429  30.483  1.00  0.00     0.058 A 
ATOM     69  C   UNL A   1      37.494  32.199  31.783  1.00  0.00     0.135 A 
ATOM     70  C   UNL A   1      37.169  33.214  29.626  1.00  0.00     0.135 A 
ATOM     71  F   UNL A   1      38.220  31.459  32.635  1.00  0.00    -0.206 F 
ATOM     72  C   UNL A   1      36.296  32.747  32.229  1.00  0.00     0.059 A 
ATOM     73  C   UNL A   1      35.981  33.791  30.056  1.00  0.00     0.059 A 
ATOM     74  F   UNL A   1      37.593  33.483  28.381  1.00  0.00    -0.206 F 
ATOM     75  C   UNL A   1      35.555  33.553  31.362  1.00  0.00     0.060 A 
BRANCH  75  76
ATOM     76  S   UNL A   1      34.066  34.365  31.983  1.00  0.00     0.124 S 
ATOM     77  O   UNL A   1      33.536  33.352  32.888  1.00  0.00    -0.237 OA
ATOM     78  O   UNL A   1      34.608  35.565  32.615  1.00  0.00    -0.237 OA
ATOM     79  O   UNL A   1      33.288  34.603  30.771  1.00  0.00    -0.744 OA
ENDBRANCH  75  76
ENDBRANCH  43  68
BRANCH  55  80
ATOM     80  C   UNL A   1      44.405  35.039  30.941  1.00  0.00     0.058 A 
ATOM     81  C   UNL A   1      44.548  36.146  30.090  1.00  0.00     0.135 A 
ATOM     82  C   UNL A   1      44.766  35.187  32.289  1.00  0.00     0.135 A 
ATOM     83  F   UNL A   1      44.224  36.047  28.792  1.00  0.00    -0.206 F 
ATOM     84  C   UNL A   1      45.068  37.349  30.553  1.00  0.00     0.059 A 
ATOM     85  C   UNL A   1      45.269  36.388  32.777  1.00  0.00     0.059 A 
ATOM     86  F   UNL A   1      44.638  34.157  33.140  1.00  0.00    -0.206 F 
ATOM     87  C   UNL A   1      45.434  37.457  31.896  1.00  0.00     0.060 A 
BRANCH  87  88
ATOM     88  S   UNL A   1      46.122  39.018  32.484  1.00  0.00     0.124 S 
ATOM     89  O   UNL A   1      47.016  38.561  33.543  1.00  0.00    -0.237 OA
ATOM     90  O   UNL A   1      46.773  39.546  31.289  1.00  0.00    -0.237 OA
ATOM     91  O   UNL A   1      44.946  39.760  32.929  1.00  0.00    -0.744 OA
ENDBRANCH  87  88
ENDBRANCH  55  80
ENDBRANCH  29  30
ENDBRANCH  22  24
ENDBRANCH  21  22
ENDBRANCH  20  21
ENDBRANCH   1  20
TORSDOF 19
ENDMDL
MODEL 2
REMARK VINA RESULT:      -9.3      3.326     12.132
REMARK SMILES Cc1ncccc1C(=O)NCCOCC(=O)OCCOC(=O)c1ccc(-c2c3nc(c(-c4c(F)cc(S(=O)(=O)[O-])cc4F)c4ccc([nH]4)c(-c4c(F)cc(S(=O)(=O)[O-])cc4F)c4nc(c(-c5c(F)cc(S(=O)(=O)[O-])cc5F)c5ccc2[nH]5)C=C4)C=C3)cc1
REMARK SMILES IDX 18 1 17 2 15 3 16 4 14 5 13 6 12 7 11 8 10 9 8 10 9 11 7 13
REMARK SMILES IDX 1 14 2 15 3 16 4 17 6 18 5 19 19 20 20 21 21 22 22 23 23 24
REMARK SMILES IDX 24 25 88 26 25 27 87 28 26 29 27 30 28 31 81 32 29 33 86 34
REMARK SMILES IDX 80 35 82 36 30 37 85 38 79 39 78 40 31 42 65 43 44 44 64 45
REMARK SMILES IDX 45 46 48 47 63 48 83 49 46 50 47 51 62 53 84 54 49 55 32 56
REMARK SMILES IDX 33 57 42 58 34 59 35 60 41 61 43 62 36 63 37 64 38 65 39 66
REMARK SMILES IDX 40 67 66 68 67 69 76 70 68 71 69 72 75 73 77 74 70 75 71 76
REMARK SMILES IDX 72 77 73 78 74 79 50 80 51 81 60 82 52 83 53 84 59 85 61 86
REMARK SMILES IDX 54 87 55 88 56 89 57 90 58 91
REMARK H PARENT 10 12 82 41 48 52
REMARK Flexibility Score: inf
ROOT
ATOM      1  C   UNL A   1      36.090  33.336  28.466  1.00  0.00     0.274 C 
ENDROOT
BRANCH   1   2
ATOM      2  O   UNL A   1      36.716  33.603  29.741  1.00  0.00    -0.460 OA
BRANCH   2   3
ATOM      3  C   UNL A   1      38.067  33.774  29.737  1.00  0.00     0.332 C 
ATOM      4  O   UNL A   1      38.687  34.357  28.851  1.00  0.00    -0.250 OA
BRANCH   3   5
ATOM      5  C   UNL A   1      38.748  33.258  31.025  1.00  0.00     0.282 C 
BRANCH   5   6
ATOM      6  O   UNL A   1      38.199  32.210  31.808  1.00  0.00    -0.368 OA
BRANCH   6   7
ATOM      7  C   UNL A   1      37.740  32.597  33.115  1.00  0.00     0.182 C 
BRANCH   7   8
ATOM      8  C   UNL A   1      36.207  32.735  33.215  1.00  0.00     0.144 C 
BRANCH   8   9
ATOM      9  N   UNL A   1      35.522  33.762  32.434  1.00  0.00    -0.350 N 
ATOM     10  C   UNL A   1      34.183  34.056  32.585  1.00  0.00     0.253 C 
ATOM     11  O   UNL A   1      33.320  33.277  32.967  1.00  0.00    -0.269 OA
ATOM     12  H   UNL A   1      36.041  34.269  31.768  1.00  0.00     0.163 HD
BRANCH  10  13
ATOM     13  C   UNL A   1      33.818  35.474  32.390  1.00  0.00     0.061 A 
ATOM     14  C   UNL A   1      33.096  34.929  30.021  1.00  0.00     0.067 C 
ATOM     15  C   UNL A   1      33.351  35.894  31.141  1.00  0.00     0.050 A 
ATOM     16  N   UNL A   1      33.123  37.201  30.855  1.00  0.00    -0.261 NA
ATOM     17  C   UNL A   1      33.396  38.115  31.812  1.00  0.00     0.111 A 
ATOM     18  C   UNL A   1      34.086  36.436  33.365  1.00  0.00     0.017 A 
ATOM     19  C   UNL A   1      33.862  37.783  33.073  1.00  0.00     0.021 A 
ENDBRANCH  10  13
ENDBRANCH   8   9
ENDBRANCH   7   8
ENDBRANCH   6   7
ENDBRANCH   5   6
ENDBRANCH   3   5
ENDBRANCH   2   3
ENDBRANCH   1   2
BRANCH   1  20
ATOM     20  C   UNL A   1      35.099  32.152  28.551  1.00  0.00     0.275 C 
BRANCH  20  21
ATOM     21  O   UNL A   1      35.480  31.089  29.465  1.00  0.00    -0.458 OA
BRANCH  21  22
ATOM     22  C   UNL A   1      36.085  30.060  28.844  1.00  0.00     0.338 C 
ATOM     23  O   UNL A   1      35.514  29.142  28.288  1.00  0.00    -0.246 OA
BRANCH  22  24
ATOM     24  C   UNL A   1      37.545  29.992  28.843  1.00  0.00     0.060 A 
ATOM     25  C   UNL A   1      38.127  29.975  27.566  1.00  0.00     0.016 A 
ATOM     26  C   UNL A   1      38.276  29.623  29.969  1.00  0.00     0.016 A 
ATOM     27  C   UNL A   1      39.416  29.504  27.394  1.00  0.00     0.010 A 
ATOM     28  C   UNL A   1      39.593  29.179  29.798  1.00  0.00     0.010 A 
ATOM     29  C   UNL A   1      40.153  29.094  28.509  1.00  0.00    -0.014 A 
BRANCH  29  30
ATOM     30  C   UNL A   1      41.566  28.723  28.305  1.00  0.00     0.031 A 
ATOM     31  C   UNL A   1      42.675  29.722  28.407  1.00  0.00     0.074 A 
ATOM     32  C   UNL A   1      41.822  27.423  28.089  1.00  0.00     0.049 A 
ATOM     33  N   UNL A   1      43.936  29.582  28.097  1.00  0.00    -0.248 NA
ATOM     34  C   UNL A   1      42.328  31.050  28.926  1.00  0.00     0.031 C 
ATOM     35  C   UNL A   1      40.807  26.365  28.063  1.00  0.00     0.029 A 
ATOM     36  N   UNL A   1      43.000  26.770  27.861  1.00  0.00    -0.354 N 
ATOM     37  C   UNL A   1      44.525  30.822  28.323  1.00  0.00     0.074 A 
ATOM     38  C   UNL A   1      43.486  31.694  28.826  1.00  0.00     0.031 C 
ATOM     39  C   UNL A   1      41.408  25.192  27.826  1.00  0.00     0.029 A 
ATOM     40  C   UNL A   1      42.831  25.430  27.621  1.00  0.00     0.049 A 
ATOM     41  H   UNL A   1      43.878  27.214  27.868  1.00  0.00     0.167 HD
ATOM     42  C   UNL A   1      45.815  31.179  28.114  1.00  0.00     0.037 A 
ATOM     43  C   UNL A   1      43.721  24.502  27.232  1.00  0.00     0.037 A 
ATOM     44  C   UNL A   1      46.842  30.249  27.705  1.00  0.00     0.049 A 
ATOM     45  C   UNL A   1      45.146  24.910  27.043  1.00  0.00     0.074 A 
ATOM     46  C   UNL A   1      48.192  30.486  27.507  1.00  0.00     0.029 A 
ATOM     47  N   UNL A   1      46.639  28.897  27.465  1.00  0.00    -0.354 N 
ATOM     48  N   UNL A   1      45.676  26.105  27.159  1.00  0.00    -0.248 NA
ATOM     49  C   UNL A   1      46.094  23.855  26.677  1.00  0.00     0.031 C 
ATOM     50  C   UNL A   1      48.800  29.282  27.132  1.00  0.00     0.029 A 
ATOM     51  C   UNL A   1      47.836  28.287  27.128  1.00  0.00     0.049 A 
ATOM     52  H   UNL A   1      45.770  28.438  27.526  1.00  0.00     0.167 HD
ATOM     53  C   UNL A   1      47.025  25.948  26.880  1.00  0.00     0.074 A 
ATOM     54  C   UNL A   1      47.230  24.536  26.610  1.00  0.00     0.031 C 
ATOM     55  C   UNL A   1      48.005  26.884  26.847  1.00  0.00     0.037 A 
BRANCH  42  56
ATOM     56  C   UNL A   1      46.205  32.623  28.288  1.00  0.00     0.058 A 
ATOM     57  C   UNL A   1      46.101  33.563  27.253  1.00  0.00     0.135 A 
ATOM     58  C   UNL A   1      46.587  33.092  29.558  1.00  0.00     0.135 A 
ATOM     59  F   UNL A   1      45.755  33.170  26.017  1.00  0.00    -0.206 F 
ATOM     60  C   UNL A   1      46.356  34.916  27.469  1.00  0.00     0.059 A 
ATOM     61  C   UNL A   1      46.823  34.441  29.803  1.00  0.00     0.059 A 
ATOM     62  F   UNL A   1      46.708  32.235  30.585  1.00  0.00    -0.206 F 
ATOM     63  C   UNL A   1      46.708  35.348  28.750  1.00  0.00     0.060 A 
BRANCH  63  64
ATOM     64  S   UNL A   1      46.960  37.113  29.044  1.00  0.00     0.124 S 
ATOM     65  O   UNL A   1      47.189  37.605  27.690  1.00  0.00    -0.237 OA
ATOM     66  O   UNL A   1      45.699  37.515  29.660  1.00  0.00    -0.237 OA
ATOM     67  O   UNL A   1      48.122  37.145  29.928  1.00  0.00    -0.744 OA
ENDBRANCH  63  64
ENDBRANCH  42  56
BRANCH  43  68
ATOM     68  C   UNL A   1      43.240  23.126  26.971  1.00  0.00     0.058 A 
ATOM     69  C   UNL A   1      43.120  22.639  25.665  1.00  0.00     0.135 A 
ATOM     70  C   UNL A   1      43.024  22.235  28.035  1.00  0.00     0.135 A 
ATOM     71  F   UNL A   1      43.323  23.456  24.621  1.00  0.00    -0.206 F 
ATOM     72  C   UNL A   1      42.815  21.304  25.419  1.00  0.00     0.059 A 
ATOM     73  C   UNL A   1      42.742  20.893  27.813  1.00  0.00     0.059 A 
ATOM     74  F   UNL A   1      43.159  22.656  29.303  1.00  0.00    -0.206 F 
ATOM     75  C   UNL A   1      42.643  20.437  26.500  1.00  0.00     0.060 A 
BRANCH  75  76
ATOM     76  S   UNL A   1      42.373  18.681  26.176  1.00  0.00     0.124 S 
ATOM     77  O   UNL A   1      43.359  18.421  25.134  1.00  0.00    -0.237 OA
ATOM     78  O   UNL A   1      42.646  18.080  27.479  1.00  0.00    -0.237 OA
ATOM     79  O   UNL A   1      40.976  18.632  25.755  1.00  0.00    -0.744 OA
ENDBRANCH  75  76
ENDBRANCH  43  68
BRANCH  55  80
ATOM     80  C   UNL A   1      49.382  26.392  26.516  1.00  0.00     0.058 A 
ATOM     81  C   UNL A   1      50.248  25.920  27.515  1.00  0.00     0.135 A 
ATOM     82  C   UNL A   1      49.839  26.396  25.190  1.00  0.00     0.135 A 
ATOM     83  F   UNL A   1      49.855  25.907  28.798  1.00  0.00    -0.206 F 
ATOM     84  C   UNL A   1      51.538  25.504  27.213  1.00  0.00     0.059 A 
ATOM     85  C   UNL A   1      51.119  25.964  24.863  1.00  0.00     0.059 A 
ATOM     86  F   UNL A   1      49.042  26.831  24.201  1.00  0.00    -0.206 F 
ATOM     87  C   UNL A   1      51.968  25.537  25.885  1.00  0.00     0.060 A 
BRANCH  87  88
ATOM     88  S   UNL A   1      53.650  25.008  25.504  1.00  0.00     0.124 S 
ATOM     89  O   UNL A   1      54.354  25.374  26.730  1.00  0.00    -0.237 OA
ATOM     90  O   UNL A   1      53.485  23.576  25.272  1.00  0.00    -0.237 OA
ATOM     91  O   UNL A   1      53.993  25.793  24.323  1.00  0.00    -0.744 OA
ENDBRANCH  87  88
ENDBRANCH  55  80
ENDBRANCH  29  30
ENDBRANCH  22  24
ENDBRANCH  21  22
ENDBRANCH  20  21
ENDBRANCH   1  20
TORSDOF 19
ENDMDL
MODEL 3
REMARK VINA RESULT:      -9.2      4.982      6.136
REMARK SMILES Cc1ncccc1C(=O)NCCOCC(=O)OCCOC(=O)c1ccc(-c2c3nc(c(-c4c(F)cc(S(=O)(=O)[O-])cc4F)c4ccc([nH]4)c(-c4c(F)cc(S(=O)(=O)[O-])cc4F)c4nc(c(-c5c(F)cc(S(=O)(=O)[O-])cc5F)c5ccc2[nH]5)C=C4)C=C3)cc1
REMARK SMILES IDX 18 1 17 2 15 3 16 4 14 5 13 6 12 7 11 8 10 9 8 10 9 11 7 13
REMARK SMILES IDX 1 14 2 15 3 16 4 17 6 18 5 19 19 20 20 21 21 22 22 23 23 24
REMARK SMILES IDX 24 25 88 26 25 27 87 28 26 29 27 30 28 31 81 32 29 33 86 34
REMARK SMILES IDX 80 35 82 36 30 37 85 38 79 39 78 40 31 42 65 43 44 44 64 45
REMARK SMILES IDX 45 46 48 47 63 48 83 49 46 50 47 51 62 53 84 54 49 55 32 56
REMARK SMILES IDX 33 57 42 58 34 59 35 60 41 61 43 62 36 63 37 64 38 65 39 66
REMARK SMILES IDX 40 67 66 68 67 69 76 70 68 71 69 72 75 73 77 74 70 75 71 76
REMARK SMILES IDX 72 77 73 78 74 79 50 80 51 81 60 82 52 83 53 84 59 85 61 86
REMARK SMILES IDX 54 87 55 88 56 89 57 90 58 91
REMARK H PARENT 10 12 82 41 48 52
REMARK Flexibility Score: inf
ROOT
ATOM      1  C   UNL A   1      41.214  21.144  27.233  1.00  0.00     0.274 C 
ENDROOT
BRANCH   1   2
ATOM      2  O   UNL A   1      42.321  20.730  26.400  1.00  0.00    -0.460 OA
BRANCH   2   3
ATOM      3  C   UNL A   1      42.265  19.469  25.889  1.00  0.00     0.332 C 
ATOM      4  O   UNL A   1      41.230  18.821  25.758  1.00  0.00    -0.250 OA
BRANCH   3   5
ATOM      5  C   UNL A   1      43.631  18.962  25.374  1.00  0.00     0.282 C 
BRANCH   5   6
ATOM      6  O   UNL A   1      44.805  19.759  25.421  1.00  0.00    -0.368 OA
BRANCH   6   7
ATOM      7  C   UNL A   1      45.258  20.258  24.150  1.00  0.00     0.182 C 
BRANCH   7   8
ATOM      8  C   UNL A   1      46.405  21.283  24.264  1.00  0.00     0.144 C 
BRANCH   8   9
ATOM      9  N   UNL A   1      46.096  22.711  24.291  1.00  0.00    -0.350 N 
ATOM     10  C   UNL A   1      46.352  23.517  25.381  1.00  0.00     0.253 C 
ATOM     11  O   UNL A   1      46.395  23.148  26.547  1.00  0.00    -0.269 OA
ATOM     12  H   UNL A   1      45.686  23.118  23.494  1.00  0.00     0.163 HD
BRANCH  10  13
ATOM     13  C   UNL A   1      46.736  24.908  25.065  1.00  0.00     0.061 A 
ATOM     14  C   UNL A   1      44.328  25.618  25.414  1.00  0.00     0.067 C 
ATOM     15  C   UNL A   1      45.749  25.898  25.030  1.00  0.00     0.050 A 
ATOM     16  N   UNL A   1      46.010  27.165  24.620  1.00  0.00    -0.261 NA
ATOM     17  C   UNL A   1      47.263  27.451  24.205  1.00  0.00     0.111 A 
ATOM     18  C   UNL A   1      48.026  25.230  24.639  1.00  0.00     0.017 A 
ATOM     19  C   UNL A   1      48.297  26.530  24.208  1.00  0.00     0.021 A 
ENDBRANCH  10  13
ENDBRANCH   8   9
ENDBRANCH   7   8
ENDBRANCH   6   7
ENDBRANCH   5   6
ENDBRANCH   3   5
ENDBRANCH   2   3
ENDBRANCH   1   2
BRANCH   1  20
ATOM     20  C   UNL A   1      41.284  22.650  27.572  1.00  0.00     0.275 C 
BRANCH  20  21
ATOM     21  O   UNL A   1      40.140  23.436  27.144  1.00  0.00    -0.458 OA
BRANCH  21  22
ATOM     22  C   UNL A   1      40.474  24.689  26.783  1.00  0.00     0.338 C 
ATOM     23  O   UNL A   1      41.044  24.994  25.753  1.00  0.00    -0.246 OA
BRANCH  22  24
ATOM     24  C   UNL A   1      40.170  25.793  27.690  1.00  0.00     0.060 A 
ATOM     25  C   UNL A   1      41.107  26.838  27.671  1.00  0.00     0.016 A 
ATOM     26  C   UNL A   1      39.249  25.674  28.727  1.00  0.00     0.016 A 
ATOM     27  C   UNL A   1      41.187  27.721  28.732  1.00  0.00     0.010 A 
ATOM     28  C   UNL A   1      39.309  26.590  29.785  1.00  0.00     0.010 A 
ATOM     29  C   UNL A   1      40.294  27.596  29.801  1.00  0.00    -0.014 A 
BRANCH  29  30
ATOM     30  C   UNL A   1      40.322  28.632  30.850  1.00  0.00     0.031 A 
ATOM     31  C   UNL A   1      41.306  28.599  31.976  1.00  0.00     0.074 A 
ATOM     32  C   UNL A   1      39.462  29.654  30.710  1.00  0.00     0.049 A 
ATOM     33  N   UNL A   1      41.349  29.341  33.050  1.00  0.00    -0.248 NA
ATOM     34  C   UNL A   1      42.385  27.609  31.888  1.00  0.00     0.031 C 
ATOM     35  C   UNL A   1      38.527  29.811  29.592  1.00  0.00     0.029 A 
ATOM     36  N   UNL A   1      39.238  30.748  31.497  1.00  0.00    -0.354 N 
ATOM     37  C   UNL A   1      42.421  28.868  33.799  1.00  0.00     0.074 A 
ATOM     38  C   UNL A   1      43.021  27.793  33.040  1.00  0.00     0.031 C 
ATOM     39  C   UNL A   1      37.825  30.938  29.767  1.00  0.00     0.029 A 
ATOM     40  C   UNL A   1      38.216  31.538  31.037  1.00  0.00     0.049 A 
ATOM     41  H   UNL A   1      39.757  30.948  32.309  1.00  0.00     0.167 HD
ATOM     42  C   UNL A   1      42.842  29.302  35.013  1.00  0.00     0.037 A 
ATOM     43  C   UNL A   1      37.627  32.605  31.601  1.00  0.00     0.037 A 
ATOM     44  C   UNL A   1      42.275  30.445  35.690  1.00  0.00     0.049 A 
ATOM     45  C   UNL A   1      38.132  33.088  32.922  1.00  0.00     0.074 A 
ATOM     46  C   UNL A   1      42.650  31.004  36.900  1.00  0.00     0.029 A 
ATOM     47  N   UNL A   1      41.236  31.224  35.200  1.00  0.00    -0.354 N 
ATOM     48  N   UNL A   1      39.078  32.575  33.672  1.00  0.00    -0.248 NA
ATOM     49  C   UNL A   1      37.501  34.290  33.473  1.00  0.00     0.031 C 
ATOM     50  C   UNL A   1      41.828  32.109  37.148  1.00  0.00     0.029 A 
ATOM     51  C   UNL A   1      40.961  32.260  36.077  1.00  0.00     0.049 A 
ATOM     52  H   UNL A   1      40.762  31.063  34.352  1.00  0.00     0.167 HD
ATOM     53  C   UNL A   1      39.158  33.392  34.789  1.00  0.00     0.074 A 
ATOM     54  C   UNL A   1      38.176  34.446  34.603  1.00  0.00     0.031 C 
ATOM     55  C   UNL A   1      39.967  33.282  35.872  1.00  0.00     0.037 A 
BRANCH  42  56
ATOM     56  C   UNL A   1      43.939  28.544  35.712  1.00  0.00     0.058 A 
ATOM     57  C   UNL A   1      43.682  27.468  36.573  1.00  0.00     0.135 A 
ATOM     58  C   UNL A   1      45.283  28.840  35.420  1.00  0.00     0.135 A 
ATOM     59  F   UNL A   1      42.420  27.149  36.898  1.00  0.00    -0.206 F 
ATOM     60  C   UNL A   1      44.716  26.708  37.117  1.00  0.00     0.059 A 
ATOM     61  C   UNL A   1      46.330  28.080  35.933  1.00  0.00     0.059 A 
ATOM     62  F   UNL A   1      45.588  29.863  34.606  1.00  0.00    -0.206 F 
ATOM     63  C   UNL A   1      46.038  27.016  36.784  1.00  0.00     0.060 A 
BRANCH  63  64
ATOM     64  S   UNL A   1      47.371  25.979  37.428  1.00  0.00     0.124 S 
ATOM     65  O   UNL A   1      48.285  26.979  37.968  1.00  0.00    -0.237 OA
ATOM     66  O   UNL A   1      46.682  25.152  38.413  1.00  0.00    -0.237 OA
ATOM     67  O   UNL A   1      47.847  25.269  36.244  1.00  0.00    -0.744 OA
ENDBRANCH  63  64
ENDBRANCH  42  56
BRANCH  43  68
ATOM     68  C   UNL A   1      36.479  33.229  30.905  1.00  0.00     0.058 A 
ATOM     69  C   UNL A   1      35.184  33.144  31.429  1.00  0.00     0.135 A 
ATOM     70  C   UNL A   1      36.685  34.036  29.774  1.00  0.00     0.135 A 
ATOM     71  F   UNL A   1      34.944  32.389  32.511  1.00  0.00    -0.206 F 
ATOM     72  C   UNL A   1      34.129  33.853  30.863  1.00  0.00     0.059 A 
ATOM     73  C   UNL A   1      35.653  34.771  29.206  1.00  0.00     0.059 A 
ATOM     74  F   UNL A   1      37.919  34.167  29.259  1.00  0.00    -0.206 F 
ATOM     75  C   UNL A   1      34.378  34.675  29.761  1.00  0.00     0.060 A 
BRANCH  75  76
ATOM     76  S   UNL A   1      33.035  35.690  29.109  1.00  0.00     0.124 S 
ATOM     77  O   UNL A   1      32.399  34.770  28.174  1.00  0.00    -0.237 OA
ATOM     78  O   UNL A   1      32.272  36.006  30.314  1.00  0.00    -0.237 OA
ATOM     79  O   UNL A   1      33.736  36.822  28.509  1.00  0.00    -0.744 OA
ENDBRANCH  75  76
ENDBRANCH  43  68
BRANCH  55  80
ATOM     80  C   UNL A   1      39.817  34.341  36.922  1.00  0.00     0.058 A 
ATOM     81  C   UNL A   1      38.972  34.159  38.027  1.00  0.00     0.135 A 
ATOM     82  C   UNL A   1      40.523  35.550  36.819  1.00  0.00     0.135 A 
ATOM     83  F   UNL A   1      38.271  33.023  38.161  1.00  0.00    -0.206 F 
ATOM     84  C   UNL A   1      38.802  35.158  38.977  1.00  0.00     0.059 A 
ATOM     85  C   UNL A   1      40.383  36.554  37.770  1.00  0.00     0.059 A 
ATOM     86  F   UNL A   1      41.349  35.764  35.782  1.00  0.00    -0.206 F 
ATOM     87  C   UNL A   1      39.505  36.356  38.835  1.00  0.00     0.060 A 
BRANCH  87  88
ATOM     88  S   UNL A   1      39.267  37.653  40.067  1.00  0.00     0.124 S 
ATOM     89  O   UNL A   1      40.570  38.309  40.053  1.00  0.00    -0.237 OA
ATOM     90  O   UNL A   1      38.163  38.424  39.503  1.00  0.00    -0.237 OA
ATOM     91  O   UNL A   1      38.948  36.910  41.282  1.00  0.00    -0.744 OA
ENDBRANCH  87  88
ENDBRANCH  55  80
ENDBRANCH  29  30
ENDBRANCH  22  24
ENDBRANCH  21  22
ENDBRANCH  20  21
ENDBRANCH   1  20
TORSDOF 19
ENDMDL
