MODEL 1
REMARK VINA RESULT:     -10.0      0.000      0.000
REMARK SMILES CC[C@H](Oc1c(C)cc(Br)cc1N)C(=O)OCCOC(=O)c1ccc(-c2c3nc(c(-c4c(F)cc(S(=O)(=O)[O-])cc4F)c4ccc([nH]4)c(-c4c(F)cc(S(=O)(=O)[O-])cc4F)c4nc(c(-c5c(F)cc(S(=O)(=O)[O-])cc5F)c5ccc2[nH]5)C=C4)C=C3)cc1
REMARK SMILES IDX 17 1 16 2 14 3 15 4 3 5 2 6 1 7 4 8 5 9 6 10 12 11 7 12 8 13
REMARK SMILES IDX 11 14 9 15 10 16 13 17 18 20 19 21 20 22 21 23 22 24 23 25
REMARK SMILES IDX 87 26 24 27 86 28 25 29 26 30 27 31 80 32 28 33 85 34 79 35
REMARK SMILES IDX 81 36 29 37 84 38 78 39 77 40 30 42 64 43 43 44 63 45 44 46
REMARK SMILES IDX 47 47 62 48 82 49 45 50 46 51 61 53 83 54 48 55 31 56 32 57
REMARK SMILES IDX 41 58 33 59 34 60 40 61 42 62 35 63 36 64 37 65 38 66 39 67
REMARK SMILES IDX 65 68 66 69 75 70 67 71 68 72 74 73 76 74 69 75 70 76 71 77
REMARK SMILES IDX 72 78 73 79 49 80 50 81 59 82 51 83 52 84 58 85 60 86 53 87
REMARK SMILES IDX 54 88 55 89 56 90 57 91
REMARK H PARENT 13 18 13 19 81 41 47 52
REMARK Flexibility Score: inf
ROOT
ATOM      1  C   UNL A   1      31.868  27.354  26.706  1.00  0.00     0.274 C 
ENDROOT
BRANCH   1   2
ATOM      2  O   UNL A   1      32.956  26.573  26.176  1.00  0.00    -0.459 OA
BRANCH   2   3
ATOM      3  C   UNL A   1      33.063  26.552  24.817  1.00  0.00     0.347 C 
ATOM      4  O   UNL A   1      33.989  27.056  24.189  1.00  0.00    -0.248 OA
BRANCH   3   5
ATOM      5  C   UNL A   1      31.864  25.889  24.124  1.00  0.00     0.282 C 
BRANCH   5   6
ATOM      6  C   UNL A   1      32.187  24.390  23.960  1.00  0.00     0.054 C 
ATOM      7  C   UNL A   1      31.137  23.383  24.395  1.00  0.00     0.008 C 
ENDBRANCH   5   6
BRANCH   5   8
ATOM      8  O   UNL A   1      31.530  26.630  22.958  1.00  0.00    -0.476 OA
BRANCH   8   9
ATOM      9  C   UNL A   1      30.598  27.638  22.964  1.00  0.00     0.146 A 
ATOM     10  C   UNL A   1      29.239  27.559  23.315  1.00  0.00    -0.006 A 
ATOM     11  C   UNL A   1      31.151  28.893  22.589  1.00  0.00     0.076 A 
ATOM     12  C   UNL A   1      28.577  26.368  23.943  1.00  0.00     0.048 C 
ATOM     13  C   UNL A   1      28.423  28.690  23.099  1.00  0.00     0.023 A 
ATOM     14  C   UNL A   1      30.315  29.990  22.366  1.00  0.00     0.045 A 
ATOM     15  C   UNL A   1      28.953  29.880  22.609  1.00  0.00     0.020 A 
ATOM     16  Br  UNL A   1      27.816  31.356  22.289  1.00  0.00    -0.051 Br
BRANCH  11  17
ATOM     17  N   UNL A   1      32.515  29.001  22.280  1.00  0.00    -0.396 N 
ATOM     18  H   UNL A   1      33.058  29.713  22.689  1.00  0.00     0.156 HD
ATOM     19  H   UNL A   1      32.929  28.366  21.652  1.00  0.00     0.156 HD
ENDBRANCH  11  17
ENDBRANCH   8   9
ENDBRANCH   5   8
ENDBRANCH   3   5
ENDBRANCH   2   3
ENDBRANCH   1   2
BRANCH   1  20
ATOM     20  C   UNL A   1      32.342  28.682  27.303  1.00  0.00     0.275 C 
BRANCH  20  21
ATOM     21  O   UNL A   1      33.769  28.718  27.466  1.00  0.00    -0.458 OA
BRANCH  21  22
ATOM     22  C   UNL A   1      34.270  29.930  27.811  1.00  0.00     0.338 C 
ATOM     23  O   UNL A   1      33.652  30.974  27.928  1.00  0.00    -0.246 OA
BRANCH  22  24
ATOM     24  C   UNL A   1      35.695  29.790  28.151  1.00  0.00     0.060 A 
ATOM     25  C   UNL A   1      36.634  29.981  27.135  1.00  0.00     0.016 A 
ATOM     26  C   UNL A   1      36.099  29.397  29.429  1.00  0.00     0.016 A 
ATOM     27  C   UNL A   1      37.987  29.771  27.389  1.00  0.00     0.010 A 
ATOM     28  C   UNL A   1      37.457  29.178  29.681  1.00  0.00     0.010 A 
ATOM     29  C   UNL A   1      38.407  29.348  28.658  1.00  0.00    -0.014 A 
BRANCH  29  30
ATOM     30  C   UNL A   1      39.833  29.012  28.882  1.00  0.00     0.031 A 
ATOM     31  C   UNL A   1      40.747  30.029  29.505  1.00  0.00     0.074 A 
ATOM     32  C   UNL A   1      40.294  27.786  28.573  1.00  0.00     0.049 A 
ATOM     33  N   UNL A   1      42.026  29.943  29.763  1.00  0.00    -0.248 NA
ATOM     34  C   UNL A   1      40.138  31.312  29.892  1.00  0.00     0.031 C 
ATOM     35  C   UNL A   1      39.490  26.701  28.012  1.00  0.00     0.029 A 
ATOM     36  N   UNL A   1      41.548  27.246  28.696  1.00  0.00    -0.354 N 
ATOM     37  C   UNL A   1      42.379  31.157  30.339  1.00  0.00     0.074 A 
ATOM     38  C   UNL A   1      41.183  31.973  30.370  1.00  0.00     0.031 C 
ATOM     39  C   UNL A   1      40.268  25.618  27.850  1.00  0.00     0.029 A 
ATOM     40  C   UNL A   1      41.633  25.945  28.261  1.00  0.00     0.049 A 
ATOM     41  H   UNL A   1      42.316  27.742  29.062  1.00  0.00     0.167 HD
ATOM     42  C   UNL A   1      43.587  31.551  30.808  1.00  0.00     0.037 A 
ATOM     43  C   UNL A   1      42.693  25.117  28.186  1.00  0.00     0.037 A 
ATOM     44  C   UNL A   1      44.773  30.735  30.776  1.00  0.00     0.049 A 
ATOM     45  C   UNL A   1      44.042  25.603  28.641  1.00  0.00     0.074 A 
ATOM     46  C   UNL A   1      46.044  31.046  31.223  1.00  0.00     0.029 A 
ATOM     47  N   UNL A   1      44.832  29.445  30.268  1.00  0.00    -0.354 N 
ATOM     48  N   UNL A   1      44.366  26.760  29.166  1.00  0.00    -0.248 NA
ATOM     49  C   UNL A   1      45.172  24.677  28.482  1.00  0.00     0.031 C 
ATOM     50  C   UNL A   1      46.882  29.959  30.952  1.00  0.00     0.029 A 
ATOM     51  C   UNL A   1      46.123  28.954  30.372  1.00  0.00     0.049 A 
ATOM     52  H   UNL A   1      44.069  28.951  29.891  1.00  0.00     0.167 HD
ATOM     53  C   UNL A   1      45.733  26.699  29.411  1.00  0.00     0.074 A 
ATOM     54  C   UNL A   1      46.174  25.385  28.989  1.00  0.00     0.031 C 
ATOM     55  C   UNL A   1      46.548  27.646  29.938  1.00  0.00     0.037 A 
BRANCH  42  56
ATOM     56  C   UNL A   1      43.688  32.937  31.376  1.00  0.00     0.058 A 
ATOM     57  C   UNL A   1      43.369  33.208  32.717  1.00  0.00     0.135 A 
ATOM     58  C   UNL A   1      44.130  34.005  30.579  1.00  0.00     0.135 A 
ATOM     59  F   UNL A   1      42.924  32.226  33.516  1.00  0.00    -0.206 F 
ATOM     60  C   UNL A   1      43.459  34.494  33.239  1.00  0.00     0.059 A 
ATOM     61  C   UNL A   1      44.250  35.295  31.087  1.00  0.00     0.059 A 
ATOM     62  F   UNL A   1      44.447  33.800  29.291  1.00  0.00    -0.206 F 
ATOM     63  C   UNL A   1      43.897  35.532  32.415  1.00  0.00     0.060 A 
BRANCH  63  64
ATOM     64  S   UNL A   1      44.001  37.198  33.105  1.00  0.00     0.124 S 
ATOM     65  O   UNL A   1      45.376  37.223  33.595  1.00  0.00    -0.237 OA
ATOM     66  O   UNL A   1      43.728  38.036  31.943  1.00  0.00    -0.237 OA
ATOM     67  O   UNL A   1      42.969  37.205  34.137  1.00  0.00    -0.744 OA
ENDBRANCH  63  64
ENDBRANCH  42  56
BRANCH  43  68
ATOM     68  C   UNL A   1      42.513  23.741  27.655  1.00  0.00     0.058 A 
ATOM     69  C   UNL A   1      42.491  23.497  26.276  1.00  0.00     0.135 A 
ATOM     70  C   UNL A   1      42.402  22.639  28.518  1.00  0.00     0.135 A 
ATOM     71  F   UNL A   1      42.580  24.521  25.413  1.00  0.00    -0.206 F 
ATOM     72  C   UNL A   1      42.373  22.208  25.766  1.00  0.00     0.059 A 
ATOM     73  C   UNL A   1      42.304  21.339  28.033  1.00  0.00     0.059 A 
ATOM     74  F   UNL A   1      42.425  22.821  29.848  1.00  0.00    -0.206 F 
ATOM     75  C   UNL A   1      42.290  21.134  26.654  1.00  0.00     0.060 A 
BRANCH  75  76
ATOM     76  S   UNL A   1      42.223  19.458  25.981  1.00  0.00     0.124 S 
ATOM     77  O   UNL A   1      40.804  19.318  25.680  1.00  0.00    -0.237 OA
ATOM     78  O   UNL A   1      43.114  19.556  24.829  1.00  0.00    -0.237 OA
ATOM     79  O   UNL A   1      42.721  18.636  27.080  1.00  0.00    -0.744 OA
ENDBRANCH  75  76
ENDBRANCH  43  68
BRANCH  55  80
ATOM     80  C   UNL A   1      48.003  27.302  30.092  1.00  0.00     0.058 A 
ATOM     81  C   UNL A   1      48.958  27.730  29.158  1.00  0.00     0.135 A 
ATOM     82  C   UNL A   1      48.455  26.599  31.220  1.00  0.00     0.135 A 
ATOM     83  F   UNL A   1      48.575  28.399  28.059  1.00  0.00    -0.206 F 
ATOM     84  C   UNL A   1      50.312  27.466  29.331  1.00  0.00     0.059 A 
ATOM     85  C   UNL A   1      49.807  26.340  31.424  1.00  0.00     0.059 A 
ATOM     86  F   UNL A   1      47.581  26.174  32.147  1.00  0.00    -0.206 F 
ATOM     87  C   UNL A   1      50.727  26.773  30.471  1.00  0.00     0.060 A 
BRANCH  87  88
ATOM     88  S   UNL A   1      52.494  26.480  30.707  1.00  0.00     0.124 S 
ATOM     89  O   UNL A   1      52.483  25.355  31.636  1.00  0.00    -0.237 OA
ATOM     90  O   UNL A   1      52.946  26.180  29.352  1.00  0.00    -0.237 OA
ATOM     91  O   UNL A   1      52.976  27.743  31.257  1.00  0.00    -0.744 OA
ENDBRANCH  87  88
ENDBRANCH  55  80
ENDBRANCH  29  30
ENDBRANCH  22  24
ENDBRANCH  21  22
ENDBRANCH  20  21
ENDBRANCH   1  20
TORSDOF 18
ENDMDL
MODEL 2
REMARK VINA RESULT:      -9.9      5.513     10.938
REMARK SMILES CC[C@H](Oc1c(C)cc(Br)cc1N)C(=O)OCCOC(=O)c1ccc(-c2c3nc(c(-c4c(F)cc(S(=O)(=O)[O-])cc4F)c4ccc([nH]4)c(-c4c(F)cc(S(=O)(=O)[O-])cc4F)c4nc(c(-c5c(F)cc(S(=O)(=O)[O-])cc5F)c5ccc2[nH]5)C=C4)C=C3)cc1
REMARK SMILES IDX 17 1 16 2 14 3 15 4 3 5 2 6 1 7 4 8 5 9 6 10 12 11 7 12 8 13
REMARK SMILES IDX 11 14 9 15 10 16 13 17 18 20 19 21 20 22 21 23 22 24 23 25
REMARK SMILES IDX 87 26 24 27 86 28 25 29 26 30 27 31 80 32 28 33 85 34 79 35
REMARK SMILES IDX 81 36 29 37 84 38 78 39 77 40 30 42 64 43 43 44 63 45 44 46
REMARK SMILES IDX 47 47 62 48 82 49 45 50 46 51 61 53 83 54 48 55 31 56 32 57
REMARK SMILES IDX 41 58 33 59 34 60 40 61 42 62 35 63 36 64 37 65 38 66 39 67
REMARK SMILES IDX 65 68 66 69 75 70 67 71 68 72 74 73 76 74 69 75 70 76 71 77
REMARK SMILES IDX 72 78 73 79 49 80 50 81 59 82 51 83 52 84 58 85 60 86 53 87
REMARK SMILES IDX 54 88 55 89 56 90 57 91
REMARK H PARENT 13 18 13 19 81 41 47 52
REMARK Flexibility Score: inf
ROOT
ATOM      1  C   UNL A   1      40.225  21.430  26.267  1.00  0.00     0.274 C 
ENDROOT
BRANCH   1   2
ATOM      2  O   UNL A   1      38.817  21.655  26.060  1.00  0.00    -0.459 OA
BRANCH   2   3
ATOM      3  C   UNL A   1      38.161  20.693  25.352  1.00  0.00     0.347 C 
ATOM      4  O   UNL A   1      38.614  19.575  25.123  1.00  0.00    -0.248 OA
BRANCH   3   5
ATOM      5  C   UNL A   1      36.808  21.161  24.797  1.00  0.00     0.282 C 
BRANCH   5   6
ATOM      6  C   UNL A   1      37.007  22.573  24.209  1.00  0.00     0.054 C 
ATOM      7  C   UNL A   1      36.134  22.986  23.037  1.00  0.00     0.008 C 
ENDBRANCH   5   6
BRANCH   5   8
ATOM      8  O   UNL A   1      35.809  20.989  25.794  1.00  0.00    -0.476 OA
BRANCH   8   9
ATOM      9  C   UNL A   1      34.564  21.557  25.697  1.00  0.00     0.146 A 
ATOM     10  C   UNL A   1      33.456  21.096  24.964  1.00  0.00    -0.006 A 
ATOM     11  C   UNL A   1      34.439  22.735  26.484  1.00  0.00     0.076 A 
ATOM     12  C   UNL A   1      33.368  19.763  24.280  1.00  0.00     0.048 C 
ATOM     13  C   UNL A   1      32.315  21.922  24.880  1.00  0.00     0.023 A 
ATOM     14  C   UNL A   1      33.304  23.541  26.366  1.00  0.00     0.045 A 
ATOM     15  C   UNL A   1      32.253  23.138  25.555  1.00  0.00     0.020 A 
ATOM     16  Br  UNL A   1      30.724  24.236  25.377  1.00  0.00    -0.051 Br
BRANCH  11  17
ATOM     17  N   UNL A   1      35.518  23.185  27.259  1.00  0.00    -0.396 N 
ATOM     18  H   UNL A   1      36.327  23.535  26.820  1.00  0.00     0.156 HD
ATOM     19  H   UNL A   1      35.468  23.151  28.241  1.00  0.00     0.156 HD
ENDBRANCH  11  17
ENDBRANCH   8   9
ENDBRANCH   5   8
ENDBRANCH   3   5
ENDBRANCH   2   3
ENDBRANCH   1   2
BRANCH   1  20
ATOM     20  C   UNL A   1      41.036  22.727  26.204  1.00  0.00     0.275 C 
BRANCH  20  21
ATOM     21  O   UNL A   1      40.245  23.873  26.558  1.00  0.00    -0.458 OA
BRANCH  21  22
ATOM     22  C   UNL A   1      40.805  25.067  26.244  1.00  0.00     0.338 C 
ATOM     23  O   UNL A   1      41.165  25.443  25.143  1.00  0.00    -0.246 OA
BRANCH  22  24
ATOM     24  C   UNL A   1      40.817  25.929  27.437  1.00  0.00     0.060 A 
ATOM     25  C   UNL A   1      39.771  25.798  28.352  1.00  0.00     0.016 A 
ATOM     26  C   UNL A   1      41.798  26.909  27.612  1.00  0.00     0.016 A 
ATOM     27  C   UNL A   1      39.693  26.654  29.449  1.00  0.00     0.010 A 
ATOM     28  C   UNL A   1      41.714  27.774  28.708  1.00  0.00     0.010 A 
ATOM     29  C   UNL A   1      40.652  27.661  29.624  1.00  0.00    -0.014 A 
BRANCH  29  30
ATOM     30  C   UNL A   1      40.491  28.641  30.724  1.00  0.00     0.031 A 
ATOM     31  C   UNL A   1      41.402  28.573  31.917  1.00  0.00     0.074 A 
ATOM     32  C   UNL A   1      39.567  29.614  30.632  1.00  0.00     0.049 A 
ATOM     33  N   UNL A   1      41.412  29.318  32.993  1.00  0.00    -0.248 NA
ATOM     34  C   UNL A   1      42.441  27.532  31.895  1.00  0.00     0.031 C 
ATOM     35  C   UNL A   1      38.662  29.811  29.500  1.00  0.00     0.029 A 
ATOM     36  N   UNL A   1      39.242  30.625  31.501  1.00  0.00    -0.354 N 
ATOM     37  C   UNL A   1      42.453  28.836  33.777  1.00  0.00     0.074 A 
ATOM     38  C   UNL A   1      43.036  27.718  33.064  1.00  0.00     0.031 C 
ATOM     39  C   UNL A   1      37.892  30.886  29.738  1.00  0.00     0.029 A 
ATOM     40  C   UNL A   1      38.223  31.429  31.054  1.00  0.00     0.049 A 
ATOM     41  H   UNL A   1      39.697  30.760  32.364  1.00  0.00     0.167 HD
ATOM     42  C   UNL A   1      42.888  29.290  34.976  1.00  0.00     0.037 A 
ATOM     43  C   UNL A   1      37.613  32.476  31.645  1.00  0.00     0.037 A 
ATOM     44  C   UNL A   1      42.305  30.402  35.680  1.00  0.00     0.049 A 
ATOM     45  C   UNL A   1      38.062  32.915  33.012  1.00  0.00     0.074 A 
ATOM     46  C   UNL A   1      42.672  30.936  36.903  1.00  0.00     0.029 A 
ATOM     47  N   UNL A   1      41.231  31.153  35.224  1.00  0.00    -0.354 N 
ATOM     48  N   UNL A   1      39.036  32.438  33.751  1.00  0.00    -0.248 NA
ATOM     49  C   UNL A   1      37.324  34.024  33.632  1.00  0.00     0.031 C 
ATOM     50  C   UNL A   1      41.797  31.986  37.203  1.00  0.00     0.029 A 
ATOM     51  C   UNL A   1      40.909  32.131  36.149  1.00  0.00     0.049 A 
ATOM     52  H   UNL A   1      40.767  31.011  34.367  1.00  0.00     0.167 HD
ATOM     53  C   UNL A   1      39.034  33.195  34.917  1.00  0.00     0.074 A 
ATOM     54  C   UNL A   1      37.972  34.170  34.781  1.00  0.00     0.031 C 
ATOM     55  C   UNL A   1      39.841  33.090  36.002  1.00  0.00     0.037 A 
BRANCH  42  56
ATOM     56  C   UNL A   1      44.039  28.566  35.613  1.00  0.00     0.058 A 
ATOM     57  C   UNL A   1      45.371  28.922  35.345  1.00  0.00     0.135 A 
ATOM     58  C   UNL A   1      43.811  27.516  36.517  1.00  0.00     0.135 A 
ATOM     59  F   UNL A   1      45.644  29.907  34.475  1.00  0.00    -0.206 F 
ATOM     60  C   UNL A   1      46.436  28.247  35.933  1.00  0.00     0.059 A 
ATOM     61  C   UNL A   1      44.861  26.841  37.134  1.00  0.00     0.059 A 
ATOM     62  F   UNL A   1      42.557  27.135  36.806  1.00  0.00    -0.206 F 
ATOM     63  C   UNL A   1      46.170  27.205  36.823  1.00  0.00     0.060 A 
BRANCH  63  64
ATOM     64  S   UNL A   1      47.563  26.332  37.571  1.00  0.00     0.124 S 
ATOM     65  O   UNL A   1      48.366  26.007  36.396  1.00  0.00    -0.237 OA
ATOM     66  O   UNL A   1      48.124  27.342  38.461  1.00  0.00    -0.237 OA
ATOM     67  O   UNL A   1      46.935  25.193  38.234  1.00  0.00    -0.744 OA
ENDBRANCH  63  64
ENDBRANCH  42  56
BRANCH  43  68
ATOM     68  C   UNL A   1      36.510  33.177  30.939  1.00  0.00     0.058 A 
ATOM     69  C   UNL A   1      35.182  33.046  31.367  1.00  0.00     0.135 A 
ATOM     70  C   UNL A   1      36.768  34.025  29.850  1.00  0.00     0.135 A 
ATOM     71  F   UNL A   1      34.886  32.235  32.394  1.00  0.00    -0.206 F 
ATOM     72  C   UNL A   1      34.146  33.736  30.746  1.00  0.00     0.059 A 
ATOM     73  C   UNL A   1      35.752  34.741  29.226  1.00  0.00     0.059 A 
ATOM     74  F   UNL A   1      38.025  34.189  29.408  1.00  0.00    -0.206 F 
ATOM     75  C   UNL A   1      34.443  34.589  29.682  1.00  0.00     0.060 A 
BRANCH  75  76
ATOM     76  S   UNL A   1      33.101  35.545  28.938  1.00  0.00     0.124 S 
ATOM     77  O   UNL A   1      32.323  35.921  30.112  1.00  0.00    -0.237 OA
ATOM     78  O   UNL A   1      33.826  36.627  28.279  1.00  0.00    -0.237 OA
ATOM     79  O   UNL A   1      32.467  34.587  28.038  1.00  0.00    -0.744 OA
ENDBRANCH  75  76
ENDBRANCH  43  68
BRANCH  55  80
ATOM     80  C   UNL A   1      39.613  34.054  37.132  1.00  0.00     0.058 A 
ATOM     81  C   UNL A   1      38.836  33.701  38.246  1.00  0.00     0.135 A 
ATOM     82  C   UNL A   1      40.233  35.313  37.134  1.00  0.00     0.135 A 
ATOM     83  F   UNL A   1      38.216  32.512  38.289  1.00  0.00    -0.206 F 
ATOM     84  C   UNL A   1      38.674  34.569  39.321  1.00  0.00     0.059 A 
ATOM     85  C   UNL A   1      40.102  36.189  38.208  1.00  0.00     0.059 A 
ATOM     86  F   UNL A   1      40.993  35.694  36.095  1.00  0.00    -0.206 F 
ATOM     87  C   UNL A   1      39.315  35.810  39.294  1.00  0.00     0.060 A 
BRANCH  87  88
ATOM     88  S   UNL A   1      39.136  36.906  40.719  1.00  0.00     0.124 S 
ATOM     89  O   UNL A   1      40.528  37.185  41.051  1.00  0.00    -0.237 OA
ATOM     90  O   UNL A   1      38.380  38.023  40.162  1.00  0.00    -0.237 OA
ATOM     91  O   UNL A   1      38.411  36.088  41.687  1.00  0.00    -0.744 OA
ENDBRANCH  87  88
ENDBRANCH  55  80
ENDBRANCH  29  30
ENDBRANCH  22  24
ENDBRANCH  21  22
ENDBRANCH  20  21
ENDBRANCH   1  20
TORSDOF 18
ENDMDL
MODEL 3
REMARK VINA RESULT:      -9.8      3.563      5.988
REMARK SMILES CC[C@H](Oc1c(C)cc(Br)cc1N)C(=O)OCCOC(=O)c1ccc(-c2c3nc(c(-c4c(F)cc(S(=O)(=O)[O-])cc4F)c4ccc([nH]4)c(-c4c(F)cc(S(=O)(=O)[O-])cc4F)c4nc(c(-c5c(F)cc(S(=O)(=O)[O-])cc5F)c5ccc2[nH]5)C=C4)C=C3)cc1
REMARK SMILES IDX 17 1 16 2 14 3 15 4 3 5 2 6 1 7 4 8 5 9 6 10 12 11 7 12 8 13
REMARK SMILES IDX 11 14 9 15 10 16 13 17 18 20 19 21 20 22 21 23 22 24 23 25
REMARK SMILES IDX 87 26 24 27 86 28 25 29 26 30 27 31 80 32 28 33 85 34 79 35
REMARK SMILES IDX 81 36 29 37 84 38 78 39 77 40 30 42 64 43 43 44 63 45 44 46
REMARK SMILES IDX 47 47 62 48 82 49 45 50 46 51 61 53 83 54 48 55 31 56 32 57
REMARK SMILES IDX 41 58 33 59 34 60 40 61 42 62 35 63 36 64 37 65 38 66 39 67
REMARK SMILES IDX 65 68 66 69 75 70 67 71 68 72 74 73 76 74 69 75 70 76 71 77
REMARK SMILES IDX 72 78 73 79 49 80 50 81 59 82 51 83 52 84 58 85 60 86 53 87
REMARK SMILES IDX 54 88 55 89 56 90 57 91
REMARK H PARENT 13 18 13 19 81 41 47 52
REMARK Flexibility Score: inf
ROOT
ATOM      1  C   UNL A   1      33.925  32.974  28.622  1.00  0.00     0.274 C 
ENDROOT
BRANCH   1   2
ATOM      2  O   UNL A   1      34.432  32.443  29.862  1.00  0.00    -0.459 OA
BRANCH   2   3
ATOM      3  C   UNL A   1      34.645  33.355  30.853  1.00  0.00     0.347 C 
ATOM      4  O   UNL A   1      33.866  34.260  31.138  1.00  0.00    -0.248 OA
BRANCH   3   5
ATOM      5  C   UNL A   1      36.002  33.189  31.551  1.00  0.00     0.282 C 
BRANCH   5   6
ATOM      6  C   UNL A   1      37.009  32.676  30.501  1.00  0.00     0.054 C 
ATOM      7  C   UNL A   1      37.601  33.683  29.530  1.00  0.00     0.008 C 
ENDBRANCH   5   6
BRANCH   5   8
ATOM      8  O   UNL A   1      35.829  32.424  32.736  1.00  0.00    -0.476 OA
BRANCH   8   9
ATOM      9  C   UNL A   1      36.559  32.651  33.876  1.00  0.00     0.146 A 
ATOM     10  C   UNL A   1      37.790  32.081  34.244  1.00  0.00    -0.006 A 
ATOM     11  C   UNL A   1      35.952  33.613  34.729  1.00  0.00     0.076 A 
ATOM     12  C   UNL A   1      38.651  31.235  33.352  1.00  0.00     0.048 C 
ATOM     13  C   UNL A   1      38.289  32.338  35.538  1.00  0.00     0.023 A 
ATOM     14  C   UNL A   1      36.460  33.834  36.012  1.00  0.00     0.045 A 
ATOM     15  C   UNL A   1      37.619  33.186  36.416  1.00  0.00     0.020 A 
ATOM     16  Br  UNL A   1      38.298  33.467  38.157  1.00  0.00    -0.051 Br
BRANCH  11  17
ATOM     17  N   UNL A   1      34.747  34.227  34.358  1.00  0.00    -0.396 N 
ATOM     18  H   UNL A   1      33.984  33.678  34.065  1.00  0.00     0.156 HD
ATOM     19  H   UNL A   1      34.663  35.208  34.390  1.00  0.00     0.156 HD
ENDBRANCH  11  17
ENDBRANCH   8   9
ENDBRANCH   5   8
ENDBRANCH   3   5
ENDBRANCH   2   3
ENDBRANCH   1   2
BRANCH   1  20
ATOM     20  C   UNL A   1      33.336  31.885  27.722  1.00  0.00     0.275 C 
BRANCH  20  21
ATOM     21  O   UNL A   1      34.358  31.076  27.117  1.00  0.00    -0.458 OA
BRANCH  21  22
ATOM     22  C   UNL A   1      34.541  29.865  27.697  1.00  0.00     0.338 C 
ATOM     23  O   UNL A   1      33.718  28.974  27.812  1.00  0.00    -0.246 OA
BRANCH  22  24
ATOM     24  C   UNL A   1      35.953  29.717  28.083  1.00  0.00     0.060 A 
ATOM     25  C   UNL A   1      36.926  29.925  27.103  1.00  0.00     0.016 A 
ATOM     26  C   UNL A   1      36.313  29.298  29.366  1.00  0.00     0.016 A 
ATOM     27  C   UNL A   1      38.270  29.709  27.400  1.00  0.00     0.010 A 
ATOM     28  C   UNL A   1      37.661  29.072  29.660  1.00  0.00     0.010 A 
ATOM     29  C   UNL A   1      38.646  29.260  28.674  1.00  0.00    -0.014 A 
BRANCH  29  30
ATOM     30  C   UNL A   1      40.063  28.917  28.940  1.00  0.00     0.031 A 
ATOM     31  C   UNL A   1      40.947  29.909  29.642  1.00  0.00     0.074 A 
ATOM     32  C   UNL A   1      40.540  27.707  28.597  1.00  0.00     0.049 A 
ATOM     33  N   UNL A   1      42.216  29.813  29.947  1.00  0.00    -0.248 NA
ATOM     34  C   UNL A   1      40.319  31.172  30.059  1.00  0.00     0.031 C 
ATOM     35  C   UNL A   1      39.763  26.645  27.959  1.00  0.00     0.029 A 
ATOM     36  N   UNL A   1      41.791  27.164  28.747  1.00  0.00    -0.354 N 
ATOM     37  C   UNL A   1      42.541  31.002  30.588  1.00  0.00     0.074 A 
ATOM     38  C   UNL A   1      41.342  31.814  30.606  1.00  0.00     0.031 C 
ATOM     39  C   UNL A   1      40.551  25.572  27.782  1.00  0.00     0.029 A 
ATOM     40  C   UNL A   1      41.897  25.884  28.260  1.00  0.00     0.049 A 
ATOM     41  H   UNL A   1      42.542  27.646  29.164  1.00  0.00     0.167 HD
ATOM     42  C   UNL A   1      43.728  31.378  31.121  1.00  0.00     0.037 A 
ATOM     43  C   UNL A   1      42.963  25.061  28.192  1.00  0.00     0.037 A 
ATOM     44  C   UNL A   1      44.917  30.566  31.102  1.00  0.00     0.049 A 
ATOM     45  C   UNL A   1      44.291  25.530  28.721  1.00  0.00     0.074 A 
ATOM     46  C   UNL A   1      46.169  30.861  31.612  1.00  0.00     0.029 A 
ATOM     47  N   UNL A   1      45.002  29.300  30.542  1.00  0.00    -0.354 N 
ATOM     48  N   UNL A   1      44.589  26.664  29.308  1.00  0.00    -0.248 NA
ATOM     49  C   UNL A   1      45.429  24.613  28.568  1.00  0.00     0.031 C 
ATOM     50  C   UNL A   1      47.020  29.787  31.329  1.00  0.00     0.029 A 
ATOM     51  C   UNL A   1      46.289  28.808  30.676  1.00  0.00     0.049 A 
ATOM     52  H   UNL A   1      44.256  28.821  30.113  1.00  0.00     0.167 HD
ATOM     53  C   UNL A   1      45.945  26.594  29.605  1.00  0.00     0.074 A 
ATOM     54  C   UNL A   1      46.408  25.301  29.144  1.00  0.00     0.031 C 
ATOM     55  C   UNL A   1      46.735  27.520  30.203  1.00  0.00     0.037 A 
BRANCH  42  56
ATOM     56  C   UNL A   1      43.802  32.739  31.752  1.00  0.00     0.058 A 
ATOM     57  C   UNL A   1      44.120  33.882  31.001  1.00  0.00     0.135 A 
ATOM     58  C   UNL A   1      43.530  32.908  33.119  1.00  0.00     0.135 A 
ATOM     59  F   UNL A   1      44.406  33.773  29.694  1.00  0.00    -0.206 F 
ATOM     60  C   UNL A   1      44.193  35.140  31.589  1.00  0.00     0.059 A 
ATOM     61  C   UNL A   1      43.574  34.161  33.723  1.00  0.00     0.059 A 
ATOM     62  F   UNL A   1      43.222  31.848  33.882  1.00  0.00    -0.206 F 
ATOM     63  C   UNL A   1      43.921  35.269  32.952  1.00  0.00     0.060 A 
BRANCH  63  64
ATOM     64  S   UNL A   1      44.027  36.908  33.703  1.00  0.00     0.124 S 
ATOM     65  O   UNL A   1      43.658  37.766  32.581  1.00  0.00    -0.237 OA
ATOM     66  O   UNL A   1      43.049  36.822  34.782  1.00  0.00    -0.237 OA
ATOM     67  O   UNL A   1      45.420  36.999  34.129  1.00  0.00    -0.744 OA
ENDBRANCH  63  64
ENDBRANCH  42  56
BRANCH  43  68
ATOM     68  C   UNL A   1      42.809  23.709  27.597  1.00  0.00     0.058 A 
ATOM     69  C   UNL A   1      43.012  23.497  26.227  1.00  0.00     0.135 A 
ATOM     70  C   UNL A   1      42.497  22.596  28.394  1.00  0.00     0.135 A 
ATOM     71  F   UNL A   1      43.297  24.533  25.423  1.00  0.00    -0.206 F 
ATOM     72  C   UNL A   1      42.919  22.227  25.665  1.00  0.00     0.059 A 
ATOM     73  C   UNL A   1      42.420  21.314  27.859  1.00  0.00     0.059 A 
ATOM     74  F   UNL A   1      42.300  22.746  29.713  1.00  0.00    -0.206 F 
ATOM     75  C   UNL A   1      42.633  21.140  26.492  1.00  0.00     0.060 A 
BRANCH  75  76
ATOM     76  S   UNL A   1      42.600  19.486  25.766  1.00  0.00     0.124 S 
ATOM     77  O   UNL A   1      43.027  18.662  26.890  1.00  0.00    -0.237 OA
ATOM     78  O   UNL A   1      41.200  19.353  25.373  1.00  0.00    -0.237 OA
ATOM     79  O   UNL A   1      43.546  19.587  24.659  1.00  0.00    -0.744 OA
ENDBRANCH  75  76
ENDBRANCH  43  68
BRANCH  55  80
ATOM     80  C   UNL A   1      48.184  27.172  30.401  1.00  0.00     0.058 A 
ATOM     81  C   UNL A   1      49.179  27.678  29.551  1.00  0.00     0.135 A 
ATOM     82  C   UNL A   1      48.588  26.384  31.490  1.00  0.00     0.135 A 
ATOM     83  F   UNL A   1      48.844  28.431  28.491  1.00  0.00    -0.206 F 
ATOM     84  C   UNL A   1      50.526  27.408  29.769  1.00  0.00     0.059 A 
ATOM     85  C   UNL A   1      49.930  26.117  31.739  1.00  0.00     0.059 A 
ATOM     86  F   UNL A   1      47.674  25.882  32.337  1.00  0.00    -0.206 F 
ATOM     87  C   UNL A   1      50.892  26.628  30.869  1.00  0.00     0.060 A 
BRANCH  87  88
ATOM     88  S   UNL A   1      52.648  26.327  31.168  1.00  0.00     0.124 S 
ATOM     89  O   UNL A   1      52.598  25.234  32.133  1.00  0.00    -0.237 OA
ATOM     90  O   UNL A   1      53.136  25.977  29.837  1.00  0.00    -0.237 OA
ATOM     91  O   UNL A   1      53.127  27.603  31.689  1.00  0.00    -0.744 OA
ENDBRANCH  87  88
ENDBRANCH  55  80
ENDBRANCH  29  30
ENDBRANCH  22  24
ENDBRANCH  21  22
ENDBRANCH  20  21
ENDBRANCH   1  20
TORSDOF 18
ENDMDL
