MODEL 1
REMARK VINA RESULT:     -11.7      0.000      0.000
REMARK SMILES C[C@@H](Sc1nc(-c2ccc3c(c2)OCO3)ccc1C#N)C(=O)OCCOC(=O)c1ccc(-c2c3nc(c(-c4c(F)cc(S(=O)(=O)[O-])cc4F)c4ccc([nH]4)c(-c4c(F)cc(S(=O)(=O)[O-])cc4F)c4nc(c(-c5c(F)cc(S(=O)(=O)[O-])cc5F)c5ccc2[nH]5)C=C4)C=C3)cc1
REMARK SMILES IDX 24 1 23 2 21 3 22 4 2 5 1 6 3 7 4 8 5 9 18 10 6 11 17 12
REMARK SMILES IDX 16 13 19 14 20 15 7 16 8 17 12 18 9 19 11 20 10 21 13 22
REMARK SMILES IDX 15 23 14 24 25 25 26 26 27 27 28 28 29 29 30 30 94 31 31 32
REMARK SMILES IDX 93 33 32 34 33 35 34 36 87 37 35 38 92 39 86 40 88 41 36 42
REMARK SMILES IDX 91 43 85 44 84 45 37 47 71 48 50 49 70 50 51 51 54 52 69 53
REMARK SMILES IDX 89 54 52 55 53 56 68 58 90 59 55 60 38 61 39 62 48 63 40 64
REMARK SMILES IDX 41 65 47 66 49 67 42 68 43 69 44 70 45 71 46 72 72 73 73 74
REMARK SMILES IDX 82 75 74 76 75 77 81 78 83 79 76 80 77 81 78 82 79 83 80 84
REMARK SMILES IDX 56 85 57 86 66 87 58 88 59 89 65 90 67 91 60 92 61 93 62 94
REMARK SMILES IDX 63 95 64 96
REMARK H PARENT 88 46 54 57
REMARK Flexibility Score: inf
ROOT
ATOM      1  C   UNL A   1      34.487  32.521  28.178  1.00  0.00     0.274 C 
ENDROOT
BRANCH   1   2
ATOM      2  O   UNL A   1      34.011  31.162  28.234  1.00  0.00    -0.461 OA
BRANCH   2   3
ATOM      3  C   UNL A   1      33.158  30.782  27.241  1.00  0.00     0.319 C 
ATOM      4  O   UNL A   1      32.186  31.441  26.885  1.00  0.00    -0.251 OA
BRANCH   3   5
ATOM      5  C   UNL A   1      33.523  29.433  26.619  1.00  0.00     0.160 C 
ATOM      6  C   UNL A   1      34.960  29.001  26.893  1.00  0.00     0.032 C 
BRANCH   5   7
ATOM      7  S   UNL A   1      32.291  28.212  27.189  1.00  0.00    -0.090 SA
BRANCH   7   8
ATOM      8  C   UNL A   1      31.386  27.948  25.666  1.00  0.00     0.115 A 
ATOM      9  N   UNL A   1      30.964  29.061  25.003  1.00  0.00    -0.240 NA
ATOM     10  C   UNL A   1      31.101  26.652  25.236  1.00  0.00     0.084 A 
ATOM     11  C   UNL A   1      30.196  28.889  23.895  1.00  0.00     0.072 A 
ATOM     12  C   UNL A   1      30.342  26.495  24.078  1.00  0.00     0.024 A 
ATOM     13  C   UNL A   1      29.880  27.621  23.407  1.00  0.00     0.030 A 
BRANCH  10  14
ATOM     14  C   UNL A   1      31.570  25.489  25.929  1.00  0.00     0.102 C 
ATOM     15  N   UNL A   1      31.978  24.568  26.501  1.00  0.00    -0.192 NA
ENDBRANCH  10  14
BRANCH  11  16
ATOM     16  C   UNL A   1      29.650  30.086  23.238  1.00  0.00     0.004 A 
ATOM     17  C   UNL A   1      29.393  31.255  24.007  1.00  0.00     0.014 A 
ATOM     18  C   UNL A   1      29.286  30.084  21.881  1.00  0.00     0.061 A 
ATOM     19  C   UNL A   1      28.768  32.379  23.456  1.00  0.00     0.051 A 
ATOM     20  C   UNL A   1      28.659  31.205  21.364  1.00  0.00     0.166 A 
ATOM     21  C   UNL A   1      28.402  32.317  22.131  1.00  0.00     0.165 A 
ATOM     22  O   UNL A   1      28.200  31.346  20.091  1.00  0.00    -0.454 OA
ATOM     23  O   UNL A   1      27.755  33.293  21.442  1.00  0.00    -0.454 OA
ATOM     24  C   UNL A   1      27.647  32.681  20.139  1.00  0.00     0.468 C 
ENDBRANCH  11  16
ENDBRANCH   7   8
ENDBRANCH   5   7
ENDBRANCH   3   5
ENDBRANCH   2   3
ENDBRANCH   1   2
BRANCH   1  25
ATOM     25  C   UNL A   1      34.982  33.012  29.542  1.00  0.00     0.275 C 
BRANCH  25  26
ATOM     26  O   UNL A   1      36.360  32.667  29.773  1.00  0.00    -0.458 OA
BRANCH  26  27
ATOM     27  C   UNL A   1      36.548  31.547  30.509  1.00  0.00     0.338 C 
ATOM     28  O   UNL A   1      35.776  31.060  31.317  1.00  0.00    -0.246 OA
BRANCH  27  29
ATOM     29  C   UNL A   1      37.797  30.883  30.116  1.00  0.00     0.060 A 
ATOM     30  C   UNL A   1      38.756  30.652  31.103  1.00  0.00     0.016 A 
ATOM     31  C   UNL A   1      38.079  30.609  28.779  1.00  0.00     0.016 A 
ATOM     32  C   UNL A   1      40.015  30.174  30.765  1.00  0.00     0.010 A 
ATOM     33  C   UNL A   1      39.338  30.100  28.441  1.00  0.00     0.010 A 
ATOM     34  C   UNL A   1      40.319  29.896  29.430  1.00  0.00    -0.014 A 
BRANCH  34  35
ATOM     35  C   UNL A   1      41.679  29.426  29.073  1.00  0.00     0.031 A 
ATOM     36  C   UNL A   1      42.831  30.391  29.084  1.00  0.00     0.074 A 
ATOM     37  C   UNL A   1      41.874  28.131  28.758  1.00  0.00     0.049 A 
ATOM     38  N   UNL A   1      44.069  30.203  28.707  1.00  0.00    -0.248 NA
ATOM     39  C   UNL A   1      42.550  31.748  29.577  1.00  0.00     0.031 C 
ATOM     40  C   UNL A   1      40.839  27.095  28.763  1.00  0.00     0.029 A 
ATOM     41  N   UNL A   1      43.008  27.467  28.365  1.00  0.00    -0.354 N 
ATOM     42  C   UNL A   1      44.710  31.423  28.891  1.00  0.00     0.074 A 
ATOM     43  C   UNL A   1      43.717  32.350  29.392  1.00  0.00     0.031 C 
ATOM     44  C   UNL A   1      41.385  25.927  28.392  1.00  0.00     0.029 A 
ATOM     45  C   UNL A   1      42.790  26.143  28.064  1.00  0.00     0.049 A 
ATOM     46  H   UNL A   1      43.892  27.895  28.304  1.00  0.00     0.167 HD
ATOM     47  C   UNL A   1      46.008  31.734  28.665  1.00  0.00     0.037 A 
ATOM     48  C   UNL A   1      43.619  25.218  27.545  1.00  0.00     0.037 A 
ATOM     49  C   UNL A   1      46.985  30.793  28.179  1.00  0.00     0.049 A 
ATOM     50  C   UNL A   1      45.041  25.606  27.238  1.00  0.00     0.074 A 
ATOM     51  C   UNL A   1      48.331  30.999  27.933  1.00  0.00     0.029 A 
ATOM     52  N   UNL A   1      46.720  29.467  27.856  1.00  0.00    -0.354 N 
ATOM     53  N   UNL A   1      45.637  26.761  27.419  1.00  0.00    -0.248 NA
ATOM     54  C   UNL A   1      45.901  24.570  26.654  1.00  0.00     0.031 C 
ATOM     55  C   UNL A   1      48.867  29.818  27.408  1.00  0.00     0.029 A 
ATOM     56  C   UNL A   1      47.872  28.854  27.389  1.00  0.00     0.049 A 
ATOM     57  H   UNL A   1      45.844  29.029  27.947  1.00  0.00     0.167 HD
ATOM     58  C   UNL A   1      46.950  26.581  26.997  1.00  0.00     0.074 A 
ATOM     59  C   UNL A   1      47.062  25.203  26.567  1.00  0.00     0.031 C 
ATOM     60  C   UNL A   1      47.969  27.476  26.969  1.00  0.00     0.037 A 
BRANCH  47  61
ATOM     61  C   UNL A   1      46.442  33.155  28.907  1.00  0.00     0.058 A 
ATOM     62  C   UNL A   1      46.964  33.576  30.140  1.00  0.00     0.135 A 
ATOM     63  C   UNL A   1      46.368  34.104  27.872  1.00  0.00     0.135 A 
ATOM     64  F   UNL A   1      47.043  32.718  31.169  1.00  0.00    -0.206 F 
ATOM     65  C   UNL A   1      47.369  34.891  30.348  1.00  0.00     0.059 A 
ATOM     66  C   UNL A   1      46.797  35.416  28.049  1.00  0.00     0.059 A 
ATOM     67  F   UNL A   1      45.877  33.758  26.672  1.00  0.00    -0.206 F 
ATOM     68  C   UNL A   1      47.284  35.803  29.296  1.00  0.00     0.060 A 
BRANCH  68  69
ATOM     69  S   UNL A   1      47.823  37.503  29.582  1.00  0.00     0.124 S 
ATOM     70  O   UNL A   1      46.878  38.251  28.758  1.00  0.00    -0.237 OA
ATOM     71  O   UNL A   1      47.654  37.643  31.025  1.00  0.00    -0.237 OA
ATOM     72  O   UNL A   1      49.206  37.507  29.112  1.00  0.00    -0.744 OA
ENDBRANCH  68  69
ENDBRANCH  47  61
BRANCH  48  73
ATOM     73  C   UNL A   1      43.118  23.846  27.260  1.00  0.00     0.058 A 
ATOM     74  C   UNL A   1      42.691  23.483  25.974  1.00  0.00     0.135 A 
ATOM     75  C   UNL A   1      43.063  22.867  28.266  1.00  0.00     0.135 A 
ATOM     76  F   UNL A   1      42.715  24.383  24.980  1.00  0.00    -0.206 F 
ATOM     77  C   UNL A   1      42.212  22.205  25.698  1.00  0.00     0.059 A 
ATOM     78  C   UNL A   1      42.619  21.574  28.007  1.00  0.00     0.059 A 
ATOM     79  F   UNL A   1      43.470  23.158  29.511  1.00  0.00    -0.206 F 
ATOM     80  C   UNL A   1      42.184  21.256  26.722  1.00  0.00     0.060 A 
BRANCH  80  81
ATOM     81  S   UNL A   1      41.597  19.592  26.342  1.00  0.00     0.124 S 
ATOM     82  O   UNL A   1      42.426  19.244  25.194  1.00  0.00    -0.237 OA
ATOM     83  O   UNL A   1      41.886  18.875  27.579  1.00  0.00    -0.237 OA
ATOM     84  O   UNL A   1      40.178  19.793  26.058  1.00  0.00    -0.744 OA
ENDBRANCH  80  81
ENDBRANCH  48  73
BRANCH  60  85
ATOM     85  C   UNL A   1      49.309  26.983  26.495  1.00  0.00     0.058 A 
ATOM     86  C   UNL A   1      50.226  26.374  27.365  1.00  0.00     0.135 A 
ATOM     87  C   UNL A   1      49.658  27.078  25.138  1.00  0.00     0.135 A 
ATOM     88  F   UNL A   1      49.946  26.263  28.674  1.00  0.00    -0.206 F 
ATOM     89  C   UNL A   1      51.454  25.900  26.912  1.00  0.00     0.059 A 
ATOM     90  C   UNL A   1      50.866  26.581  24.657  1.00  0.00     0.059 A 
ATOM     91  F   UNL A   1      48.814  27.643  24.259  1.00  0.00    -0.206 F 
ATOM     92  C   UNL A   1      51.762  26.005  25.555  1.00  0.00     0.060 A 
BRANCH  92  93
ATOM     93  S   UNL A   1      53.344  25.355  24.975  1.00  0.00     0.124 S 
ATOM     94  O   UNL A   1      54.290  26.130  25.770  1.00  0.00    -0.237 OA
ATOM     95  O   UNL A   1      53.240  23.939  25.314  1.00  0.00    -0.237 OA
ATOM     96  O   UNL A   1      53.331  25.654  23.546  1.00  0.00    -0.744 OA
ENDBRANCH  92  93
ENDBRANCH  60  85
ENDBRANCH  34  35
ENDBRANCH  27  29
ENDBRANCH  26  27
ENDBRANCH  25  26
ENDBRANCH   1  25
TORSDOF 18
ENDMDL
MODEL 2
REMARK VINA RESULT:     -11.3      1.804      4.209
REMARK SMILES C[C@@H](Sc1nc(-c2ccc3c(c2)OCO3)ccc1C#N)C(=O)OCCOC(=O)c1ccc(-c2c3nc(c(-c4c(F)cc(S(=O)(=O)[O-])cc4F)c4ccc([nH]4)c(-c4c(F)cc(S(=O)(=O)[O-])cc4F)c4nc(c(-c5c(F)cc(S(=O)(=O)[O-])cc5F)c5ccc2[nH]5)C=C4)C=C3)cc1
REMARK SMILES IDX 24 1 23 2 21 3 22 4 2 5 1 6 3 7 4 8 5 9 18 10 6 11 17 12
REMARK SMILES IDX 16 13 19 14 20 15 7 16 8 17 12 18 9 19 11 20 10 21 13 22
REMARK SMILES IDX 15 23 14 24 25 25 26 26 27 27 28 28 29 29 30 30 94 31 31 32
REMARK SMILES IDX 93 33 32 34 33 35 34 36 87 37 35 38 92 39 86 40 88 41 36 42
REMARK SMILES IDX 91 43 85 44 84 45 37 47 71 48 50 49 70 50 51 51 54 52 69 53
REMARK SMILES IDX 89 54 52 55 53 56 68 58 90 59 55 60 38 61 39 62 48 63 40 64
REMARK SMILES IDX 41 65 47 66 49 67 42 68 43 69 44 70 45 71 46 72 72 73 73 74
REMARK SMILES IDX 82 75 74 76 75 77 81 78 83 79 76 80 77 81 78 82 79 83 80 84
REMARK SMILES IDX 56 85 57 86 66 87 58 88 59 89 65 90 67 91 60 92 61 93 62 94
REMARK SMILES IDX 63 95 64 96
REMARK H PARENT 88 46 54 57
REMARK Flexibility Score: inf
ROOT
ATOM      1  C   UNL A   1      33.488  31.761  27.622  1.00  0.00     0.274 C 
ENDROOT
BRANCH   1   2
ATOM      2  O   UNL A   1      33.303  30.400  27.187  1.00  0.00    -0.461 OA
BRANCH   2   3
ATOM      3  C   UNL A   1      32.434  30.212  26.153  1.00  0.00     0.319 C 
ATOM      4  O   UNL A   1      31.455  30.921  25.945  1.00  0.00    -0.251 OA
BRANCH   3   5
ATOM      5  C   UNL A   1      32.793  29.009  25.279  1.00  0.00     0.160 C 
ATOM      6  C   UNL A   1      34.130  28.368  25.637  1.00  0.00     0.032 C 
BRANCH   5   7
ATOM      7  S   UNL A   1      31.396  27.836  25.354  1.00  0.00    -0.090 SA
BRANCH   7   8
ATOM      8  C   UNL A   1      31.889  26.681  24.078  1.00  0.00     0.115 A 
ATOM      9  N   UNL A   1      32.695  25.652  24.460  1.00  0.00    -0.240 NA
ATOM     10  C   UNL A   1      31.491  26.884  22.757  1.00  0.00     0.084 A 
ATOM     11  C   UNL A   1      33.160  24.814  23.496  1.00  0.00     0.072 A 
ATOM     12  C   UNL A   1      31.947  25.995  21.787  1.00  0.00     0.024 A 
ATOM     13  C   UNL A   1      32.794  24.957  22.157  1.00  0.00     0.030 A 
BRANCH  10  14
ATOM     14  C   UNL A   1      30.623  27.957  22.370  1.00  0.00     0.102 C 
ATOM     15  N   UNL A   1      29.920  28.834  22.092  1.00  0.00    -0.192 NA
ENDBRANCH  10  14
BRANCH  11  16
ATOM     16  C   UNL A   1      34.116  23.767  23.889  1.00  0.00     0.004 A 
ATOM     17  C   UNL A   1      33.687  22.413  23.959  1.00  0.00     0.014 A 
ATOM     18  C   UNL A   1      35.428  24.075  24.288  1.00  0.00     0.061 A 
ATOM     19  C   UNL A   1      34.522  21.397  24.437  1.00  0.00     0.051 A 
ATOM     20  C   UNL A   1      36.229  23.052  24.767  1.00  0.00     0.166 A 
ATOM     21  C   UNL A   1      35.786  21.754  24.845  1.00  0.00     0.165 A 
ATOM     22  O   UNL A   1      37.498  23.188  25.237  1.00  0.00    -0.454 OA
ATOM     23  O   UNL A   1      36.715  20.912  25.369  1.00  0.00    -0.454 OA
ATOM     24  C   UNL A   1      37.811  21.824  25.598  1.00  0.00     0.468 C 
ENDBRANCH  11  16
ENDBRANCH   7   8
ENDBRANCH   5   7
ENDBRANCH   3   5
ENDBRANCH   2   3
ENDBRANCH   1   2
BRANCH   1  25
ATOM     25  C   UNL A   1      34.788  31.938  28.413  1.00  0.00     0.275 C 
BRANCH  25  26
ATOM     26  O   UNL A   1      35.513  30.702  28.546  1.00  0.00    -0.458 OA
BRANCH  26  27
ATOM     27  C   UNL A   1      36.280  30.613  29.657  1.00  0.00     0.338 C 
ATOM     28  O   UNL A   1      35.953  30.879  30.801  1.00  0.00    -0.246 OA
BRANCH  27  29
ATOM     29  C   UNL A   1      37.580  30.013  29.331  1.00  0.00     0.060 A 
ATOM     30  C   UNL A   1      38.457  29.735  30.382  1.00  0.00     0.016 A 
ATOM     31  C   UNL A   1      37.988  29.848  28.010  1.00  0.00     0.016 A 
ATOM     32  C   UNL A   1      39.755  29.318  30.126  1.00  0.00     0.010 A 
ATOM     33  C   UNL A   1      39.288  29.399  27.751  1.00  0.00     0.010 A 
ATOM     34  C   UNL A   1      40.184  29.148  28.806  1.00  0.00    -0.014 A 
BRANCH  34  35
ATOM     35  C   UNL A   1      41.586  28.743  28.541  1.00  0.00     0.031 A 
ATOM     36  C   UNL A   1      42.683  29.769  28.586  1.00  0.00     0.074 A 
ATOM     37  C   UNL A   1      41.867  27.452  28.278  1.00  0.00     0.049 A 
ATOM     38  N   UNL A   1      43.948  29.638  28.285  1.00  0.00    -0.248 NA
ATOM     39  C   UNL A   1      42.303  31.123  29.020  1.00  0.00     0.031 C 
ATOM     40  C   UNL A   1      40.888  26.363  28.258  1.00  0.00     0.029 A 
ATOM     41  N   UNL A   1      43.054  26.840  27.969  1.00  0.00    -0.354 N 
ATOM     42  C   UNL A   1      44.513  30.896  28.466  1.00  0.00     0.074 A 
ATOM     43  C   UNL A   1      43.446  31.781  28.881  1.00  0.00     0.031 C 
ATOM     44  C   UNL A   1      41.515  25.215  27.955  1.00  0.00     0.029 A 
ATOM     45  C   UNL A   1      42.924  25.498  27.699  1.00  0.00     0.049 A 
ATOM     46  H   UNL A   1      43.917  27.314  27.945  1.00  0.00     0.167 HD
ATOM     47  C   UNL A   1      45.804  31.271  28.302  1.00  0.00     0.037 A 
ATOM     48  C   UNL A   1      43.829  24.605  27.256  1.00  0.00     0.037 A 
ATOM     49  C   UNL A   1      46.855  30.370  27.902  1.00  0.00     0.049 A 
ATOM     50  C   UNL A   1      45.243  25.061  27.016  1.00  0.00     0.074 A 
ATOM     51  C   UNL A   1      48.200  30.642  27.725  1.00  0.00     0.029 A 
ATOM     52  N   UNL A   1      46.679  29.024  27.606  1.00  0.00    -0.354 N 
ATOM     53  N   UNL A   1      45.767  26.251  27.194  1.00  0.00    -0.248 NA
ATOM     54  C   UNL A   1      46.189  24.057  26.514  1.00  0.00     0.031 C 
ATOM     55  C   UNL A   1      48.827  29.478  27.267  1.00  0.00     0.029 A 
ATOM     56  C   UNL A   1      47.887  28.461  27.223  1.00  0.00     0.049 A 
ATOM     57  H   UNL A   1      45.824  28.541  27.662  1.00  0.00     0.167 HD
ATOM     58  C   UNL A   1      47.109  26.131  26.852  1.00  0.00     0.074 A 
ATOM     59  C   UNL A   1      47.319  24.750  26.472  1.00  0.00     0.031 C 
ATOM     60  C   UNL A   1      48.080  27.079  26.853  1.00  0.00     0.037 A 
BRANCH  47  61
ATOM     61  C   UNL A   1      46.148  32.719  28.524  1.00  0.00     0.058 A 
ATOM     62  C   UNL A   1      46.091  33.667  27.490  1.00  0.00     0.135 A 
ATOM     63  C   UNL A   1      46.508  33.173  29.805  1.00  0.00     0.135 A 
ATOM     64  F   UNL A   1      45.769  33.288  26.242  1.00  0.00    -0.206 F 
ATOM     65  C   UNL A   1      46.404  35.004  27.710  1.00  0.00     0.059 A 
ATOM     66  C   UNL A   1      46.794  34.512  30.054  1.00  0.00     0.059 A 
ATOM     67  F   UNL A   1      46.580  32.312  30.831  1.00  0.00    -0.206 F 
ATOM     68  C   UNL A   1      46.752  35.419  28.996  1.00  0.00     0.060 A 
BRANCH  68  69
ATOM     69  S   UNL A   1      47.147  37.160  29.264  1.00  0.00     0.124 S 
ATOM     70  O   UNL A   1      48.282  37.343  28.365  1.00  0.00    -0.237 OA
ATOM     71  O   UNL A   1      45.910  37.823  28.866  1.00  0.00    -0.237 OA
ATOM     72  O   UNL A   1      47.459  37.224  30.689  1.00  0.00    -0.744 OA
ENDBRANCH  68  69
ENDBRANCH  47  61
BRANCH  48  73
ATOM     73  C   UNL A   1      43.418  23.200  26.986  1.00  0.00     0.058 A 
ATOM     74  C   UNL A   1      43.339  22.707  25.676  1.00  0.00     0.135 A 
ATOM     75  C   UNL A   1      43.103  22.320  28.035  1.00  0.00     0.135 A 
ATOM     76  F   UNL A   1      43.620  23.510  24.638  1.00  0.00    -0.206 F 
ATOM     77  C   UNL A   1      42.947  21.398  25.412  1.00  0.00     0.059 A 
ATOM     78  C   UNL A   1      42.740  20.998  27.797  1.00  0.00     0.059 A 
ATOM     79  F   UNL A   1      43.173  22.737  29.308  1.00  0.00    -0.206 F 
ATOM     80  C   UNL A   1      42.653  20.549  26.481  1.00  0.00     0.060 A 
BRANCH  80  81
ATOM     81  S   UNL A   1      42.183  18.843  26.126  1.00  0.00     0.124 S 
ATOM     82  O   UNL A   1      43.085  18.512  25.029  1.00  0.00    -0.237 OA
ATOM     83  O   UNL A   1      42.455  18.180  27.397  1.00  0.00    -0.237 OA
ATOM     84  O   UNL A   1      40.771  18.950  25.771  1.00  0.00    -0.744 OA
ENDBRANCH  80  81
ENDBRANCH  48  73
BRANCH  60  85
ATOM     85  C   UNL A   1      49.469  26.646  26.469  1.00  0.00     0.058 A 
ATOM     86  C   UNL A   1      50.329  26.019  27.384  1.00  0.00     0.135 A 
ATOM     87  C   UNL A   1      49.926  26.818  25.153  1.00  0.00     0.135 A 
ATOM     88  F   UNL A   1      49.946  25.836  28.658  1.00  0.00    -0.206 F 
ATOM     89  C   UNL A   1      51.604  25.601  27.013  1.00  0.00     0.059 A 
ATOM     90  C   UNL A   1      51.184  26.378  24.752  1.00  0.00     0.059 A 
ATOM     91  F   UNL A   1      49.140  27.403  24.234  1.00  0.00    -0.206 F 
ATOM     92  C   UNL A   1      52.020  25.782  25.693  1.00  0.00     0.060 A 
BRANCH  92  93
ATOM     93  S   UNL A   1      53.663  25.204  25.217  1.00  0.00     0.124 S 
ATOM     94  O   UNL A   1      54.510  25.902  26.179  1.00  0.00    -0.237 OA
ATOM     95  O   UNL A   1      53.550  23.760  25.402  1.00  0.00    -0.237 OA
ATOM     96  O   UNL A   1      53.791  25.645  23.832  1.00  0.00    -0.744 OA
ENDBRANCH  92  93
ENDBRANCH  60  85
ENDBRANCH  34  35
ENDBRANCH  27  29
ENDBRANCH  26  27
ENDBRANCH  25  26
ENDBRANCH   1  25
TORSDOF 18
ENDMDL
MODEL 3
REMARK VINA RESULT:     -11.3      6.622     11.957
REMARK SMILES C[C@@H](Sc1nc(-c2ccc3c(c2)OCO3)ccc1C#N)C(=O)OCCOC(=O)c1ccc(-c2c3nc(c(-c4c(F)cc(S(=O)(=O)[O-])cc4F)c4ccc([nH]4)c(-c4c(F)cc(S(=O)(=O)[O-])cc4F)c4nc(c(-c5c(F)cc(S(=O)(=O)[O-])cc5F)c5ccc2[nH]5)C=C4)C=C3)cc1
REMARK SMILES IDX 24 1 23 2 21 3 22 4 2 5 1 6 3 7 4 8 5 9 18 10 6 11 17 12
REMARK SMILES IDX 16 13 19 14 20 15 7 16 8 17 12 18 9 19 11 20 10 21 13 22
REMARK SMILES IDX 15 23 14 24 25 25 26 26 27 27 28 28 29 29 30 30 94 31 31 32
REMARK SMILES IDX 93 33 32 34 33 35 34 36 87 37 35 38 92 39 86 40 88 41 36 42
REMARK SMILES IDX 91 43 85 44 84 45 37 47 71 48 50 49 70 50 51 51 54 52 69 53
REMARK SMILES IDX 89 54 52 55 53 56 68 58 90 59 55 60 38 61 39 62 48 63 40 64
REMARK SMILES IDX 41 65 47 66 49 67 42 68 43 69 44 70 45 71 46 72 72 73 73 74
REMARK SMILES IDX 82 75 74 76 75 77 81 78 83 79 76 80 77 81 78 82 79 83 80 84
REMARK SMILES IDX 56 85 57 86 66 87 58 88 59 89 65 90 67 91 60 92 61 93 62 94
REMARK SMILES IDX 63 95 64 96
REMARK H PARENT 88 46 54 57
REMARK Flexibility Score: inf
ROOT
ATOM      1  C   UNL A   1      38.245  22.319  25.800  1.00  0.00     0.274 C 
ENDROOT
BRANCH   1   2
ATOM      2  O   UNL A   1      37.337  22.181  24.689  1.00  0.00    -0.461 OA
BRANCH   2   3
ATOM      3  C   UNL A   1      36.190  21.485  24.932  1.00  0.00     0.319 C 
ATOM      4  O   UNL A   1      36.142  20.265  25.046  1.00  0.00    -0.251 OA
BRANCH   3   5
ATOM      5  C   UNL A   1      34.955  22.382  25.035  1.00  0.00     0.160 C 
ATOM      6  C   UNL A   1      34.753  22.991  26.419  1.00  0.00     0.032 C 
BRANCH   5   7
ATOM      7  S   UNL A   1      35.073  23.636  23.714  1.00  0.00    -0.090 SA
BRANCH   7   8
ATOM      8  C   UNL A   1      33.583  24.574  24.040  1.00  0.00     0.115 A 
ATOM      9  N   UNL A   1      33.743  25.799  24.614  1.00  0.00    -0.240 NA
ATOM     10  C   UNL A   1      32.333  24.025  23.755  1.00  0.00     0.084 A 
ATOM     11  C   UNL A   1      32.626  26.492  24.957  1.00  0.00     0.072 A 
ATOM     12  C   UNL A   1      31.199  24.766  24.080  1.00  0.00     0.024 A 
ATOM     13  C   UNL A   1      31.345  26.005  24.693  1.00  0.00     0.030 A 
BRANCH  10  14
ATOM     14  C   UNL A   1      32.178  22.745  23.128  1.00  0.00     0.102 C 
ATOM     15  N   UNL A   1      32.050  21.728  22.590  1.00  0.00    -0.192 NA
ENDBRANCH  10  14
BRANCH  11  16
ATOM     16  C   UNL A   1      32.793  27.766  25.674  1.00  0.00     0.004 A 
ATOM     17  C   UNL A   1      31.850  28.813  25.478  1.00  0.00     0.014 A 
ATOM     18  C   UNL A   1      33.913  28.017  26.485  1.00  0.00     0.061 A 
ATOM     19  C   UNL A   1      32.025  30.080  26.044  1.00  0.00     0.051 A 
ATOM     20  C   UNL A   1      34.067  29.284  27.023  1.00  0.00     0.166 A 
ATOM     21  C   UNL A   1      33.153  30.286  26.804  1.00  0.00     0.165 A 
ATOM     22  O   UNL A   1      35.113  29.704  27.784  1.00  0.00    -0.454 OA
ATOM     23  O   UNL A   1      33.505  31.457  27.396  1.00  0.00    -0.454 OA
ATOM     24  C   UNL A   1      34.742  31.078  28.037  1.00  0.00     0.468 C 
ENDBRANCH  11  16
ENDBRANCH   7   8
ENDBRANCH   5   7
ENDBRANCH   3   5
ENDBRANCH   2   3
ENDBRANCH   1   2
BRANCH   1  25
ATOM     25  C   UNL A   1      38.551  23.788  26.110  1.00  0.00     0.275 C 
BRANCH  25  26
ATOM     26  O   UNL A   1      39.816  23.947  26.777  1.00  0.00    -0.458 OA
BRANCH  26  27
ATOM     27  C   UNL A   1      40.500  25.064  26.434  1.00  0.00     0.338 C 
ATOM     28  O   UNL A   1      40.897  25.371  25.322  1.00  0.00    -0.246 OA
BRANCH  27  29
ATOM     29  C   UNL A   1      40.611  25.968  27.585  1.00  0.00     0.060 A 
ATOM     30  C   UNL A   1      39.662  25.854  28.603  1.00  0.00     0.016 A 
ATOM     31  C   UNL A   1      41.549  26.998  27.607  1.00  0.00     0.016 A 
ATOM     32  C   UNL A   1      39.621  26.781  29.635  1.00  0.00     0.010 A 
ATOM     33  C   UNL A   1      41.526  27.915  28.663  1.00  0.00     0.010 A 
ATOM     34  C   UNL A   1      40.552  27.823  29.673  1.00  0.00    -0.014 A 
BRANCH  34  35
ATOM     35  C   UNL A   1      40.473  28.833  30.756  1.00  0.00     0.031 A 
ATOM     36  C   UNL A   1      41.389  28.729  31.942  1.00  0.00     0.074 A 
ATOM     37  C   UNL A   1      39.591  29.846  30.659  1.00  0.00     0.049 A 
ATOM     38  N   UNL A   1      41.408  29.447  33.036  1.00  0.00    -0.248 NA
ATOM     39  C   UNL A   1      42.414  27.675  31.896  1.00  0.00     0.031 C 
ATOM     40  C   UNL A   1      38.688  30.073  29.529  1.00  0.00     0.029 A 
ATOM     41  N   UNL A   1      39.303  30.868  31.526  1.00  0.00    -0.354 N 
ATOM     42  C   UNL A   1      42.426  28.916  33.820  1.00  0.00     0.074 A 
ATOM     43  C   UNL A   1      42.987  27.801  33.085  1.00  0.00     0.031 C 
ATOM     44  C   UNL A   1      37.948  31.166  29.771  1.00  0.00     0.029 A 
ATOM     45  C   UNL A   1      38.280  31.679  31.096  1.00  0.00     0.049 A 
ATOM     46  H   UNL A   1      39.784  31.009  32.374  1.00  0.00     0.167 HD
ATOM     47  C   UNL A   1      42.853  29.327  35.038  1.00  0.00     0.037 A 
ATOM     48  C   UNL A   1      37.652  32.696  31.717  1.00  0.00     0.037 A 
ATOM     49  C   UNL A   1      42.291  30.449  35.747  1.00  0.00     0.049 A 
ATOM     50  C   UNL A   1      38.099  33.091  33.098  1.00  0.00     0.074 A 
ATOM     51  C   UNL A   1      42.661  30.961  36.977  1.00  0.00     0.029 A 
ATOM     52  N   UNL A   1      41.233  31.227  35.293  1.00  0.00    -0.354 N 
ATOM     53  N   UNL A   1      39.065  32.585  33.829  1.00  0.00    -0.248 NA
ATOM     54  C   UNL A   1      37.371  34.191  33.743  1.00  0.00     0.031 C 
ATOM     55  C   UNL A   1      41.792  32.011  37.294  1.00  0.00     0.029 A 
ATOM     56  C   UNL A   1      40.922  32.198  36.232  1.00  0.00     0.049 A 
ATOM     57  H   UNL A   1      40.774  31.108  34.431  1.00  0.00     0.167 HD
ATOM     58  C   UNL A   1      39.078  33.323  35.006  1.00  0.00     0.074 A 
ATOM     59  C   UNL A   1      38.034  34.320  34.884  1.00  0.00     0.031 C 
ATOM     60  C   UNL A   1      39.882  33.189  36.091  1.00  0.00     0.037 A 
BRANCH  47  61
ATOM     61  C   UNL A   1      43.956  28.544  35.697  1.00  0.00     0.058 A 
ATOM     62  C   UNL A   1      45.310  28.870  35.522  1.00  0.00     0.135 A 
ATOM     63  C   UNL A   1      43.649  27.468  36.548  1.00  0.00     0.135 A 
ATOM     64  F   UNL A   1      45.663  29.877  34.707  1.00  0.00    -0.206 F 
ATOM     65  C   UNL A   1      46.320  28.143  36.143  1.00  0.00     0.059 A 
ATOM     66  C   UNL A   1      44.643  26.747  37.205  1.00  0.00     0.059 A 
ATOM     67  F   UNL A   1      42.372  27.110  36.752  1.00  0.00    -0.206 F 
ATOM     68  C   UNL A   1      45.977  27.084  36.986  1.00  0.00     0.060 A 
BRANCH  68  69
ATOM     69  S   UNL A   1      47.301  26.157  37.790  1.00  0.00     0.124 S 
ATOM     70  O   UNL A   1      48.219  25.935  36.677  1.00  0.00    -0.237 OA
ATOM     71  O   UNL A   1      47.759  27.092  38.812  1.00  0.00    -0.237 OA
ATOM     72  O   UNL A   1      46.626  24.964  38.293  1.00  0.00    -0.744 OA
ENDBRANCH  68  69
ENDBRANCH  47  61
BRANCH  48  73
ATOM     73  C   UNL A   1      36.520  33.391  31.046  1.00  0.00     0.058 A 
ATOM     74  C   UNL A   1      36.731  34.205  29.924  1.00  0.00     0.135 A 
ATOM     75  C   UNL A   1      35.201  33.248  31.509  1.00  0.00     0.135 A 
ATOM     76  F   UNL A   1      37.973  34.381  29.448  1.00  0.00    -0.206 F 
ATOM     77  C   UNL A   1      35.681  34.866  29.294  1.00  0.00     0.059 A 
ATOM     78  C   UNL A   1      34.131  33.874  30.877  1.00  0.00     0.059 A 
ATOM     79  F   UNL A   1      34.941  32.473  32.573  1.00  0.00    -0.206 F 
ATOM     80  C   UNL A   1      34.383  34.691  29.777  1.00  0.00     0.060 A 
BRANCH  80  81
ATOM     81  S   UNL A   1      33.025  35.524  28.927  1.00  0.00     0.124 S 
ATOM     82  O   UNL A   1      32.226  36.002  30.050  1.00  0.00    -0.237 OA
ATOM     83  O   UNL A   1      33.726  36.548  28.161  1.00  0.00    -0.237 OA
ATOM     84  O   UNL A   1      32.421  34.458  28.133  1.00  0.00    -0.744 OA
ENDBRANCH  80  81
ENDBRANCH  48  73
BRANCH  60  85
ATOM     85  C   UNL A   1      39.693  34.170  37.217  1.00  0.00     0.058 A 
ATOM     86  C   UNL A   1      39.012  33.825  38.395  1.00  0.00     0.135 A 
ATOM     87  C   UNL A   1      40.246  35.458  37.133  1.00  0.00     0.135 A 
ATOM     88  F   UNL A   1      38.457  32.609  38.525  1.00  0.00    -0.206 F 
ATOM     89  C   UNL A   1      38.863  34.732  39.439  1.00  0.00     0.059 A 
ATOM     90  C   UNL A   1      40.138  36.369  38.179  1.00  0.00     0.059 A 
ATOM     91  F   UNL A   1      40.917  35.837  36.033  1.00  0.00    -0.206 F 
ATOM     92  C   UNL A   1      39.433  36.001  39.323  1.00  0.00     0.060 A 
BRANCH  92  93
ATOM     93  S   UNL A   1      39.261  37.156  40.700  1.00  0.00     0.124 S 
ATOM     94  O   UNL A   1      38.634  36.314  41.714  1.00  0.00    -0.237 OA
ATOM     95  O   UNL A   1      40.647  37.536  40.960  1.00  0.00    -0.237 OA
ATOM     96  O   UNL A   1      38.419  38.215  40.153  1.00  0.00    -0.744 OA
ENDBRANCH  92  93
ENDBRANCH  60  85
ENDBRANCH  34  35
ENDBRANCH  27  29
ENDBRANCH  26  27
ENDBRANCH  25  26
ENDBRANCH   1  25
TORSDOF 18
ENDMDL
