MODEL 1
REMARK VINA RESULT:     -11.1      0.000      0.000
REMARK SMILES O=C(OCCOC(=O)c1ccccc1[C@@H]1SCC(=O)N1NC(=S)Nc1ccccc1)c1ccc(-c2c3nc(c(-c4c(F)cc(S(=O)(=O)[O-])cc4F)c4ccc([nH]4)c(-c4c(F)cc(S(=O)(=O)[O-])cc4F)c4nc(c(-c5c(F)cc(S(=O)(=O)[O-])cc5F)c5ccc2[nH]5)C=C4)C=C3)cc1
REMARK SMILES IDX 5 1 4 2 3 3 2 4 1 5 31 6 32 7 96 8 33 9 95 10 34 11 35 12
REMARK SMILES IDX 36 13 89 14 37 15 94 16 88 17 90 18 38 19 93 20 87 21 86 22
REMARK SMILES IDX 39 24 73 25 52 26 72 27 53 28 56 29 71 30 91 31 54 32 55 33
REMARK SMILES IDX 70 35 92 36 57 37 40 38 41 39 50 40 42 41 43 42 49 43 51 44
REMARK SMILES IDX 44 45 45 46 46 47 47 48 48 49 74 50 75 51 84 52 76 53 77 54
REMARK SMILES IDX 83 55 85 56 78 57 79 58 80 59 81 60 82 61 58 62 59 63 68 64
REMARK SMILES IDX 60 65 61 66 67 67 69 68 62 69 63 70 64 71 65 72 66 73 6 74
REMARK SMILES IDX 7 75 8 76 9 77 10 78 14 79 11 80 13 81 12 82 15 83 16 84
REMARK SMILES IDX 20 85 17 86 18 87 19 88 21 89 22 91 23 92 24 93 25 95 26 96
REMARK SMILES IDX 30 97 27 98 29 99 28 100
REMARK H PARENT 90 23 56 34 21 90 24 94
REMARK Flexibility Score: inf
ROOT
ATOM      1  C   UNL A   1      33.366  29.608  25.592  1.00  0.00     0.275 C 
ENDROOT
BRANCH   1   2
ATOM      2  C   UNL A   1      33.561  28.740  26.829  1.00  0.00     0.275 C 
BRANCH   2   3
ATOM      3  O   UNL A   1      33.778  29.559  28.004  1.00  0.00    -0.458 OA
BRANCH   3   4
ATOM      4  C   UNL A   1      34.809  30.326  28.431  1.00  0.00     0.338 C 
ATOM      5  O   UNL A   1      34.534  31.462  28.822  1.00  0.00    -0.246 OA
BRANCH   4   6
ATOM      6  C   UNL A   1      36.265  29.947  28.431  1.00  0.00     0.060 A 
ATOM      7  C   UNL A   1      37.133  30.059  27.360  1.00  0.00     0.016 A 
ATOM      8  C   UNL A   1      36.828  29.479  29.644  1.00  0.00     0.016 A 
ATOM      9  C   UNL A   1      38.491  29.768  27.511  1.00  0.00     0.010 A 
ATOM     10  C   UNL A   1      38.206  29.186  29.783  1.00  0.00     0.010 A 
ATOM     11  C   UNL A   1      39.069  29.349  28.701  1.00  0.00    -0.014 A 
BRANCH  11  12
ATOM     12  C   UNL A   1      40.520  28.975  28.694  1.00  0.00     0.031 A 
ATOM     13  C   UNL A   1      41.523  29.992  29.111  1.00  0.00     0.074 A 
ATOM     14  C   UNL A   1      40.969  27.706  28.578  1.00  0.00     0.049 A 
ATOM     15  N   UNL A   1      42.822  29.881  29.144  1.00  0.00    -0.248 NA
ATOM     16  C   UNL A   1      40.996  31.259  29.637  1.00  0.00     0.031 C 
ATOM     17  C   UNL A   1      40.093  26.560  28.560  1.00  0.00     0.029 A 
ATOM     18  N   UNL A   1      42.217  27.130  28.500  1.00  0.00    -0.354 N 
ATOM     19  C   UNL A   1      43.275  31.064  29.695  1.00  0.00     0.074 A 
ATOM     20  C   UNL A   1      42.113  31.878  29.985  1.00  0.00     0.031 C 
ATOM     21  C   UNL A   1      40.786  25.425  28.398  1.00  0.00     0.029 A 
ATOM     22  C   UNL A   1      42.186  25.770  28.251  1.00  0.00     0.049 A 
ATOM     23  H   UNL A   1      43.052  27.639  28.610  1.00  0.00     0.167 HD
ATOM     24  C   UNL A   1      44.553  31.430  29.924  1.00  0.00     0.037 A 
ATOM     25  C   UNL A   1      43.152  24.896  27.895  1.00  0.00     0.037 A 
ATOM     26  C   UNL A   1      45.698  30.611  29.637  1.00  0.00     0.049 A 
ATOM     27  C   UNL A   1      44.559  25.410  27.879  1.00  0.00     0.074 A 
ATOM     28  C   UNL A   1      47.035  30.942  29.749  1.00  0.00     0.029 A 
ATOM     29  N   UNL A   1      45.645  29.304  29.173  1.00  0.00    -0.354 N 
ATOM     30  N   UNL A   1      44.987  26.579  28.290  1.00  0.00    -0.248 NA
ATOM     31  C   UNL A   1      45.612  24.523  27.369  1.00  0.00     0.031 C 
ATOM     32  C   UNL A   1      47.790  29.863  29.278  1.00  0.00     0.029 A 
ATOM     33  C   UNL A   1      46.927  28.838  28.925  1.00  0.00     0.049 A 
ATOM     34  H   UNL A   1      44.820  28.784  29.040  1.00  0.00     0.167 HD
ATOM     35  C   UNL A   1      46.359  26.562  28.115  1.00  0.00     0.074 A 
ATOM     36  C   UNL A   1      46.697  25.260  27.573  1.00  0.00     0.031 C 
ATOM     37  C   UNL A   1      47.252  27.544  28.382  1.00  0.00     0.037 A 
BRANCH  24  38
ATOM     38  C   UNL A   1      44.765  32.836  30.379  1.00  0.00     0.058 A 
ATOM     39  C   UNL A   1      44.879  33.911  29.489  1.00  0.00     0.135 A 
ATOM     40  C   UNL A   1      44.867  33.092  31.755  1.00  0.00     0.135 A 
ATOM     41  F   UNL A   1      44.837  33.702  28.163  1.00  0.00    -0.206 F 
ATOM     42  C   UNL A   1      45.086  35.205  29.952  1.00  0.00     0.059 A 
ATOM     43  C   UNL A   1      45.053  34.378  32.240  1.00  0.00     0.059 A 
ATOM     44  F   UNL A   1      44.797  32.083  32.637  1.00  0.00    -0.206 F 
ATOM     45  C   UNL A   1      45.165  35.427  31.330  1.00  0.00     0.060 A 
BRANCH  45  46
ATOM     46  S   UNL A   1      45.398  37.114  31.923  1.00  0.00     0.124 S 
ATOM     47  O   UNL A   1      44.421  37.181  33.005  1.00  0.00    -0.237 OA
ATOM     48  O   UNL A   1      46.799  37.108  32.333  1.00  0.00    -0.237 OA
ATOM     49  O   UNL A   1      45.094  37.931  30.752  1.00  0.00    -0.744 OA
ENDBRANCH  45  46
ENDBRANCH  24  38
BRANCH  25  50
ATOM     50  C   UNL A   1      42.827  23.512  27.426  1.00  0.00     0.058 A 
ATOM     51  C   UNL A   1      42.578  22.454  28.313  1.00  0.00     0.135 A 
ATOM     52  C   UNL A   1      42.845  23.203  26.052  1.00  0.00     0.135 A 
ATOM     53  F   UNL A   1      42.550  22.681  29.635  1.00  0.00    -0.206 F 
ATOM     54  C   UNL A   1      42.400  21.144  27.865  1.00  0.00     0.059 A 
ATOM     55  C   UNL A   1      42.642  21.910  25.578  1.00  0.00     0.059 A 
ATOM     56  F   UNL A   1      43.062  24.170  25.147  1.00  0.00    -0.206 F 
ATOM     57  C   UNL A   1      42.445  20.881  26.495  1.00  0.00     0.060 A 
BRANCH  57  58
ATOM     58  S   UNL A   1      42.245  19.177  25.923  1.00  0.00     0.124 S 
ATOM     59  O   UNL A   1      43.088  19.167  24.733  1.00  0.00    -0.237 OA
ATOM     60  O   UNL A   1      42.740  18.414  27.064  1.00  0.00    -0.237 OA
ATOM     61  O   UNL A   1      40.810  19.071  25.680  1.00  0.00    -0.744 OA
ENDBRANCH  57  58
ENDBRANCH  25  50
BRANCH  37  62
ATOM     62  C   UNL A   1      48.691  27.251  28.088  1.00  0.00     0.058 A 
ATOM     63  C   UNL A   1      49.487  26.542  28.997  1.00  0.00     0.135 A 
ATOM     64  C   UNL A   1      49.256  27.622  26.858  1.00  0.00     0.135 A 
ATOM     65  F   UNL A   1      48.994  26.183  30.193  1.00  0.00    -0.206 F 
ATOM     66  C   UNL A   1      50.802  26.209  28.698  1.00  0.00     0.059 A 
ATOM     67  C   UNL A   1      50.560  27.275  26.526  1.00  0.00     0.059 A 
ATOM     68  F   UNL A   1      48.530  28.303  25.956  1.00  0.00    -0.206 F 
ATOM     69  C   UNL A   1      51.325  26.572  27.455  1.00  0.00     0.060 A 
BRANCH  69  70
ATOM     70  S   UNL A   1      53.009  26.069  27.053  1.00  0.00     0.124 S 
ATOM     71  O   UNL A   1      53.625  26.017  28.375  1.00  0.00    -0.237 OA
ATOM     72  O   UNL A   1      52.802  24.780  26.399  1.00  0.00    -0.237 OA
ATOM     73  O   UNL A   1      53.484  27.139  26.179  1.00  0.00    -0.744 OA
ENDBRANCH  69  70
ENDBRANCH  37  62
ENDBRANCH  11  12
ENDBRANCH   4   6
ENDBRANCH   3   4
ENDBRANCH   2   3
ENDBRANCH   1   2
BRANCH   1  74
ATOM     74  O   UNL A   1      32.070  29.324  25.047  1.00  0.00    -0.458 OA
BRANCH  74  75
ATOM     75  C   UNL A   1      32.022  28.895  23.781  1.00  0.00     0.338 C 
ATOM     76  O   UNL A   1      32.849  29.093  22.891  1.00  0.00    -0.246 OA
BRANCH  75  77
ATOM     77  C   UNL A   1      30.920  27.935  23.660  1.00  0.00     0.066 A 
ATOM     78  C   UNL A   1      29.674  28.532  23.356  1.00  0.00     0.016 A 
ATOM     79  C   UNL A   1      31.027  26.556  23.902  1.00  0.00     0.001 A 
ATOM     80  C   UNL A   1      28.510  27.774  23.309  1.00  0.00     0.001 A 
ATOM     81  C   UNL A   1      29.793  25.875  24.051  1.00  0.00     0.008 A 
ATOM     82  C   UNL A   1      28.565  26.447  23.696  1.00  0.00     0.000 A 
BRANCH  79  83
ATOM     83  C   UNL A   1      32.308  25.724  24.050  1.00  0.00     0.197 C 
ATOM     84  S   UNL A   1      33.197  25.671  22.479  1.00  0.00    -0.120 SA
ATOM     85  N   UNL A   1      32.176  24.341  24.537  1.00  0.00    -0.236 N 
ATOM     86  C   UNL A   1      33.167  23.882  22.397  1.00  0.00     0.174 C 
ATOM     87  C   UNL A   1      32.321  23.377  23.542  1.00  0.00     0.252 C 
ATOM     88  O   UNL A   1      31.809  22.265  23.518  1.00  0.00    -0.272 OA
BRANCH  85  89
ATOM     89  N   UNL A   1      32.516  24.100  25.955  1.00  0.00    -0.270 N 
ATOM     90  H   UNL A   1      31.856  24.445  26.597  1.00  0.00     0.191 HD
BRANCH  89  91
ATOM     91  C   UNL A   1      33.603  23.472  26.531  1.00  0.00     0.189 C 
ATOM     92  S   UNL A   1      33.401  22.407  27.814  1.00  0.00    -0.039 S 
BRANCH  91  93
ATOM     93  N   UNL A   1      34.868  23.718  26.133  1.00  0.00    -0.331 N 
ATOM     94  H   UNL A   1      35.219  24.633  26.228  1.00  0.00     0.169 HD
BRANCH  93  95
ATOM     95  C   UNL A   1      35.710  22.731  25.591  1.00  0.00     0.040 A 
ATOM     96  C   UNL A   1      37.089  22.933  25.639  1.00  0.00     0.026 A 
ATOM     97  C   UNL A   1      35.186  21.526  25.113  1.00  0.00     0.026 A 
ATOM     98  C   UNL A   1      37.937  21.856  25.390  1.00  0.00     0.002 A 
ATOM     99  C   UNL A   1      36.036  20.468  24.828  1.00  0.00     0.002 A 
ATOM    100  C   UNL A   1      37.407  20.620  25.009  1.00  0.00     0.000 A 
ENDBRANCH  93  95
ENDBRANCH  91  93
ENDBRANCH  89  91
ENDBRANCH  85  89
ENDBRANCH  79  83
ENDBRANCH  75  77
ENDBRANCH  74  75
ENDBRANCH   1  74
TORSDOF 19
ENDMDL
MODEL 2
REMARK VINA RESULT:     -10.9      3.674      4.495
REMARK SMILES O=C(OCCOC(=O)c1ccccc1[C@@H]1SCC(=O)N1NC(=S)Nc1ccccc1)c1ccc(-c2c3nc(c(-c4c(F)cc(S(=O)(=O)[O-])cc4F)c4ccc([nH]4)c(-c4c(F)cc(S(=O)(=O)[O-])cc4F)c4nc(c(-c5c(F)cc(S(=O)(=O)[O-])cc5F)c5ccc2[nH]5)C=C4)C=C3)cc1
REMARK SMILES IDX 5 1 4 2 3 3 2 4 1 5 31 6 32 7 96 8 33 9 95 10 34 11 35 12
REMARK SMILES IDX 36 13 89 14 37 15 94 16 88 17 90 18 38 19 93 20 87 21 86 22
REMARK SMILES IDX 39 24 73 25 52 26 72 27 53 28 56 29 71 30 91 31 54 32 55 33
REMARK SMILES IDX 70 35 92 36 57 37 40 38 41 39 50 40 42 41 43 42 49 43 51 44
REMARK SMILES IDX 44 45 45 46 46 47 47 48 48 49 74 50 75 51 84 52 76 53 77 54
REMARK SMILES IDX 83 55 85 56 78 57 79 58 80 59 81 60 82 61 58 62 59 63 68 64
REMARK SMILES IDX 60 65 61 66 67 67 69 68 62 69 63 70 64 71 65 72 66 73 6 74
REMARK SMILES IDX 7 75 8 76 9 77 10 78 14 79 11 80 13 81 12 82 15 83 16 84
REMARK SMILES IDX 20 85 17 86 18 87 19 88 21 89 22 91 23 92 24 93 25 95 26 96
REMARK SMILES IDX 30 97 27 98 29 99 28 100
REMARK H PARENT 90 23 56 34 21 90 24 94
REMARK Flexibility Score: inf
ROOT
ATOM      1  C   UNL A   1      31.817  27.846  27.464  1.00  0.00     0.275 C 
ENDROOT
BRANCH   1   2
ATOM      2  C   UNL A   1      33.184  28.251  26.926  1.00  0.00     0.275 C 
BRANCH   2   3
ATOM      3  O   UNL A   1      33.323  29.692  26.905  1.00  0.00    -0.458 OA
BRANCH   3   4
ATOM      4  C   UNL A   1      34.136  30.563  27.547  1.00  0.00     0.338 C 
ATOM      5  O   UNL A   1      33.773  31.740  27.586  1.00  0.00    -0.246 OA
BRANCH   4   6
ATOM      6  C   UNL A   1      35.465  30.246  28.179  1.00  0.00     0.060 A 
ATOM      7  C   UNL A   1      35.656  29.703  29.436  1.00  0.00     0.016 A 
ATOM      8  C   UNL A   1      36.634  30.473  27.412  1.00  0.00     0.016 A 
ATOM      9  C   UNL A   1      36.937  29.359  29.875  1.00  0.00     0.010 A 
ATOM     10  C   UNL A   1      37.927  30.122  27.870  1.00  0.00     0.010 A 
ATOM     11  C   UNL A   1      38.090  29.534  29.122  1.00  0.00    -0.014 A 
BRANCH  11  12
ATOM     12  C   UNL A   1      39.409  29.215  29.758  1.00  0.00     0.031 A 
ATOM     13  C   UNL A   1      39.824  29.977  30.967  1.00  0.00     0.074 A 
ATOM     14  C   UNL A   1      40.138  28.115  29.465  1.00  0.00     0.049 A 
ATOM     15  N   UNL A   1      40.934  29.877  31.644  1.00  0.00    -0.248 NA
ATOM     16  C   UNL A   1      38.834  30.902  31.533  1.00  0.00     0.031 C 
ATOM     17  C   UNL A   1      39.669  27.071  28.587  1.00  0.00     0.029 A 
ATOM     18  N   UNL A   1      41.365  27.639  29.868  1.00  0.00    -0.354 N 
ATOM     19  C   UNL A   1      40.781  30.727  32.722  1.00  0.00     0.074 A 
ATOM     20  C   UNL A   1      39.470  31.332  32.612  1.00  0.00     0.031 C 
ATOM     21  C   UNL A   1      40.596  26.115  28.435  1.00  0.00     0.029 A 
ATOM     22  C   UNL A   1      41.772  26.506  29.185  1.00  0.00     0.049 A 
ATOM     23  H   UNL A   1      41.902  28.065  30.574  1.00  0.00     0.167 HD
ATOM     24  C   UNL A   1      41.669  30.979  33.705  1.00  0.00     0.037 A 
ATOM     25  C   UNL A   1      42.962  25.873  29.120  1.00  0.00     0.037 A 
ATOM     26  C   UNL A   1      42.965  30.367  33.807  1.00  0.00     0.049 A 
ATOM     27  C   UNL A   1      44.043  26.363  30.034  1.00  0.00     0.074 A 
ATOM     28  C   UNL A   1      43.968  30.637  34.719  1.00  0.00     0.029 A 
ATOM     29  N   UNL A   1      43.445  29.373  32.966  1.00  0.00    -0.354 N 
ATOM     30  N   UNL A   1      43.939  27.258  30.986  1.00  0.00    -0.248 NA
ATOM     31  C   UNL A   1      45.384  25.781  29.892  1.00  0.00     0.031 C 
ATOM     32  C   UNL A   1      45.082  29.861  34.382  1.00  0.00     0.029 A 
ATOM     33  C   UNL A   1      44.756  29.068  33.294  1.00  0.00     0.049 A 
ATOM     34  H   UNL A   1      42.929  28.946  32.243  1.00  0.00     0.167 HD
ATOM     35  C   UNL A   1      45.189  27.332  31.574  1.00  0.00     0.074 A 
ATOM     36  C   UNL A   1      46.035  26.378  30.882  1.00  0.00     0.031 C 
ATOM     37  C   UNL A   1      45.591  28.122  32.597  1.00  0.00     0.037 A 
BRANCH  24  38
ATOM     38  C   UNL A   1      41.307  32.069  34.658  1.00  0.00     0.058 A 
ATOM     39  C   UNL A   1      41.671  33.405  34.454  1.00  0.00     0.135 A 
ATOM     40  C   UNL A   1      40.582  31.742  35.814  1.00  0.00     0.135 A 
ATOM     41  F   UNL A   1      42.408  33.754  33.387  1.00  0.00    -0.206 F 
ATOM     42  C   UNL A   1      41.322  34.391  35.371  1.00  0.00     0.059 A 
ATOM     43  C   UNL A   1      40.206  32.711  36.732  1.00  0.00     0.059 A 
ATOM     44  F   UNL A   1      40.245  30.466  36.061  1.00  0.00    -0.206 F 
ATOM     45  C   UNL A   1      40.584  34.032  36.503  1.00  0.00     0.060 A 
BRANCH  45  46
ATOM     46  S   UNL A   1      40.106  35.322  37.669  1.00  0.00     0.124 S 
ATOM     47  O   UNL A   1      39.879  36.453  36.774  1.00  0.00    -0.237 OA
ATOM     48  O   UNL A   1      38.912  34.754  38.288  1.00  0.00    -0.237 OA
ATOM     49  O   UNL A   1      41.268  35.438  38.544  1.00  0.00    -0.744 OA
ENDBRANCH  45  46
ENDBRANCH  24  38
BRANCH  25  50
ATOM     50  C   UNL A   1      43.231  24.807  28.104  1.00  0.00     0.058 A 
ATOM     51  C   UNL A   1      43.038  23.443  28.371  1.00  0.00     0.135 A 
ATOM     52  C   UNL A   1      43.778  25.140  26.849  1.00  0.00     0.135 A 
ATOM     53  F   UNL A   1      42.523  23.058  29.549  1.00  0.00    -0.206 F 
ATOM     54  C   UNL A   1      43.410  22.453  27.460  1.00  0.00     0.059 A 
ATOM     55  C   UNL A   1      44.132  24.174  25.912  1.00  0.00     0.059 A 
ATOM     56  F   UNL A   1      43.976  26.427  26.522  1.00  0.00    -0.206 F 
ATOM     57  C   UNL A   1      43.966  22.830  26.236  1.00  0.00     0.060 A 
BRANCH  57  58
ATOM     58  S   UNL A   1      44.476  21.543  25.072  1.00  0.00     0.124 S 
ATOM     59  O   UNL A   1      43.499  20.496  25.348  1.00  0.00    -0.237 OA
ATOM     60  O   UNL A   1      44.342  22.223  23.788  1.00  0.00    -0.237 OA
ATOM     61  O   UNL A   1      45.847  21.248  25.479  1.00  0.00    -0.744 OA
ENDBRANCH  57  58
ENDBRANCH  25  50
BRANCH  37  62
ATOM     62  C   UNL A   1      47.018  27.996  33.032  1.00  0.00     0.058 A 
ATOM     63  C   UNL A   1      47.402  27.051  33.994  1.00  0.00     0.135 A 
ATOM     64  C   UNL A   1      48.017  28.777  32.432  1.00  0.00     0.135 A 
ATOM     65  F   UNL A   1      46.477  26.296  34.608  1.00  0.00    -0.206 F 
ATOM     66  C   UNL A   1      48.734  26.884  34.350  1.00  0.00     0.059 A 
ATOM     67  C   UNL A   1      49.359  28.607  32.752  1.00  0.00     0.059 A 
ATOM     68  F   UNL A   1      47.696  29.695  31.506  1.00  0.00    -0.206 F 
ATOM     69  C   UNL A   1      49.705  27.661  33.715  1.00  0.00     0.060 A 
BRANCH  69  70
ATOM     70  S   UNL A   1      51.437  27.381  34.135  1.00  0.00     0.124 S 
ATOM     71  O   UNL A   1      51.889  28.735  34.436  1.00  0.00    -0.237 OA
ATOM     72  O   UNL A   1      51.339  26.477  35.277  1.00  0.00    -0.237 OA
ATOM     73  O   UNL A   1      51.989  26.789  32.920  1.00  0.00    -0.744 OA
ENDBRANCH  69  70
ENDBRANCH  37  62
ENDBRANCH  11  12
ENDBRANCH   4   6
ENDBRANCH   3   4
ENDBRANCH   2   3
ENDBRANCH   1   2
BRANCH   1  74
ATOM     74  O   UNL A   1      30.962  27.569  26.346  1.00  0.00    -0.458 OA
BRANCH  74  75
ATOM     75  C   UNL A   1      30.908  26.304  25.918  1.00  0.00     0.338 C 
ATOM     76  O   UNL A   1      30.440  25.331  26.512  1.00  0.00    -0.246 OA
BRANCH  75  77
ATOM     77  C   UNL A   1      31.293  26.277  24.504  1.00  0.00     0.066 A 
ATOM     78  C   UNL A   1      30.714  27.313  23.734  1.00  0.00     0.016 A 
ATOM     79  C   UNL A   1      32.088  25.284  23.907  1.00  0.00     0.001 A 
ATOM     80  C   UNL A   1      30.894  27.369  22.358  1.00  0.00     0.001 A 
ATOM     81  C   UNL A   1      32.063  25.267  22.490  1.00  0.00     0.008 A 
ATOM     82  C   UNL A   1      31.540  26.319  21.729  1.00  0.00     0.000 A 
BRANCH  79  83
ATOM     83  C   UNL A   1      32.942  24.218  24.606  1.00  0.00     0.197 C 
ATOM     84  S   UNL A   1      34.242  25.006  25.580  1.00  0.00    -0.120 SA
ATOM     85  N   UNL A   1      33.573  23.186  23.766  1.00  0.00    -0.236 N 
ATOM     86  C   UNL A   1      35.558  24.147  24.719  1.00  0.00     0.174 C 
ATOM     87  C   UNL A   1      34.941  23.371  23.580  1.00  0.00     0.252 C 
ATOM     88  O   UNL A   1      35.603  23.018  22.613  1.00  0.00    -0.272 OA
BRANCH  85  89
ATOM     89  N   UNL A   1      32.924  21.859  23.743  1.00  0.00    -0.270 N 
ATOM     90  H   UNL A   1      32.460  21.646  22.903  1.00  0.00     0.191 HD
BRANCH  89  91
ATOM     91  C   UNL A   1      32.857  20.867  24.702  1.00  0.00     0.189 C 
ATOM     92  S   UNL A   1      33.635  21.046  26.180  1.00  0.00    -0.039 S 
BRANCH  91  93
ATOM     93  N   UNL A   1      32.217  19.700  24.485  1.00  0.00    -0.331 N 
ATOM     94  H   UNL A   1      31.260  19.726  24.257  1.00  0.00     0.169 HD
BRANCH  93  95
ATOM     95  C   UNL A   1      32.851  18.447  24.570  1.00  0.00     0.040 A 
ATOM     96  C   UNL A   1      32.668  17.685  25.723  1.00  0.00     0.026 A 
ATOM     97  C   UNL A   1      33.556  17.927  23.480  1.00  0.00     0.026 A 
ATOM     98  C   UNL A   1      33.027  16.339  25.705  1.00  0.00     0.002 A 
ATOM     99  C   UNL A   1      33.948  16.597  23.482  1.00  0.00     0.002 A 
ATOM    100  C   UNL A   1      33.643  15.792  24.576  1.00  0.00     0.000 A 
ENDBRANCH  93  95
ENDBRANCH  91  93
ENDBRANCH  89  91
ENDBRANCH  85  89
ENDBRANCH  79  83
ENDBRANCH  75  77
ENDBRANCH  74  75
ENDBRANCH   1  74
TORSDOF 19
ENDMDL
MODEL 3
REMARK VINA RESULT:     -10.9      1.849      2.582
REMARK SMILES O=C(OCCOC(=O)c1ccccc1[C@@H]1SCC(=O)N1NC(=S)Nc1ccccc1)c1ccc(-c2c3nc(c(-c4c(F)cc(S(=O)(=O)[O-])cc4F)c4ccc([nH]4)c(-c4c(F)cc(S(=O)(=O)[O-])cc4F)c4nc(c(-c5c(F)cc(S(=O)(=O)[O-])cc5F)c5ccc2[nH]5)C=C4)C=C3)cc1
REMARK SMILES IDX 5 1 4 2 3 3 2 4 1 5 31 6 32 7 96 8 33 9 95 10 34 11 35 12
REMARK SMILES IDX 36 13 89 14 37 15 94 16 88 17 90 18 38 19 93 20 87 21 86 22
REMARK SMILES IDX 39 24 73 25 52 26 72 27 53 28 56 29 71 30 91 31 54 32 55 33
REMARK SMILES IDX 70 35 92 36 57 37 40 38 41 39 50 40 42 41 43 42 49 43 51 44
REMARK SMILES IDX 44 45 45 46 46 47 47 48 48 49 74 50 75 51 84 52 76 53 77 54
REMARK SMILES IDX 83 55 85 56 78 57 79 58 80 59 81 60 82 61 58 62 59 63 68 64
REMARK SMILES IDX 60 65 61 66 67 67 69 68 62 69 63 70 64 71 65 72 66 73 6 74
REMARK SMILES IDX 7 75 8 76 9 77 10 78 14 79 11 80 13 81 12 82 15 83 16 84
REMARK SMILES IDX 20 85 17 86 18 87 19 88 21 89 22 91 23 92 24 93 25 95 26 96
REMARK SMILES IDX 30 97 27 98 29 99 28 100
REMARK H PARENT 90 23 56 34 21 90 24 94
REMARK Flexibility Score: inf
ROOT
ATOM      1  C   UNL A   1      31.787  28.060  27.597  1.00  0.00     0.275 C 
ENDROOT
BRANCH   1   2
ATOM      2  C   UNL A   1      33.232  28.390  27.244  1.00  0.00     0.275 C 
BRANCH   2   3
ATOM      3  O   UNL A   1      33.478  29.813  27.358  1.00  0.00    -0.458 OA
BRANCH   3   4
ATOM      4  C   UNL A   1      34.346  30.556  28.083  1.00  0.00     0.338 C 
ATOM      5  O   UNL A   1      33.920  31.616  28.546  1.00  0.00    -0.246 OA
BRANCH   4   6
ATOM      6  C   UNL A   1      35.795  30.241  28.342  1.00  0.00     0.060 A 
ATOM      7  C   UNL A   1      36.364  30.003  29.580  1.00  0.00     0.016 A 
ATOM      8  C   UNL A   1      36.657  30.125  27.224  1.00  0.00     0.016 A 
ATOM      9  C   UNL A   1      37.704  29.620  29.684  1.00  0.00     0.010 A 
ATOM     10  C   UNL A   1      38.014  29.739  27.345  1.00  0.00     0.010 A 
ATOM     11  C   UNL A   1      38.554  29.460  28.598  1.00  0.00    -0.014 A 
BRANCH  11  12
ATOM     12  C   UNL A   1      39.994  29.145  28.864  1.00  0.00     0.031 A 
ATOM     13  C   UNL A   1      40.844  30.176  29.520  1.00  0.00     0.074 A 
ATOM     14  C   UNL A   1      40.519  27.902  28.782  1.00  0.00     0.049 A 
ATOM     15  N   UNL A   1      42.114  30.113  29.808  1.00  0.00    -0.248 NA
ATOM     16  C   UNL A   1      40.161  31.390  29.988  1.00  0.00     0.031 C 
ATOM     17  C   UNL A   1      39.722  26.726  28.536  1.00  0.00     0.029 A 
ATOM     18  N   UNL A   1      41.785  27.381  28.928  1.00  0.00    -0.354 N 
ATOM     19  C   UNL A   1      42.390  31.281  30.492  1.00  0.00     0.074 A 
ATOM     20  C   UNL A   1      41.156  32.032  30.582  1.00  0.00     0.031 C 
ATOM     21  C   UNL A   1      40.489  25.629  28.463  1.00  0.00     0.029 A 
ATOM     22  C   UNL A   1      41.871  26.036  28.615  1.00  0.00     0.049 A 
ATOM     23  H   UNL A   1      42.556  27.915  29.227  1.00  0.00     0.167 HD
ATOM     24  C   UNL A   1      43.578  31.684  30.989  1.00  0.00     0.037 A 
ATOM     25  C   UNL A   1      42.930  25.222  28.420  1.00  0.00     0.037 A 
ATOM     26  C   UNL A   1      44.796  30.926  30.900  1.00  0.00     0.049 A 
ATOM     27  C   UNL A   1      44.286  25.791  28.710  1.00  0.00     0.074 A 
ATOM     28  C   UNL A   1      46.067  31.303  31.292  1.00  0.00     0.029 A 
ATOM     29  N   UNL A   1      44.901  29.646  30.374  1.00  0.00    -0.354 N 
ATOM     30  N   UNL A   1      44.565  26.951  29.252  1.00  0.00    -0.248 NA
ATOM     31  C   UNL A   1      45.461  24.975  28.381  1.00  0.00     0.031 C 
ATOM     32  C   UNL A   1      46.952  30.281  30.933  1.00  0.00     0.029 A 
ATOM     33  C   UNL A   1      46.227  29.246  30.367  1.00  0.00     0.049 A 
ATOM     34  H   UNL A   1      44.145  29.102  30.055  1.00  0.00     0.167 HD
ATOM     35  C   UNL A   1      45.945  26.997  29.355  1.00  0.00     0.074 A 
ATOM     36  C   UNL A   1      46.447  25.741  28.832  1.00  0.00     0.031 C 
ATOM     37  C   UNL A   1      46.718  27.996  29.840  1.00  0.00     0.037 A 
BRANCH  24  38
ATOM     38  C   UNL A   1      43.627  33.069  31.542  1.00  0.00     0.058 A 
ATOM     39  C   UNL A   1      43.755  34.204  30.731  1.00  0.00     0.135 A 
ATOM     40  C   UNL A   1      43.553  33.245  32.932  1.00  0.00     0.135 A 
ATOM     41  F   UNL A   1      43.879  34.077  29.400  1.00  0.00    -0.206 F 
ATOM     42  C   UNL A   1      43.806  35.478  31.286  1.00  0.00     0.059 A 
ATOM     43  C   UNL A   1      43.582  34.507  33.505  1.00  0.00     0.059 A 
ATOM     44  F   UNL A   1      43.464  32.179  33.743  1.00  0.00    -0.206 F 
ATOM     45  C   UNL A   1      43.712  35.617  32.674  1.00  0.00     0.060 A 
BRANCH  45  46
ATOM     46  S   UNL A   1      43.744  37.275  33.381  1.00  0.00     0.124 S 
ATOM     47  O   UNL A   1      45.006  37.256  34.113  1.00  0.00    -0.237 OA
ATOM     48  O   UNL A   1      43.713  38.120  32.191  1.00  0.00    -0.237 OA
ATOM     49  O   UNL A   1      42.540  37.317  34.206  1.00  0.00    -0.744 OA
ENDBRANCH  45  46
ENDBRANCH  24  38
BRANCH  25  50
ATOM     50  C   UNL A   1      42.773  23.854  27.832  1.00  0.00     0.058 A 
ATOM     51  C   UNL A   1      42.623  23.638  26.454  1.00  0.00     0.135 A 
ATOM     52  C   UNL A   1      42.686  22.725  28.669  1.00  0.00     0.135 A 
ATOM     53  F   UNL A   1      42.694  24.673  25.603  1.00  0.00    -0.206 F 
ATOM     54  C   UNL A   1      42.353  22.373  25.931  1.00  0.00     0.059 A 
ATOM     55  C   UNL A   1      42.446  21.447  28.170  1.00  0.00     0.059 A 
ATOM     56  F   UNL A   1      42.835  22.857  29.996  1.00  0.00    -0.206 F 
ATOM     57  C   UNL A   1      42.256  21.284  26.801  1.00  0.00     0.060 A 
BRANCH  57  58
ATOM     58  S   UNL A   1      41.874  19.652  26.121  1.00  0.00     0.124 S 
ATOM     59  O   UNL A   1      40.441  19.763  25.880  1.00  0.00    -0.237 OA
ATOM     60  O   UNL A   1      42.723  19.611  24.935  1.00  0.00    -0.237 OA
ATOM     61  O   UNL A   1      42.264  18.743  27.195  1.00  0.00    -0.744 OA
ENDBRANCH  57  58
ENDBRANCH  25  50
BRANCH  37  62
ATOM     62  C   UNL A   1      48.199  27.777  29.827  1.00  0.00     0.058 A 
ATOM     63  C   UNL A   1      48.827  27.013  30.819  1.00  0.00     0.135 A 
ATOM     64  C   UNL A   1      48.983  28.276  28.775  1.00  0.00     0.135 A 
ATOM     65  F   UNL A   1      48.120  26.531  31.854  1.00  0.00    -0.206 F 
ATOM     66  C   UNL A   1      50.190  26.749  30.772  1.00  0.00     0.059 A 
ATOM     67  C   UNL A   1      50.342  28.001  28.693  1.00  0.00     0.059 A 
ATOM     68  F   UNL A   1      48.423  29.013  27.803  1.00  0.00    -0.206 F 
ATOM     69  C   UNL A   1      50.937  27.240  29.699  1.00  0.00     0.060 A 
BRANCH  69  70
ATOM     70  S   UNL A   1      52.690  26.829  29.613  1.00  0.00     0.124 S 
ATOM     71  O   UNL A   1      53.301  28.153  29.558  1.00  0.00    -0.237 OA
ATOM     72  O   UNL A   1      52.897  26.087  30.853  1.00  0.00    -0.237 OA
ATOM     73  O   UNL A   1      52.794  26.037  28.390  1.00  0.00    -0.744 OA
ENDBRANCH  69  70
ENDBRANCH  37  62
ENDBRANCH  11  12
ENDBRANCH   4   6
ENDBRANCH   3   4
ENDBRANCH   2   3
ENDBRANCH   1   2
BRANCH   1  74
ATOM     74  O   UNL A   1      31.051  27.914  26.374  1.00  0.00    -0.458 OA
BRANCH  74  75
ATOM     75  C   UNL A   1      30.795  26.668  25.961  1.00  0.00     0.338 C 
ATOM     76  O   UNL A   1      30.156  25.798  26.556  1.00  0.00    -0.246 OA
BRANCH  75  77
ATOM     77  C   UNL A   1      31.203  26.553  24.558  1.00  0.00     0.066 A 
ATOM     78  C   UNL A   1      30.643  27.542  23.717  1.00  0.00     0.016 A 
ATOM     79  C   UNL A   1      32.001  25.521  24.037  1.00  0.00     0.001 A 
ATOM     80  C   UNL A   1      30.845  27.513  22.343  1.00  0.00     0.001 A 
ATOM     81  C   UNL A   1      31.999  25.417  22.623  1.00  0.00     0.008 A 
ATOM     82  C   UNL A   1      31.495  26.423  21.790  1.00  0.00     0.000 A 
BRANCH  79  83
ATOM     83  C   UNL A   1      32.837  24.495  24.813  1.00  0.00     0.197 C 
ATOM     84  S   UNL A   1      34.285  25.296  25.537  1.00  0.00    -0.120 SA
ATOM     85  N   UNL A   1      33.301  23.299  24.090  1.00  0.00    -0.236 N 
ATOM     86  C   UNL A   1      35.439  24.205  24.707  1.00  0.00     0.174 C 
ATOM     87  C   UNL A   1      34.653  23.330  23.759  1.00  0.00     0.252 C 
ATOM     88  O   UNL A   1      35.187  22.783  22.803  1.00  0.00    -0.272 OA
BRANCH  85  89
ATOM     89  N   UNL A   1      32.553  22.047  24.328  1.00  0.00    -0.270 N 
ATOM     90  H   UNL A   1      31.783  21.912  23.731  1.00  0.00     0.191 HD
BRANCH  89  91
ATOM     91  C   UNL A   1      32.752  21.035  25.247  1.00  0.00     0.189 C 
ATOM     92  S   UNL A   1      33.681  21.291  26.622  1.00  0.00    -0.039 S 
BRANCH  91  93
ATOM     93  N   UNL A   1      32.261  19.792  25.063  1.00  0.00    -0.331 N 
ATOM     94  H   UNL A   1      31.299  19.691  24.883  1.00  0.00     0.169 HD
BRANCH  93  95
ATOM     95  C   UNL A   1      33.057  18.634  25.117  1.00  0.00     0.040 A 
ATOM     96  C   UNL A   1      32.590  17.538  25.842  1.00  0.00     0.026 A 
ATOM     97  C   UNL A   1      34.236  18.540  24.372  1.00  0.00     0.026 A 
ATOM     98  C   UNL A   1      33.203  16.300  25.663  1.00  0.00     0.002 A 
ATOM     99  C   UNL A   1      34.867  17.314  24.228  1.00  0.00     0.002 A 
ATOM    100  C   UNL A   1      34.324  16.186  24.837  1.00  0.00     0.000 A 
ENDBRANCH  93  95
ENDBRANCH  91  93
ENDBRANCH  89  91
ENDBRANCH  85  89
ENDBRANCH  79  83
ENDBRANCH  75  77
ENDBRANCH  74  75
ENDBRANCH   1  74
TORSDOF 19
ENDMDL
