MODEL 1
REMARK VINA RESULT:     -11.6      0.000      0.000
REMARK SMILES COc1cc(C(=O)NC2(C(=O)OCCOC(=O)c3ccc(-c4c5nc(c(-c6c(F)cc(S(=O)(=O)[O-])cc6F)c6ccc([nH]6)c(-c6c(F)cc(S(=O)(=O)[O-])cc6F)c6nc(c(-c7c(F)cc(S(=O)(=O)[O-])cc7F)c7ccc4[nH]7)C=C6)C=C5)cc3)CCCCC2)cc2c1OCCO2
REMARK SMILES IDX 13 1 12 2 10 3 11 4 9 5 84 6 88 7 85 8 87 9 86 10 8 11 6 12
REMARK SMILES IDX 7 13 5 15 3 16 4 17 91 18 90 19 92 20 89 21 95 22 93 23
REMARK SMILES IDX 94 24 2 25 1 26 14 27 15 28 16 29 17 30 18 31 19 32 83 33
REMARK SMILES IDX 20 34 82 35 21 36 22 37 23 38 76 39 24 40 81 41 75 42 77 43
REMARK SMILES IDX 25 44 80 45 74 46 73 47 26 49 60 50 39 51 59 52 40 53 43 54
REMARK SMILES IDX 58 55 78 56 41 57 42 58 57 60 79 61 44 62 27 63 28 64 37 65
REMARK SMILES IDX 29 66 30 67 36 68 38 69 31 70 32 71 33 72 34 73 35 74 61 75
REMARK SMILES IDX 62 76 71 77 63 78 64 79 70 80 72 81 65 82 66 83 67 84 68 85
REMARK SMILES IDX 69 86 45 87 46 88 55 89 47 90 48 91 54 92 56 93 49 94 50 95
REMARK SMILES IDX 51 96 52 97 53 98
REMARK H PARENT 8 14 77 48 43 59
REMARK Flexibility Score: inf
ROOT
ATOM      1  C   UNL A   1      31.895  30.126  25.580  1.00  0.00     0.274 C 
ENDROOT
BRANCH   1   2
ATOM      2  O   UNL A   1      32.803  29.430  24.697  1.00  0.00    -0.460 OA
BRANCH   2   3
ATOM      3  C   UNL A   1      32.203  28.630  23.778  1.00  0.00     0.331 C 
ATOM      4  O   UNL A   1      31.537  29.086  22.853  1.00  0.00    -0.249 OA
BRANCH   3   5
ATOM      5  C   UNL A   1      32.408  27.092  24.021  1.00  0.00     0.138 C 
ATOM      6  C   UNL A   1      31.240  26.243  24.561  1.00  0.00     0.040 C 
ATOM      7  C   UNL A   1      33.601  26.909  25.007  1.00  0.00     0.040 C 
ATOM      8  C   UNL A   1      30.843  26.564  25.992  1.00  0.00     0.003 C 
ATOM      9  C   UNL A   1      33.255  27.130  26.486  1.00  0.00     0.003 C 
ATOM     10  C   UNL A   1      32.017  26.363  26.935  1.00  0.00     0.000 C 
BRANCH   5  11
ATOM     11  N   UNL A   1      32.822  26.549  22.691  1.00  0.00    -0.336 N 
ATOM     12  C   UNL A   1      33.308  25.350  22.218  1.00  0.00     0.252 C 
ATOM     13  O   UNL A   1      33.463  25.300  20.995  1.00  0.00    -0.269 OA
ATOM     14  H   UNL A   1      32.723  27.215  21.973  1.00  0.00     0.165 HD
BRANCH  12  15
ATOM     15  C   UNL A   1      33.708  24.153  23.032  1.00  0.00     0.047 A 
ATOM     16  C   UNL A   1      35.285  22.745  24.248  1.00  0.00     0.165 A 
ATOM     17  C   UNL A   1      34.927  23.972  23.685  1.00  0.00     0.064 A 
ATOM     18  C   UNL A   1      34.374  21.700  24.299  1.00  0.00     0.203 A 
ATOM     19  C   UNL A   1      33.094  21.909  23.779  1.00  0.00     0.166 A 
ATOM     20  O   UNL A   1      34.773  20.518  24.865  1.00  0.00    -0.483 OA
ATOM     21  C   UNL A   1      32.775  23.106  23.126  1.00  0.00     0.064 A 
ATOM     22  O   UNL A   1      32.101  20.964  23.850  1.00  0.00    -0.486 OA
ATOM     23  C   UNL A   1      33.836  19.467  24.608  1.00  0.00     0.271 C 
ATOM     24  C   UNL A   1      32.415  19.959  24.822  1.00  0.00     0.271 C 
BRANCH  16  25
ATOM     25  O   UNL A   1      36.564  22.641  24.733  1.00  0.00    -0.493 OA
ATOM     26  C   UNL A   1      36.881  23.786  25.526  1.00  0.00     0.278 C 
ENDBRANCH  16  25
ENDBRANCH  12  15
ENDBRANCH   5  11
ENDBRANCH   3   5
ENDBRANCH   2   3
ENDBRANCH   1   2
BRANCH   1  27
ATOM     27  C   UNL A   1      32.594  30.928  26.690  1.00  0.00     0.275 C 
BRANCH  27  28
ATOM     28  O   UNL A   1      33.526  30.136  27.455  1.00  0.00    -0.458 OA
BRANCH  28  29
ATOM     29  C   UNL A   1      34.421  30.844  28.177  1.00  0.00     0.338 C 
ATOM     30  O   UNL A   1      34.185  31.846  28.846  1.00  0.00    -0.246 OA
BRANCH  29  31
ATOM     31  C   UNL A   1      35.735  30.178  28.211  1.00  0.00     0.060 A 
ATOM     32  C   UNL A   1      36.183  29.731  29.455  1.00  0.00     0.016 A 
ATOM     33  C   UNL A   1      36.578  30.109  27.100  1.00  0.00     0.016 A 
ATOM     34  C   UNL A   1      37.473  29.239  29.616  1.00  0.00     0.010 A 
ATOM     35  C   UNL A   1      37.886  29.620  27.261  1.00  0.00     0.010 A 
ATOM     36  C   UNL A   1      38.350  29.212  28.527  1.00  0.00    -0.014 A 
BRANCH  36  37
ATOM     37  C   UNL A   1      39.778  28.887  28.779  1.00  0.00     0.031 A 
ATOM     38  C   UNL A   1      40.649  29.893  29.484  1.00  0.00     0.074 A 
ATOM     39  C   UNL A   1      40.266  27.666  28.487  1.00  0.00     0.049 A 
ATOM     40  N   UNL A   1      41.915  29.815  29.807  1.00  0.00    -0.248 NA
ATOM     41  C   UNL A   1      40.005  31.154  29.886  1.00  0.00     0.031 C 
ATOM     42  C   UNL A   1      39.505  26.577  27.878  1.00  0.00     0.029 A 
ATOM     43  N   UNL A   1      41.515  27.132  28.688  1.00  0.00    -0.354 N 
ATOM     44  C   UNL A   1      42.224  31.018  30.430  1.00  0.00     0.074 A 
ATOM     45  C   UNL A   1      41.016  31.816  30.428  1.00  0.00     0.031 C 
ATOM     46  C   UNL A   1      40.298  25.498  27.765  1.00  0.00     0.029 A 
ATOM     47  C   UNL A   1      41.632  25.829  28.265  1.00  0.00     0.049 A 
ATOM     48  H   UNL A   1      42.256  27.634  29.097  1.00  0.00     0.167 HD
ATOM     49  C   UNL A   1      43.403  31.422  30.960  1.00  0.00     0.037 A 
ATOM     50  C   UNL A   1      42.694  25.002  28.269  1.00  0.00     0.037 A 
ATOM     51  C   UNL A   1      44.598  30.621  30.985  1.00  0.00     0.049 A 
ATOM     52  C   UNL A   1      44.006  25.486  28.827  1.00  0.00     0.074 A 
ATOM     53  C   UNL A   1      45.848  30.949  31.483  1.00  0.00     0.029 A 
ATOM     54  N   UNL A   1      44.689  29.323  30.503  1.00  0.00    -0.354 N 
ATOM     55  N   UNL A   1      44.295  26.646  29.370  1.00  0.00    -0.248 NA
ATOM     56  C   UNL A   1      45.138  24.551  28.770  1.00  0.00     0.031 C 
ATOM     57  C   UNL A   1      46.703  29.858  31.276  1.00  0.00     0.029 A 
ATOM     58  C   UNL A   1      45.976  28.840  30.681  1.00  0.00     0.049 A 
ATOM     59  H   UNL A   1      43.949  28.819  30.094  1.00  0.00     0.167 HD
ATOM     60  C   UNL A   1      45.637  26.575  29.727  1.00  0.00     0.074 A 
ATOM     61  C   UNL A   1      46.099  25.254  29.356  1.00  0.00     0.031 C 
ATOM     62  C   UNL A   1      46.419  27.522  30.303  1.00  0.00     0.037 A 
BRANCH  49  63
ATOM     63  C   UNL A   1      43.461  32.814  31.524  1.00  0.00     0.058 A 
ATOM     64  C   UNL A   1      43.806  33.919  30.732  1.00  0.00     0.135 A 
ATOM     65  C   UNL A   1      43.167  33.041  32.877  1.00  0.00     0.135 A 
ATOM     66  F   UNL A   1      44.115  33.753  29.436  1.00  0.00    -0.206 F 
ATOM     67  C   UNL A   1      43.888  35.201  31.271  1.00  0.00     0.059 A 
ATOM     68  C   UNL A   1      43.222  34.315  33.432  1.00  0.00     0.059 A 
ATOM     69  F   UNL A   1      42.834  32.017  33.678  1.00  0.00    -0.206 F 
ATOM     70  C   UNL A   1      43.602  35.387  32.624  1.00  0.00     0.060 A 
BRANCH  70  71
ATOM     71  S   UNL A   1      43.730  37.048  33.319  1.00  0.00     0.124 S 
ATOM     72  O   UNL A   1      42.535  37.104  34.157  1.00  0.00    -0.237 OA
ATOM     73  O   UNL A   1      45.001  36.997  34.034  1.00  0.00    -0.237 OA
ATOM     74  O   UNL A   1      43.712  37.911  32.142  1.00  0.00    -0.744 OA
ENDBRANCH  70  71
ENDBRANCH  49  63
BRANCH  50  75
ATOM     75  C   UNL A   1      42.573  23.632  27.702  1.00  0.00     0.058 A 
ATOM     76  C   UNL A   1      42.363  22.518  28.526  1.00  0.00     0.135 A 
ATOM     77  C   UNL A   1      42.673  23.413  26.319  1.00  0.00     0.135 A 
ATOM     78  F   UNL A   1      42.278  22.674  29.856  1.00  0.00    -0.206 F 
ATOM     79  C   UNL A   1      42.267  21.231  28.003  1.00  0.00     0.059 A 
ATOM     80  C   UNL A   1      42.559  22.140  25.770  1.00  0.00     0.059 A 
ATOM     81  F   UNL A   1      42.871  24.447  25.487  1.00  0.00    -0.206 F 
ATOM     82  C   UNL A   1      42.367  21.053  26.622  1.00  0.00     0.060 A 
BRANCH  82  83
ATOM     83  S   UNL A   1      42.202  19.388  25.939  1.00  0.00     0.124 S 
ATOM     84  O   UNL A   1      40.762  19.300  25.724  1.00  0.00    -0.237 OA
ATOM     85  O   UNL A   1      43.022  19.460  24.734  1.00  0.00    -0.237 OA
ATOM     86  O   UNL A   1      42.735  18.538  26.998  1.00  0.00    -0.744 OA
ENDBRANCH  82  83
ENDBRANCH  50  75
BRANCH  62  87
ATOM     87  C   UNL A   1      47.850  27.153  30.578  1.00  0.00     0.058 A 
ATOM     88  C   UNL A   1      48.219  26.475  31.750  1.00  0.00     0.135 A 
ATOM     89  C   UNL A   1      48.857  27.458  29.650  1.00  0.00     0.135 A 
ATOM     90  F   UNL A   1      47.293  26.164  32.670  1.00  0.00    -0.206 F 
ATOM     91  C   UNL A   1      49.544  26.138  32.006  1.00  0.00     0.059 A 
ATOM     92  C   UNL A   1      50.186  27.113  29.876  1.00  0.00     0.059 A 
ATOM     93  F   UNL A   1      48.554  28.096  28.508  1.00  0.00    -0.206 F 
ATOM     94  C   UNL A   1      50.522  26.466  31.066  1.00  0.00     0.060 A 
BRANCH  94  95
ATOM     95  S   UNL A   1      52.238  26.015  31.398  1.00  0.00     0.124 S 
ATOM     96  O   UNL A   1      52.825  26.088  30.064  1.00  0.00    -0.237 OA
ATOM     97  O   UNL A   1      52.664  27.051  32.335  1.00  0.00    -0.237 OA
ATOM     98  O   UNL A   1      52.131  24.674  31.966  1.00  0.00    -0.744 OA
ENDBRANCH  94  95
ENDBRANCH  62  87
ENDBRANCH  36  37
ENDBRANCH  29  31
ENDBRANCH  28  29
ENDBRANCH  27  28
ENDBRANCH   1  27
TORSDOF 17
ENDMDL
MODEL 2
REMARK VINA RESULT:     -11.5      4.674     10.414
REMARK SMILES COc1cc(C(=O)NC2(C(=O)OCCOC(=O)c3ccc(-c4c5nc(c(-c6c(F)cc(S(=O)(=O)[O-])cc6F)c6ccc([nH]6)c(-c6c(F)cc(S(=O)(=O)[O-])cc6F)c6nc(c(-c7c(F)cc(S(=O)(=O)[O-])cc7F)c7ccc4[nH]7)C=C6)C=C5)cc3)CCCCC2)cc2c1OCCO2
REMARK SMILES IDX 13 1 12 2 10 3 11 4 9 5 84 6 88 7 85 8 87 9 86 10 8 11 6 12
REMARK SMILES IDX 7 13 5 15 3 16 4 17 91 18 90 19 92 20 89 21 95 22 93 23
REMARK SMILES IDX 94 24 2 25 1 26 14 27 15 28 16 29 17 30 18 31 19 32 83 33
REMARK SMILES IDX 20 34 82 35 21 36 22 37 23 38 76 39 24 40 81 41 75 42 77 43
REMARK SMILES IDX 25 44 80 45 74 46 73 47 26 49 60 50 39 51 59 52 40 53 43 54
REMARK SMILES IDX 58 55 78 56 41 57 42 58 57 60 79 61 44 62 27 63 28 64 37 65
REMARK SMILES IDX 29 66 30 67 36 68 38 69 31 70 32 71 33 72 34 73 35 74 61 75
REMARK SMILES IDX 62 76 71 77 63 78 64 79 70 80 72 81 65 82 66 83 67 84 68 85
REMARK SMILES IDX 69 86 45 87 46 88 55 89 47 90 48 91 54 92 56 93 49 94 50 95
REMARK SMILES IDX 51 96 52 97 53 98
REMARK H PARENT 8 14 77 48 43 59
REMARK Flexibility Score: inf
ROOT
ATOM      1  C   UNL A   1      36.569  23.600  26.087  1.00  0.00     0.274 C 
ENDROOT
BRANCH   1   2
ATOM      2  O   UNL A   1      35.556  24.198  25.246  1.00  0.00    -0.460 OA
BRANCH   2   3
ATOM      3  C   UNL A   1      35.073  23.385  24.271  1.00  0.00     0.331 C 
ATOM      4  O   UNL A   1      35.771  22.535  23.727  1.00  0.00    -0.249 OA
BRANCH   3   5
ATOM      5  C   UNL A   1      33.573  23.649  23.888  1.00  0.00     0.138 C 
ATOM      6  C   UNL A   1      32.618  24.272  24.926  1.00  0.00     0.040 C 
ATOM      7  C   UNL A   1      32.940  22.299  23.435  1.00  0.00     0.040 C 
ATOM      8  C   UNL A   1      32.308  23.371  26.109  1.00  0.00     0.003 C 
ATOM      9  C   UNL A   1      32.517  21.370  24.582  1.00  0.00     0.003 C 
ATOM     10  C   UNL A   1      31.679  22.069  25.645  1.00  0.00     0.000 C 
BRANCH   5  11
ATOM     11  N   UNL A   1      33.639  24.549  22.695  1.00  0.00    -0.336 N 
ATOM     12  C   UNL A   1      33.462  25.895  22.458  1.00  0.00     0.252 C 
ATOM     13  O   UNL A   1      33.683  26.250  21.297  1.00  0.00    -0.269 OA
ATOM     14  H   UNL A   1      33.864  24.057  21.873  1.00  0.00     0.165 HD
BRANCH  12  15
ATOM     15  C   UNL A   1      32.987  26.930  23.437  1.00  0.00     0.047 A 
ATOM     16  C   UNL A   1      31.490  28.681  24.235  1.00  0.00     0.165 A 
ATOM     17  C   UNL A   1      31.761  27.593  23.403  1.00  0.00     0.064 A 
ATOM     18  C   UNL A   1      32.386  29.050  25.228  1.00  0.00     0.203 A 
ATOM     19  C   UNL A   1      33.559  28.304  25.374  1.00  0.00     0.166 A 
ATOM     20  O   UNL A   1      32.071  30.123  26.021  1.00  0.00    -0.483 OA
ATOM     21  C   UNL A   1      33.871  27.280  24.473  1.00  0.00     0.064 A 
ATOM     22  O   UNL A   1      34.470  28.544  26.372  1.00  0.00    -0.486 OA
ATOM     23  C   UNL A   1      33.191  30.544  26.806  1.00  0.00     0.271 C 
ATOM     24  C   UNL A   1      33.896  29.343  27.413  1.00  0.00     0.271 C 
BRANCH  16  25
ATOM     25  O   UNL A   1      30.311  29.347  24.013  1.00  0.00    -0.493 OA
ATOM     26  C   UNL A   1      29.930  29.220  22.641  1.00  0.00     0.278 C 
ENDBRANCH  16  25
ENDBRANCH  12  15
ENDBRANCH   5  11
ENDBRANCH   3   5
ENDBRANCH   2   3
ENDBRANCH   1   2
BRANCH   1  27
ATOM     27  C   UNL A   1      38.009  23.936  25.665  1.00  0.00     0.275 C 
BRANCH  27  28
ATOM     28  O   UNL A   1      38.894  24.129  26.787  1.00  0.00    -0.458 OA
BRANCH  28  29
ATOM     29  C   UNL A   1      39.890  25.019  26.585  1.00  0.00     0.338 C 
ATOM     30  O   UNL A   1      40.462  25.239  25.521  1.00  0.00    -0.246 OA
BRANCH  29  31
ATOM     31  C   UNL A   1      40.125  25.846  27.781  1.00  0.00     0.060 A 
ATOM     32  C   UNL A   1      39.211  25.716  28.827  1.00  0.00     0.016 A 
ATOM     33  C   UNL A   1      41.119  26.826  27.842  1.00  0.00     0.016 A 
ATOM     34  C   UNL A   1      39.254  26.567  29.925  1.00  0.00     0.010 A 
ATOM     35  C   UNL A   1      41.160  27.693  28.946  1.00  0.00     0.010 A 
ATOM     36  C   UNL A   1      40.208  27.588  29.979  1.00  0.00    -0.014 A 
BRANCH  36  37
ATOM     37  C   UNL A   1      40.090  28.608  31.053  1.00  0.00     0.031 A 
ATOM     38  C   UNL A   1      41.045  28.567  32.216  1.00  0.00     0.074 A 
ATOM     39  C   UNL A   1      39.218  29.629  30.938  1.00  0.00     0.049 A 
ATOM     40  N   UNL A   1      41.122  29.357  33.256  1.00  0.00    -0.248 NA
ATOM     41  C   UNL A   1      42.053  27.495  32.202  1.00  0.00     0.031 C 
ATOM     42  C   UNL A   1      38.295  29.828  29.821  1.00  0.00     0.029 A 
ATOM     43  N   UNL A   1      38.986  30.702  31.761  1.00  0.00    -0.354 N 
ATOM     44  C   UNL A   1      42.170  28.869  34.028  1.00  0.00     0.074 A 
ATOM     45  C   UNL A   1      42.691  27.704  33.344  1.00  0.00     0.031 C 
ATOM     46  C   UNL A   1      37.604  30.962  30.023  1.00  0.00     0.029 A 
ATOM     47  C   UNL A   1      38.011  31.553  31.296  1.00  0.00     0.049 A 
ATOM     48  H   UNL A   1      39.470  30.848  32.606  1.00  0.00     0.167 HD
ATOM     49  C   UNL A   1      42.658  29.348  35.198  1.00  0.00     0.037 A 
ATOM     50  C   UNL A   1      37.498  32.674  31.839  1.00  0.00     0.037 A 
ATOM     51  C   UNL A   1      42.158  30.519  35.867  1.00  0.00     0.049 A 
ATOM     52  C   UNL A   1      38.030  33.165  33.159  1.00  0.00     0.074 A 
ATOM     53  C   UNL A   1      42.574  31.073  37.066  1.00  0.00     0.029 A 
ATOM     54  N   UNL A   1      41.138  31.328  35.387  1.00  0.00    -0.354 N 
ATOM     55  N   UNL A   1      38.990  32.664  33.902  1.00  0.00    -0.248 NA
ATOM     56  C   UNL A   1      37.406  34.372  33.720  1.00  0.00     0.031 C 
ATOM     57  C   UNL A   1      41.786  32.202  37.325  1.00  0.00     0.029 A 
ATOM     58  C   UNL A   1      40.903  32.369  36.270  1.00  0.00     0.049 A 
ATOM     59  H   UNL A   1      40.652  31.183  34.544  1.00  0.00     0.167 HD
ATOM     60  C   UNL A   1      39.091  33.499  35.009  1.00  0.00     0.074 A 
ATOM     61  C   UNL A   1      38.108  34.548  34.831  1.00  0.00     0.031 C 
ATOM     62  C   UNL A   1      39.918  33.403  36.079  1.00  0.00     0.037 A 
BRANCH  49  63
ATOM     63  C   UNL A   1      43.772  28.573  35.843  1.00  0.00     0.058 A 
ATOM     64  C   UNL A   1      45.121  28.870  35.595  1.00  0.00     0.135 A 
ATOM     65  C   UNL A   1      43.482  27.518  36.722  1.00  0.00     0.135 A 
ATOM     66  F   UNL A   1      45.452  29.857  34.747  1.00  0.00    -0.206 F 
ATOM     67  C   UNL A   1      46.146  28.126  36.173  1.00  0.00     0.059 A 
ATOM     68  C   UNL A   1      44.491  26.773  37.327  1.00  0.00     0.059 A 
ATOM     69  F   UNL A   1      42.209  27.192  36.991  1.00  0.00    -0.206 F 
ATOM     70  C   UNL A   1      45.821  27.074  37.031  1.00  0.00     0.060 A 
BRANCH  70  71
ATOM     71  S   UNL A   1      47.155  26.101  37.760  1.00  0.00     0.124 S 
ATOM     72  O   UNL A   1      46.416  25.234  38.673  1.00  0.00    -0.237 OA
ATOM     73  O   UNL A   1      47.741  25.442  36.597  1.00  0.00    -0.237 OA
ATOM     74  O   UNL A   1      47.999  27.108  38.396  1.00  0.00    -0.744 OA
ENDBRANCH  70  71
ENDBRANCH  49  63
BRANCH  50  75
ATOM     75  C   UNL A   1      36.400  33.401  31.148  1.00  0.00     0.058 A 
ATOM     76  C   UNL A   1      35.088  33.377  31.641  1.00  0.00     0.135 A 
ATOM     77  C   UNL A   1      36.645  34.130  29.974  1.00  0.00     0.135 A 
ATOM     78  F   UNL A   1      34.800  32.680  32.751  1.00  0.00    -0.206 F 
ATOM     79  C   UNL A   1      34.052  34.040  30.989  1.00  0.00     0.059 A 
ATOM     80  C   UNL A   1      35.631  34.818  29.316  1.00  0.00     0.059 A 
ATOM     81  F   UNL A   1      37.885  34.187  29.464  1.00  0.00    -0.206 F 
ATOM     82  C   UNL A   1      34.335  34.759  29.825  1.00  0.00     0.060 A 
BRANCH  82  83
ATOM     83  S   UNL A   1      32.999  35.653  29.001  1.00  0.00     0.124 S 
ATOM     84  O   UNL A   1      32.213  36.120  30.138  1.00  0.00    -0.237 OA
ATOM     85  O   UNL A   1      33.720  36.681  28.259  1.00  0.00    -0.237 OA
ATOM     86  O   UNL A   1      32.367  34.626  28.177  1.00  0.00    -0.744 OA
ENDBRANCH  82  83
ENDBRANCH  50  75
BRANCH  62  87
ATOM     87  C   UNL A   1      39.799  34.469  37.133  1.00  0.00     0.058 A 
ATOM     88  C   UNL A   1      38.986  34.294  38.263  1.00  0.00     0.135 A 
ATOM     89  C   UNL A   1      40.524  35.665  37.023  1.00  0.00     0.135 A 
ATOM     90  F   UNL A   1      38.270  33.169  38.413  1.00  0.00    -0.206 F 
ATOM     91  C   UNL A   1      38.872  35.282  39.235  1.00  0.00     0.059 A 
ATOM     92  C   UNL A   1      40.442  36.659  37.993  1.00  0.00     0.059 A 
ATOM     93  F   UNL A   1      41.325  35.876  35.966  1.00  0.00    -0.206 F 
ATOM     94  C   UNL A   1      39.600  36.465  39.089  1.00  0.00     0.060 A 
BRANCH  94  95
ATOM     95  S   UNL A   1      39.458  37.739  40.360  1.00  0.00     0.124 S 
ATOM     96  O   UNL A   1      38.360  38.549  39.843  1.00  0.00    -0.237 OA
ATOM     97  O   UNL A   1      39.162  36.961  41.559  1.00  0.00    -0.237 OA
ATOM     98  O   UNL A   1      40.771  38.378  40.345  1.00  0.00    -0.744 OA
ENDBRANCH  94  95
ENDBRANCH  62  87
ENDBRANCH  36  37
ENDBRANCH  29  31
ENDBRANCH  28  29
ENDBRANCH  27  28
ENDBRANCH   1  27
TORSDOF 17
ENDMDL
MODEL 3
REMARK VINA RESULT:     -11.5      2.902      9.311
REMARK SMILES COc1cc(C(=O)NC2(C(=O)OCCOC(=O)c3ccc(-c4c5nc(c(-c6c(F)cc(S(=O)(=O)[O-])cc6F)c6ccc([nH]6)c(-c6c(F)cc(S(=O)(=O)[O-])cc6F)c6nc(c(-c7c(F)cc(S(=O)(=O)[O-])cc7F)c7ccc4[nH]7)C=C6)C=C5)cc3)CCCCC2)cc2c1OCCO2
REMARK SMILES IDX 13 1 12 2 10 3 11 4 9 5 84 6 88 7 85 8 87 9 86 10 8 11 6 12
REMARK SMILES IDX 7 13 5 15 3 16 4 17 91 18 90 19 92 20 89 21 95 22 93 23
REMARK SMILES IDX 94 24 2 25 1 26 14 27 15 28 16 29 17 30 18 31 19 32 83 33
REMARK SMILES IDX 20 34 82 35 21 36 22 37 23 38 76 39 24 40 81 41 75 42 77 43
REMARK SMILES IDX 25 44 80 45 74 46 73 47 26 49 60 50 39 51 59 52 40 53 43 54
REMARK SMILES IDX 58 55 78 56 41 57 42 58 57 60 79 61 44 62 27 63 28 64 37 65
REMARK SMILES IDX 29 66 30 67 36 68 38 69 31 70 32 71 33 72 34 73 35 74 61 75
REMARK SMILES IDX 62 76 71 77 63 78 64 79 70 80 72 81 65 82 66 83 67 84 68 85
REMARK SMILES IDX 69 86 45 87 46 88 55 89 47 90 48 91 54 92 56 93 49 94 50 95
REMARK SMILES IDX 51 96 52 97 53 98
REMARK H PARENT 8 14 77 48 43 59
REMARK Flexibility Score: inf
ROOT
ATOM      1  C   UNL A   1      36.074  20.710  25.303  1.00  0.00     0.274 C 
ENDROOT
BRANCH   1   2
ATOM      2  O   UNL A   1      35.340  21.598  26.177  1.00  0.00    -0.460 OA
BRANCH   2   3
ATOM      3  C   UNL A   1      33.990  21.553  26.030  1.00  0.00     0.331 C 
ATOM      4  O   UNL A   1      33.342  20.539  26.273  1.00  0.00    -0.249 OA
BRANCH   3   5
ATOM      5  C   UNL A   1      33.348  22.885  25.501  1.00  0.00     0.138 C 
ATOM      6  C   UNL A   1      33.000  23.023  24.006  1.00  0.00     0.040 C 
ATOM      7  C   UNL A   1      34.304  24.063  25.859  1.00  0.00     0.040 C 
ATOM      8  C   UNL A   1      34.208  23.068  23.085  1.00  0.00     0.003 C 
ATOM      9  C   UNL A   1      35.504  24.228  24.916  1.00  0.00     0.003 C 
ATOM     10  C   UNL A   1      35.115  24.232  23.443  1.00  0.00     0.000 C 
BRANCH   5  11
ATOM     11  N   UNL A   1      32.096  23.048  26.303  1.00  0.00    -0.336 N 
ATOM     12  C   UNL A   1      31.172  24.050  26.503  1.00  0.00     0.252 C 
ATOM     13  O   UNL A   1      30.216  23.737  27.219  1.00  0.00    -0.269 OA
ATOM     14  H   UNL A   1      31.878  22.237  26.816  1.00  0.00     0.165 HD
BRANCH  12  15
ATOM     15  C   UNL A   1      31.244  25.461  25.995  1.00  0.00     0.047 A 
ATOM     16  C   UNL A   1      31.706  27.848  26.184  1.00  0.00     0.165 A 
ATOM     17  C   UNL A   1      31.864  26.535  26.634  1.00  0.00     0.064 A 
ATOM     18  C   UNL A   1      31.038  28.112  24.998  1.00  0.00     0.203 A 
ATOM     19  C   UNL A   1      30.534  27.033  24.265  1.00  0.00     0.166 A 
ATOM     20  O   UNL A   1      30.914  29.417  24.598  1.00  0.00    -0.483 OA
ATOM     21  C   UNL A   1      30.606  25.731  24.771  1.00  0.00     0.064 A 
ATOM     22  O   UNL A   1      29.925  27.186  23.045  1.00  0.00    -0.486 OA
ATOM     23  C   UNL A   1      29.985  29.552  23.518  1.00  0.00     0.271 C 
ATOM     24  C   UNL A   1      30.219  28.469  22.479  1.00  0.00     0.271 C 
BRANCH  16  25
ATOM     25  O   UNL A   1      32.239  28.836  26.973  1.00  0.00    -0.493 OA
ATOM     26  C   UNL A   1      33.662  28.716  27.011  1.00  0.00     0.278 C 
ENDBRANCH  16  25
ENDBRANCH  12  15
ENDBRANCH   5  11
ENDBRANCH   3   5
ENDBRANCH   2   3
ENDBRANCH   1   2
BRANCH   1  27
ATOM     27  C   UNL A   1      37.506  21.177  24.999  1.00  0.00     0.275 C 
BRANCH  27  28
ATOM     28  O   UNL A   1      37.955  22.229  25.877  1.00  0.00    -0.458 OA
BRANCH  28  29
ATOM     29  C   UNL A   1      39.261  22.175  26.216  1.00  0.00     0.338 C 
ATOM     30  O   UNL A   1      40.069  21.323  25.858  1.00  0.00    -0.246 OA
BRANCH  29  31
ATOM     31  C   UNL A   1      39.675  23.376  26.962  1.00  0.00     0.060 A 
ATOM     32  C   UNL A   1      39.176  24.600  26.513  1.00  0.00     0.016 A 
ATOM     33  C   UNL A   1      40.630  23.345  27.980  1.00  0.00     0.016 A 
ATOM     34  C   UNL A   1      39.635  25.799  27.046  1.00  0.00     0.010 A 
ATOM     35  C   UNL A   1      41.102  24.555  28.516  1.00  0.00     0.010 A 
ATOM     36  C   UNL A   1      40.629  25.789  28.029  1.00  0.00    -0.014 A 
BRANCH  36  37
ATOM     37  C   UNL A   1      41.248  27.083  28.419  1.00  0.00     0.031 A 
ATOM     38  C   UNL A   1      42.721  27.295  28.184  1.00  0.00     0.074 A 
ATOM     39  C   UNL A   1      40.489  28.099  28.871  1.00  0.00     0.049 A 
ATOM     40  N   UNL A   1      43.461  28.342  28.444  1.00  0.00    -0.248 NA
ATOM     41  C   UNL A   1      43.456  26.180  27.566  1.00  0.00     0.031 C 
ATOM     42  C   UNL A   1      39.040  28.048  29.066  1.00  0.00     0.029 A 
ATOM     43  N   UNL A   1      40.830  29.381  29.224  1.00  0.00    -0.354 N 
ATOM     44  C   UNL A   1      44.749  28.007  28.042  1.00  0.00     0.074 A 
ATOM     45  C   UNL A   1      44.693  26.653  27.532  1.00  0.00     0.031 C 
ATOM     46  C   UNL A   1      38.614  29.248  29.492  1.00  0.00     0.029 A 
ATOM     47  C   UNL A   1      39.761  30.143  29.631  1.00  0.00     0.049 A 
ATOM     48  H   UNL A   1      41.753  29.722  29.190  1.00  0.00     0.167 HD
ATOM     49  C   UNL A   1      45.875  28.759  28.087  1.00  0.00     0.037 A 
ATOM     50  C   UNL A   1      39.714  31.415  30.075  1.00  0.00     0.037 A 
ATOM     51  C   UNL A   1      45.929  30.113  28.570  1.00  0.00     0.049 A 
ATOM     52  C   UNL A   1      40.985  32.217  30.154  1.00  0.00     0.074 A 
ATOM     53  C   UNL A   1      47.026  30.951  28.675  1.00  0.00     0.029 A 
ATOM     54  N   UNL A   1      44.832  30.835  29.019  1.00  0.00    -0.354 N 
ATOM     55  N   UNL A   1      42.205  31.869  29.814  1.00  0.00    -0.248 NA
ATOM     56  C   UNL A   1      40.876  33.585  30.682  1.00  0.00     0.031 C 
ATOM     57  C   UNL A   1      46.597  32.171  29.212  1.00  0.00     0.029 A 
ATOM     58  C   UNL A   1      45.228  32.104  29.411  1.00  0.00     0.049 A 
ATOM     59  H   UNL A   1      43.908  30.496  29.054  1.00  0.00     0.167 HD
ATOM     60  C   UNL A   1      43.003  32.977  30.078  1.00  0.00     0.074 A 
ATOM     61  C   UNL A   1      42.128  34.012  30.587  1.00  0.00     0.031 C 
ATOM     62  C   UNL A   1      44.343  33.121  29.918  1.00  0.00     0.037 A 
BRANCH  49  63
ATOM     63  C   UNL A   1      47.151  28.108  27.632  1.00  0.00     0.058 A 
ATOM     64  C   UNL A   1      47.990  27.421  28.523  1.00  0.00     0.135 A 
ATOM     65  C   UNL A   1      47.538  28.178  26.285  1.00  0.00     0.135 A 
ATOM     66  F   UNL A   1      47.675  27.342  29.825  1.00  0.00    -0.206 F 
ATOM     67  C   UNL A   1      49.186  26.849  28.097  1.00  0.00     0.059 A 
ATOM     68  C   UNL A   1      48.720  27.597  25.834  1.00  0.00     0.059 A 
ATOM     69  F   UNL A   1      46.773  28.826  25.394  1.00  0.00    -0.206 F 
ATOM     70  C   UNL A   1      49.547  26.950  26.753  1.00  0.00     0.060 A 
BRANCH  70  71
ATOM     71  S   UNL A   1      51.109  26.223  26.214  1.00  0.00     0.124 S 
ATOM     72  O   UNL A   1      52.076  27.121  26.838  1.00  0.00    -0.237 OA
ATOM     73  O   UNL A   1      51.043  24.877  26.773  1.00  0.00    -0.237 OA
ATOM     74  O   UNL A   1      51.033  26.297  24.758  1.00  0.00    -0.744 OA
ENDBRANCH  70  71
ENDBRANCH  49  63
BRANCH  50  75
ATOM     75  C   UNL A   1      38.418  32.005  30.506  1.00  0.00     0.058 A 
ATOM     76  C   UNL A   1      37.697  32.868  29.669  1.00  0.00     0.135 A 
ATOM     77  C   UNL A   1      37.881  31.718  31.770  1.00  0.00     0.135 A 
ATOM     78  F   UNL A   1      38.177  33.185  28.458  1.00  0.00    -0.206 F 
ATOM     79  C   UNL A   1      36.493  33.437  30.074  1.00  0.00     0.059 A 
ATOM     80  C   UNL A   1      36.670  32.258  32.189  1.00  0.00     0.059 A 
ATOM     81  F   UNL A   1      38.532  30.895  32.607  1.00  0.00    -0.206 F 
ATOM     82  C   UNL A   1      35.988  33.126  31.338  1.00  0.00     0.060 A 
BRANCH  82  83
ATOM     83  S   UNL A   1      34.405  33.834  31.848  1.00  0.00     0.124 S 
ATOM     84  O   UNL A   1      33.770  34.091  30.560  1.00  0.00    -0.237 OA
ATOM     85  O   UNL A   1      33.821  32.758  32.642  1.00  0.00    -0.237 OA
ATOM     86  O   UNL A   1      34.797  35.018  32.605  1.00  0.00    -0.744 OA
ENDBRANCH  82  83
ENDBRANCH  50  75
BRANCH  62  87
ATOM     87  C   UNL A   1      44.936  34.452  30.288  1.00  0.00     0.058 A 
ATOM     88  C   UNL A   1      45.032  35.495  29.355  1.00  0.00     0.135 A 
ATOM     89  C   UNL A   1      45.389  34.694  31.594  1.00  0.00     0.135 A 
ATOM     90  F   UNL A   1      44.617  35.313  28.092  1.00  0.00    -0.206 F 
ATOM     91  C   UNL A   1      45.586  36.725  29.696  1.00  0.00     0.059 A 
ATOM     92  C   UNL A   1      45.927  35.923  31.963  1.00  0.00     0.059 A 
ATOM     93  F   UNL A   1      45.308  33.732  32.528  1.00  0.00    -0.206 F 
ATOM     94  C   UNL A   1      46.036  36.928  31.002  1.00  0.00     0.060 A 
BRANCH  94  95
ATOM     95  S   UNL A   1      46.742  38.530  31.442  1.00  0.00     0.124 S 
ATOM     96  O   UNL A   1      47.630  38.168  32.542  1.00  0.00    -0.237 OA
ATOM     97  O   UNL A   1      47.400  38.939  30.205  1.00  0.00    -0.237 OA
ATOM     98  O   UNL A   1      45.574  39.323  31.812  1.00  0.00    -0.744 OA
ENDBRANCH  94  95
ENDBRANCH  62  87
ENDBRANCH  36  37
ENDBRANCH  29  31
ENDBRANCH  28  29
ENDBRANCH  27  28
ENDBRANCH   1  27
TORSDOF 17
ENDMDL
