MODEL 1
REMARK VINA RESULT:     -13.2      0.000      0.000
REMARK SMILES O=C(OCCOC(=O)[C@H](c1ccccc1)N1C(=O)/C(=C/c2ccc(-c3nc4ccccc4s3)o2)SC1=S)c1ccc(-c2c3nc(c(-c4c(F)cc(S(=O)(=O)[O-])cc4F)c4ccc([nH]4)c(-c4c(F)cc(S(=O)(=O)[O-])cc4F)c4nc(c(-c5c(F)cc(S(=O)(=O)[O-])cc5F)c5ccc2[nH]5)C=C4)C=C3)cc1
REMARK SMILES IDX 4 1 3 2 2 3 1 4 38 5 39 6 103 7 40 8 102 9 41 10 42 11 43 12
REMARK SMILES IDX 96 13 44 14 101 15 95 16 97 17 45 18 100 19 94 20 93 21
REMARK SMILES IDX 46 23 80 24 59 25 79 26 60 27 63 28 78 29 98 30 61 31 62 32
REMARK SMILES IDX 77 34 99 35 64 36 47 37 48 38 57 39 49 40 50 41 56 42 58 43
REMARK SMILES IDX 51 44 52 45 53 46 54 47 55 48 81 49 82 50 91 51 83 52 84 53
REMARK SMILES IDX 90 54 92 55 85 56 86 57 87 58 88 59 89 60 65 61 66 62 75 63
REMARK SMILES IDX 67 64 68 65 74 66 76 67 69 68 70 69 71 70 72 71 73 72 5 73
REMARK SMILES IDX 6 74 7 75 8 76 9 77 16 78 17 79 36 80 18 81 19 82 35 83
REMARK SMILES IDX 37 84 20 85 21 86 22 87 34 88 23 89 24 90 25 91 26 92 33 93
REMARK SMILES IDX 27 94 32 95 28 96 31 97 29 98 30 99 10 100 11 101 15 102
REMARK SMILES IDX 12 103 14 104 13 105
REMARK H PARENT 97 22 63 33
REMARK Flexibility Score: inf
ROOT
ATOM      1  C   UNL A   1      34.783  30.005  27.669  1.00  0.00     0.275 C 
ENDROOT
BRANCH   1   2
ATOM      2  O   UNL A   1      35.369  30.995  28.533  1.00  0.00    -0.458 OA
BRANCH   2   3
ATOM      3  C   UNL A   1      36.273  30.856  29.531  1.00  0.00     0.338 C 
ATOM      4  O   UNL A   1      35.997  31.339  30.628  1.00  0.00    -0.246 OA
BRANCH   3   5
ATOM      5  C   UNL A   1      37.632  30.236  29.368  1.00  0.00     0.060 A 
ATOM      6  C   UNL A   1      38.534  29.906  30.388  1.00  0.00     0.016 A 
ATOM      7  C   UNL A   1      38.033  29.986  28.047  1.00  0.00     0.016 A 
ATOM      8  C   UNL A   1      39.752  29.265  30.112  1.00  0.00     0.010 A 
ATOM      9  C   UNL A   1      39.258  29.372  27.764  1.00  0.00     0.010 A 
ATOM     10  C   UNL A   1      40.124  28.997  28.796  1.00  0.00    -0.014 A 
BRANCH  10  11
ATOM     11  C   UNL A   1      41.500  28.555  28.466  1.00  0.00     0.031 A 
ATOM     12  C   UNL A   1      42.570  29.610  28.460  1.00  0.00     0.074 A 
ATOM     13  C   UNL A   1      41.790  27.279  28.153  1.00  0.00     0.049 A 
ATOM     14  N   UNL A   1      43.819  29.529  28.093  1.00  0.00    -0.248 NA
ATOM     15  C   UNL A   1      42.153  30.953  28.899  1.00  0.00     0.031 C 
ATOM     16  C   UNL A   1      40.839  26.167  28.132  1.00  0.00     0.029 A 
ATOM     17  N   UNL A   1      42.979  26.704  27.777  1.00  0.00    -0.354 N 
ATOM     18  C   UNL A   1      44.323  30.819  28.216  1.00  0.00     0.074 A 
ATOM     19  C   UNL A   1      43.234  31.667  28.645  1.00  0.00     0.031 C 
ATOM     20  C   UNL A   1      41.482  25.046  27.755  1.00  0.00     0.029 A 
ATOM     21  C   UNL A   1      42.886  25.361  27.493  1.00  0.00     0.049 A 
ATOM     22  H   UNL A   1      43.823  27.208  27.717  1.00  0.00     0.167 HD
ATOM     23  C   UNL A   1      45.587  31.258  28.012  1.00  0.00     0.037 A 
ATOM     24  C   UNL A   1      43.830  24.495  27.067  1.00  0.00     0.037 A 
ATOM     25  C   UNL A   1      46.667  30.402  27.617  1.00  0.00     0.049 A 
ATOM     26  C   UNL A   1      45.241  24.993  26.869  1.00  0.00     0.074 A 
ATOM     27  C   UNL A   1      47.990  30.728  27.391  1.00  0.00     0.029 A 
ATOM     28  N   UNL A   1      46.540  29.037  27.397  1.00  0.00    -0.354 N 
ATOM     29  N   UNL A   1      45.713  26.210  27.016  1.00  0.00    -0.248 NA
ATOM     30  C   UNL A   1      46.251  24.006  26.458  1.00  0.00     0.031 C 
ATOM     31  C   UNL A   1      48.663  29.559  27.017  1.00  0.00     0.029 A 
ATOM     32  C   UNL A   1      47.764  28.502  27.046  1.00  0.00     0.049 A 
ATOM     33  H   UNL A   1      45.703  28.527  27.481  1.00  0.00     0.167 HD
ATOM     34  C   UNL A   1      47.077  26.127  26.752  1.00  0.00     0.074 A 
ATOM     35  C   UNL A   1      47.355  24.743  26.432  1.00  0.00     0.031 C 
ATOM     36  C   UNL A   1      48.015  27.107  26.775  1.00  0.00     0.037 A 
BRANCH  23  37
ATOM     37  C   UNL A   1      45.819  32.731  28.195  1.00  0.00     0.058 A 
ATOM     38  C   UNL A   1      46.167  33.269  29.445  1.00  0.00     0.135 A 
ATOM     39  C   UNL A   1      45.586  33.622  27.138  1.00  0.00     0.135 A 
ATOM     40  F   UNL A   1      46.375  32.459  30.497  1.00  0.00    -0.206 F 
ATOM     41  C   UNL A   1      46.199  34.642  29.659  1.00  0.00     0.059 A 
ATOM     42  C   UNL A   1      45.644  35.000  27.322  1.00  0.00     0.059 A 
ATOM     43  F   UNL A   1      45.252  33.160  25.923  1.00  0.00    -0.206 F 
ATOM     44  C   UNL A   1      45.915  35.499  28.596  1.00  0.00     0.060 A 
BRANCH  44  45
ATOM     45  S   UNL A   1      45.865  37.276  28.904  1.00  0.00     0.124 S 
ATOM     46  O   UNL A   1      45.444  37.783  27.601  1.00  0.00    -0.237 OA
ATOM     47  O   UNL A   1      44.877  37.384  29.973  1.00  0.00    -0.237 OA
ATOM     48  O   UNL A   1      47.237  37.592  29.290  1.00  0.00    -0.744 OA
ENDBRANCH  44  45
ENDBRANCH  23  37
BRANCH  24  49
ATOM     49  C   UNL A   1      43.482  23.065  26.835  1.00  0.00     0.058 A 
ATOM     50  C   UNL A   1      43.416  22.540  25.537  1.00  0.00     0.135 A 
ATOM     51  C   UNL A   1      43.229  22.191  27.903  1.00  0.00     0.135 A 
ATOM     52  F   UNL A   1      43.638  23.335  24.479  1.00  0.00    -0.206 F 
ATOM     53  C   UNL A   1      43.110  21.202  25.302  1.00  0.00     0.059 A 
ATOM     54  C   UNL A   1      42.940  20.843  27.697  1.00  0.00     0.059 A 
ATOM     55  F   UNL A   1      43.288  22.640  29.166  1.00  0.00    -0.206 F 
ATOM     56  C   UNL A   1      42.882  20.358  26.391  1.00  0.00     0.060 A 
BRANCH  56  57
ATOM     57  S   UNL A   1      42.570  18.605  26.077  1.00  0.00     0.124 S 
ATOM     58  O   UNL A   1      42.893  18.011  27.369  1.00  0.00    -0.237 OA
ATOM     59  O   UNL A   1      41.158  18.610  25.710  1.00  0.00    -0.237 OA
ATOM     60  O   UNL A   1      43.489  18.292  24.987  1.00  0.00    -0.744 OA
ENDBRANCH  56  57
ENDBRANCH  24  49
BRANCH  36  61
ATOM     61  C   UNL A   1      49.442  26.727  26.510  1.00  0.00     0.058 A 
ATOM     62  C   UNL A   1      50.241  26.132  27.496  1.00  0.00     0.135 A 
ATOM     63  C   UNL A   1      49.961  26.825  25.208  1.00  0.00     0.135 A 
ATOM     64  F   UNL A   1      49.789  26.021  28.756  1.00  0.00    -0.206 F 
ATOM     65  C   UNL A   1      51.504  25.631  27.198  1.00  0.00     0.059 A 
ATOM     66  C   UNL A   1      51.213  26.314  24.884  1.00  0.00     0.059 A 
ATOM     67  F   UNL A   1      49.229  27.379  24.230  1.00  0.00    -0.206 F 
ATOM     68  C   UNL A   1      51.975  25.715  25.886  1.00  0.00     0.060 A 
BRANCH  68  69
ATOM     69  S   UNL A   1      53.568  24.963  25.487  1.00  0.00     0.124 S 
ATOM     70  O   UNL A   1      53.944  25.694  24.282  1.00  0.00    -0.237 OA
ATOM     71  O   UNL A   1      54.359  25.255  26.678  1.00  0.00    -0.237 OA
ATOM     72  O   UNL A   1      53.240  23.555  25.291  1.00  0.00    -0.744 OA
ENDBRANCH  68  69
ENDBRANCH  36  61
ENDBRANCH  10  11
ENDBRANCH   3   5
ENDBRANCH   2   3
ENDBRANCH   1   2
BRANCH   1  73
ATOM     73  C   UNL A   1      33.526  30.492  26.956  1.00  0.00     0.274 C 
BRANCH  73  74
ATOM     74  O   UNL A   1      33.342  29.813  25.706  1.00  0.00    -0.460 OA
BRANCH  74  75
ATOM     75  C   UNL A   1      32.098  29.887  25.145  1.00  0.00     0.334 C 
ATOM     76  O   UNL A   1      31.183  30.573  25.579  1.00  0.00    -0.249 OA
BRANCH  75  77
ATOM     77  C   UNL A   1      31.977  28.905  23.929  1.00  0.00     0.232 C 
BRANCH  77  78
ATOM     78  N   UNL A   1      32.494  27.576  24.359  1.00  0.00    -0.274 N 
ATOM     79  C   UNL A   1      32.983  26.757  23.353  1.00  0.00     0.267 C 
ATOM     80  C   UNL A   1      32.247  26.896  25.540  1.00  0.00     0.149 C 
ATOM     81  O   UNL A   1      32.906  26.965  22.137  1.00  0.00    -0.268 OA
ATOM     82  C   UNL A   1      33.553  25.516  23.900  1.00  0.00     0.084 C 
ATOM     83  S   UNL A   1      33.134  25.377  25.550  1.00  0.00    -0.054 SA
ATOM     84  S   UNL A   1      31.282  27.237  26.850  1.00  0.00    -0.052 S 
ATOM     85  C   UNL A   1      34.291  24.677  23.163  1.00  0.00     0.068 C 
BRANCH  85  86
ATOM     86  C   UNL A   1      34.781  23.475  23.723  1.00  0.00     0.129 A 
ATOM     87  C   UNL A   1      36.093  23.143  24.021  1.00  0.00     0.051 A 
ATOM     88  O   UNL A   1      33.990  22.384  23.986  1.00  0.00    -0.454 OA
ATOM     89  C   UNL A   1      36.101  21.801  24.443  1.00  0.00     0.054 A 
ATOM     90  C   UNL A   1      34.793  21.354  24.404  1.00  0.00     0.163 A 
BRANCH  90  91
ATOM     91  C   UNL A   1      34.331  20.034  24.722  1.00  0.00     0.160 A 
ATOM     92  N   UNL A   1      35.121  18.991  24.597  1.00  0.00    -0.233 NA
ATOM     93  S   UNL A   1      32.729  19.700  25.231  1.00  0.00    -0.111 S 
ATOM     94  C   UNL A   1      34.426  17.837  24.881  1.00  0.00     0.082 A 
ATOM     95  C   UNL A   1      33.087  18.012  25.232  1.00  0.00     0.055 A 
ATOM     96  C   UNL A   1      34.959  16.535  24.831  1.00  0.00     0.030 A 
ATOM     97  C   UNL A   1      32.253  16.918  25.519  1.00  0.00     0.021 A 
ATOM     98  C   UNL A   1      34.141  15.441  25.117  1.00  0.00     0.002 A 
ATOM     99  C   UNL A   1      32.804  15.633  25.452  1.00  0.00     0.002 A 
ENDBRANCH  90  91
ENDBRANCH  85  86
ENDBRANCH  77  78
BRANCH  77 100
ATOM    100  C   UNL A   1      30.537  28.930  23.414  1.00  0.00    -0.014 A 
ATOM    101  C   UNL A   1      29.605  27.923  23.709  1.00  0.00     0.006 A 
ATOM    102  C   UNL A   1      30.110  29.987  22.590  1.00  0.00     0.006 A 
ATOM    103  C   UNL A   1      28.292  27.997  23.236  1.00  0.00     0.000 A 
ATOM    104  C   UNL A   1      28.802  30.060  22.110  1.00  0.00     0.000 A 
ATOM    105  C   UNL A   1      27.889  29.067  22.441  1.00  0.00     0.000 A 
ENDBRANCH  77 100
ENDBRANCH  75  77
ENDBRANCH  74  75
ENDBRANCH  73  74
ENDBRANCH   1  73
TORSDOF 18
ENDMDL
MODEL 2
REMARK VINA RESULT:     -12.9      0.713      7.775
REMARK SMILES O=C(OCCOC(=O)[C@H](c1ccccc1)N1C(=O)/C(=C/c2ccc(-c3nc4ccccc4s3)o2)SC1=S)c1ccc(-c2c3nc(c(-c4c(F)cc(S(=O)(=O)[O-])cc4F)c4ccc([nH]4)c(-c4c(F)cc(S(=O)(=O)[O-])cc4F)c4nc(c(-c5c(F)cc(S(=O)(=O)[O-])cc5F)c5ccc2[nH]5)C=C4)C=C3)cc1
REMARK SMILES IDX 4 1 3 2 2 3 1 4 38 5 39 6 103 7 40 8 102 9 41 10 42 11 43 12
REMARK SMILES IDX 96 13 44 14 101 15 95 16 97 17 45 18 100 19 94 20 93 21
REMARK SMILES IDX 46 23 80 24 59 25 79 26 60 27 63 28 78 29 98 30 61 31 62 32
REMARK SMILES IDX 77 34 99 35 64 36 47 37 48 38 57 39 49 40 50 41 56 42 58 43
REMARK SMILES IDX 51 44 52 45 53 46 54 47 55 48 81 49 82 50 91 51 83 52 84 53
REMARK SMILES IDX 90 54 92 55 85 56 86 57 87 58 88 59 89 60 65 61 66 62 75 63
REMARK SMILES IDX 67 64 68 65 74 66 76 67 69 68 70 69 71 70 72 71 73 72 5 73
REMARK SMILES IDX 6 74 7 75 8 76 9 77 16 78 17 79 36 80 18 81 19 82 35 83
REMARK SMILES IDX 37 84 20 85 21 86 22 87 34 88 23 89 24 90 25 91 26 92 33 93
REMARK SMILES IDX 27 94 32 95 28 96 31 97 29 98 30 99 10 100 11 101 15 102
REMARK SMILES IDX 12 103 14 104 13 105
REMARK H PARENT 97 22 63 33
REMARK Flexibility Score: inf
ROOT
ATOM      1  C   UNL A   1      35.262  30.473  27.543  1.00  0.00     0.275 C 
ENDROOT
BRANCH   1   2
ATOM      2  O   UNL A   1      35.454  30.986  28.872  1.00  0.00    -0.458 OA
BRANCH   2   3
ATOM      3  C   UNL A   1      36.279  30.563  29.859  1.00  0.00     0.338 C 
ATOM      4  O   UNL A   1      35.869  30.627  31.018  1.00  0.00    -0.246 OA
BRANCH   3   5
ATOM      5  C   UNL A   1      37.696  30.111  29.649  1.00  0.00     0.060 A 
ATOM      6  C   UNL A   1      38.621  29.752  30.638  1.00  0.00     0.016 A 
ATOM      7  C   UNL A   1      38.130  30.068  28.315  1.00  0.00     0.016 A 
ATOM      8  C   UNL A   1      39.901  29.279  30.310  1.00  0.00     0.010 A 
ATOM      9  C   UNL A   1      39.414  29.623  27.983  1.00  0.00     0.010 A 
ATOM     10  C   UNL A   1      40.308  29.214  28.978  1.00  0.00    -0.014 A 
BRANCH  10  11
ATOM     11  C   UNL A   1      41.724  28.960  28.625  1.00  0.00     0.031 A 
ATOM     12  C   UNL A   1      42.069  27.574  28.157  1.00  0.00     0.074 A 
ATOM     13  C   UNL A   1      42.677  29.903  28.742  1.00  0.00     0.049 A 
ATOM     14  N   UNL A   1      43.234  27.045  27.902  1.00  0.00    -0.248 NA
ATOM     15  C   UNL A   1      40.934  26.650  27.987  1.00  0.00     0.031 C 
ATOM     16  C   UNL A   1      42.462  31.283  29.179  1.00  0.00     0.029 A 
ATOM     17  N   UNL A   1      44.028  29.834  28.513  1.00  0.00    -0.354 N 
ATOM     18  C   UNL A   1      42.974  25.716  27.585  1.00  0.00     0.074 A 
ATOM     19  C   UNL A   1      41.551  25.511  27.727  1.00  0.00     0.031 C 
ATOM     20  C   UNL A   1      43.643  31.928  29.192  1.00  0.00     0.029 A 
ATOM     21  C   UNL A   1      44.700  31.005  28.782  1.00  0.00     0.049 A 
ATOM     22  H   UNL A   1      44.477  29.021  28.186  1.00  0.00     0.167 HD
ATOM     23  C   UNL A   1      43.841  24.755  27.191  1.00  0.00     0.037 A 
ATOM     24  C   UNL A   1      46.018  31.288  28.705  1.00  0.00     0.037 A 
ATOM     25  C   UNL A   1      45.247  24.977  27.023  1.00  0.00     0.049 A 
ATOM     26  C   UNL A   1      46.970  30.213  28.237  1.00  0.00     0.074 A 
ATOM     27  C   UNL A   1      46.221  24.086  26.618  1.00  0.00     0.029 A 
ATOM     28  N   UNL A   1      45.876  26.194  27.249  1.00  0.00    -0.354 N 
ATOM     29  N   UNL A   1      46.709  28.967  27.913  1.00  0.00    -0.248 NA
ATOM     30  C   UNL A   1      48.389  30.578  28.114  1.00  0.00     0.031 C 
ATOM     31  C   UNL A   1      47.447  24.761  26.615  1.00  0.00     0.029 A 
ATOM     32  C   UNL A   1      47.227  26.081  26.984  1.00  0.00     0.049 A 
ATOM     33  H   UNL A   1      45.426  27.015  27.552  1.00  0.00     0.167 HD
ATOM     34  C   UNL A   1      47.921  28.412  27.514  1.00  0.00     0.074 A 
ATOM     35  C   UNL A   1      48.917  29.455  27.641  1.00  0.00     0.031 C 
ATOM     36  C   UNL A   1      48.186  27.155  27.080  1.00  0.00     0.037 A 
BRANCH  23  37
ATOM     37  C   UNL A   1      43.259  23.391  26.951  1.00  0.00     0.058 A 
ATOM     38  C   UNL A   1      42.956  22.524  28.014  1.00  0.00     0.135 A 
ATOM     39  C   UNL A   1      43.105  22.906  25.644  1.00  0.00     0.135 A 
ATOM     40  F   UNL A   1      43.112  22.931  29.285  1.00  0.00    -0.206 F 
ATOM     41  C   UNL A   1      42.597  21.200  27.790  1.00  0.00     0.059 A 
ATOM     42  C   UNL A   1      42.716  21.593  25.396  1.00  0.00     0.059 A 
ATOM     43  F   UNL A   1      43.380  23.693  24.592  1.00  0.00    -0.206 F 
ATOM     44  C   UNL A   1      42.500  20.738  26.477  1.00  0.00     0.060 A 
BRANCH  44  45
ATOM     45  S   UNL A   1      42.126  18.996  26.196  1.00  0.00     0.124 S 
ATOM     46  O   UNL A   1      42.437  18.421  27.502  1.00  0.00    -0.237 OA
ATOM     47  O   UNL A   1      40.710  19.029  25.841  1.00  0.00    -0.237 OA
ATOM     48  O   UNL A   1      43.031  18.626  25.113  1.00  0.00    -0.744 OA
ENDBRANCH  44  45
ENDBRANCH  23  37
BRANCH  24  49
ATOM     49  C   UNL A   1      46.511  32.653  29.042  1.00  0.00     0.058 A 
ATOM     50  C   UNL A   1      46.820  33.002  30.365  1.00  0.00     0.135 A 
ATOM     51  C   UNL A   1      46.701  33.628  28.052  1.00  0.00     0.135 A 
ATOM     52  F   UNL A   1      46.646  32.110  31.352  1.00  0.00    -0.206 F 
ATOM     53  C   UNL A   1      47.299  34.267  30.696  1.00  0.00     0.059 A 
ATOM     54  C   UNL A   1      47.197  34.895  28.353  1.00  0.00     0.059 A 
ATOM     55  F   UNL A   1      46.429  33.343  26.769  1.00  0.00    -0.206 F 
ATOM     56  C   UNL A   1      47.492  35.205  29.680  1.00  0.00     0.060 A 
BRANCH  56  57
ATOM     57  S   UNL A   1      48.194  36.814  30.112  1.00  0.00     0.124 S 
ATOM     58  O   UNL A   1      48.488  36.639  31.529  1.00  0.00    -0.237 OA
ATOM     59  O   UNL A   1      49.350  36.888  29.224  1.00  0.00    -0.237 OA
ATOM     60  O   UNL A   1      47.115  37.746  29.799  1.00  0.00    -0.744 OA
ENDBRANCH  56  57
ENDBRANCH  24  49
BRANCH  36  61
ATOM     61  C   UNL A   1      49.587  26.836  26.646  1.00  0.00     0.058 A 
ATOM     62  C   UNL A   1      50.536  26.324  27.541  1.00  0.00     0.135 A 
ATOM     63  C   UNL A   1      49.930  26.907  25.285  1.00  0.00     0.135 A 
ATOM     64  F   UNL A   1      50.255  26.242  28.851  1.00  0.00    -0.206 F 
ATOM     65  C   UNL A   1      51.777  25.876  27.100  1.00  0.00     0.059 A 
ATOM     66  C   UNL A   1      51.157  26.447  24.820  1.00  0.00     0.059 A 
ATOM     67  F   UNL A   1      49.050  27.382  24.391  1.00  0.00    -0.206 F 
ATOM     68  C   UNL A   1      52.072  25.929  25.735  1.00  0.00     0.060 A 
BRANCH  68  69
ATOM     69  S   UNL A   1      53.641  25.243  25.160  1.00  0.00     0.124 S 
ATOM     70  O   UNL A   1      54.593  25.904  26.046  1.00  0.00    -0.237 OA
ATOM     71  O   UNL A   1      53.457  23.812  25.381  1.00  0.00    -0.237 OA
ATOM     72  O   UNL A   1      53.697  25.651  23.760  1.00  0.00    -0.744 OA
ENDBRANCH  68  69
ENDBRANCH  36  61
ENDBRANCH  10  11
ENDBRANCH   3   5
ENDBRANCH   2   3
ENDBRANCH   1   2
BRANCH   1  73
ATOM     73  C   UNL A   1      33.795  30.265  27.180  1.00  0.00     0.274 C 
BRANCH  73  74
ATOM     74  O   UNL A   1      33.658  29.721  25.860  1.00  0.00    -0.460 OA
BRANCH  74  75
ATOM     75  C   UNL A   1      32.405  29.737  25.316  1.00  0.00     0.334 C 
ATOM     76  O   UNL A   1      31.456  30.352  25.782  1.00  0.00    -0.249 OA
BRANCH  75  77
ATOM     77  C   UNL A   1      32.326  28.788  24.071  1.00  0.00     0.232 C 
BRANCH  77  78
ATOM     78  N   UNL A   1      32.785  27.436  24.495  1.00  0.00    -0.274 N 
ATOM     79  C   UNL A   1      33.315  26.631  23.498  1.00  0.00     0.267 C 
ATOM     80  C   UNL A   1      32.450  26.732  25.640  1.00  0.00     0.149 C 
ATOM     81  O   UNL A   1      33.318  26.873  22.286  1.00  0.00    -0.268 OA
ATOM     82  C   UNL A   1      33.821  25.363  24.044  1.00  0.00     0.084 C 
ATOM     83  S   UNL A   1      33.298  25.191  25.661  1.00  0.00    -0.054 SA
ATOM     84  S   UNL A   1      31.413  27.062  26.897  1.00  0.00    -0.052 S 
ATOM     85  C   UNL A   1      34.582  24.525  23.331  1.00  0.00     0.068 C 
BRANCH  85  86
ATOM     86  C   UNL A   1      35.009  23.296  23.886  1.00  0.00     0.129 A 
ATOM     87  C   UNL A   1      36.296  22.914  24.229  1.00  0.00     0.051 A 
ATOM     88  O   UNL A   1      34.172  22.228  24.097  1.00  0.00    -0.454 OA
ATOM     89  C   UNL A   1      36.241  21.565  24.626  1.00  0.00     0.054 A 
ATOM     90  C   UNL A   1      34.921  21.164  24.525  1.00  0.00     0.163 A 
BRANCH  90  91
ATOM     91  C   UNL A   1      34.403  19.856  24.799  1.00  0.00     0.160 A 
ATOM     92  N   UNL A   1      35.156  18.787  24.667  1.00  0.00    -0.233 NA
ATOM     93  S   UNL A   1      32.777  19.571  25.261  1.00  0.00    -0.111 S 
ATOM     94  C   UNL A   1      34.412  17.653  24.905  1.00  0.00     0.082 A 
ATOM     95  C   UNL A   1      33.072  17.870  25.229  1.00  0.00     0.055 A 
ATOM     96  C   UNL A   1      34.897  16.334  24.836  1.00  0.00     0.030 A 
ATOM     97  C   UNL A   1      32.191  16.803  25.468  1.00  0.00     0.021 A 
ATOM     98  C   UNL A   1      34.032  15.264  25.075  1.00  0.00     0.002 A 
ATOM     99  C   UNL A   1      32.695  15.499  25.382  1.00  0.00     0.002 A 
ENDBRANCH  90  91
ENDBRANCH  85  86
ENDBRANCH  77  78
BRANCH  77 100
ATOM    100  C   UNL A   1      30.919  28.865  23.478  1.00  0.00    -0.014 A 
ATOM    101  C   UNL A   1      29.903  27.952  23.807  1.00  0.00     0.006 A 
ATOM    102  C   UNL A   1      30.609  29.870  22.546  1.00  0.00     0.006 A 
ATOM    103  C   UNL A   1      28.624  28.073  23.259  1.00  0.00     0.000 A 
ATOM    104  C   UNL A   1      29.333  29.989  21.991  1.00  0.00     0.000 A 
ATOM    105  C   UNL A   1      28.337  29.093  22.355  1.00  0.00     0.000 A 
ENDBRANCH  77 100
ENDBRANCH  75  77
ENDBRANCH  74  75
ENDBRANCH  73  74
ENDBRANCH   1  73
TORSDOF 18
ENDMDL
MODEL 3
REMARK VINA RESULT:     -12.7      2.216      2.936
REMARK SMILES O=C(OCCOC(=O)[C@H](c1ccccc1)N1C(=O)/C(=C/c2ccc(-c3nc4ccccc4s3)o2)SC1=S)c1ccc(-c2c3nc(c(-c4c(F)cc(S(=O)(=O)[O-])cc4F)c4ccc([nH]4)c(-c4c(F)cc(S(=O)(=O)[O-])cc4F)c4nc(c(-c5c(F)cc(S(=O)(=O)[O-])cc5F)c5ccc2[nH]5)C=C4)C=C3)cc1
REMARK SMILES IDX 4 1 3 2 2 3 1 4 38 5 39 6 103 7 40 8 102 9 41 10 42 11 43 12
REMARK SMILES IDX 96 13 44 14 101 15 95 16 97 17 45 18 100 19 94 20 93 21
REMARK SMILES IDX 46 23 80 24 59 25 79 26 60 27 63 28 78 29 98 30 61 31 62 32
REMARK SMILES IDX 77 34 99 35 64 36 47 37 48 38 57 39 49 40 50 41 56 42 58 43
REMARK SMILES IDX 51 44 52 45 53 46 54 47 55 48 81 49 82 50 91 51 83 52 84 53
REMARK SMILES IDX 90 54 92 55 85 56 86 57 87 58 88 59 89 60 65 61 66 62 75 63
REMARK SMILES IDX 67 64 68 65 74 66 76 67 69 68 70 69 71 70 72 71 73 72 5 73
REMARK SMILES IDX 6 74 7 75 8 76 9 77 16 78 17 79 36 80 18 81 19 82 35 83
REMARK SMILES IDX 37 84 20 85 21 86 22 87 34 88 23 89 24 90 25 91 26 92 33 93
REMARK SMILES IDX 27 94 32 95 28 96 31 97 29 98 30 99 10 100 11 101 15 102
REMARK SMILES IDX 12 103 14 104 13 105
REMARK H PARENT 97 22 63 33
REMARK Flexibility Score: inf
ROOT
ATOM      1  C   UNL A   1      32.155  30.392  27.315  1.00  0.00     0.275 C 
ENDROOT
BRANCH   1   2
ATOM      2  O   UNL A   1      33.545  30.057  27.465  1.00  0.00    -0.458 OA
BRANCH   2   3
ATOM      3  C   UNL A   1      34.533  30.710  28.122  1.00  0.00     0.338 C 
ATOM      4  O   UNL A   1      34.343  31.890  28.418  1.00  0.00    -0.246 OA
BRANCH   3   5
ATOM      5  C   UNL A   1      35.882  30.125  28.430  1.00  0.00     0.060 A 
ATOM      6  C   UNL A   1      36.317  29.617  29.661  1.00  0.00     0.016 A 
ATOM      7  C   UNL A   1      36.797  30.112  27.367  1.00  0.00     0.016 A 
ATOM      8  C   UNL A   1      37.585  29.032  29.806  1.00  0.00     0.010 A 
ATOM      9  C   UNL A   1      38.072  29.555  27.513  1.00  0.00     0.010 A 
ATOM     10  C   UNL A   1      38.473  29.000  28.732  1.00  0.00    -0.014 A 
BRANCH  10  11
ATOM     11  C   UNL A   1      39.892  28.620  28.927  1.00  0.00     0.031 A 
ATOM     12  C   UNL A   1      40.807  29.670  29.493  1.00  0.00     0.074 A 
ATOM     13  C   UNL A   1      40.366  27.406  28.587  1.00  0.00     0.049 A 
ATOM     14  N   UNL A   1      42.101  29.651  29.651  1.00  0.00    -0.248 NA
ATOM     15  C   UNL A   1      40.163  30.930  29.905  1.00  0.00     0.031 C 
ATOM     16  C   UNL A   1      39.575  26.306  28.036  1.00  0.00     0.029 A 
ATOM     17  N   UNL A   1      41.641  26.901  28.646  1.00  0.00    -0.354 N 
ATOM     18  C   UNL A   1      42.430  30.911  30.140  1.00  0.00     0.074 A 
ATOM     19  C   UNL A   1      41.208  31.679  30.205  1.00  0.00     0.031 C 
ATOM     20  C   UNL A   1      40.385  25.257  27.801  1.00  0.00     0.029 A 
ATOM     21  C   UNL A   1      41.755  25.615  28.169  1.00  0.00     0.049 A 
ATOM     22  H   UNL A   1      42.404  27.412  28.999  1.00  0.00     0.167 HD
ATOM     23  C   UNL A   1      43.640  31.382  30.521  1.00  0.00     0.037 A 
ATOM     24  C   UNL A   1      42.844  24.828  28.046  1.00  0.00     0.037 A 
ATOM     25  C   UNL A   1      44.842  30.601  30.482  1.00  0.00     0.049 A 
ATOM     26  C   UNL A   1      44.183  25.357  28.500  1.00  0.00     0.074 A 
ATOM     27  C   UNL A   1      46.122  30.963  30.852  1.00  0.00     0.029 A 
ATOM     28  N   UNL A   1      44.901  29.283  30.047  1.00  0.00    -0.354 N 
ATOM     29  N   UNL A   1      44.478  26.540  28.988  1.00  0.00    -0.248 NA
ATOM     30  C   UNL A   1      45.335  24.448  28.401  1.00  0.00     0.031 C 
ATOM     31  C   UNL A   1      46.962  29.867  30.625  1.00  0.00     0.029 A 
ATOM     32  C   UNL A   1      46.196  28.813  30.148  1.00  0.00     0.049 A 
ATOM     33  H   UNL A   1      44.134  28.761  29.718  1.00  0.00     0.167 HD
ATOM     34  C   UNL A   1      45.837  26.505  29.285  1.00  0.00     0.074 A 
ATOM     35  C   UNL A   1      46.308  25.186  28.920  1.00  0.00     0.031 C 
ATOM     36  C   UNL A   1      46.623  27.476  29.815  1.00  0.00     0.037 A 
BRANCH  23  37
ATOM     37  C   UNL A   1      43.685  32.811  30.979  1.00  0.00     0.058 A 
ATOM     38  C   UNL A   1      44.017  33.855  30.099  1.00  0.00     0.135 A 
ATOM     39  C   UNL A   1      43.503  33.128  32.333  1.00  0.00     0.135 A 
ATOM     40  F   UNL A   1      44.229  33.600  28.797  1.00  0.00    -0.206 F 
ATOM     41  C   UNL A   1      44.242  35.147  30.558  1.00  0.00     0.059 A 
ATOM     42  C   UNL A   1      43.691  34.421  32.810  1.00  0.00     0.059 A 
ATOM     43  F   UNL A   1      43.184  32.169  33.216  1.00  0.00    -0.206 F 
ATOM     44  C   UNL A   1      44.097  35.416  31.919  1.00  0.00     0.060 A 
BRANCH  44  45
ATOM     45  S   UNL A   1      44.483  37.072  32.522  1.00  0.00     0.124 S 
ATOM     46  O   UNL A   1      43.965  37.010  33.885  1.00  0.00    -0.237 OA
ATOM     47  O   UNL A   1      45.937  37.123  32.400  1.00  0.00    -0.237 OA
ATOM     48  O   UNL A   1      43.750  37.944  31.609  1.00  0.00    -0.744 OA
ENDBRANCH  44  45
ENDBRANCH  23  37
BRANCH  24  49
ATOM     49  C   UNL A   1      42.710  23.447  27.503  1.00  0.00     0.058 A 
ATOM     50  C   UNL A   1      42.962  23.175  26.151  1.00  0.00     0.135 A 
ATOM     51  C   UNL A   1      42.348  22.369  28.325  1.00  0.00     0.135 A 
ATOM     52  F   UNL A   1      43.301  24.172  25.319  1.00  0.00    -0.206 F 
ATOM     53  C   UNL A   1      42.860  21.888  25.630  1.00  0.00     0.059 A 
ATOM     54  C   UNL A   1      42.258  21.068  27.834  1.00  0.00     0.059 A 
ATOM     55  F   UNL A   1      42.105  22.572  29.630  1.00  0.00    -0.206 F 
ATOM     56  C   UNL A   1      42.514  20.838  26.483  1.00  0.00     0.060 A 
BRANCH  56  57
ATOM     57  S   UNL A   1      42.468  19.159  25.814  1.00  0.00     0.124 S 
ATOM     58  O   UNL A   1      43.089  18.394  26.889  1.00  0.00    -0.237 OA
ATOM     59  O   UNL A   1      41.037  18.949  25.624  1.00  0.00    -0.237 OA
ATOM     60  O   UNL A   1      43.245  19.268  24.583  1.00  0.00    -0.744 OA
ENDBRANCH  56  57
ENDBRANCH  24  49
BRANCH  36  61
ATOM     61  C   UNL A   1      48.060  27.147  30.097  1.00  0.00     0.058 A 
ATOM     62  C   UNL A   1      49.081  27.470  29.192  1.00  0.00     0.135 A 
ATOM     63  C   UNL A   1      48.427  26.638  31.354  1.00  0.00     0.135 A 
ATOM     64  F   UNL A   1      48.778  27.954  27.977  1.00  0.00    -0.206 F 
ATOM     65  C   UNL A   1      50.421  27.315  29.530  1.00  0.00     0.059 A 
ATOM     66  C   UNL A   1      49.760  26.493  31.719  1.00  0.00     0.059 A 
ATOM     67  F   UNL A   1      47.484  26.323  32.256  1.00  0.00    -0.206 F 
ATOM     68  C   UNL A   1      50.750  26.838  30.801  1.00  0.00     0.060 A 
BRANCH  68  69
ATOM     69  S   UNL A   1      52.493  26.745  31.268  1.00  0.00     0.124 S 
ATOM     70  O   UNL A   1      52.769  28.125  31.649  1.00  0.00    -0.237 OA
ATOM     71  O   UNL A   1      52.473  25.777  32.360  1.00  0.00    -0.237 OA
ATOM     72  O   UNL A   1      53.147  26.287  30.046  1.00  0.00    -0.744 OA
ENDBRANCH  68  69
ENDBRANCH  36  61
ENDBRANCH  10  11
ENDBRANCH   3   5
ENDBRANCH   2   3
ENDBRANCH   1   2
BRANCH   1  73
ATOM     73  C   UNL A   1      31.803  30.905  25.922  1.00  0.00     0.274 C 
BRANCH  73  74
ATOM     74  O   UNL A   1      31.453  29.826  25.044  1.00  0.00    -0.460 OA
BRANCH  74  75
ATOM     75  C   UNL A   1      32.457  29.312  24.272  1.00  0.00     0.334 C 
ATOM     76  O   UNL A   1      33.600  29.747  24.244  1.00  0.00    -0.249 OA
BRANCH  75  77
ATOM     77  C   UNL A   1      31.922  28.155  23.360  1.00  0.00     0.232 C 
BRANCH  77  78
ATOM     78  N   UNL A   1      32.410  26.865  23.921  1.00  0.00    -0.274 N 
ATOM     79  C   UNL A   1      32.887  25.941  23.003  1.00  0.00     0.267 C 
ATOM     80  C   UNL A   1      32.145  26.309  25.162  1.00  0.00     0.149 C 
ATOM     81  O   UNL A   1      32.818  26.031  21.772  1.00  0.00    -0.268 OA
ATOM     82  C   UNL A   1      33.429  24.749  23.672  1.00  0.00     0.084 C 
ATOM     83  S   UNL A   1      33.000  24.780  25.326  1.00  0.00    -0.054 SA
ATOM     84  S   UNL A   1      31.181  26.795  26.426  1.00  0.00    -0.052 S 
ATOM     85  C   UNL A   1      34.152  23.827  23.026  1.00  0.00     0.068 C 
BRANCH  85  86
ATOM     86  C   UNL A   1      34.616  22.676  23.704  1.00  0.00     0.129 A 
ATOM     87  C   UNL A   1      35.892  22.419  24.178  1.00  0.00     0.051 A 
ATOM     88  O   UNL A   1      33.842  21.564  23.924  1.00  0.00    -0.454 OA
ATOM     89  C   UNL A   1      35.900  21.100  24.668  1.00  0.00     0.054 A 
ATOM     90  C   UNL A   1      34.626  20.592  24.490  1.00  0.00     0.163 A 
BRANCH  90  91
ATOM     91  C   UNL A   1      34.181  19.269  24.817  1.00  0.00     0.160 A 
ATOM     92  N   UNL A   1      34.982  18.234  24.694  1.00  0.00    -0.233 NA
ATOM     93  S   UNL A   1      32.585  18.920  25.335  1.00  0.00    -0.111 S 
ATOM     94  C   UNL A   1      34.302  17.074  24.987  1.00  0.00     0.082 A 
ATOM     95  C   UNL A   1      32.963  17.236  25.344  1.00  0.00     0.055 A 
ATOM     96  C   UNL A   1      34.850  15.778  24.941  1.00  0.00     0.030 A 
ATOM     97  C   UNL A   1      32.142  16.134  25.640  1.00  0.00     0.021 A 
ATOM     98  C   UNL A   1      34.046  14.676  25.237  1.00  0.00     0.002 A 
ATOM     99  C   UNL A   1      32.708  14.854  25.577  1.00  0.00     0.002 A 
ENDBRANCH  90  91
ENDBRANCH  85  86
ENDBRANCH  77  78
BRANCH  77 100
ATOM    100  C   UNL A   1      30.405  28.296  23.222  1.00  0.00    -0.014 A 
ATOM    101  C   UNL A   1      29.505  27.314  23.668  1.00  0.00     0.006 A 
ATOM    102  C   UNL A   1      29.864  29.438  22.606  1.00  0.00     0.006 A 
ATOM    103  C   UNL A   1      28.125  27.493  23.542  1.00  0.00     0.000 A 
ATOM    104  C   UNL A   1      28.486  29.617  22.472  1.00  0.00     0.000 A 
ATOM    105  C   UNL A   1      27.615  28.646  22.949  1.00  0.00     0.000 A 
ENDBRANCH  77 100
ENDBRANCH  75  77
ENDBRANCH  74  75
ENDBRANCH  73  74
ENDBRANCH   1  73
TORSDOF 18
ENDMDL
