MODEL 1
REMARK VINA RESULT:     -12.7      0.000      0.000
REMARK SMILES C/C(=C/c1cccc(OCC(=O)OCCOC(=O)c2ccc(-c3c4nc(c(-c5c(F)cc(S(=O)(=O)[O-])cc5F)c5ccc([nH]5)c(-c5c(F)cc(S(=O)(=O)[O-])cc5F)c5nc(c(-c6c(F)cc(S(=O)(=O)[O-])cc6F)c6ccc3[nH]6)C=C5)C=C4)cc2)c1)c1nc2sccc2c(=O)[nH]1
REMARK SMILES IDX 14 1 13 2 11 3 12 4 10 5 9 6 8 7 4 8 5 9 85 10 6 11 7 12
REMARK SMILES IDX 3 13 1 14 2 15 86 16 87 17 95 18 88 19 93 20 89 22 92 23
REMARK SMILES IDX 94 24 90 25 91 26 15 27 16 28 17 29 18 30 19 31 20 32 84 33
REMARK SMILES IDX 21 34 83 35 22 36 23 37 24 38 77 39 25 40 82 41 76 42 78 43
REMARK SMILES IDX 26 44 81 45 75 46 74 47 27 49 61 50 40 51 60 52 41 53 44 54
REMARK SMILES IDX 59 55 79 56 42 57 43 58 58 60 80 61 45 62 28 63 29 64 38 65
REMARK SMILES IDX 30 66 31 67 37 68 39 69 32 70 33 71 34 72 35 73 36 74 62 75
REMARK SMILES IDX 63 76 72 77 64 78 65 79 71 80 73 81 66 82 67 83 68 84 69 85
REMARK SMILES IDX 70 86 46 87 47 88 56 89 48 90 49 91 55 92 57 93 50 94 51 95
REMARK SMILES IDX 52 96 53 97 54 98
REMARK H PARENT 95 21 78 48 44 59
REMARK Flexibility Score: inf
ROOT
ATOM      1  C   UNL A   1      38.148  21.299  25.175  1.00  0.00     0.274 C 
ENDROOT
BRANCH   1   2
ATOM      2  O   UNL A   1      36.182  21.162  25.806  1.00  0.00    -0.460 OA
BRANCH   2   3
ATOM      3  C   UNL A   1      34.780  20.991  25.960  1.00  0.00     0.344 C 
ATOM      4  O   UNL A   1      34.054  20.393  25.167  1.00  0.00    -0.248 OA
BRANCH   3   5
ATOM      5  C   UNL A   1      34.268  21.525  27.322  1.00  0.00     0.351 C 
BRANCH   5   6
ATOM      6  O   UNL A   1      34.062  22.929  27.393  1.00  0.00    -0.482 OA
BRANCH   6   7
ATOM      7  C   UNL A   1      33.101  23.518  26.620  1.00  0.00     0.120 A 
ATOM      8  C   UNL A   1      32.180  24.562  24.625  1.00  0.00    -0.022 A 
ATOM      9  C   UNL A   1      30.890  24.410  25.130  1.00  0.00     0.008 A 
ATOM     10  C   UNL A   1      33.287  24.216  25.427  1.00  0.00     0.054 A 
ATOM     11  C   UNL A   1      30.702  23.835  26.382  1.00  0.00     0.004 A 
ATOM     12  C   UNL A   1      31.800  23.365  27.105  1.00  0.00     0.046 A 
BRANCH   8  13
ATOM     13  C   UNL A   1      32.296  24.825  23.175  1.00  0.00     0.015 C 
ATOM     14  C   UNL A   1      32.862  26.433  21.289  1.00  0.00     0.048 C 
ATOM     15  C   UNL A   1      32.564  26.061  22.704  1.00  0.00    -0.008 C 
BRANCH  15  16
ATOM     16  C   UNL A   1      32.425  27.185  23.662  1.00  0.00     0.137 A 
ATOM     17  N   UNL A   1      33.398  27.399  24.499  1.00  0.00    -0.219 NA
ATOM     18  N   UNL A   1      31.277  27.960  23.469  1.00  0.00    -0.306 N 
ATOM     19  C   UNL A   1      33.180  28.457  25.289  1.00  0.00     0.131 A 
ATOM     20  C   UNL A   1      30.922  29.154  24.095  1.00  0.00     0.259 A 
ATOM     21  H   UNL A   1      30.636  27.618  22.804  1.00  0.00     0.171 HD
ATOM     22  S   UNL A   1      34.629  29.099  27.006  1.00  0.00    -0.124 S 
ATOM     23  C   UNL A   1      31.849  29.539  25.124  1.00  0.00     0.077 A 
ATOM     24  O   UNL A   1      29.903  29.775  23.822  1.00  0.00    -0.269 OA
ATOM     25  C   UNL A   1      33.257  30.915  27.470  1.00  0.00     0.068 A 
ATOM     26  C   UNL A   1      31.872  30.956  26.402  1.00  0.00     0.028 A 
ENDBRANCH  15  16
ENDBRANCH   8  13
ENDBRANCH   6   7
ENDBRANCH   5   6
ENDBRANCH   3   5
ENDBRANCH   2   3
ENDBRANCH   1   2
BRANCH   1  27
ATOM     27  C   UNL A   1      39.603  21.620  26.110  1.00  0.00     0.275 C 
BRANCH  27  28
ATOM     28  O   UNL A   1      39.834  22.801  26.904  1.00  0.00    -0.458 OA
BRANCH  28  29
ATOM     29  C   UNL A   1      40.959  23.534  26.688  1.00  0.00     0.338 C 
ATOM     30  O   UNL A   1      41.998  23.138  26.187  1.00  0.00    -0.246 OA
BRANCH  29  31
ATOM     31  C   UNL A   1      40.806  24.879  27.312  1.00  0.00     0.060 A 
ATOM     32  C   UNL A   1      39.699  25.151  28.135  1.00  0.00     0.016 A 
ATOM     33  C   UNL A   1      41.767  25.866  27.103  1.00  0.00     0.016 A 
ATOM     34  C   UNL A   1      39.566  26.397  28.761  1.00  0.00     0.010 A 
ATOM     35  C   UNL A   1      41.670  27.090  27.782  1.00  0.00     0.010 A 
ATOM     36  C   UNL A   1      40.605  27.340  28.665  1.00  0.00    -0.014 A 
BRANCH  36  37
ATOM     37  C   UNL A   1      40.804  28.337  29.758  1.00  0.00     0.031 A 
ATOM     38  C   UNL A   1      41.817  28.189  30.858  1.00  0.00     0.074 A 
ATOM     39  C   UNL A   1      39.904  29.342  29.798  1.00  0.00     0.049 A 
ATOM     40  N   UNL A   1      41.982  28.928  31.927  1.00  0.00    -0.248 NA
ATOM     41  C   UNL A   1      42.755  27.064  30.761  1.00  0.00     0.031 C 
ATOM     42  C   UNL A   1      38.833  29.545  28.813  1.00  0.00     0.029 A 
ATOM     43  N   UNL A   1      39.712  30.358  30.698  1.00  0.00    -0.354 N 
ATOM     44  C   UNL A   1      43.034  28.360  32.639  1.00  0.00     0.074 A 
ATOM     45  C   UNL A   1      43.459  27.199  31.880  1.00  0.00     0.031 C 
ATOM     46  C   UNL A   1      38.109  30.615  29.152  1.00  0.00     0.029 A 
ATOM     47  C   UNL A   1      38.621  31.144  30.406  1.00  0.00     0.049 A 
ATOM     48  H   UNL A   1      40.296  30.511  31.475  1.00  0.00     0.167 HD
ATOM     49  C   UNL A   1      43.580  28.771  33.815  1.00  0.00     0.037 A 
ATOM     50  C   UNL A   1      38.062  32.164  31.079  1.00  0.00     0.037 A 
ATOM     51  C   UNL A   1      43.116  29.920  34.564  1.00  0.00     0.049 A 
ATOM     52  C   UNL A   1      38.690  32.599  32.364  1.00  0.00     0.074 A 
ATOM     53  C   UNL A   1      43.619  30.443  35.745  1.00  0.00     0.029 A 
ATOM     54  N   UNL A   1      42.032  30.718  34.215  1.00  0.00    -0.354 N 
ATOM     55  N   UNL A   1      39.716  32.078  32.993  1.00  0.00    -0.248 NA
ATOM     56  C   UNL A   1      38.097  33.766  33.023  1.00  0.00     0.031 C 
ATOM     57  C   UNL A   1      42.813  31.521  36.134  1.00  0.00     0.029 A 
ATOM     58  C   UNL A   1      41.839  31.710  35.167  1.00  0.00     0.049 A 
ATOM     59  H   UNL A   1      41.480  30.596  33.409  1.00  0.00     0.167 HD
ATOM     60  C   UNL A   1      39.901  32.863  34.122  1.00  0.00     0.074 A 
ATOM     61  C   UNL A   1      38.899  33.910  34.068  1.00  0.00     0.031 C 
ATOM     62  C   UNL A   1      40.818  32.729  35.113  1.00  0.00     0.037 A 
BRANCH  49  63
ATOM     63  C   UNL A   1      44.729  27.974  34.386  1.00  0.00     0.058 A 
ATOM     64  C   UNL A   1      46.068  28.308  34.122  1.00  0.00     0.135 A 
ATOM     65  C   UNL A   1      44.495  26.901  35.266  1.00  0.00     0.135 A 
ATOM     66  F   UNL A   1      46.360  29.321  33.291  1.00  0.00    -0.206 F 
ATOM     67  C   UNL A   1      47.126  27.594  34.682  1.00  0.00     0.059 A 
ATOM     68  C   UNL A   1      45.537  26.188  35.856  1.00  0.00     0.059 A 
ATOM     69  F   UNL A   1      43.238  26.538  35.567  1.00  0.00    -0.206 F 
ATOM     70  C   UNL A   1      46.851  26.532  35.545  1.00  0.00     0.060 A 
BRANCH  70  71
ATOM     71  S   UNL A   1      48.235  25.606  36.248  1.00  0.00     0.124 S 
ATOM     72  O   UNL A   1      47.539  24.637  37.090  1.00  0.00    -0.237 OA
ATOM     73  O   UNL A   1      48.883  25.061  35.060  1.00  0.00    -0.237 OA
ATOM     74  O   UNL A   1      48.998  26.623  36.965  1.00  0.00    -0.744 OA
ENDBRANCH  70  71
ENDBRANCH  49  63
BRANCH  50  75
ATOM     75  C   UNL A   1      36.864  32.839  30.518  1.00  0.00     0.058 A 
ATOM     76  C   UNL A   1      35.582  32.529  30.988  1.00  0.00     0.135 A 
ATOM     77  C   UNL A   1      36.982  33.861  29.561  1.00  0.00     0.135 A 
ATOM     78  F   UNL A   1      35.420  31.564  31.907  1.00  0.00    -0.206 F 
ATOM     79  C   UNL A   1      34.454  33.196  30.522  1.00  0.00     0.059 A 
ATOM     80  C   UNL A   1      35.873  34.565  29.102  1.00  0.00     0.059 A 
ATOM     81  F   UNL A   1      38.193  34.219  29.104  1.00  0.00    -0.206 F 
ATOM     82  C   UNL A   1      34.612  34.217  29.583  1.00  0.00     0.060 A 
BRANCH  82  83
ATOM     83  S   UNL A   1      33.147  35.116  29.031  1.00  0.00     0.124 S 
ATOM     84  O   UNL A   1      32.388  35.229  30.272  1.00  0.00    -0.237 OA
ATOM     85  O   UNL A   1      33.722  36.356  28.520  1.00  0.00    -0.237 OA
ATOM     86  O   UNL A   1      32.574  34.236  28.018  1.00  0.00    -0.744 OA
ENDBRANCH  82  83
ENDBRANCH  50  75
BRANCH  62  87
ATOM     87  C   UNL A   1      40.766  33.759  36.207  1.00  0.00     0.058 A 
ATOM     88  C   UNL A   1      39.971  33.580  37.352  1.00  0.00     0.135 A 
ATOM     89  C   UNL A   1      41.483  34.959  36.088  1.00  0.00     0.135 A 
ATOM     90  F   UNL A   1      39.256  32.454  37.509  1.00  0.00    -0.206 F 
ATOM     91  C   UNL A   1      39.846  34.578  38.312  1.00  0.00     0.059 A 
ATOM     92  C   UNL A   1      41.397  35.959  37.053  1.00  0.00     0.059 A 
ATOM     93  F   UNL A   1      42.264  35.178  35.018  1.00  0.00    -0.206 F 
ATOM     94  C   UNL A   1      40.555  35.768  38.148  1.00  0.00     0.060 A 
BRANCH  94  95
ATOM     95  S   UNL A   1      40.363  37.070  39.384  1.00  0.00     0.124 S 
ATOM     96  O   UNL A   1      41.547  37.885  39.136  1.00  0.00    -0.237 OA
ATOM     97  O   UNL A   1      39.087  37.672  39.011  1.00  0.00    -0.237 OA
ATOM     98  O   UNL A   1      40.358  36.337  40.648  1.00  0.00    -0.744 OA
ENDBRANCH  94  95
ENDBRANCH  62  87
ENDBRANCH  36  37
ENDBRANCH  29  31
ENDBRANCH  28  29
ENDBRANCH  27  28
ENDBRANCH   1  27
TORSDOF 18
ENDMDL
MODEL 2
REMARK VINA RESULT:     -12.1      1.683      2.270
REMARK SMILES C/C(=C/c1cccc(OCC(=O)OCCOC(=O)c2ccc(-c3c4nc(c(-c5c(F)cc(S(=O)(=O)[O-])cc5F)c5ccc([nH]5)c(-c5c(F)cc(S(=O)(=O)[O-])cc5F)c5nc(c(-c6c(F)cc(S(=O)(=O)[O-])cc6F)c6ccc3[nH]6)C=C5)C=C4)cc2)c1)c1nc2sccc2c(=O)[nH]1
REMARK SMILES IDX 14 1 13 2 11 3 12 4 10 5 9 6 8 7 4 8 5 9 85 10 6 11 7 12
REMARK SMILES IDX 3 13 1 14 2 15 86 16 87 17 95 18 88 19 93 20 89 22 92 23
REMARK SMILES IDX 94 24 90 25 91 26 15 27 16 28 17 29 18 30 19 31 20 32 84 33
REMARK SMILES IDX 21 34 83 35 22 36 23 37 24 38 77 39 25 40 82 41 76 42 78 43
REMARK SMILES IDX 26 44 81 45 75 46 74 47 27 49 61 50 40 51 60 52 41 53 44 54
REMARK SMILES IDX 59 55 79 56 42 57 43 58 58 60 80 61 45 62 28 63 29 64 38 65
REMARK SMILES IDX 30 66 31 67 37 68 39 69 32 70 33 71 34 72 35 73 36 74 62 75
REMARK SMILES IDX 63 76 72 77 64 78 65 79 71 80 73 81 66 82 67 83 68 84 69 85
REMARK SMILES IDX 70 86 46 87 47 88 56 89 48 90 49 91 55 92 57 93 50 94 51 95
REMARK SMILES IDX 52 96 53 97 54 98
REMARK H PARENT 95 21 78 48 44 59
REMARK Flexibility Score: inf
ROOT
ATOM      1  C   UNL A   1      36.545  21.651  24.582  1.00  0.00     0.274 C 
ENDROOT
BRANCH   1   2
ATOM      2  O   UNL A   1      34.919  20.371  24.571  1.00  0.00    -0.460 OA
BRANCH   2   3
ATOM      3  C   UNL A   1      33.747  19.612  24.827  1.00  0.00     0.344 C 
ATOM      4  O   UNL A   1      33.716  18.390  24.962  1.00  0.00    -0.248 OA
BRANCH   3   5
ATOM      5  C   UNL A   1      32.504  20.509  25.062  1.00  0.00     0.351 C 
BRANCH   5   6
ATOM      6  O   UNL A   1      32.442  21.690  24.274  1.00  0.00    -0.482 OA
BRANCH   6   7
ATOM      7  C   UNL A   1      31.808  22.801  24.756  1.00  0.00     0.120 A 
ATOM      8  C   UNL A   1      30.575  24.893  24.624  1.00  0.00    -0.022 A 
ATOM      9  C   UNL A   1      30.297  24.826  25.988  1.00  0.00     0.008 A 
ATOM     10  C   UNL A   1      31.427  23.934  24.039  1.00  0.00     0.054 A 
ATOM     11  C   UNL A   1      30.787  23.764  26.741  1.00  0.00     0.004 A 
ATOM     12  C   UNL A   1      31.511  22.745  26.119  1.00  0.00     0.046 A 
BRANCH   8  13
ATOM     13  C   UNL A   1      29.738  25.812  23.822  1.00  0.00     0.015 C 
ATOM     14  C   UNL A   1      29.478  28.038  22.623  1.00  0.00     0.048 C 
ATOM     15  C   UNL A   1      30.144  27.068  23.543  1.00  0.00    -0.008 C 
BRANCH  15  16
ATOM     16  C   UNL A   1      31.294  27.587  24.323  1.00  0.00     0.137 A 
ATOM     17  N   UNL A   1      31.113  28.656  25.042  1.00  0.00    -0.219 NA
ATOM     18  N   UNL A   1      32.433  26.777  24.266  1.00  0.00    -0.306 N 
ATOM     19  C   UNL A   1      32.206  29.012  25.728  1.00  0.00     0.131 A 
ATOM     20  C   UNL A   1      33.621  26.901  24.986  1.00  0.00     0.259 A 
ATOM     21  H   UNL A   1      32.391  26.022  23.635  1.00  0.00     0.171 HD
ATOM     22  S   UNL A   1      32.328  30.941  27.040  1.00  0.00    -0.124 S 
ATOM     23  C   UNL A   1      33.654  28.080  25.806  1.00  0.00     0.077 A 
ATOM     24  O   UNL A   1      34.548  26.108  24.885  1.00  0.00    -0.269 OA
ATOM     25  C   UNL A   1      34.494  30.371  27.657  1.00  0.00     0.068 A 
ATOM     26  C   UNL A   1      34.997  28.874  26.905  1.00  0.00     0.028 A 
ENDBRANCH  15  16
ENDBRANCH   8  13
ENDBRANCH   6   7
ENDBRANCH   5   6
ENDBRANCH   3   5
ENDBRANCH   2   3
ENDBRANCH   1   2
BRANCH   1  27
ATOM     27  C   UNL A   1      38.122  21.451  25.335  1.00  0.00     0.275 C 
BRANCH  27  28
ATOM     28  O   UNL A   1      38.652  22.289  26.381  1.00  0.00    -0.458 OA
BRANCH  28  29
ATOM     29  C   UNL A   1      39.907  22.797  26.250  1.00  0.00     0.338 C 
ATOM     30  O   UNL A   1      40.900  22.192  25.883  1.00  0.00    -0.246 OA
BRANCH  29  31
ATOM     31  C   UNL A   1      39.941  24.187  26.787  1.00  0.00     0.060 A 
ATOM     32  C   UNL A   1      39.032  24.579  27.784  1.00  0.00     0.016 A 
ATOM     33  C   UNL A   1      40.888  25.098  26.321  1.00  0.00     0.016 A 
ATOM     34  C   UNL A   1      39.082  25.870  28.327  1.00  0.00     0.010 A 
ATOM     35  C   UNL A   1      40.982  26.368  26.911  1.00  0.00     0.010 A 
ATOM     36  C   UNL A   1      40.124  26.740  27.960  1.00  0.00    -0.014 A 
BRANCH  36  37
ATOM     37  C   UNL A   1      40.579  27.793  28.916  1.00  0.00     0.031 A 
ATOM     38  C   UNL A   1      41.779  27.657  29.809  1.00  0.00     0.074 A 
ATOM     39  C   UNL A   1      39.753  28.852  29.049  1.00  0.00     0.049 A 
ATOM     40  N   UNL A   1      42.185  28.454  30.767  1.00  0.00    -0.248 NA
ATOM     41  C   UNL A   1      42.626  26.472  29.622  1.00  0.00     0.031 C 
ATOM     42  C   UNL A   1      38.522  29.055  28.274  1.00  0.00     0.029 A 
ATOM     43  N   UNL A   1      39.789  29.936  29.887  1.00  0.00    -0.354 N 
ATOM     44  C   UNL A   1      43.327  27.871  31.307  1.00  0.00     0.074 A 
ATOM     45  C   UNL A   1      43.540  26.638  30.572  1.00  0.00     0.031 C 
ATOM     46  C   UNL A   1      37.930  30.188  28.661  1.00  0.00     0.029 A 
ATOM     47  C   UNL A   1      38.701  30.766  29.750  1.00  0.00     0.049 A 
ATOM     48  H   UNL A   1      40.520  30.104  30.525  1.00  0.00     0.167 HD
ATOM     49  C   UNL A   1      44.111  28.324  32.321  1.00  0.00     0.037 A 
ATOM     50  C   UNL A   1      38.333  31.861  30.436  1.00  0.00     0.037 A 
ATOM     51  C   UNL A   1      43.857  29.547  33.054  1.00  0.00     0.049 A 
ATOM     52  C   UNL A   1      39.219  32.341  31.540  1.00  0.00     0.074 A 
ATOM     53  C   UNL A   1      44.605  30.115  34.074  1.00  0.00     0.029 A 
ATOM     54  N   UNL A   1      42.765  30.385  32.858  1.00  0.00    -0.354 N 
ATOM     55  N   UNL A   1      40.322  31.801  32.000  1.00  0.00    -0.248 NA
ATOM     56  C   UNL A   1      38.822  33.584  32.209  1.00  0.00     0.031 C 
ATOM     57  C   UNL A   1      43.942  31.264  34.524  1.00  0.00     0.029 A 
ATOM     58  C   UNL A   1      42.809  31.448  33.750  1.00  0.00     0.049 A 
ATOM     59  H   UNL A   1      42.061  30.244  32.184  1.00  0.00     0.167 HD
ATOM     60  C   UNL A   1      40.761  32.646  33.009  1.00  0.00     0.074 A 
ATOM     61  C   UNL A   1      39.818  33.747  33.067  1.00  0.00     0.031 C 
ATOM     62  C   UNL A   1      41.846  32.522  33.814  1.00  0.00     0.037 A 
BRANCH  49  63
ATOM     63  C   UNL A   1      45.310  27.498  32.722  1.00  0.00     0.058 A 
ATOM     64  C   UNL A   1      46.574  27.692  32.141  1.00  0.00     0.135 A 
ATOM     65  C   UNL A   1      45.215  26.543  33.751  1.00  0.00     0.135 A 
ATOM     66  F   UNL A   1      46.732  28.589  31.154  1.00  0.00    -0.206 F 
ATOM     67  C   UNL A   1      47.687  26.954  32.540  1.00  0.00     0.059 A 
ATOM     68  C   UNL A   1      46.319  25.810  34.183  1.00  0.00     0.059 A 
ATOM     69  F   UNL A   1      44.037  26.316  34.355  1.00  0.00    -0.206 F 
ATOM     70  C   UNL A   1      47.549  26.012  33.560  1.00  0.00     0.060 A 
BRANCH  70  71
ATOM     71  S   UNL A   1      48.999  25.052  34.054  1.00  0.00     0.124 S 
ATOM     72  O   UNL A   1      49.327  25.661  35.339  1.00  0.00    -0.237 OA
ATOM     73  O   UNL A   1      48.470  23.694  34.115  1.00  0.00    -0.237 OA
ATOM     74  O   UNL A   1      49.956  25.302  32.981  1.00  0.00    -0.744 OA
ENDBRANCH  70  71
ENDBRANCH  49  63
BRANCH  50  75
ATOM     75  C   UNL A   1      37.082  32.570  30.064  1.00  0.00     0.058 A 
ATOM     76  C   UNL A   1      35.884  32.310  30.741  1.00  0.00     0.135 A 
ATOM     77  C   UNL A   1      37.076  33.575  29.082  1.00  0.00     0.135 A 
ATOM     78  F   UNL A   1      35.843  31.364  31.692  1.00  0.00    -0.206 F 
ATOM     79  C   UNL A   1      34.717  33.010  30.451  1.00  0.00     0.059 A 
ATOM     80  C   UNL A   1      35.930  34.310  28.796  1.00  0.00     0.059 A 
ATOM     81  F   UNL A   1      38.207  33.884  28.428  1.00  0.00    -0.206 F 
ATOM     82  C   UNL A   1      34.753  34.013  29.480  1.00  0.00     0.060 A 
BRANCH  82  83
ATOM     83  S   UNL A   1      33.247  34.955  29.156  1.00  0.00     0.124 S 
ATOM     84  O   UNL A   1      33.793  36.246  28.752  1.00  0.00    -0.237 OA
ATOM     85  O   UNL A   1      32.615  34.170  28.100  1.00  0.00    -0.237 OA
ATOM     86  O   UNL A   1      32.556  34.935  30.441  1.00  0.00    -0.744 OA
ENDBRANCH  82  83
ENDBRANCH  50  75
BRANCH  62  87
ATOM     87  C   UNL A   1      42.058  33.625  34.815  1.00  0.00     0.058 A 
ATOM     88  C   UNL A   1      42.828  34.759  34.510  1.00  0.00     0.135 A 
ATOM     89  C   UNL A   1      41.521  33.524  36.107  1.00  0.00     0.135 A 
ATOM     90  F   UNL A   1      43.373  34.898  33.291  1.00  0.00    -0.206 F 
ATOM     91  C   UNL A   1      43.106  35.727  35.469  1.00  0.00     0.059 A 
ATOM     92  C   UNL A   1      41.761  34.497  37.073  1.00  0.00     0.059 A 
ATOM     93  F   UNL A   1      40.770  32.465  36.449  1.00  0.00    -0.206 F 
ATOM     94  C   UNL A   1      42.576  35.581  36.751  1.00  0.00     0.060 A 
BRANCH  94  95
ATOM     95  S   UNL A   1      42.967  36.827  37.998  1.00  0.00     0.124 S 
ATOM     96  O   UNL A   1      41.638  37.184  38.480  1.00  0.00    -0.237 OA
ATOM     97  O   UNL A   1      43.804  36.083  38.934  1.00  0.00    -0.237 OA
ATOM     98  O   UNL A   1      43.658  37.863  37.235  1.00  0.00    -0.744 OA
ENDBRANCH  94  95
ENDBRANCH  62  87
ENDBRANCH  36  37
ENDBRANCH  29  31
ENDBRANCH  28  29
ENDBRANCH  27  28
ENDBRANCH   1  27
TORSDOF 18
ENDMDL
MODEL 3
REMARK VINA RESULT:     -12.0      1.547      2.382
REMARK SMILES C/C(=C/c1cccc(OCC(=O)OCCOC(=O)c2ccc(-c3c4nc(c(-c5c(F)cc(S(=O)(=O)[O-])cc5F)c5ccc([nH]5)c(-c5c(F)cc(S(=O)(=O)[O-])cc5F)c5nc(c(-c6c(F)cc(S(=O)(=O)[O-])cc6F)c6ccc3[nH]6)C=C5)C=C4)cc2)c1)c1nc2sccc2c(=O)[nH]1
REMARK SMILES IDX 14 1 13 2 11 3 12 4 10 5 9 6 8 7 4 8 5 9 85 10 6 11 7 12
REMARK SMILES IDX 3 13 1 14 2 15 86 16 87 17 95 18 88 19 93 20 89 22 92 23
REMARK SMILES IDX 94 24 90 25 91 26 15 27 16 28 17 29 18 30 19 31 20 32 84 33
REMARK SMILES IDX 21 34 83 35 22 36 23 37 24 38 77 39 25 40 82 41 76 42 78 43
REMARK SMILES IDX 26 44 81 45 75 46 74 47 27 49 61 50 40 51 60 52 41 53 44 54
REMARK SMILES IDX 59 55 79 56 42 57 43 58 58 60 80 61 45 62 28 63 29 64 38 65
REMARK SMILES IDX 30 66 31 67 37 68 39 69 32 70 33 71 34 72 35 73 36 74 62 75
REMARK SMILES IDX 63 76 72 77 64 78 65 79 71 80 73 81 66 82 67 83 68 84 69 85
REMARK SMILES IDX 70 86 46 87 47 88 56 89 48 90 49 91 55 92 57 93 50 94 51 95
REMARK SMILES IDX 52 96 53 97 54 98
REMARK H PARENT 95 21 78 48 44 59
REMARK Flexibility Score: inf
ROOT
ATOM      1  C   UNL A   1      40.706  21.659  26.193  1.00  0.00     0.274 C 
ENDROOT
BRANCH   1   2
ATOM      2  O   UNL A   1      38.797  22.438  26.010  1.00  0.00    -0.460 OA
BRANCH   2   3
ATOM      3  C   UNL A   1      37.628  23.231  25.869  1.00  0.00     0.344 C 
ATOM      4  O   UNL A   1      37.296  24.137  26.632  1.00  0.00    -0.248 OA
BRANCH   3   5
ATOM      5  C   UNL A   1      36.866  22.926  24.554  1.00  0.00     0.351 C 
BRANCH   5   6
ATOM      6  O   UNL A   1      35.872  23.873  24.187  1.00  0.00    -0.482 OA
BRANCH   6   7
ATOM      7  C   UNL A   1      34.575  23.474  24.023  1.00  0.00     0.120 A 
ATOM      8  C   UNL A   1      32.424  22.563  24.701  1.00  0.00    -0.022 A 
ATOM      9  C   UNL A   1      31.847  23.020  23.516  1.00  0.00     0.008 A 
ATOM     10  C   UNL A   1      33.815  22.695  24.894  1.00  0.00     0.054 A 
ATOM     11  C   UNL A   1      32.631  23.683  22.578  1.00  0.00     0.004 A 
ATOM     12  C   UNL A   1      33.978  23.933  22.847  1.00  0.00     0.046 A 
BRANCH   8  13
ATOM     13  C   UNL A   1      31.495  22.210  25.796  1.00  0.00     0.015 C 
ATOM     14  C   UNL A   1      29.525  22.842  27.272  1.00  0.00     0.048 C 
ATOM     15  C   UNL A   1      30.616  23.107  26.287  1.00  0.00    -0.008 C 
BRANCH  15  16
ATOM     16  C   UNL A   1      30.830  24.527  25.912  1.00  0.00     0.137 A 
ATOM     17  N   UNL A   1      31.926  25.105  26.306  1.00  0.00    -0.219 NA
ATOM     18  N   UNL A   1      29.843  25.047  25.068  1.00  0.00    -0.306 N 
ATOM     19  C   UNL A   1      32.028  26.371  25.880  1.00  0.00     0.131 A 
ATOM     20  C   UNL A   1      29.818  26.285  24.426  1.00  0.00     0.259 A 
ATOM     21  H   UNL A   1      29.066  24.465  24.907  1.00  0.00     0.171 HD
ATOM     22  S   UNL A   1      33.787  27.788  26.476  1.00  0.00    -0.124 S 
ATOM     23  C   UNL A   1      30.928  27.122  24.788  1.00  0.00     0.077 A 
ATOM     24  O   UNL A   1      28.916  26.628  23.672  1.00  0.00    -0.269 OA
ATOM     25  C   UNL A   1      32.876  29.459  25.143  1.00  0.00     0.068 A 
ATOM     26  C   UNL A   1      31.399  28.924  24.372  1.00  0.00     0.028 A 
ENDBRANCH  15  16
ENDBRANCH   8  13
ENDBRANCH   6   7
ENDBRANCH   5   6
ENDBRANCH   3   5
ENDBRANCH   2   3
ENDBRANCH   1   2
BRANCH   1  27
ATOM     27  C   UNL A   1      42.243  22.327  25.657  1.00  0.00     0.275 C 
BRANCH  27  28
ATOM     28  O   UNL A   1      42.574  23.729  25.636  1.00  0.00    -0.458 OA
BRANCH  28  29
ATOM     29  C   UNL A   1      43.468  24.212  26.540  1.00  0.00     0.338 C 
ATOM     30  O   UNL A   1      44.564  23.743  26.796  1.00  0.00    -0.246 OA
BRANCH  29  31
ATOM     31  C   UNL A   1      42.846  25.325  27.312  1.00  0.00     0.060 A 
ATOM     32  C   UNL A   1      41.848  25.050  28.262  1.00  0.00     0.016 A 
ATOM     33  C   UNL A   1      43.265  26.640  27.113  1.00  0.00     0.016 A 
ATOM     34  C   UNL A   1      41.287  26.083  29.025  1.00  0.00     0.010 A 
ATOM     35  C   UNL A   1      42.752  27.665  27.922  1.00  0.00     0.010 A 
ATOM     36  C   UNL A   1      41.808  27.385  28.926  1.00  0.00    -0.014 A 
BRANCH  36  37
ATOM     37  C   UNL A   1      41.712  28.312  30.092  1.00  0.00     0.031 A 
ATOM     38  C   UNL A   1      42.539  28.184  31.340  1.00  0.00     0.074 A 
ATOM     39  C   UNL A   1      40.711  29.217  30.033  1.00  0.00     0.049 A 
ATOM     40  N   UNL A   1      42.442  28.854  32.462  1.00  0.00    -0.248 NA
ATOM     41  C   UNL A   1      43.599  27.168  31.342  1.00  0.00     0.031 C 
ATOM     42  C   UNL A   1      39.803  29.385  28.892  1.00  0.00     0.029 A 
ATOM     43  N   UNL A   1      40.262  30.138  30.943  1.00  0.00    -0.354 N 
ATOM     44  C   UNL A   1      43.418  28.342  33.311  1.00  0.00     0.074 A 
ATOM     45  C   UNL A   1      44.090  27.289  32.572  1.00  0.00     0.031 C 
ATOM     46  C   UNL A   1      38.918  30.349  29.161  1.00  0.00     0.029 A 
ATOM     47  C   UNL A   1      39.154  30.831  30.513  1.00  0.00     0.049 A 
ATOM     48  H   UNL A   1      40.689  30.290  31.816  1.00  0.00     0.167 HD
ATOM     49  C   UNL A   1      43.713  28.716  34.584  1.00  0.00     0.037 A 
ATOM     50  C   UNL A   1      38.381  31.736  31.136  1.00  0.00     0.037 A 
ATOM     51  C   UNL A   1      43.007  29.753  35.306  1.00  0.00     0.049 A 
ATOM     52  C   UNL A   1      38.736  32.135  32.532  1.00  0.00     0.074 A 
ATOM     53  C   UNL A   1      43.247  30.234  36.585  1.00  0.00     0.029 A 
ATOM     54  N   UNL A   1      41.914  30.463  34.822  1.00  0.00    -0.354 N 
ATOM     55  N   UNL A   1      39.696  31.673  33.299  1.00  0.00    -0.248 NA
ATOM     56  C   UNL A   1      37.916  33.184  33.145  1.00  0.00     0.031 C 
ATOM     57  C   UNL A   1      42.273  31.194  36.889  1.00  0.00     0.029 A 
ATOM     58  C   UNL A   1      41.458  31.357  35.781  1.00  0.00     0.049 A 
ATOM     59  H   UNL A   1      41.520  30.348  33.927  1.00  0.00     0.167 HD
ATOM     60  C   UNL A   1      39.603  32.386  34.485  1.00  0.00     0.074 A 
ATOM     61  C   UNL A   1      38.514  33.329  34.319  1.00  0.00     0.031 C 
ATOM     62  C   UNL A   1      40.353  32.270  35.611  1.00  0.00     0.037 A 
BRANCH  49  63
ATOM     63  C   UNL A   1      44.833  27.997  35.299  1.00  0.00     0.058 A 
ATOM     64  C   UNL A   1      46.148  28.491  35.305  1.00  0.00     0.135 A 
ATOM     65  C   UNL A   1      44.580  26.833  36.047  1.00  0.00     0.135 A 
ATOM     66  F   UNL A   1      46.457  29.599  34.611  1.00  0.00    -0.206 F 
ATOM     67  C   UNL A   1      47.172  27.846  35.997  1.00  0.00     0.059 A 
ATOM     68  C   UNL A   1      45.583  26.184  36.766  1.00  0.00     0.059 A 
ATOM     69  F   UNL A   1      43.343  26.315  36.091  1.00  0.00    -0.206 F 
ATOM     70  C   UNL A   1      46.880  26.690  36.723  1.00  0.00     0.060 A 
BRANCH  70  71
ATOM     71  S   UNL A   1      48.223  25.857  37.600  1.00  0.00     0.124 S 
ATOM     72  O   UNL A   1      47.508  24.768  38.259  1.00  0.00    -0.237 OA
ATOM     73  O   UNL A   1      49.111  25.462  36.512  1.00  0.00    -0.237 OA
ATOM     74  O   UNL A   1      48.744  26.890  38.489  1.00  0.00    -0.744 OA
ENDBRANCH  70  71
ENDBRANCH  49  63
BRANCH  50  75
ATOM     75  C   UNL A   1      37.226  32.329  30.416  1.00  0.00     0.058 A 
ATOM     76  C   UNL A   1      35.954  31.747  30.503  1.00  0.00     0.135 A 
ATOM     77  C   UNL A   1      37.350  33.529  29.695  1.00  0.00     0.135 A 
ATOM     78  F   UNL A   1      35.785  30.605  31.187  1.00  0.00    -0.206 F 
ATOM     79  C   UNL A   1      34.847  32.323  29.890  1.00  0.00     0.059 A 
ATOM     80  C   UNL A   1      36.252  34.140  29.099  1.00  0.00     0.059 A 
ATOM     81  F   UNL A   1      38.541  34.143  29.610  1.00  0.00    -0.206 F 
ATOM     82  C   UNL A   1      35.006  33.524  29.195  1.00  0.00     0.060 A 
BRANCH  82  83
ATOM     83  S   UNL A   1      33.549  34.293  28.455  1.00  0.00     0.124 S 
ATOM     84  O   UNL A   1      32.810  34.718  29.639  1.00  0.00    -0.237 OA
ATOM     85  O   UNL A   1      34.139  35.360  27.653  1.00  0.00    -0.237 OA
ATOM     86  O   UNL A   1      32.947  33.205  27.691  1.00  0.00    -0.744 OA
ENDBRANCH  82  83
ENDBRANCH  50  75
BRANCH  62  87
ATOM     87  C   UNL A   1      40.006  33.206  36.736  1.00  0.00     0.058 A 
ATOM     88  C   UNL A   1      40.716  34.400  36.946  1.00  0.00     0.135 A 
ATOM     89  C   UNL A   1      38.984  32.882  37.641  1.00  0.00     0.135 A 
ATOM     90  F   UNL A   1      41.711  34.750  36.115  1.00  0.00    -0.206 F 
ATOM     91  C   UNL A   1      40.461  35.212  38.045  1.00  0.00     0.059 A 
ATOM     92  C   UNL A   1      38.691  33.696  38.731  1.00  0.00     0.059 A 
ATOM     93  F   UNL A   1      38.270  31.757  37.481  1.00  0.00    -0.206 F 
ATOM     94  C   UNL A   1      39.453  34.846  38.939  1.00  0.00     0.060 A 
BRANCH  94  95
ATOM     95  S   UNL A   1      39.149  35.889  40.379  1.00  0.00     0.124 S 
ATOM     96  O   UNL A   1      38.721  37.135  39.752  1.00  0.00    -0.237 OA
ATOM     97  O   UNL A   1      38.114  35.148  41.092  1.00  0.00    -0.237 OA
ATOM     98  O   UNL A   1      40.449  35.935  41.044  1.00  0.00    -0.744 OA
ENDBRANCH  94  95
ENDBRANCH  62  87
ENDBRANCH  36  37
ENDBRANCH  29  31
ENDBRANCH  28  29
ENDBRANCH  27  28
ENDBRANCH   1  27
TORSDOF 18
ENDMDL
