MODEL 1
REMARK VINA RESULT:     -11.2      0.000      0.000
REMARK SMILES C[C@H]1[C@@H]([NH2+]C[C@H]2CC[C@@H](C(=O)OCCOC(=O)c3ccc(-c4c5nc(c(-c6c(F)cc(S(=O)(=O)[O-])cc6F)c6ccc([nH]6)c(-c6c(F)cc(S(=O)(=O)[O-])cc6F)c6nc(c(-c7c(F)cc(S(=O)(=O)[O-])cc7F)c7ccc4[nH]7)C=C6)C=C5)cc3)CC2)CCC[C@@H]1C
REMARK SMILES IDX 13 1 12 2 10 3 11 4 9 5 6 6 7 7 85 8 8 9 84 10 5 11 4 12
REMARK SMILES IDX 3 15 1 16 2 17 89 18 86 19 88 20 90 21 87 22 14 23 15 24
REMARK SMILES IDX 16 25 17 26 18 27 19 28 83 29 20 30 82 31 21 32 22 33 23 34
REMARK SMILES IDX 76 35 24 36 81 37 75 38 77 39 25 40 80 41 74 42 73 43 26 45
REMARK SMILES IDX 60 46 39 47 59 48 40 49 43 50 58 51 78 52 41 53 42 54 57 56
REMARK SMILES IDX 79 57 44 58 27 59 28 60 37 61 29 62 30 63 36 64 38 65 31 66
REMARK SMILES IDX 32 67 33 68 34 69 35 70 61 71 62 72 71 73 63 74 64 75 70 76
REMARK SMILES IDX 72 77 65 78 66 79 67 80 68 81 69 82 45 83 46 84 55 85 47 86
REMARK SMILES IDX 48 87 54 88 56 89 49 90 50 91 51 92 52 93 53 94
REMARK H PARENT 4 13 4 14 77 44 43 55
REMARK Flexibility Score: inf
ROOT
ATOM      1  C   UNL A   1      39.947  21.412  26.503  1.00  0.00     0.274 C 
ENDROOT
BRANCH   1   2
ATOM      2  O   UNL A   1      38.753  21.763  25.774  1.00  0.00    -0.462 OA
BRANCH   2   3
ATOM      3  C   UNL A   1      38.108  20.757  25.129  1.00  0.00     0.309 C 
ATOM      4  O   UNL A   1      38.531  19.611  25.029  1.00  0.00    -0.252 OA
BRANCH   3   5
ATOM      5  C   UNL A   1      36.810  21.210  24.468  1.00  0.00     0.099 C 
ATOM      6  C   UNL A   1      34.379  22.977  24.379  1.00  0.00     0.044 C 
ATOM      7  C   UNL A   1      35.636  23.248  23.544  1.00  0.00     0.010 C 
ATOM      8  C   UNL A   1      34.265  21.477  24.698  1.00  0.00     0.010 C 
ATOM      9  C   UNL A   1      36.915  22.704  24.166  1.00  0.00     0.016 C 
ATOM     10  C   UNL A   1      35.540  20.832  25.246  1.00  0.00     0.016 C 
BRANCH   6  11
ATOM     11  C   UNL A   1      34.239  23.903  25.617  1.00  0.00     0.264 C 
BRANCH  11  12
ATOM     12  N   UNL A   1      34.240  25.319  25.281  1.00  0.00    -0.343 N 
ATOM     13  H   UNL A   1      34.707  25.818  26.039  1.00  0.00     0.346 HD
ATOM     14  H   UNL A   1      34.714  25.384  24.380  1.00  0.00     0.346 HD
BRANCH  12  15
ATOM     15  C   UNL A   1      32.930  25.942  25.079  1.00  0.00     0.185 C 
ATOM     16  C   UNL A   1      33.365  26.027  22.562  1.00  0.00     0.014 C 
ATOM     17  C   UNL A   1      32.986  26.844  23.807  1.00  0.00     0.047 C 
ATOM     18  C   UNL A   1      33.921  28.074  24.008  1.00  0.00    -0.006 C 
ATOM     19  C   UNL A   1      32.486  26.800  26.277  1.00  0.00     0.065 C 
ATOM     20  C   UNL A   1      33.512  28.872  25.258  1.00  0.00     0.004 C 
ATOM     21  C   UNL A   1      33.949  29.011  22.797  1.00  0.00     0.008 C 
ATOM     22  C   UNL A   1      33.390  28.009  26.510  1.00  0.00     0.006 C 
ENDBRANCH  12  15
ENDBRANCH  11  12
ENDBRANCH   6  11
ENDBRANCH   3   5
ENDBRANCH   2   3
ENDBRANCH   1   2
BRANCH   1  23
ATOM     23  C   UNL A   1      41.008  22.506  26.373  1.00  0.00     0.275 C 
BRANCH  23  24
ATOM     24  O   UNL A   1      40.426  23.800  26.611  1.00  0.00    -0.458 OA
BRANCH  24  25
ATOM     25  C   UNL A   1      41.294  24.834  26.530  1.00  0.00     0.338 C 
ATOM     26  O   UNL A   1      42.131  25.035  25.662  1.00  0.00    -0.246 OA
BRANCH  25  27
ATOM     27  C   UNL A   1      40.960  25.823  27.563  1.00  0.00     0.060 A 
ATOM     28  C   UNL A   1      41.794  26.934  27.671  1.00  0.00     0.016 A 
ATOM     29  C   UNL A   1      39.903  25.646  28.454  1.00  0.00     0.016 A 
ATOM     30  C   UNL A   1      41.620  27.855  28.689  1.00  0.00     0.010 A 
ATOM     31  C   UNL A   1      39.704  26.593  29.466  1.00  0.00     0.010 A 
ATOM     32  C   UNL A   1      40.574  27.691  29.596  1.00  0.00    -0.014 A 
BRANCH  32  33
ATOM     33  C   UNL A   1      40.456  28.661  30.706  1.00  0.00     0.031 A 
ATOM     34  C   UNL A   1      41.409  28.580  31.860  1.00  0.00     0.074 A 
ATOM     35  C   UNL A   1      39.556  29.658  30.619  1.00  0.00     0.049 A 
ATOM     36  N   UNL A   1      41.451  29.303  32.947  1.00  0.00    -0.248 NA
ATOM     37  C   UNL A   1      42.460  27.552  31.778  1.00  0.00     0.031 C 
ATOM     38  C   UNL A   1      38.636  29.870  29.499  1.00  0.00     0.029 A 
ATOM     39  N   UNL A   1      39.282  30.690  31.476  1.00  0.00    -0.354 N 
ATOM     40  C   UNL A   1      42.509  28.801  33.694  1.00  0.00     0.074 A 
ATOM     41  C   UNL A   1      43.081  27.707  32.939  1.00  0.00     0.031 C 
ATOM     42  C   UNL A   1      37.908  30.973  29.732  1.00  0.00     0.029 A 
ATOM     43  C   UNL A   1      38.274  31.514  31.038  1.00  0.00     0.049 A 
ATOM     44  H   UNL A   1      39.761  30.829  32.325  1.00  0.00     0.167 HD
ATOM     45  C   UNL A   1      42.957  29.219  34.902  1.00  0.00     0.037 A 
ATOM     46  C   UNL A   1      37.694  32.570  31.636  1.00  0.00     0.037 A 
ATOM     47  C   UNL A   1      42.387  30.323  35.629  1.00  0.00     0.049 A 
ATOM     48  C   UNL A   1      38.182  32.988  32.996  1.00  0.00     0.074 A 
ATOM     49  C   UNL A   1      42.749  30.818  36.869  1.00  0.00     0.029 A 
ATOM     50  N   UNL A   1      41.338  31.110  35.174  1.00  0.00    -0.354 N 
ATOM     51  N   UNL A   1      39.149  32.471  33.717  1.00  0.00    -0.248 NA
ATOM     52  C   UNL A   1      37.497  34.122  33.626  1.00  0.00     0.031 C 
ATOM     53  C   UNL A   1      41.898  31.888  37.177  1.00  0.00     0.029 A 
ATOM     54  C   UNL A   1      41.032  32.081  36.113  1.00  0.00     0.049 A 
ATOM     55  H   UNL A   1      40.879  30.994  34.311  1.00  0.00     0.167 HD
ATOM     56  C   UNL A   1      39.194  33.223  34.885  1.00  0.00     0.074 A 
ATOM     57  C   UNL A   1      38.171  34.242  34.761  1.00  0.00     0.031 C 
ATOM     58  C   UNL A   1      40.003  33.080  35.964  1.00  0.00     0.037 A 
BRANCH  45  59
ATOM     59  C   UNL A   1      44.088  28.449  35.520  1.00  0.00     0.058 A 
ATOM     60  C   UNL A   1      43.864  27.362  36.379  1.00  0.00     0.135 A 
ATOM     61  C   UNL A   1      45.418  28.808  35.251  1.00  0.00     0.135 A 
ATOM     62  F   UNL A   1      42.611  26.993  36.690  1.00  0.00    -0.206 F 
ATOM     63  C   UNL A   1      44.919  26.672  36.969  1.00  0.00     0.059 A 
ATOM     64  C   UNL A   1      46.489  28.120  35.812  1.00  0.00     0.059 A 
ATOM     65  F   UNL A   1      45.687  29.845  34.442  1.00  0.00    -0.206 F 
ATOM     66  C   UNL A   1      46.229  27.062  36.683  1.00  0.00     0.060 A 
BRANCH  66  67
ATOM     67  S   UNL A   1      47.591  26.169  37.462  1.00  0.00     0.124 S 
ATOM     68  O   UNL A   1      48.368  27.265  38.033  1.00  0.00    -0.237 OA
ATOM     69  O   UNL A   1      46.899  25.316  38.423  1.00  0.00    -0.237 OA
ATOM     70  O   UNL A   1      48.220  25.469  36.347  1.00  0.00    -0.744 OA
ENDBRANCH  66  67
ENDBRANCH  45  59
BRANCH  46  71
ATOM     71  C   UNL A   1      36.573  33.282  30.968  1.00  0.00     0.058 A 
ATOM     72  C   UNL A   1      36.799  34.131  29.877  1.00  0.00     0.135 A 
ATOM     73  C   UNL A   1      35.248  33.110  31.399  1.00  0.00     0.135 A 
ATOM     74  F   UNL A   1      38.049  34.335  29.433  1.00  0.00    -0.206 F 
ATOM     75  C   UNL A   1      35.755  34.796  29.242  1.00  0.00     0.059 A 
ATOM     76  C   UNL A   1      34.184  33.743  30.766  1.00  0.00     0.059 A 
ATOM     77  F   UNL A   1      34.977  32.297  32.432  1.00  0.00    -0.206 F 
ATOM     78  C   UNL A   1      34.449  34.593  29.693  1.00  0.00     0.060 A 
BRANCH  78  79
ATOM     79  S   UNL A   1      33.091  35.417  28.833  1.00  0.00     0.124 S 
ATOM     80  O   UNL A   1      32.306  35.931  29.950  1.00  0.00    -0.237 OA
ATOM     81  O   UNL A   1      33.791  36.416  28.032  1.00  0.00    -0.237 OA
ATOM     82  O   UNL A   1      32.474  34.335  28.071  1.00  0.00    -0.744 OA
ENDBRANCH  78  79
ENDBRANCH  46  71
BRANCH  58  83
ATOM     83  C   UNL A   1      39.816  34.065  37.081  1.00  0.00     0.058 A 
ATOM     84  C   UNL A   1      40.512  35.283  37.108  1.00  0.00     0.135 A 
ATOM     85  C   UNL A   1      38.919  33.795  38.127  1.00  0.00     0.135 A 
ATOM     86  F   UNL A   1      41.385  35.584  36.133  1.00  0.00    -0.206 F 
ATOM     87  C   UNL A   1      40.351  36.188  38.152  1.00  0.00     0.059 A 
ATOM     88  C   UNL A   1      38.725  34.694  39.168  1.00  0.00     0.059 A 
ATOM     89  F   UNL A   1      38.222  32.647  38.140  1.00  0.00    -0.206 F 
ATOM     90  C   UNL A   1      39.459  35.880  39.182  1.00  0.00     0.060 A 
BRANCH  90  91
ATOM     91  S   UNL A   1      39.249  37.061  40.531  1.00  0.00     0.124 S 
ATOM     92  O   UNL A   1      40.606  37.575  40.683  1.00  0.00    -0.237 OA
ATOM     93  O   UNL A   1      38.272  37.996  39.985  1.00  0.00    -0.237 OA
ATOM     94  O   UNL A   1      38.765  36.231  41.631  1.00  0.00    -0.744 OA
ENDBRANCH  90  91
ENDBRANCH  58  83
ENDBRANCH  32  33
ENDBRANCH  25  27
ENDBRANCH  24  25
ENDBRANCH  23  24
ENDBRANCH   1  23
TORSDOF 17
ENDMDL
MODEL 2
REMARK VINA RESULT:     -11.0      6.464     12.348
REMARK SMILES C[C@H]1[C@@H]([NH2+]C[C@H]2CC[C@@H](C(=O)OCCOC(=O)c3ccc(-c4c5nc(c(-c6c(F)cc(S(=O)(=O)[O-])cc6F)c6ccc([nH]6)c(-c6c(F)cc(S(=O)(=O)[O-])cc6F)c6nc(c(-c7c(F)cc(S(=O)(=O)[O-])cc7F)c7ccc4[nH]7)C=C6)C=C5)cc3)CC2)CCC[C@@H]1C
REMARK SMILES IDX 13 1 12 2 10 3 11 4 9 5 6 6 7 7 85 8 8 9 84 10 5 11 4 12
REMARK SMILES IDX 3 15 1 16 2 17 89 18 86 19 88 20 90 21 87 22 14 23 15 24
REMARK SMILES IDX 16 25 17 26 18 27 19 28 83 29 20 30 82 31 21 32 22 33 23 34
REMARK SMILES IDX 76 35 24 36 81 37 75 38 77 39 25 40 80 41 74 42 73 43 26 45
REMARK SMILES IDX 60 46 39 47 59 48 40 49 43 50 58 51 78 52 41 53 42 54 57 56
REMARK SMILES IDX 79 57 44 58 27 59 28 60 37 61 29 62 30 63 36 64 38 65 31 66
REMARK SMILES IDX 32 67 33 68 34 69 35 70 61 71 62 72 71 73 63 74 64 75 70 76
REMARK SMILES IDX 72 77 65 78 66 79 67 80 68 81 69 82 45 83 46 84 55 85 47 86
REMARK SMILES IDX 48 87 54 88 56 89 49 90 50 91 51 92 52 93 53 94
REMARK H PARENT 4 13 4 14 77 44 43 55
REMARK Flexibility Score: inf
ROOT
ATOM      1  C   UNL A   1      34.489  31.461  27.703  1.00  0.00     0.274 C 
ENDROOT
BRANCH   1   2
ATOM      2  O   UNL A   1      33.450  30.461  27.671  1.00  0.00    -0.462 OA
BRANCH   2   3
ATOM      3  C   UNL A   1      32.349  30.741  26.926  1.00  0.00     0.309 C 
ATOM      4  O   UNL A   1      31.821  31.845  26.853  1.00  0.00    -0.252 OA
BRANCH   3   5
ATOM      5  C   UNL A   1      31.777  29.513  26.225  1.00  0.00     0.099 C 
ATOM      6  C   UNL A   1      32.095  26.758  25.063  1.00  0.00     0.044 C 
ATOM      7  C   UNL A   1      31.516  27.011  26.460  1.00  0.00     0.010 C 
ATOM      8  C   UNL A   1      31.865  27.984  24.163  1.00  0.00     0.010 C 
ATOM      9  C   UNL A   1      32.019  28.292  27.111  1.00  0.00     0.016 C 
ATOM     10  C   UNL A   1      32.264  29.327  24.781  1.00  0.00     0.016 C 
BRANCH   6  11
ATOM     11  C   UNL A   1      33.560  26.245  25.075  1.00  0.00     0.264 C 
BRANCH  11  12
ATOM     12  N   UNL A   1      33.664  24.798  24.953  1.00  0.00    -0.343 N 
ATOM     13  H   UNL A   1      32.855  24.472  24.425  1.00  0.00     0.346 HD
ATOM     14  H   UNL A   1      34.561  24.628  24.496  1.00  0.00     0.346 HD
BRANCH  12  15
ATOM     15  C   UNL A   1      33.715  24.041  26.206  1.00  0.00     0.185 C 
ATOM     16  C   UNL A   1      36.222  23.673  25.876  1.00  0.00     0.014 C 
ATOM     17  C   UNL A   1      34.867  22.992  26.120  1.00  0.00     0.047 C 
ATOM     18  C   UNL A   1      34.569  21.886  25.064  1.00  0.00    -0.006 C 
ATOM     19  C   UNL A   1      32.397  23.307  26.513  1.00  0.00     0.065 C 
ATOM     20  C   UNL A   1      33.209  21.221  25.340  1.00  0.00     0.004 C 
ATOM     21  C   UNL A   1      35.655  20.808  25.000  1.00  0.00     0.008 C 
ATOM     22  C   UNL A   1      32.068  22.223  25.488  1.00  0.00     0.006 C 
ENDBRANCH  12  15
ENDBRANCH  11  12
ENDBRANCH   6  11
ENDBRANCH   3   5
ENDBRANCH   2   3
ENDBRANCH   1   2
BRANCH   1  23
ATOM     23  C   UNL A   1      34.739  31.943  29.133  1.00  0.00     0.275 C 
BRANCH  23  24
ATOM     24  O   UNL A   1      36.146  31.914  29.433  1.00  0.00    -0.458 OA
BRANCH  24  25
ATOM     25  C   UNL A   1      36.531  30.904  30.245  1.00  0.00     0.338 C 
ATOM     26  O   UNL A   1      35.900  30.413  31.170  1.00  0.00    -0.246 OA
BRANCH  25  27
ATOM     27  C   UNL A   1      37.781  30.327  29.734  1.00  0.00     0.060 A 
ATOM     28  C   UNL A   1      38.761  30.004  30.670  1.00  0.00     0.016 A 
ATOM     29  C   UNL A   1      38.027  30.164  28.372  1.00  0.00     0.016 A 
ATOM     30  C   UNL A   1      40.009  29.562  30.268  1.00  0.00     0.010 A 
ATOM     31  C   UNL A   1      39.277  29.687  27.961  1.00  0.00     0.010 A 
ATOM     32  C   UNL A   1      40.278  29.402  28.908  1.00  0.00    -0.014 A 
BRANCH  32  33
ATOM     33  C   UNL A   1      41.640  28.987  28.513  1.00  0.00     0.031 A 
ATOM     34  C   UNL A   1      42.759  29.983  28.566  1.00  0.00     0.074 A 
ATOM     35  C   UNL A   1      41.875  27.698  28.202  1.00  0.00     0.049 A 
ATOM     36  N   UNL A   1      44.011  29.836  28.224  1.00  0.00    -0.248 NA
ATOM     37  C   UNL A   1      42.426  31.323  29.076  1.00  0.00     0.031 C 
ATOM     38  C   UNL A   1      40.868  26.634  28.198  1.00  0.00     0.029 A 
ATOM     39  N   UNL A   1      43.034  27.062  27.849  1.00  0.00    -0.354 N 
ATOM     40  C   UNL A   1      44.611  31.069  28.448  1.00  0.00     0.074 A 
ATOM     41  C   UNL A   1      43.584  31.957  28.949  1.00  0.00     0.031 C 
ATOM     42  C   UNL A   1      41.458  25.473  27.873  1.00  0.00     0.029 A 
ATOM     43  C   UNL A   1      42.869  25.722  27.596  1.00  0.00     0.049 A 
ATOM     44  H   UNL A   1      43.904  27.520  27.784  1.00  0.00     0.167 HD
ATOM     45  C   UNL A   1      45.903  31.423  28.248  1.00  0.00     0.037 A 
ATOM     46  C   UNL A   1      43.754  24.804  27.163  1.00  0.00     0.037 A 
ATOM     47  C   UNL A   1      46.915  30.520  27.767  1.00  0.00     0.049 A 
ATOM     48  C   UNL A   1      45.172  25.233  26.909  1.00  0.00     0.074 A 
ATOM     49  C   UNL A   1      48.250  30.778  27.509  1.00  0.00     0.029 A 
ATOM     50  N   UNL A   1      46.704  29.178  27.479  1.00  0.00    -0.354 N 
ATOM     51  N   UNL A   1      45.716  26.416  27.073  1.00  0.00    -0.248 NA
ATOM     52  C   UNL A   1      46.094  24.209  26.404  1.00  0.00     0.031 C 
ATOM     53  C   UNL A   1      48.839  29.598  27.037  1.00  0.00     0.029 A 
ATOM     54  C   UNL A   1      47.880  28.597  27.036  1.00  0.00     0.049 A 
ATOM     55  H   UNL A   1      45.844  28.710  27.576  1.00  0.00     0.167 HD
ATOM     56  C   UNL A   1      47.047  26.278  26.698  1.00  0.00     0.074 A 
ATOM     57  C   UNL A   1      47.228  24.890  26.321  1.00  0.00     0.031 C 
ATOM     58  C   UNL A   1      48.029  27.212  26.663  1.00  0.00     0.037 A 
BRANCH  45  59
ATOM     59  C   UNL A   1      46.273  32.854  28.511  1.00  0.00     0.058 A 
ATOM     60  C   UNL A   1      46.738  33.283  29.764  1.00  0.00     0.135 A 
ATOM     61  C   UNL A   1      46.157  33.812  27.492  1.00  0.00     0.135 A 
ATOM     62  F   UNL A   1      46.844  32.412  30.780  1.00  0.00    -0.206 F 
ATOM     63  C   UNL A   1      47.052  34.617  30.005  1.00  0.00     0.059 A 
ATOM     64  C   UNL A   1      46.485  35.148  27.704  1.00  0.00     0.059 A 
ATOM     65  F   UNL A   1      45.709  33.457  26.278  1.00  0.00    -0.206 F 
ATOM     66  C   UNL A   1      46.917  35.544  28.969  1.00  0.00     0.060 A 
BRANCH  66  67
ATOM     67  S   UNL A   1      47.315  37.275  29.295  1.00  0.00     0.124 S 
ATOM     68  O   UNL A   1      46.096  37.942  28.848  1.00  0.00    -0.237 OA
ATOM     69  O   UNL A   1      47.547  37.279  30.736  1.00  0.00    -0.237 OA
ATOM     70  O   UNL A   1      48.497  37.511  28.474  1.00  0.00    -0.744 OA
ENDBRANCH  66  67
ENDBRANCH  45  59
BRANCH  46  71
ATOM     71  C   UNL A   1      43.315  23.406  26.917  1.00  0.00     0.058 A 
ATOM     72  C   UNL A   1      43.166  22.910  25.615  1.00  0.00     0.135 A 
ATOM     73  C   UNL A   1      43.054  22.531  27.983  1.00  0.00     0.135 A 
ATOM     74  F   UNL A   1      43.396  23.710  24.562  1.00  0.00    -0.206 F 
ATOM     75  C   UNL A   1      42.762  21.601  25.375  1.00  0.00     0.059 A 
ATOM     76  C   UNL A   1      42.672  21.211  27.771  1.00  0.00     0.059 A 
ATOM     77  F   UNL A   1      43.194  22.954  29.250  1.00  0.00    -0.206 F 
ATOM     78  C   UNL A   1      42.519  20.757  26.462  1.00  0.00     0.060 A 
BRANCH  78  79
ATOM     79  S   UNL A   1      42.046  19.043  26.147  1.00  0.00     0.124 S 
ATOM     80  O   UNL A   1      42.976  18.671  25.087  1.00  0.00    -0.237 OA
ATOM     81  O   UNL A   1      42.273  18.414  27.445  1.00  0.00    -0.237 OA
ATOM     82  O   UNL A   1      40.645  19.152  25.750  1.00  0.00    -0.744 OA
ENDBRANCH  78  79
ENDBRANCH  46  71
BRANCH  58  83
ATOM     83  C   UNL A   1      49.385  26.749  26.215  1.00  0.00     0.058 A 
ATOM     84  C   UNL A   1      50.252  26.073  27.086  1.00  0.00     0.135 A 
ATOM     85  C   UNL A   1      49.814  26.970  24.897  1.00  0.00     0.135 A 
ATOM     86  F   UNL A   1      49.888  25.843  28.358  1.00  0.00    -0.206 F 
ATOM     87  C   UNL A   1      51.515  25.659  26.676  1.00  0.00     0.059 A 
ATOM     88  C   UNL A   1      51.062  26.545  24.458  1.00  0.00     0.059 A 
ATOM     89  F   UNL A   1      49.016  27.604  24.023  1.00  0.00    -0.206 F 
ATOM     90  C   UNL A   1      51.913  25.906  25.360  1.00  0.00     0.060 A 
BRANCH  90  91
ATOM     91  S   UNL A   1      53.551  25.362  24.832  1.00  0.00     0.124 S 
ATOM     92  O   UNL A   1      54.416  26.259  25.590  1.00  0.00    -0.237 OA
ATOM     93  O   UNL A   1      53.568  23.963  25.245  1.00  0.00    -0.237 OA
ATOM     94  O   UNL A   1      53.528  25.581  23.388  1.00  0.00    -0.744 OA
ENDBRANCH  90  91
ENDBRANCH  58  83
ENDBRANCH  32  33
ENDBRANCH  25  27
ENDBRANCH  24  25
ENDBRANCH  23  24
ENDBRANCH   1  23
TORSDOF 17
ENDMDL
MODEL 3
REMARK VINA RESULT:     -10.9      0.722      2.108
REMARK SMILES C[C@H]1[C@@H]([NH2+]C[C@H]2CC[C@@H](C(=O)OCCOC(=O)c3ccc(-c4c5nc(c(-c6c(F)cc(S(=O)(=O)[O-])cc6F)c6ccc([nH]6)c(-c6c(F)cc(S(=O)(=O)[O-])cc6F)c6nc(c(-c7c(F)cc(S(=O)(=O)[O-])cc7F)c7ccc4[nH]7)C=C6)C=C5)cc3)CC2)CCC[C@@H]1C
REMARK SMILES IDX 13 1 12 2 10 3 11 4 9 5 6 6 7 7 85 8 8 9 84 10 5 11 4 12
REMARK SMILES IDX 3 15 1 16 2 17 89 18 86 19 88 20 90 21 87 22 14 23 15 24
REMARK SMILES IDX 16 25 17 26 18 27 19 28 83 29 20 30 82 31 21 32 22 33 23 34
REMARK SMILES IDX 76 35 24 36 81 37 75 38 77 39 25 40 80 41 74 42 73 43 26 45
REMARK SMILES IDX 60 46 39 47 59 48 40 49 43 50 58 51 78 52 41 53 42 54 57 56
REMARK SMILES IDX 79 57 44 58 27 59 28 60 37 61 29 62 30 63 36 64 38 65 31 66
REMARK SMILES IDX 32 67 33 68 34 69 35 70 61 71 62 72 71 73 63 74 64 75 70 76
REMARK SMILES IDX 72 77 65 78 66 79 67 80 68 81 69 82 45 83 46 84 55 85 47 86
REMARK SMILES IDX 48 87 54 88 56 89 49 90 50 91 51 92 52 93 53 94
REMARK H PARENT 4 13 4 14 77 44 43 55
REMARK Flexibility Score: inf
ROOT
ATOM      1  C   UNL A   1      39.814  21.299  26.264  1.00  0.00     0.274 C 
ENDROOT
BRANCH   1   2
ATOM      2  O   UNL A   1      38.632  21.943  25.744  1.00  0.00    -0.462 OA
BRANCH   2   3
ATOM      3  C   UNL A   1      37.631  21.134  25.311  1.00  0.00     0.309 C 
ATOM      4  O   UNL A   1      37.792  20.145  24.605  1.00  0.00    -0.252 OA
BRANCH   3   5
ATOM      5  C   UNL A   1      36.249  21.616  25.740  1.00  0.00     0.099 C 
ATOM      6  C   UNL A   1      33.783  23.277  25.290  1.00  0.00     0.044 C 
ATOM      7  C   UNL A   1      33.852  21.782  24.958  1.00  0.00     0.010 C 
ATOM      8  C   UNL A   1      34.786  23.620  26.405  1.00  0.00     0.010 C 
ATOM      9  C   UNL A   1      35.255  21.290  24.627  1.00  0.00     0.016 C 
ATOM     10  C   UNL A   1      36.203  23.083  26.190  1.00  0.00     0.016 C 
BRANCH   6  11
ATOM     11  C   UNL A   1      33.875  24.201  24.046  1.00  0.00     0.264 C 
BRANCH  11  12
ATOM     12  N   UNL A   1      33.194  25.475  24.221  1.00  0.00    -0.343 N 
ATOM     13  H   UNL A   1      32.194  25.312  24.097  1.00  0.00     0.346 HD
ATOM     14  H   UNL A   1      33.455  25.796  25.154  1.00  0.00     0.346 HD
BRANCH  12  15
ATOM     15  C   UNL A   1      33.586  26.554  23.311  1.00  0.00     0.185 C 
ATOM     16  C   UNL A   1      33.707  28.168  25.289  1.00  0.00     0.014 C 
ATOM     17  C   UNL A   1      33.102  27.916  23.900  1.00  0.00     0.047 C 
ATOM     18  C   UNL A   1      31.548  28.024  23.909  1.00  0.00    -0.006 C 
ATOM     19  C   UNL A   1      32.999  26.386  21.899  1.00  0.00     0.065 C 
ATOM     20  C   UNL A   1      30.975  27.771  22.503  1.00  0.00     0.004 C 
ATOM     21  C   UNL A   1      31.043  29.376  24.424  1.00  0.00     0.008 C 
ATOM     22  C   UNL A   1      31.475  26.475  21.874  1.00  0.00     0.006 C 
ENDBRANCH  12  15
ENDBRANCH  11  12
ENDBRANCH   6  11
ENDBRANCH   3   5
ENDBRANCH   2   3
ENDBRANCH   1   2
BRANCH   1  23
ATOM     23  C   UNL A   1      40.968  22.295  26.389  1.00  0.00     0.275 C 
BRANCH  23  24
ATOM     24  O   UNL A   1      40.551  23.457  27.128  1.00  0.00    -0.458 OA
BRANCH  24  25
ATOM     25  C   UNL A   1      41.142  24.612  26.747  1.00  0.00     0.338 C 
ATOM     26  O   UNL A   1      41.713  24.841  25.691  1.00  0.00    -0.246 OA
BRANCH  25  27
ATOM     27  C   UNL A   1      40.834  25.657  27.733  1.00  0.00     0.060 A 
ATOM     28  C   UNL A   1      41.777  26.670  27.899  1.00  0.00     0.016 A 
ATOM     29  C   UNL A   1      39.691  25.620  28.529  1.00  0.00     0.016 A 
ATOM     30  C   UNL A   1      41.621  27.629  28.883  1.00  0.00     0.010 A 
ATOM     31  C   UNL A   1      39.514  26.608  29.505  1.00  0.00     0.010 A 
ATOM     32  C   UNL A   1      40.488  27.604  29.697  1.00  0.00    -0.014 A 
BRANCH  32  33
ATOM     33  C   UNL A   1      40.385  28.608  30.778  1.00  0.00     0.031 A 
ATOM     34  C   UNL A   1      41.345  28.553  31.928  1.00  0.00     0.074 A 
ATOM     35  C   UNL A   1      39.494  29.610  30.667  1.00  0.00     0.049 A 
ATOM     36  N   UNL A   1      41.400  29.308  32.993  1.00  0.00    -0.248 NA
ATOM     37  C   UNL A   1      42.387  27.514  31.870  1.00  0.00     0.031 C 
ATOM     38  C   UNL A   1      38.568  29.796  29.546  1.00  0.00     0.029 A 
ATOM     39  N   UNL A   1      39.233  30.669  31.494  1.00  0.00    -0.354 N 
ATOM     40  C   UNL A   1      42.459  28.820  33.748  1.00  0.00     0.074 A 
ATOM     41  C   UNL A   1      43.016  27.698  33.022  1.00  0.00     0.031 C 
ATOM     42  C   UNL A   1      37.851  30.912  29.751  1.00  0.00     0.029 A 
ATOM     43  C   UNL A   1      38.229  31.488  31.038  1.00  0.00     0.049 A 
ATOM     44  H   UNL A   1      39.719  30.829  32.336  1.00  0.00     0.167 HD
ATOM     45  C   UNL A   1      42.918  29.270  34.940  1.00  0.00     0.037 A 
ATOM     46  C   UNL A   1      37.662  32.567  31.608  1.00  0.00     0.037 A 
ATOM     47  C   UNL A   1      42.362  30.399  35.637  1.00  0.00     0.049 A 
ATOM     48  C   UNL A   1      38.162  33.020  32.952  1.00  0.00     0.074 A 
ATOM     49  C   UNL A   1      42.736  30.928  36.860  1.00  0.00     0.029 A 
ATOM     50  N   UNL A   1      41.316  31.181  35.165  1.00  0.00    -0.354 N 
ATOM     51  N   UNL A   1      39.130  32.517  33.682  1.00  0.00    -0.248 NA
ATOM     52  C   UNL A   1      37.491  34.178  33.552  1.00  0.00     0.031 C 
ATOM     53  C   UNL A   1      41.896  32.013  37.141  1.00  0.00     0.029 A 
ATOM     54  C   UNL A   1      41.024  32.182  36.077  1.00  0.00     0.049 A 
ATOM     55  H   UNL A   1      40.851  31.044  34.309  1.00  0.00     0.167 HD
ATOM     56  C   UNL A   1      39.189  33.303  34.826  1.00  0.00     0.074 A 
ATOM     57  C   UNL A   1      38.173  34.327  34.679  1.00  0.00     0.031 C 
ATOM     58  C   UNL A   1      40.003  33.186  35.904  1.00  0.00     0.037 A 
BRANCH  45  59
ATOM     59  C   UNL A   1      44.046  28.508  35.574  1.00  0.00     0.058 A 
ATOM     60  C   UNL A   1      45.389  28.861  35.368  1.00  0.00     0.135 A 
ATOM     61  C   UNL A   1      43.778  27.406  36.400  1.00  0.00     0.135 A 
ATOM     62  F   UNL A   1      45.701  29.892  34.567  1.00  0.00    -0.206 F 
ATOM     63  C   UNL A   1      46.428  28.132  35.938  1.00  0.00     0.059 A 
ATOM     64  C   UNL A   1      44.800  26.674  36.998  1.00  0.00     0.059 A 
ATOM     65  F   UNL A   1      42.511  27.021  36.624  1.00  0.00    -0.206 F 
ATOM     66  C   UNL A   1      46.123  27.036  36.749  1.00  0.00     0.060 A 
BRANCH  66  67
ATOM     67  S   UNL A   1      47.478  26.089  37.474  1.00  0.00     0.124 S 
ATOM     68  O   UNL A   1      47.090  24.723  37.138  1.00  0.00    -0.237 OA
ATOM     69  O   UNL A   1      48.642  26.610  36.765  1.00  0.00    -0.237 OA
ATOM     70  O   UNL A   1      47.409  26.430  38.891  1.00  0.00    -0.744 OA
ENDBRANCH  66  67
ENDBRANCH  45  59
BRANCH  46  71
ATOM     71  C   UNL A   1      36.543  33.268  30.926  1.00  0.00     0.058 A 
ATOM     72  C   UNL A   1      35.225  33.154  31.387  1.00  0.00     0.135 A 
ATOM     73  C   UNL A   1      36.775  34.081  29.805  1.00  0.00     0.135 A 
ATOM     74  F   UNL A   1      34.951  32.381  32.450  1.00  0.00    -0.206 F 
ATOM     75  C   UNL A   1      34.173  33.812  30.758  1.00  0.00     0.059 A 
ATOM     76  C   UNL A   1      35.745  34.768  29.173  1.00  0.00     0.059 A 
ATOM     77  F   UNL A   1      38.022  34.233  29.331  1.00  0.00    -0.206 F 
ATOM     78  C   UNL A   1      34.444  34.619  29.651  1.00  0.00     0.060 A 
BRANCH  78  79
ATOM     79  S   UNL A   1      33.083  35.513  28.869  1.00  0.00     0.124 S 
ATOM     80  O   UNL A   1      32.438  34.452  28.103  1.00  0.00    -0.237 OA
ATOM     81  O   UNL A   1      32.337  36.012  30.020  1.00  0.00    -0.237 OA
ATOM     82  O   UNL A   1      33.765  36.536  28.082  1.00  0.00    -0.744 OA
ENDBRANCH  78  79
ENDBRANCH  46  71
BRANCH  58  83
ATOM     83  C   UNL A   1      39.832  34.205  36.993  1.00  0.00     0.058 A 
ATOM     84  C   UNL A   1      39.067  33.934  38.137  1.00  0.00     0.135 A 
ATOM     85  C   UNL A   1      40.453  35.461  36.897  1.00  0.00     0.135 A 
ATOM     86  F   UNL A   1      38.449  32.749  38.271  1.00  0.00    -0.206 F 
ATOM     87  C   UNL A   1      38.895  34.885  39.137  1.00  0.00     0.059 A 
ATOM     88  C   UNL A   1      40.314  36.418  37.895  1.00  0.00     0.059 A 
ATOM     89  F   UNL A   1      41.204  35.764  35.826  1.00  0.00    -0.206 F 
ATOM     90  C   UNL A   1      39.518  36.128  39.003  1.00  0.00     0.060 A 
BRANCH  90  91
ATOM     91  S   UNL A   1      39.295  37.357  40.306  1.00  0.00     0.124 S 
ATOM     92  O   UNL A   1      38.519  38.379  39.614  1.00  0.00    -0.237 OA
ATOM     93  O   UNL A   1      38.582  36.604  41.333  1.00  0.00    -0.237 OA
ATOM     94  O   UNL A   1      40.664  37.732  40.651  1.00  0.00    -0.744 OA
ENDBRANCH  90  91
ENDBRANCH  58  83
ENDBRANCH  32  33
ENDBRANCH  25  27
ENDBRANCH  24  25
ENDBRANCH  23  24
ENDBRANCH   1  23
TORSDOF 17
ENDMDL
