MODEL 1
REMARK VINA RESULT:      -9.7      0.000      0.000
REMARK SMILES CCOc1cc2c(cc1/C=C1/C(=O)N(c3cccc(C(=O)OCCOC(=O)c4ccc(-c5c6nc(c(-c7c(F)cc(S(=O)(=O)[O-])cc7F)c7ccc([nH]7)c(-c7c(F)cc(S(=O)(=O)[O-])cc7F)c7nc(c(-c8c(F)cc(S(=O)(=O)[O-])cc8F)c8ccc5[nH]8)C=C7)C=C6)cc4)c3)C(=S)N=C1O)OCO2
REMARK SMILES IDX 23 1 22 2 20 3 21 4 19 5 15 6 16 7 94 8 17 9 18 10 14 11
REMARK SMILES IDX 10 12 11 13 12 14 98 15 13 16 97 17 95 18 96 19 9 20 4 21
REMARK SMILES IDX 5 22 6 23 8 24 7 25 102 26 100 27 101 28 3 29 2 30 1 31
REMARK SMILES IDX 99 32 24 34 25 35 26 36 27 37 28 38 29 39 93 40 30 41 92 42
REMARK SMILES IDX 31 43 32 44 33 45 86 46 34 47 91 48 85 49 87 50 35 51 90 52
REMARK SMILES IDX 84 53 83 54 36 56 70 57 49 58 69 59 50 60 53 61 68 62 88 63
REMARK SMILES IDX 51 64 52 65 67 67 89 68 54 69 37 70 38 71 47 72 39 73 40 74
REMARK SMILES IDX 46 75 48 76 41 77 42 78 43 79 44 80 45 81 71 82 72 83 81 84
REMARK SMILES IDX 73 85 74 86 80 87 82 88 75 89 76 90 77 91 78 92 79 93 55 94
REMARK SMILES IDX 56 95 65 96 57 97 58 98 64 99 66 100 59 101 60 102 61 103
REMARK SMILES IDX 62 104 63 105
REMARK H PARENT 99 33 87 55 53 66
REMARK Flexibility Score: inf
ROOT
ATOM      1  C   UNL A   1      34.583  33.213  31.082  1.00  0.00     0.275 C 
ENDROOT
BRANCH   1   2
ATOM      2  O   UNL A   1      35.378  32.955  32.255  1.00  0.00    -0.458 OA
BRANCH   2   3
ATOM      3  C   UNL A   1      35.871  34.047  32.901  1.00  0.00     0.338 C 
ATOM      4  O   UNL A   1      35.597  35.205  32.677  1.00  0.00    -0.246 OA
BRANCH   3   5
ATOM      5  C   UNL A   1      36.745  33.617  34.027  1.00  0.00     0.062 A 
ATOM      6  C   UNL A   1      38.722  32.490  34.874  1.00  0.00     0.052 A 
ATOM      7  C   UNL A   1      38.318  32.768  36.186  1.00  0.00     0.027 A 
ATOM      8  C   UNL A   1      37.918  32.899  33.799  1.00  0.00     0.042 A 
ATOM      9  C   UNL A   1      37.144  33.487  36.417  1.00  0.00     0.003 A 
ATOM     10  C   UNL A   1      36.383  33.943  35.340  1.00  0.00     0.016 A 
BRANCH   6  11
ATOM     11  N   UNL A   1      39.987  31.884  34.581  1.00  0.00    -0.251 N 
ATOM     12  C   UNL A   1      41.241  28.636  33.514  1.00  0.00     0.031 C 
ATOM     13  C   UNL A   1      41.251  29.857  34.096  1.00  0.00     0.103 C 
ATOM     14  C   UNL A   1      39.940  30.489  34.390  1.00  0.00     0.270 C 
ATOM     15  C   UNL A   1      42.389  30.693  34.452  1.00  0.00     0.226 C 
ATOM     16  O   UNL A   1      38.919  29.802  34.421  1.00  0.00    -0.268 OA
ATOM     17  N   UNL A   1      42.381  31.954  34.643  1.00  0.00    -0.184 NA
ATOM     18  C   UNL A   1      41.186  32.637  34.572  1.00  0.00     0.210 C 
ATOM     19  S   UNL A   1      41.292  34.330  34.615  1.00  0.00    -0.038 S 
BRANCH  12  20
ATOM     20  C   UNL A   1      42.390  27.827  33.056  1.00  0.00     0.021 A 
ATOM     21  C   UNL A   1      42.929  26.782  33.860  1.00  0.00     0.130 A 
ATOM     22  C   UNL A   1      44.093  26.113  33.463  1.00  0.00     0.097 A 
ATOM     23  C   UNL A   1      44.701  26.511  32.294  1.00  0.00     0.169 A 
ATOM     24  C   UNL A   1      42.964  28.085  31.799  1.00  0.00     0.062 A 
ATOM     25  C   UNL A   1      44.141  27.456  31.475  1.00  0.00     0.166 A 
ATOM     26  O   UNL A   1      45.873  26.030  31.797  1.00  0.00    -0.453 OA
ATOM     27  O   UNL A   1      44.886  27.694  30.364  1.00  0.00    -0.454 OA
ATOM     28  C   UNL A   1      46.050  26.897  30.657  1.00  0.00     0.468 C 
BRANCH  21  29
ATOM     29  O   UNL A   1      42.205  26.361  34.947  1.00  0.00    -0.493 OA
BRANCH  29  30
ATOM     30  C   UNL A   1      42.732  25.251  35.681  1.00  0.00     0.226 C 
ATOM     31  C   UNL A   1      41.807  24.041  35.681  1.00  0.00     0.049 C 
ENDBRANCH  29  30
ENDBRANCH  21  29
ENDBRANCH  12  20
BRANCH  15  32
ATOM     32  O   UNL A   1      43.551  30.076  34.677  1.00  0.00    -0.493 OA
ATOM     33  H   UNL A   1      43.866  29.975  35.553  1.00  0.00     0.295 HD
ENDBRANCH  15  32
ENDBRANCH   6  11
ENDBRANCH   3   5
ENDBRANCH   2   3
ENDBRANCH   1   2
BRANCH   1  34
ATOM     34  C   UNL A   1      35.071  32.379  29.897  1.00  0.00     0.275 C 
BRANCH  34  35
ATOM     35  O   UNL A   1      35.912  31.307  30.360  1.00  0.00    -0.458 OA
BRANCH  35  36
ATOM     36  C   UNL A   1      36.146  30.321  29.465  1.00  0.00     0.338 C 
ATOM     37  O   UNL A   1      35.325  29.687  28.824  1.00  0.00    -0.246 OA
BRANCH  36  38
ATOM     38  C   UNL A   1      37.596  30.170  29.274  1.00  0.00     0.060 A 
ATOM     39  C   UNL A   1      38.063  30.015  27.974  1.00  0.00     0.016 A 
ATOM     40  C   UNL A   1      38.467  30.026  30.350  1.00  0.00     0.016 A 
ATOM     41  C   UNL A   1      39.379  29.639  27.732  1.00  0.00     0.010 A 
ATOM     42  C   UNL A   1      39.815  29.728  30.104  1.00  0.00     0.010 A 
ATOM     43  C   UNL A   1      40.280  29.494  28.794  1.00  0.00    -0.014 A 
BRANCH  43  44
ATOM     44  C   UNL A   1      41.673  29.027  28.527  1.00  0.00     0.031 A 
ATOM     45  C   UNL A   1      42.827  29.993  28.642  1.00  0.00     0.074 A 
ATOM     46  C   UNL A   1      41.920  27.734  28.230  1.00  0.00     0.049 A 
ATOM     47  N   UNL A   1      44.083  29.826  28.313  1.00  0.00    -0.248 NA
ATOM     48  C   UNL A   1      42.526  31.325  29.188  1.00  0.00     0.031 C 
ATOM     49  C   UNL A   1      40.912  26.675  28.140  1.00  0.00     0.029 A 
ATOM     50  N   UNL A   1      43.101  27.085  27.957  1.00  0.00    -0.354 N 
ATOM     51  C   UNL A   1      44.707  31.046  28.556  1.00  0.00     0.074 A 
ATOM     52  C   UNL A   1      43.689  31.946  29.055  1.00  0.00     0.031 C 
ATOM     53  C   UNL A   1      41.519  25.508  27.875  1.00  0.00     0.029 A 
ATOM     54  C   UNL A   1      42.945  25.745  27.684  1.00  0.00     0.049 A 
ATOM     55  H   UNL A   1      43.976  27.536  27.957  1.00  0.00     0.167 HD
ATOM     56  C   UNL A   1      46.008  31.383  28.382  1.00  0.00     0.037 A 
ATOM     57  C   UNL A   1      43.837  24.817  27.282  1.00  0.00     0.037 A 
ATOM     58  C   UNL A   1      47.029  30.465  27.944  1.00  0.00     0.049 A 
ATOM     59  C   UNL A   1      45.269  25.222  27.064  1.00  0.00     0.074 A 
ATOM     60  C   UNL A   1      48.378  30.708  27.752  1.00  0.00     0.029 A 
ATOM     61  N   UNL A   1      46.819  29.127  27.646  1.00  0.00    -0.354 N 
ATOM     62  N   UNL A   1      45.830  26.394  27.244  1.00  0.00    -0.248 NA
ATOM     63  C   UNL A   1      46.185  24.185  26.569  1.00  0.00     0.031 C 
ATOM     64  C   UNL A   1      48.977  29.526  27.301  1.00  0.00     0.029 A 
ATOM     65  C   UNL A   1      48.010  28.535  27.257  1.00  0.00     0.049 A 
ATOM     66  H   UNL A   1      45.951  28.665  27.702  1.00  0.00     0.167 HD
ATOM     67  C   UNL A   1      47.167  26.231  26.896  1.00  0.00     0.074 A 
ATOM     68  C   UNL A   1      47.333  24.844  26.515  1.00  0.00     0.031 C 
ATOM     69  C   UNL A   1      48.164  27.150  26.887  1.00  0.00     0.037 A 
BRANCH  56  70
ATOM     70  C   UNL A   1      46.400  32.815  28.632  1.00  0.00     0.058 A 
ATOM     71  C   UNL A   1      46.351  33.791  27.626  1.00  0.00     0.135 A 
ATOM     72  C   UNL A   1      46.798  33.221  29.917  1.00  0.00     0.135 A 
ATOM     73  F   UNL A   1      45.992  33.457  26.375  1.00  0.00    -0.206 F 
ATOM     74  C   UNL A   1      46.712  35.113  27.875  1.00  0.00     0.059 A 
ATOM     75  C   UNL A   1      47.137  34.542  30.196  1.00  0.00     0.059 A 
ATOM     76  F   UNL A   1      46.861  32.330  30.919  1.00  0.00    -0.206 F 
ATOM     77  C   UNL A   1      47.105  35.478  29.164  1.00  0.00     0.060 A 
BRANCH  77  78
ATOM     78  S   UNL A   1      47.570  37.195  29.475  1.00  0.00     0.124 S 
ATOM     79  O   UNL A   1      48.747  37.338  28.623  1.00  0.00    -0.237 OA
ATOM     80  O   UNL A   1      46.382  37.924  29.042  1.00  0.00    -0.237 OA
ATOM     81  O   UNL A   1      47.830  37.223  30.911  1.00  0.00    -0.744 OA
ENDBRANCH  77  78
ENDBRANCH  56  70
BRANCH  57  82
ATOM     82  C   UNL A   1      43.389  23.422  27.016  1.00  0.00     0.058 A 
ATOM     83  C   UNL A   1      43.221  22.950  25.707  1.00  0.00     0.135 A 
ATOM     84  C   UNL A   1      43.130  22.530  28.070  1.00  0.00     0.135 A 
ATOM     85  F   UNL A   1      43.441  23.767  24.665  1.00  0.00    -0.206 F 
ATOM     86  C   UNL A   1      42.805  21.647  25.449  1.00  0.00     0.059 A 
ATOM     87  C   UNL A   1      42.744  21.214  27.838  1.00  0.00     0.059 A 
ATOM     88  F   UNL A   1      43.283  22.929  29.342  1.00  0.00    -0.206 F 
ATOM     89  C   UNL A   1      42.574  20.785  26.523  1.00  0.00     0.060 A 
BRANCH  89  90
ATOM     90  S   UNL A   1      42.088  19.080  26.180  1.00  0.00     0.124 S 
ATOM     91  O   UNL A   1      42.990  18.732  25.089  1.00  0.00    -0.237 OA
ATOM     92  O   UNL A   1      42.347  18.423  27.458  1.00  0.00    -0.237 OA
ATOM     93  O   UNL A   1      40.678  19.199  25.821  1.00  0.00    -0.744 OA
ENDBRANCH  89  90
ENDBRANCH  57  82
BRANCH  69  94
ATOM     94  C   UNL A   1      49.533  26.679  26.483  1.00  0.00     0.058 A 
ATOM     95  C   UNL A   1      50.392  26.043  27.393  1.00  0.00     0.135 A 
ATOM     96  C   UNL A   1      49.975  26.828  25.158  1.00  0.00     0.135 A 
ATOM     97  F   UNL A   1      50.021  25.882  28.673  1.00  0.00    -0.206 F 
ATOM     98  C   UNL A   1      51.651  25.593  27.009  1.00  0.00     0.059 A 
ATOM     99  C   UNL A   1      51.220  26.362  24.747  1.00  0.00     0.059 A 
ATOM    100  F   UNL A   1      49.188  27.422  24.246  1.00  0.00    -0.206 F 
ATOM    101  C   UNL A   1      52.056  25.756  25.683  1.00  0.00     0.060 A 
BRANCH 101 102
ATOM    102  S   UNL A   1      53.680  25.142  25.191  1.00  0.00     0.124 S 
ATOM    103  O   UNL A   1      54.543  25.754  26.195  1.00  0.00    -0.237 OA
ATOM    104  O   UNL A   1      53.513  23.696  25.294  1.00  0.00    -0.237 OA
ATOM    105  O   UNL A   1      53.839  25.653  23.832  1.00  0.00    -0.744 OA
ENDBRANCH 101 102
ENDBRANCH  69  94
ENDBRANCH  43  44
ENDBRANCH  36  38
ENDBRANCH  35  36
ENDBRANCH  34  35
ENDBRANCH   1  34
TORSDOF 19
ENDMDL
MODEL 2
REMARK VINA RESULT:      -9.7      4.626      7.956
REMARK SMILES CCOc1cc2c(cc1/C=C1/C(=O)N(c3cccc(C(=O)OCCOC(=O)c4ccc(-c5c6nc(c(-c7c(F)cc(S(=O)(=O)[O-])cc7F)c7ccc([nH]7)c(-c7c(F)cc(S(=O)(=O)[O-])cc7F)c7nc(c(-c8c(F)cc(S(=O)(=O)[O-])cc8F)c8ccc5[nH]8)C=C7)C=C6)cc4)c3)C(=S)N=C1O)OCO2
REMARK SMILES IDX 23 1 22 2 20 3 21 4 19 5 15 6 16 7 94 8 17 9 18 10 14 11
REMARK SMILES IDX 10 12 11 13 12 14 98 15 13 16 97 17 95 18 96 19 9 20 4 21
REMARK SMILES IDX 5 22 6 23 8 24 7 25 102 26 100 27 101 28 3 29 2 30 1 31
REMARK SMILES IDX 99 32 24 34 25 35 26 36 27 37 28 38 29 39 93 40 30 41 92 42
REMARK SMILES IDX 31 43 32 44 33 45 86 46 34 47 91 48 85 49 87 50 35 51 90 52
REMARK SMILES IDX 84 53 83 54 36 56 70 57 49 58 69 59 50 60 53 61 68 62 88 63
REMARK SMILES IDX 51 64 52 65 67 67 89 68 54 69 37 70 38 71 47 72 39 73 40 74
REMARK SMILES IDX 46 75 48 76 41 77 42 78 43 79 44 80 45 81 71 82 72 83 81 84
REMARK SMILES IDX 73 85 74 86 80 87 82 88 75 89 76 90 77 91 78 92 79 93 55 94
REMARK SMILES IDX 56 95 65 96 57 97 58 98 64 99 66 100 59 101 60 102 61 103
REMARK SMILES IDX 62 104 63 105
REMARK H PARENT 99 33 87 55 53 66
REMARK Flexibility Score: inf
ROOT
ATOM      1  C   UNL A   1      33.435  30.887  27.268  1.00  0.00     0.275 C 
ENDROOT
BRANCH   1   2
ATOM      2  O   UNL A   1      32.578  30.379  26.227  1.00  0.00    -0.458 OA
BRANCH   2   3
ATOM      3  C   UNL A   1      31.857  29.265  26.531  1.00  0.00     0.338 C 
ATOM      4  O   UNL A   1      31.484  28.922  27.630  1.00  0.00    -0.246 OA
BRANCH   3   5
ATOM      5  C   UNL A   1      31.483  28.548  25.281  1.00  0.00     0.062 A 
ATOM      6  C   UNL A   1      31.807  26.747  23.684  1.00  0.00     0.052 A 
ATOM      7  C   UNL A   1      30.788  27.276  22.882  1.00  0.00     0.027 A 
ATOM      8  C   UNL A   1      32.164  27.403  24.873  1.00  0.00     0.042 A 
ATOM      9  C   UNL A   1      30.104  28.423  23.289  1.00  0.00     0.003 A 
ATOM     10  C   UNL A   1      30.424  29.032  24.502  1.00  0.00     0.016 A 
BRANCH   6  11
ATOM     11  N   UNL A   1      32.439  25.497  23.384  1.00  0.00    -0.251 N 
ATOM     12  C   UNL A   1      33.122  22.344  25.072  1.00  0.00     0.031 C 
ATOM     13  C   UNL A   1      33.279  23.353  24.185  1.00  0.00     0.103 C 
ATOM     14  C   UNL A   1      32.615  24.646  24.492  1.00  0.00     0.270 C 
ATOM     15  C   UNL A   1      33.986  23.354  22.913  1.00  0.00     0.226 C 
ATOM     16  O   UNL A   1      32.241  24.889  25.641  1.00  0.00    -0.268 OA
ATOM     17  N   UNL A   1      33.812  24.164  21.943  1.00  0.00    -0.184 NA
ATOM     18  C   UNL A   1      32.913  25.199  22.084  1.00  0.00     0.210 C 
ATOM     19  S   UNL A   1      32.578  26.091  20.680  1.00  0.00    -0.038 S 
BRANCH  12  20
ATOM     20  C   UNL A   1      33.611  20.952  24.975  1.00  0.00     0.021 A 
ATOM     21  C   UNL A   1      34.991  20.637  25.132  1.00  0.00     0.130 A 
ATOM     22  C   UNL A   1      35.448  19.332  24.913  1.00  0.00     0.097 A 
ATOM     23  C   UNL A   1      34.531  18.382  24.523  1.00  0.00     0.169 A 
ATOM     24  C   UNL A   1      32.698  19.912  24.728  1.00  0.00     0.062 A 
ATOM     25  C   UNL A   1      33.190  18.660  24.453  1.00  0.00     0.166 A 
ATOM     26  O   UNL A   1      34.806  17.091  24.193  1.00  0.00    -0.453 OA
ATOM     27  O   UNL A   1      32.453  17.586  24.068  1.00  0.00    -0.454 OA
ATOM     28  C   UNL A   1      33.502  16.647  23.761  1.00  0.00     0.468 C 
BRANCH  21  29
ATOM     29  O   UNL A   1      35.824  21.605  25.637  1.00  0.00    -0.493 OA
BRANCH  29  30
ATOM     30  C   UNL A   1      37.229  21.405  25.453  1.00  0.00     0.226 C 
ATOM     31  C   UNL A   1      38.059  22.632  25.803  1.00  0.00     0.049 C 
ENDBRANCH  29  30
ENDBRANCH  21  29
ENDBRANCH  12  20
BRANCH  15  32
ATOM     32  O   UNL A   1      34.970  22.466  22.763  1.00  0.00    -0.493 OA
ATOM     33  H   UNL A   1      35.447  22.165  23.511  1.00  0.00     0.295 HD
ENDBRANCH  15  32
ENDBRANCH   6  11
ENDBRANCH   3   5
ENDBRANCH   2   3
ENDBRANCH   1   2
BRANCH   1  34
ATOM     34  C   UNL A   1      34.639  29.970  27.480  1.00  0.00     0.275 C 
BRANCH  34  35
ATOM     35  O   UNL A   1      35.742  30.718  28.022  1.00  0.00    -0.458 OA
BRANCH  35  36
ATOM     36  C   UNL A   1      36.306  30.201  29.137  1.00  0.00     0.338 C 
ATOM     37  O   UNL A   1      35.741  29.810  30.144  1.00  0.00    -0.246 OA
BRANCH  36  38
ATOM     38  C   UNL A   1      37.756  30.065  28.932  1.00  0.00     0.060 A 
ATOM     39  C   UNL A   1      38.199  29.739  27.656  1.00  0.00     0.016 A 
ATOM     40  C   UNL A   1      38.653  30.102  29.995  1.00  0.00     0.016 A 
ATOM     41  C   UNL A   1      39.521  29.370  27.436  1.00  0.00     0.010 A 
ATOM     42  C   UNL A   1      40.005  29.809  29.759  1.00  0.00     0.010 A 
ATOM     43  C   UNL A   1      40.449  29.403  28.485  1.00  0.00    -0.014 A 
BRANCH  43  44
ATOM     44  C   UNL A   1      41.849  28.943  28.252  1.00  0.00     0.031 A 
ATOM     45  C   UNL A   1      42.993  29.922  28.356  1.00  0.00     0.074 A 
ATOM     46  C   UNL A   1      42.113  27.644  27.994  1.00  0.00     0.049 A 
ATOM     47  N   UNL A   1      44.255  29.759  28.050  1.00  0.00    -0.248 NA
ATOM     48  C   UNL A   1      42.671  31.266  28.860  1.00  0.00     0.031 C 
ATOM     49  C   UNL A   1      41.117  26.574  27.920  1.00  0.00     0.029 A 
ATOM     50  N   UNL A   1      43.304  26.999  27.758  1.00  0.00    -0.354 N 
ATOM     51  C   UNL A   1      44.864  30.990  28.268  1.00  0.00     0.074 A 
ATOM     52  C   UNL A   1      43.831  31.894  28.727  1.00  0.00     0.031 C 
ATOM     53  C   UNL A   1      41.737  25.406  27.696  1.00  0.00     0.029 A 
ATOM     54  C   UNL A   1      43.165  25.651  27.520  1.00  0.00     0.049 A 
ATOM     55  H   UNL A   1      44.174  27.458  27.758  1.00  0.00     0.167 HD
ATOM     56  C   UNL A   1      46.165  31.335  28.104  1.00  0.00     0.037 A 
ATOM     57  C   UNL A   1      44.070  24.721  27.157  1.00  0.00     0.037 A 
ATOM     58  C   UNL A   1      47.201  30.415  27.707  1.00  0.00     0.049 A 
ATOM     59  C   UNL A   1      45.501  25.133  26.949  1.00  0.00     0.074 A 
ATOM     60  C   UNL A   1      48.550  30.665  27.528  1.00  0.00     0.029 A 
ATOM     61  N   UNL A   1      47.007  29.068  27.444  1.00  0.00    -0.354 N 
ATOM     62  N   UNL A   1      46.050  26.314  27.104  1.00  0.00    -0.248 NA
ATOM     63  C   UNL A   1      46.434  24.091  26.497  1.00  0.00     0.031 C 
ATOM     64  C   UNL A   1      49.167  29.477  27.120  1.00  0.00     0.029 A 
ATOM     65  C   UNL A   1      48.210  28.476  27.089  1.00  0.00     0.049 A 
ATOM     66  H   UNL A   1      46.143  28.599  27.500  1.00  0.00     0.167 HD
ATOM     67  C   UNL A   1      47.393  26.155  26.780  1.00  0.00     0.074 A 
ATOM     68  C   UNL A   1      47.578  24.759  26.441  1.00  0.00     0.031 C 
ATOM     69  C   UNL A   1      48.381  27.083  26.760  1.00  0.00     0.037 A 
BRANCH  56  70
ATOM     70  C   UNL A   1      46.539  32.777  28.319  1.00  0.00     0.058 A 
ATOM     71  C   UNL A   1      46.466  33.731  27.294  1.00  0.00     0.135 A 
ATOM     72  C   UNL A   1      46.948  33.215  29.591  1.00  0.00     0.135 A 
ATOM     73  F   UNL A   1      46.096  33.366  26.055  1.00  0.00    -0.206 F 
ATOM     74  C   UNL A   1      46.810  35.063  27.511  1.00  0.00     0.059 A 
ATOM     75  C   UNL A   1      47.271  34.547  29.838  1.00  0.00     0.059 A 
ATOM     76  F   UNL A   1      47.035  32.347  30.610  1.00  0.00    -0.206 F 
ATOM     77  C   UNL A   1      47.214  35.461  28.788  1.00  0.00     0.060 A 
BRANCH  77  78
ATOM     78  S   UNL A   1      47.659  37.190  29.056  1.00  0.00     0.124 S 
ATOM     79  O   UNL A   1      46.891  37.506  30.257  1.00  0.00    -0.237 OA
ATOM     80  O   UNL A   1      49.106  37.117  29.231  1.00  0.00    -0.237 OA
ATOM     81  O   UNL A   1      47.211  37.850  27.834  1.00  0.00    -0.744 OA
ENDBRANCH  77  78
ENDBRANCH  56  70
BRANCH  57  82
ATOM     82  C   UNL A   1      43.640  23.314  26.924  1.00  0.00     0.058 A 
ATOM     83  C   UNL A   1      43.366  22.451  27.995  1.00  0.00     0.135 A 
ATOM     84  C   UNL A   1      43.484  22.810  25.622  1.00  0.00     0.135 A 
ATOM     85  F   UNL A   1      43.514  22.880  29.257  1.00  0.00    -0.206 F 
ATOM     86  C   UNL A   1      42.961  21.136  27.785  1.00  0.00     0.059 A 
ATOM     87  C   UNL A   1      43.050  21.509  25.388  1.00  0.00     0.059 A 
ATOM     88  F   UNL A   1      43.726  23.597  24.563  1.00  0.00    -0.206 F 
ATOM     89  C   UNL A   1      42.801  20.676  26.476  1.00  0.00     0.060 A 
BRANCH  89  90
ATOM     90  S   UNL A   1      42.222  18.986  26.213  1.00  0.00     0.124 S 
ATOM     91  O   UNL A   1      40.844  19.211  25.791  1.00  0.00    -0.237 OA
ATOM     92  O   UNL A   1      43.135  18.504  25.182  1.00  0.00    -0.237 OA
ATOM     93  O   UNL A   1      42.388  18.368  27.525  1.00  0.00    -0.744 OA
ENDBRANCH  89  90
ENDBRANCH  57  82
BRANCH  69  94
ATOM     94  C   UNL A   1      49.760  26.613  26.390  1.00  0.00     0.058 A 
ATOM     95  C   UNL A   1      50.615  26.020  27.332  1.00  0.00     0.135 A 
ATOM     96  C   UNL A   1      50.217  26.721  25.066  1.00  0.00     0.135 A 
ATOM     97  F   UNL A   1      50.230  25.900  28.613  1.00  0.00    -0.206 F 
ATOM     98  C   UNL A   1      51.884  25.571  26.979  1.00  0.00     0.059 A 
ATOM     99  C   UNL A   1      51.472  26.255  24.686  1.00  0.00     0.059 A 
ATOM    100  F   UNL A   1      49.435  27.273  24.124  1.00  0.00    -0.206 F 
ATOM    101  C   UNL A   1      52.303  25.693  25.653  1.00  0.00     0.060 A 
BRANCH 101 102
ATOM    102  S   UNL A   1      53.941  25.081  25.203  1.00  0.00     0.124 S 
ATOM    103  O   UNL A   1      54.682  25.286  26.442  1.00  0.00    -0.237 OA
ATOM    104  O   UNL A   1      53.670  23.691  24.848  1.00  0.00    -0.237 OA
ATOM    105  O   UNL A   1      54.330  25.941  24.089  1.00  0.00    -0.744 OA
ENDBRANCH 101 102
ENDBRANCH  69  94
ENDBRANCH  43  44
ENDBRANCH  36  38
ENDBRANCH  35  36
ENDBRANCH  34  35
ENDBRANCH   1  34
TORSDOF 19
ENDMDL
MODEL 3
REMARK VINA RESULT:      -9.5      4.571     11.114
REMARK SMILES CCOc1cc2c(cc1/C=C1/C(=O)N(c3cccc(C(=O)OCCOC(=O)c4ccc(-c5c6nc(c(-c7c(F)cc(S(=O)(=O)[O-])cc7F)c7ccc([nH]7)c(-c7c(F)cc(S(=O)(=O)[O-])cc7F)c7nc(c(-c8c(F)cc(S(=O)(=O)[O-])cc8F)c8ccc5[nH]8)C=C7)C=C6)cc4)c3)C(=S)N=C1O)OCO2
REMARK SMILES IDX 23 1 22 2 20 3 21 4 19 5 15 6 16 7 94 8 17 9 18 10 14 11
REMARK SMILES IDX 10 12 11 13 12 14 98 15 13 16 97 17 95 18 96 19 9 20 4 21
REMARK SMILES IDX 5 22 6 23 8 24 7 25 102 26 100 27 101 28 3 29 2 30 1 31
REMARK SMILES IDX 99 32 24 34 25 35 26 36 27 37 28 38 29 39 93 40 30 41 92 42
REMARK SMILES IDX 31 43 32 44 33 45 86 46 34 47 91 48 85 49 87 50 35 51 90 52
REMARK SMILES IDX 84 53 83 54 36 56 70 57 49 58 69 59 50 60 53 61 68 62 88 63
REMARK SMILES IDX 51 64 52 65 67 67 89 68 54 69 37 70 38 71 47 72 39 73 40 74
REMARK SMILES IDX 46 75 48 76 41 77 42 78 43 79 44 80 45 81 71 82 72 83 81 84
REMARK SMILES IDX 73 85 74 86 80 87 82 88 75 89 76 90 77 91 78 92 79 93 55 94
REMARK SMILES IDX 56 95 65 96 57 97 58 98 64 99 66 100 59 101 60 102 61 103
REMARK SMILES IDX 62 104 63 105
REMARK H PARENT 99 33 87 55 53 66
REMARK Flexibility Score: inf
ROOT
ATOM      1  C   UNL A   1      33.710  31.021  27.830  1.00  0.00     0.275 C 
ENDROOT
BRANCH   1   2
ATOM      2  O   UNL A   1      33.020  30.608  26.634  1.00  0.00    -0.458 OA
BRANCH   2   3
ATOM      3  C   UNL A   1      32.466  29.365  26.657  1.00  0.00     0.338 C 
ATOM      4  O   UNL A   1      31.760  28.903  27.525  1.00  0.00    -0.246 OA
BRANCH   3   5
ATOM      5  C   UNL A   1      32.764  28.655  25.382  1.00  0.00     0.062 A 
ATOM      6  C   UNL A   1      32.983  26.612  24.088  1.00  0.00     0.052 A 
ATOM      7  C   UNL A   1      33.406  27.359  22.981  1.00  0.00     0.027 A 
ATOM      8  C   UNL A   1      32.685  27.266  25.293  1.00  0.00     0.042 A 
ATOM      9  C   UNL A   1      33.485  28.750  23.068  1.00  0.00     0.003 A 
ATOM     10  C   UNL A   1      33.128  29.396  24.252  1.00  0.00     0.016 A 
BRANCH   6  11
ATOM     11  N   UNL A   1      32.747  25.201  24.007  1.00  0.00    -0.251 N 
ATOM     12  C   UNL A   1      34.500  22.119  24.836  1.00  0.00     0.031 C 
ATOM     13  C   UNL A   1      33.630  22.937  24.201  1.00  0.00     0.103 C 
ATOM     14  C   UNL A   1      33.869  24.400  24.294  1.00  0.00     0.270 C 
ATOM     15  C   UNL A   1      32.430  22.594  23.450  1.00  0.00     0.226 C 
ATOM     16  O   UNL A   1      34.976  24.822  24.631  1.00  0.00    -0.268 OA
ATOM     17  N   UNL A   1      31.446  23.363  23.189  1.00  0.00    -0.184 NA
ATOM     18  C   UNL A   1      31.498  24.681  23.588  1.00  0.00     0.210 C 
ATOM     19  S   UNL A   1      30.067  25.573  23.403  1.00  0.00    -0.038 S 
BRANCH  12  20
ATOM     20  C   UNL A   1      34.453  20.647  24.960  1.00  0.00     0.021 A 
ATOM     21  C   UNL A   1      35.579  19.838  24.633  1.00  0.00     0.130 A 
ATOM     22  C   UNL A   1      35.472  18.442  24.639  1.00  0.00     0.097 A 
ATOM     23  C   UNL A   1      34.250  17.887  24.947  1.00  0.00     0.169 A 
ATOM     24  C   UNL A   1      33.277  20.026  25.416  1.00  0.00     0.062 A 
ATOM     25  C   UNL A   1      33.188  18.657  25.344  1.00  0.00     0.166 A 
ATOM     26  O   UNL A   1      33.944  16.562  24.925  1.00  0.00    -0.453 OA
ATOM     27  O   UNL A   1      32.081  17.920  25.619  1.00  0.00    -0.454 OA
ATOM     28  C   UNL A   1      32.529  16.615  25.204  1.00  0.00     0.468 C 
BRANCH  21  29
ATOM     29  O   UNL A   1      36.792  20.456  24.455  1.00  0.00    -0.493 OA
BRANCH  29  30
ATOM     30  C   UNL A   1      37.747  20.317  25.511  1.00  0.00     0.226 C 
ATOM     31  C   UNL A   1      38.723  21.483  25.592  1.00  0.00     0.049 C 
ENDBRANCH  29  30
ENDBRANCH  21  29
ENDBRANCH  12  20
BRANCH  15  32
ATOM     32  O   UNL A   1      32.377  21.374  22.912  1.00  0.00    -0.493 OA
ATOM     33  H   UNL A   1      31.923  21.238  22.105  1.00  0.00     0.295 HD
ENDBRANCH  15  32
ENDBRANCH   6  11
ENDBRANCH   3   5
ENDBRANCH   2   3
ENDBRANCH   1   2
BRANCH   1  34
ATOM     34  C   UNL A   1      34.971  30.185  28.049  1.00  0.00     0.275 C 
BRANCH  34  35
ATOM     35  O   UNL A   1      35.908  30.909  28.865  1.00  0.00    -0.458 OA
BRANCH  35  36
ATOM     36  C   UNL A   1      36.506  30.193  29.844  1.00  0.00     0.338 C 
ATOM     37  O   UNL A   1      36.061  29.926  30.948  1.00  0.00    -0.246 OA
BRANCH  36  38
ATOM     38  C   UNL A   1      37.782  29.659  29.348  1.00  0.00     0.060 A 
ATOM     39  C   UNL A   1      38.679  29.155  30.283  1.00  0.00     0.016 A 
ATOM     40  C   UNL A   1      38.164  29.788  28.015  1.00  0.00     0.016 A 
ATOM     41  C   UNL A   1      39.985  28.848  29.922  1.00  0.00     0.010 A 
ATOM     42  C   UNL A   1      39.456  29.401  27.633  1.00  0.00     0.010 A 
ATOM     43  C   UNL A   1      40.396  28.962  28.588  1.00  0.00    -0.014 A 
BRANCH  43  44
ATOM     44  C   UNL A   1      41.818  28.693  28.223  1.00  0.00     0.031 A 
ATOM     45  C   UNL A   1      42.234  27.312  27.777  1.00  0.00     0.074 A 
ATOM     46  C   UNL A   1      42.733  29.685  28.242  1.00  0.00     0.049 A 
ATOM     47  N   UNL A   1      43.435  26.838  27.559  1.00  0.00    -0.248 NA
ATOM     48  C   UNL A   1      41.158  26.333  27.558  1.00  0.00     0.031 C 
ATOM     49  C   UNL A   1      42.465  31.081  28.596  1.00  0.00     0.029 A 
ATOM     50  N   UNL A   1      44.075  29.675  27.945  1.00  0.00    -0.354 N 
ATOM     51  C   UNL A   1      43.263  25.496  27.236  1.00  0.00     0.074 A 
ATOM     52  C   UNL A   1      41.842  25.229  27.293  1.00  0.00     0.031 C 
ATOM     53  C   UNL A   1      43.592  31.796  28.458  1.00  0.00     0.029 A 
ATOM     54  C   UNL A   1      44.684  30.900  28.095  1.00  0.00     0.049 A 
ATOM     55  H   UNL A   1      44.556  28.868  27.652  1.00  0.00     0.167 HD
ATOM     56  C   UNL A   1      44.203  24.572  26.919  1.00  0.00     0.037 A 
ATOM     57  C   UNL A   1      45.979  31.259  27.997  1.00  0.00     0.037 A 
ATOM     58  C   UNL A   1      45.611  24.859  26.804  1.00  0.00     0.049 A 
ATOM     59  C   UNL A   1      47.009  30.211  27.677  1.00  0.00     0.074 A 
ATOM     60  C   UNL A   1      46.640  23.994  26.474  1.00  0.00     0.029 A 
ATOM     61  N   UNL A   1      46.185  26.105  26.999  1.00  0.00    -0.354 N 
ATOM     62  N   UNL A   1      46.836  28.934  27.431  1.00  0.00    -0.248 NA
ATOM     63  C   UNL A   1      48.412  30.647  27.641  1.00  0.00     0.031 C 
ATOM     64  C   UNL A   1      47.842  24.709  26.506  1.00  0.00     0.029 A 
ATOM     65  C   UNL A   1      47.557  26.031  26.810  1.00  0.00     0.049 A 
ATOM     66  H   UNL A   1      45.693  26.924  27.237  1.00  0.00     0.167 HD
ATOM     67  C   UNL A   1      48.106  28.417  27.199  1.00  0.00     0.074 A 
ATOM     68  C   UNL A   1      49.034  29.523  27.314  1.00  0.00     0.031 C 
ATOM     69  C   UNL A   1      48.470  27.140  26.922  1.00  0.00     0.037 A 
BRANCH  56  70
ATOM     70  C   UNL A   1      43.747  23.153  26.708  1.00  0.00     0.058 A 
ATOM     71  C   UNL A   1      43.763  22.542  25.446  1.00  0.00     0.135 A 
ATOM     72  C   UNL A   1      43.318  22.382  27.802  1.00  0.00     0.135 A 
ATOM     73  F   UNL A   1      44.149  23.235  24.363  1.00  0.00    -0.206 F 
ATOM     74  C   UNL A   1      43.343  21.226  25.269  1.00  0.00     0.059 A 
ATOM     75  C   UNL A   1      42.919  21.057  27.653  1.00  0.00     0.059 A 
ATOM     76  F   UNL A   1      43.283  22.915  29.033  1.00  0.00    -0.206 F 
ATOM     77  C   UNL A   1      42.921  20.492  26.379  1.00  0.00     0.060 A 
BRANCH  77  78
ATOM     78  S   UNL A   1      42.378  18.787  26.136  1.00  0.00     0.124 S 
ATOM     79  O   UNL A   1      42.568  18.227  27.471  1.00  0.00    -0.237 OA
ATOM     80  O   UNL A   1      40.993  18.957  25.712  1.00  0.00    -0.237 OA
ATOM     81  O   UNL A   1      43.287  18.283  25.111  1.00  0.00    -0.744 OA
ENDBRANCH  77  78
ENDBRANCH  56  70
BRANCH  57  82
ATOM     82  C   UNL A   1      46.381  32.671  28.250  1.00  0.00     0.058 A 
ATOM     83  C   UNL A   1      46.791  33.093  29.523  1.00  0.00     0.135 A 
ATOM     84  C   UNL A   1      46.370  33.624  27.218  1.00  0.00     0.135 A 
ATOM     85  F   UNL A   1      46.805  32.225  30.546  1.00  0.00    -0.206 F 
ATOM     86  C   UNL A   1      47.170  34.410  29.767  1.00  0.00     0.059 A 
ATOM     87  C   UNL A   1      46.774  34.938  27.431  1.00  0.00     0.059 A 
ATOM     88  F   UNL A   1      45.994  33.271  25.980  1.00  0.00    -0.206 F 
ATOM     89  C   UNL A   1      47.163  35.324  28.712  1.00  0.00     0.060 A 
BRANCH  89  90
ATOM     90  S   UNL A   1      47.708  37.017  29.024  1.00  0.00     0.124 S 
ATOM     91  O   UNL A   1      48.759  36.809  30.013  1.00  0.00    -0.237 OA
ATOM     92  O   UNL A   1      48.152  37.446  27.702  1.00  0.00    -0.237 OA
ATOM     93  O   UNL A   1      46.500  37.673  29.514  1.00  0.00    -0.744 OA
ENDBRANCH  89  90
ENDBRANCH  57  82
BRANCH  69  94
ATOM     94  C   UNL A   1      49.931  26.874  26.691  1.00  0.00     0.058 A 
ATOM     95  C   UNL A   1      50.536  27.111  25.447  1.00  0.00     0.135 A 
ATOM     96  C   UNL A   1      50.745  26.416  27.740  1.00  0.00     0.135 A 
ATOM     97  F   UNL A   1      49.801  27.542  24.409  1.00  0.00    -0.206 F 
ATOM     98  C   UNL A   1      51.893  26.880  25.244  1.00  0.00     0.059 A 
ATOM     99  C   UNL A   1      52.109  26.202  27.566  1.00  0.00     0.059 A 
ATOM    100  F   UNL A   1      50.217  26.182  28.952  1.00  0.00    -0.206 F 
ATOM    101  C   UNL A   1      52.671  26.426  26.310  1.00  0.00     0.060 A 
BRANCH 101 102
ATOM    102  S   UNL A   1      54.436  26.157  26.042  1.00  0.00     0.124 S 
ATOM    103  O   UNL A   1      54.958  27.516  26.132  1.00  0.00    -0.237 OA
ATOM    104  O   UNL A   1      54.789  25.267  27.143  1.00  0.00    -0.237 OA
ATOM    105  O   UNL A   1      54.489  25.551  24.714  1.00  0.00    -0.744 OA
ENDBRANCH 101 102
ENDBRANCH  69  94
ENDBRANCH  43  44
ENDBRANCH  36  38
ENDBRANCH  35  36
ENDBRANCH  34  35
ENDBRANCH   1  34
TORSDOF 19
ENDMDL
