MODEL 1
REMARK VINA RESULT:     -12.8      0.000      0.000
REMARK SMILES Cc1cccc(N2C(=O)/C(=C/c3cccn3-c3cccc(C(=O)OCCOC(=O)c4ccc(-c5c6nc(c(-c7c(F)cc(S(=O)(=O)[O-])cc7F)c7ccc([nH]7)c(-c7c(F)cc(S(=O)(=O)[O-])cc7F)c7nc(c(-c8c(F)cc(S(=O)(=O)[O-])cc8F)c8ccc5[nH]8)C=C7)C=C6)cc4)c3)C(O)=NC2=S)c1C
REMARK SMILES IDX 25 1 24 2 22 3 23 4 21 5 17 6 18 7 96 8 19 9 20 10 16 11
REMARK SMILES IDX 12 12 13 13 14 14 15 15 11 16 7 17 8 18 100 19 9 20 10 21
REMARK SMILES IDX 99 22 101 23 97 24 6 25 1 26 2 27 3 28 102 29 4 30 103 31
REMARK SMILES IDX 5 32 98 33 26 35 27 36 28 37 29 38 30 39 31 40 95 41 32 42
REMARK SMILES IDX 94 43 33 44 34 45 35 46 88 47 36 48 93 49 87 50 89 51 37 52
REMARK SMILES IDX 92 53 86 54 85 55 38 57 72 58 51 59 71 60 52 61 55 62 70 63
REMARK SMILES IDX 90 64 53 65 54 66 69 68 91 69 56 70 39 71 40 72 49 73 41 74
REMARK SMILES IDX 42 75 48 76 50 77 43 78 44 79 45 80 46 81 47 82 73 83 74 84
REMARK SMILES IDX 83 85 75 86 76 87 82 88 84 89 77 90 78 91 79 92 80 93 81 94
REMARK SMILES IDX 57 95 58 96 67 97 59 98 60 99 66 100 68 101 61 102 62 103
REMARK SMILES IDX 63 104 64 105 65 106
REMARK H PARENT 98 34 89 56 55 67
REMARK Flexibility Score: inf
ROOT
ATOM      1  C   UNL A   1      39.052  21.312  26.029  1.00  0.00     0.275 C 
ENDROOT
BRANCH   1   2
ATOM      2  O   UNL A   1      38.039  21.851  25.159  1.00  0.00    -0.458 OA
BRANCH   2   3
ATOM      3  C   UNL A   1      37.370  22.935  25.631  1.00  0.00     0.338 C 
ATOM      4  O   UNL A   1      37.838  24.055  25.796  1.00  0.00    -0.246 OA
BRANCH   3   5
ATOM      5  C   UNL A   1      35.924  22.629  25.806  1.00  0.00     0.062 A 
ATOM      6  C   UNL A   1      33.759  21.955  24.939  1.00  0.00     0.046 A 
ATOM      7  C   UNL A   1      33.173  22.226  26.182  1.00  0.00     0.026 A 
ATOM      8  C   UNL A   1      35.127  22.189  24.744  1.00  0.00     0.042 A 
ATOM      9  C   UNL A   1      33.969  22.661  27.243  1.00  0.00     0.003 A 
ATOM     10  C   UNL A   1      35.341  22.847  27.061  1.00  0.00     0.016 A 
BRANCH   6  11
ATOM     11  N   UNL A   1      32.957  21.428  23.887  1.00  0.00    -0.317 N 
ATOM     12  C   UNL A   1      31.858  22.025  23.261  1.00  0.00     0.047 A 
ATOM     13  C   UNL A   1      31.392  21.153  22.290  1.00  0.00     0.028 A 
ATOM     14  C   UNL A   1      32.182  19.987  22.341  1.00  0.00     0.020 A 
ATOM     15  C   UNL A   1      33.145  20.189  23.303  1.00  0.00     0.092 A 
BRANCH  12  16
ATOM     16  C   UNL A   1      31.468  23.352  23.576  1.00  0.00     0.046 C 
ATOM     17  N   UNL A   1      31.992  26.907  23.022  1.00  0.00    -0.251 N 
ATOM     18  C   UNL A   1      31.359  25.753  23.488  1.00  0.00     0.270 C 
ATOM     19  C   UNL A   1      33.154  26.878  22.225  1.00  0.00     0.210 C 
ATOM     20  O   UNL A   1      30.408  25.745  24.272  1.00  0.00    -0.268 OA
ATOM     21  C   UNL A   1      31.932  24.468  22.981  1.00  0.00     0.104 C 
ATOM     22  N   UNL A   1      33.462  25.719  21.561  1.00  0.00    -0.184 NA
ATOM     23  S   UNL A   1      34.221  28.192  22.045  1.00  0.00    -0.038 S 
ATOM     24  C   UNL A   1      32.905  24.615  21.895  1.00  0.00     0.226 C 
BRANCH  17  25
ATOM     25  C   UNL A   1      31.448  28.158  23.466  1.00  0.00     0.055 A 
ATOM     26  C   UNL A   1      31.633  30.652  26.381  1.00  0.00     0.044 C 
ATOM     27  C   UNL A   1      31.254  29.958  25.099  1.00  0.00    -0.046 A 
ATOM     28  C   UNL A   1      30.231  30.521  24.315  1.00  0.00     0.004 A 
ATOM     29  C   UNL A   1      31.896  28.775  24.663  1.00  0.00    -0.024 A 
ATOM     30  C   UNL A   1      29.840  29.935  23.113  1.00  0.00     0.002 A 
ATOM     31  C   UNL A   1      33.067  28.197  25.421  1.00  0.00     0.047 C 
ATOM     32  C   UNL A   1      30.448  28.760  22.688  1.00  0.00     0.027 A 
ENDBRANCH  17  25
BRANCH  24  33
ATOM     33  O   UNL A   1      33.222  23.553  21.143  1.00  0.00    -0.493 OA
ATOM     34  H   UNL A   1      32.738  22.757  21.229  1.00  0.00     0.295 HD
ENDBRANCH  24  33
ENDBRANCH  12  16
ENDBRANCH   6  11
ENDBRANCH   3   5
ENDBRANCH   2   3
ENDBRANCH   1   2
BRANCH   1  35
ATOM     35  C   UNL A   1      39.584  19.959  25.551  1.00  0.00     0.275 C 
BRANCH  35  36
ATOM     36  O   UNL A   1      40.399  19.280  26.513  1.00  0.00    -0.458 OA
BRANCH  36  37
ATOM     37  C   UNL A   1      41.693  19.198  26.136  1.00  0.00     0.338 C 
ATOM     38  O   UNL A   1      42.287  18.200  25.756  1.00  0.00    -0.246 OA
BRANCH  37  39
ATOM     39  C   UNL A   1      42.432  20.412  26.463  1.00  0.00     0.060 A 
ATOM     40  C   UNL A   1      42.329  20.869  27.781  1.00  0.00     0.016 A 
ATOM     41  C   UNL A   1      42.878  21.234  25.421  1.00  0.00     0.016 A 
ATOM     42  C   UNL A   1      42.563  22.202  28.039  1.00  0.00     0.010 A 
ATOM     43  C   UNL A   1      43.086  22.577  25.675  1.00  0.00     0.010 A 
ATOM     44  C   UNL A   1      42.902  23.054  26.979  1.00  0.00    -0.014 A 
BRANCH  44  45
ATOM     45  C   UNL A   1      43.309  24.422  27.333  1.00  0.00     0.031 A 
ATOM     46  C   UNL A   1      42.007  25.281  27.514  1.00  0.00     0.074 A 
ATOM     47  C   UNL A   1      44.668  24.644  27.349  1.00  0.00     0.049 A 
ATOM     48  N   UNL A   1      41.779  26.545  27.322  1.00  0.00    -0.248 NA
ATOM     49  C   UNL A   1      40.728  24.589  27.893  1.00  0.00     0.031 C 
ATOM     50  C   UNL A   1      45.730  23.605  27.216  1.00  0.00     0.029 A 
ATOM     51  N   UNL A   1      45.454  25.769  27.480  1.00  0.00    -0.354 N 
ATOM     52  C   UNL A   1      40.470  26.825  27.803  1.00  0.00     0.074 A 
ATOM     53  C   UNL A   1      39.828  25.567  27.996  1.00  0.00     0.031 C 
ATOM     54  C   UNL A   1      46.970  24.157  27.173  1.00  0.00     0.029 A 
ATOM     55  C   UNL A   1      46.864  25.597  27.279  1.00  0.00     0.049 A 
ATOM     56  H   UNL A   1      45.067  26.646  27.700  1.00  0.00     0.167 HD
ATOM     57  C   UNL A   1      40.058  28.075  28.169  1.00  0.00     0.037 A 
ATOM     58  C   UNL A   1      47.835  26.570  27.154  1.00  0.00     0.037 A 
ATOM     59  C   UNL A   1      41.102  28.999  27.908  1.00  0.00     0.049 A 
ATOM     60  C   UNL A   1      47.082  27.797  27.429  1.00  0.00     0.074 A 
ATOM     61  C   UNL A   1      41.530  29.605  26.761  1.00  0.00     0.029 A 
ATOM     62  N   UNL A   1      42.058  29.129  28.883  1.00  0.00    -0.354 N 
ATOM     63  N   UNL A   1      46.651  28.150  28.599  1.00  0.00    -0.248 NA
ATOM     64  C   UNL A   1      46.645  28.605  26.289  1.00  0.00     0.031 C 
ATOM     65  C   UNL A   1      42.925  29.681  26.939  1.00  0.00     0.029 A 
ATOM     66  C   UNL A   1      43.261  29.314  28.248  1.00  0.00     0.049 A 
ATOM     67  H   UNL A   1      41.909  29.096  29.855  1.00  0.00     0.167 HD
ATOM     68  C   UNL A   1      45.631  29.013  28.296  1.00  0.00     0.074 A 
ATOM     69  C   UNL A   1      45.867  29.465  26.939  1.00  0.00     0.031 C 
ATOM     70  C   UNL A   1      44.455  28.942  28.971  1.00  0.00     0.037 A 
BRANCH  57  71
ATOM     71  C   UNL A   1      38.901  28.602  28.986  1.00  0.00     0.058 A 
ATOM     72  C   UNL A   1      38.134  29.655  28.421  1.00  0.00     0.135 A 
ATOM     73  C   UNL A   1      38.770  28.421  30.369  1.00  0.00     0.135 A 
ATOM     74  F   UNL A   1      38.109  29.855  27.093  1.00  0.00    -0.206 F 
ATOM     75  C   UNL A   1      37.444  30.581  29.194  1.00  0.00     0.059 A 
ATOM     76  C   UNL A   1      38.031  29.310  31.162  1.00  0.00     0.059 A 
ATOM     77  F   UNL A   1      39.411  27.428  30.999  1.00  0.00    -0.206 F 
ATOM     78  C   UNL A   1      37.428  30.421  30.572  1.00  0.00     0.060 A 
BRANCH  78  79
ATOM     79  S   UNL A   1      36.629  31.703  31.559  1.00  0.00     0.124 S 
ATOM     80  O   UNL A   1      37.538  32.830  31.380  1.00  0.00    -0.237 OA
ATOM     81  O   UNL A   1      35.330  31.831  30.903  1.00  0.00    -0.237 OA
ATOM     82  O   UNL A   1      36.592  31.122  32.897  1.00  0.00    -0.744 OA
ENDBRANCH  78  79
ENDBRANCH  57  71
BRANCH  58  83
ATOM     83  C   UNL A   1      49.286  26.797  26.720  1.00  0.00     0.058 A 
ATOM     84  C   UNL A   1      50.326  27.336  27.486  1.00  0.00     0.135 A 
ATOM     85  C   UNL A   1      49.723  26.290  25.452  1.00  0.00     0.135 A 
ATOM     86  F   UNL A   1      50.063  27.986  28.628  1.00  0.00    -0.206 F 
ATOM     87  C   UNL A   1      51.690  27.211  27.109  1.00  0.00     0.059 A 
ATOM     88  C   UNL A   1      51.056  26.098  25.087  1.00  0.00     0.059 A 
ATOM     89  F   UNL A   1      48.853  25.908  24.505  1.00  0.00    -0.206 F 
ATOM     90  C   UNL A   1      52.046  26.526  25.944  1.00  0.00     0.060 A 
BRANCH  90  91
ATOM     91  S   UNL A   1      53.764  26.059  25.605  1.00  0.00     0.124 S 
ATOM     92  O   UNL A   1      54.061  25.142  26.700  1.00  0.00    -0.237 OA
ATOM     93  O   UNL A   1      53.667  25.456  24.279  1.00  0.00    -0.237 OA
ATOM     94  O   UNL A   1      54.477  27.334  25.643  1.00  0.00    -0.744 OA
ENDBRANCH  90  91
ENDBRANCH  58  83
BRANCH  70  95
ATOM     95  C   UNL A   1      44.512  28.151  30.284  1.00  0.00     0.058 A 
ATOM     96  C   UNL A   1      45.263  28.628  31.369  1.00  0.00     0.135 A 
ATOM     97  C   UNL A   1      43.928  26.882  30.478  1.00  0.00     0.135 A 
ATOM     98  F   UNL A   1      45.854  29.830  31.291  1.00  0.00    -0.206 F 
ATOM     99  C   UNL A   1      45.424  27.896  32.556  1.00  0.00     0.059 A 
ATOM    100  C   UNL A   1      44.070  26.127  31.648  1.00  0.00     0.059 A 
ATOM    101  F   UNL A   1      43.181  26.334  29.524  1.00  0.00    -0.206 F 
ATOM    102  C   UNL A   1      44.822  26.645  32.690  1.00  0.00     0.060 A 
BRANCH 102 103
ATOM    103  S   UNL A   1      45.010  25.728  34.239  1.00  0.00     0.124 S 
ATOM    104  O   UNL A   1      44.692  26.736  35.244  1.00  0.00    -0.237 OA
ATOM    105  O   UNL A   1      44.029  24.660  34.082  1.00  0.00    -0.237 OA
ATOM    106  O   UNL A   1      46.407  25.295  34.220  1.00  0.00    -0.744 OA
ENDBRANCH 102 103
ENDBRANCH  70  95
ENDBRANCH  44  45
ENDBRANCH  37  39
ENDBRANCH  36  37
ENDBRANCH  35  36
ENDBRANCH   1  35
TORSDOF 18
ENDMDL
MODEL 2
REMARK VINA RESULT:     -12.4      5.588     12.395
REMARK SMILES Cc1cccc(N2C(=O)/C(=C/c3cccn3-c3cccc(C(=O)OCCOC(=O)c4ccc(-c5c6nc(c(-c7c(F)cc(S(=O)(=O)[O-])cc7F)c7ccc([nH]7)c(-c7c(F)cc(S(=O)(=O)[O-])cc7F)c7nc(c(-c8c(F)cc(S(=O)(=O)[O-])cc8F)c8ccc5[nH]8)C=C7)C=C6)cc4)c3)C(O)=NC2=S)c1C
REMARK SMILES IDX 25 1 24 2 22 3 23 4 21 5 17 6 18 7 96 8 19 9 20 10 16 11
REMARK SMILES IDX 12 12 13 13 14 14 15 15 11 16 7 17 8 18 100 19 9 20 10 21
REMARK SMILES IDX 99 22 101 23 97 24 6 25 1 26 2 27 3 28 102 29 4 30 103 31
REMARK SMILES IDX 5 32 98 33 26 35 27 36 28 37 29 38 30 39 31 40 95 41 32 42
REMARK SMILES IDX 94 43 33 44 34 45 35 46 88 47 36 48 93 49 87 50 89 51 37 52
REMARK SMILES IDX 92 53 86 54 85 55 38 57 72 58 51 59 71 60 52 61 55 62 70 63
REMARK SMILES IDX 90 64 53 65 54 66 69 68 91 69 56 70 39 71 40 72 49 73 41 74
REMARK SMILES IDX 42 75 48 76 50 77 43 78 44 79 45 80 46 81 47 82 73 83 74 84
REMARK SMILES IDX 83 85 75 86 76 87 82 88 84 89 77 90 78 91 79 92 80 93 81 94
REMARK SMILES IDX 57 95 58 96 67 97 59 98 60 99 66 100 68 101 61 102 62 103
REMARK SMILES IDX 63 104 64 105 65 106
REMARK H PARENT 98 34 89 56 55 67
REMARK Flexibility Score: inf
ROOT
ATOM      1  C   UNL A   1      34.635  33.032  29.216  1.00  0.00     0.275 C 
ENDROOT
BRANCH   1   2
ATOM      2  O   UNL A   1      35.296  33.552  30.385  1.00  0.00    -0.458 OA
BRANCH   2   3
ATOM      3  C   UNL A   1      35.114  32.847  31.531  1.00  0.00     0.338 C 
ATOM      4  O   UNL A   1      34.039  32.621  32.074  1.00  0.00    -0.246 OA
BRANCH   3   5
ATOM      5  C   UNL A   1      36.396  32.251  31.995  1.00  0.00     0.062 A 
ATOM      6  C   UNL A   1      38.809  32.306  32.262  1.00  0.00     0.046 A 
ATOM      7  C   UNL A   1      38.788  30.993  32.750  1.00  0.00     0.026 A 
ATOM      8  C   UNL A   1      37.616  32.920  31.853  1.00  0.00     0.042 A 
ATOM      9  C   UNL A   1      37.570  30.327  32.896  1.00  0.00     0.003 A 
ATOM     10  C   UNL A   1      36.377  30.958  32.534  1.00  0.00     0.016 A 
BRANCH   6  11
ATOM     11  N   UNL A   1      40.044  33.010  32.199  1.00  0.00    -0.317 N 
ATOM     12  C   UNL A   1      40.902  33.339  33.254  1.00  0.00     0.047 A 
ATOM     13  C   UNL A   1      41.989  34.018  32.727  1.00  0.00     0.028 A 
ATOM     14  C   UNL A   1      41.785  34.150  31.339  1.00  0.00     0.020 A 
ATOM     15  C   UNL A   1      40.607  33.505  31.037  1.00  0.00     0.092 A 
BRANCH  12  16
ATOM     16  C   UNL A   1      40.647  32.885  34.573  1.00  0.00     0.046 C 
ATOM     17  N   UNL A   1      39.605  33.735  37.952  1.00  0.00    -0.251 N 
ATOM     18  C   UNL A   1      39.944  32.915  36.874  1.00  0.00     0.270 C 
ATOM     19  C   UNL A   1      39.545  35.140  37.860  1.00  0.00     0.210 C 
ATOM     20  O   UNL A   1      40.110  31.696  36.947  1.00  0.00    -0.268 OA
ATOM     21  C   UNL A   1      40.124  33.626  35.570  1.00  0.00     0.104 C 
ATOM     22  N   UNL A   1      39.430  35.709  36.619  1.00  0.00    -0.184 NA
ATOM     23  S   UNL A   1      39.626  36.188  39.199  1.00  0.00    -0.038 S 
ATOM     24  C   UNL A   1      39.687  35.025  35.568  1.00  0.00     0.226 C 
BRANCH  17  25
ATOM     25  C   UNL A   1      39.396  33.080  39.211  1.00  0.00     0.055 A 
ATOM     26  C   UNL A   1      36.604  31.652  41.429  1.00  0.00     0.044 C 
ATOM     27  C   UNL A   1      37.945  32.095  40.905  1.00  0.00    -0.046 A 
ATOM     28  C   UNL A   1      39.068  31.940  41.737  1.00  0.00     0.004 A 
ATOM     29  C   UNL A   1      38.105  32.646  39.612  1.00  0.00    -0.024 A 
ATOM     30  C   UNL A   1      40.338  32.317  41.308  1.00  0.00     0.002 A 
ATOM     31  C   UNL A   1      36.944  32.734  38.650  1.00  0.00     0.047 C 
ATOM     32  C   UNL A   1      40.503  32.883  40.050  1.00  0.00     0.027 A 
ENDBRANCH  17  25
BRANCH  24  33
ATOM     33  O   UNL A   1      39.481  35.651  34.401  1.00  0.00    -0.493 OA
ATOM     34  H   UNL A   1      38.810  36.301  34.330  1.00  0.00     0.295 HD
ENDBRANCH  24  33
ENDBRANCH  12  16
ENDBRANCH   6  11
ENDBRANCH   3   5
ENDBRANCH   2   3
ENDBRANCH   1   2
BRANCH   1  35
ATOM     35  C   UNL A   1      35.616  32.579  28.132  1.00  0.00     0.275 C 
BRANCH  35  36
ATOM     36  O   UNL A   1      36.523  31.557  28.559  1.00  0.00    -0.458 OA
BRANCH  36  37
ATOM     37  C   UNL A   1      36.313  30.378  27.934  1.00  0.00     0.338 C 
ATOM     38  O   UNL A   1      35.267  29.981  27.444  1.00  0.00    -0.246 OA
BRANCH  37  39
ATOM     39  C   UNL A   1      37.436  29.463  28.111  1.00  0.00     0.060 A 
ATOM     40  C   UNL A   1      37.489  28.768  29.323  1.00  0.00     0.016 A 
ATOM     41  C   UNL A   1      38.552  29.593  27.275  1.00  0.00     0.016 A 
ATOM     42  C   UNL A   1      38.707  28.295  29.762  1.00  0.00     0.010 A 
ATOM     43  C   UNL A   1      39.778  29.144  27.728  1.00  0.00     0.010 A 
ATOM     44  C   UNL A   1      39.849  28.520  28.980  1.00  0.00    -0.014 A 
BRANCH  44  45
ATOM     45  C   UNL A   1      41.086  27.849  29.406  1.00  0.00     0.031 A 
ATOM     46  C   UNL A   1      41.204  26.502  28.607  1.00  0.00     0.074 A 
ATOM     47  C   UNL A   1      41.780  28.484  30.411  1.00  0.00     0.049 A 
ATOM     48  N   UNL A   1      41.746  25.365  28.919  1.00  0.00    -0.248 NA
ATOM     49  C   UNL A   1      40.527  26.390  27.271  1.00  0.00     0.031 C 
ATOM     50  C   UNL A   1      41.490  29.840  30.961  1.00  0.00     0.029 A 
ATOM     51  N   UNL A   1      42.870  28.145  31.185  1.00  0.00    -0.354 N 
ATOM     52  C   UNL A   1      41.716  24.541  27.760  1.00  0.00     0.074 A 
ATOM     53  C   UNL A   1      40.825  25.165  26.838  1.00  0.00     0.031 C 
ATOM     54  C   UNL A   1      42.296  30.140  32.011  1.00  0.00     0.029 A 
ATOM     55  C   UNL A   1      43.200  29.036  32.261  1.00  0.00     0.049 A 
ATOM     56  H   UNL A   1      43.396  27.333  31.008  1.00  0.00     0.167 HD
ATOM     57  C   UNL A   1      42.558  23.481  27.571  1.00  0.00     0.037 A 
ATOM     58  C   UNL A   1      44.096  28.839  33.291  1.00  0.00     0.037 A 
ATOM     59  C   UNL A   1      43.362  23.320  28.729  1.00  0.00     0.049 A 
ATOM     60  C   UNL A   1      44.724  27.568  32.916  1.00  0.00     0.074 A 
ATOM     61  C   UNL A   1      43.117  22.756  29.949  1.00  0.00     0.029 A 
ATOM     62  N   UNL A   1      44.494  24.090  28.795  1.00  0.00    -0.354 N 
ATOM     63  N   UNL A   1      45.565  27.422  31.941  1.00  0.00    -0.248 NA
ATOM     64  C   UNL A   1      44.257  26.349  33.579  1.00  0.00     0.031 C 
ATOM     65  C   UNL A   1      43.850  23.573  30.833  1.00  0.00     0.029 A 
ATOM     66  C   UNL A   1      44.659  24.456  30.108  1.00  0.00     0.049 A 
ATOM     67  H   UNL A   1      45.080  24.335  28.043  1.00  0.00     0.167 HD
ATOM     68  C   UNL A   1      45.467  26.084  31.659  1.00  0.00     0.074 A 
ATOM     69  C   UNL A   1      44.908  25.457  32.841  1.00  0.00     0.031 C 
ATOM     70  C   UNL A   1      45.411  25.661  30.370  1.00  0.00     0.037 A 
BRANCH  57  71
ATOM     71  C   UNL A   1      42.969  22.668  26.365  1.00  0.00     0.058 A 
ATOM     72  C   UNL A   1      42.517  21.323  26.306  1.00  0.00     0.135 A 
ATOM     73  C   UNL A   1      44.046  22.992  25.530  1.00  0.00     0.135 A 
ATOM     74  F   UNL A   1      41.431  20.928  26.990  1.00  0.00    -0.206 F 
ATOM     75  C   UNL A   1      43.205  20.330  25.619  1.00  0.00     0.059 A 
ATOM     76  C   UNL A   1      44.719  22.015  24.783  1.00  0.00     0.059 A 
ATOM     77  F   UNL A   1      44.522  24.242  25.472  1.00  0.00    -0.206 F 
ATOM     78  C   UNL A   1      44.330  20.679  24.888  1.00  0.00     0.060 A 
BRANCH  78  79
ATOM     79  S   UNL A   1      45.273  19.352  24.108  1.00  0.00     0.124 S 
ATOM     80  O   UNL A   1      44.917  18.205  24.935  1.00  0.00    -0.237 OA
ATOM     81  O   UNL A   1      44.730  19.346  22.752  1.00  0.00    -0.237 OA
ATOM     82  O   UNL A   1      46.654  19.813  24.218  1.00  0.00    -0.744 OA
ENDBRANCH  78  79
ENDBRANCH  57  71
BRANCH  58  83
ATOM     83  C   UNL A   1      44.524  29.382  34.658  1.00  0.00     0.058 A 
ATOM     84  C   UNL A   1      45.577  30.262  34.928  1.00  0.00     0.135 A 
ATOM     85  C   UNL A   1      43.706  29.110  35.804  1.00  0.00     0.135 A 
ATOM     86  F   UNL A   1      46.519  30.500  34.005  1.00  0.00    -0.206 F 
ATOM     87  C   UNL A   1      45.693  30.950  36.165  1.00  0.00     0.059 A 
ATOM     88  C   UNL A   1      43.759  29.816  37.006  1.00  0.00     0.059 A 
ATOM     89  F   UNL A   1      42.768  28.151  35.792  1.00  0.00    -0.206 F 
ATOM     90  C   UNL A   1      44.737  30.773  37.169  1.00  0.00     0.060 A 
BRANCH  90  91
ATOM     91  S   UNL A   1      44.661  31.868  38.612  1.00  0.00     0.124 S 
ATOM     92  O   UNL A   1      43.629  32.823  38.226  1.00  0.00    -0.237 OA
ATOM     93  O   UNL A   1      44.304  30.945  39.686  1.00  0.00    -0.237 OA
ATOM     94  O   UNL A   1      46.016  32.409  38.699  1.00  0.00    -0.744 OA
ENDBRANCH  90  91
ENDBRANCH  58  83
BRANCH  70  95
ATOM     95  C   UNL A   1      45.854  26.700  29.331  1.00  0.00     0.058 A 
ATOM     96  C   UNL A   1      47.186  27.138  29.287  1.00  0.00     0.135 A 
ATOM     97  C   UNL A   1      44.983  27.355  28.437  1.00  0.00     0.135 A 
ATOM     98  F   UNL A   1      48.098  26.573  30.092  1.00  0.00    -0.206 F 
ATOM     99  C   UNL A   1      47.619  28.153  28.419  1.00  0.00     0.059 A 
ATOM    100  C   UNL A   1      45.382  28.372  27.560  1.00  0.00     0.059 A 
ATOM    101  F   UNL A   1      43.698  27.015  28.378  1.00  0.00    -0.206 F 
ATOM    102  C   UNL A   1      46.710  28.766  27.556  1.00  0.00     0.060 A 
BRANCH 102 103
ATOM    103  S   UNL A   1      47.289  30.051  26.420  1.00  0.00     0.124 S 
ATOM    104  O   UNL A   1      46.478  29.811  25.232  1.00  0.00    -0.237 OA
ATOM    105  O   UNL A   1      46.982  31.270  27.159  1.00  0.00    -0.237 OA
ATOM    106  O   UNL A   1      48.714  29.761  26.264  1.00  0.00    -0.744 OA
ENDBRANCH 102 103
ENDBRANCH  70  95
ENDBRANCH  44  45
ENDBRANCH  37  39
ENDBRANCH  36  37
ENDBRANCH  35  36
ENDBRANCH   1  35
TORSDOF 18
ENDMDL
MODEL 3
REMARK VINA RESULT:     -12.4      4.950     11.039
REMARK SMILES Cc1cccc(N2C(=O)/C(=C/c3cccn3-c3cccc(C(=O)OCCOC(=O)c4ccc(-c5c6nc(c(-c7c(F)cc(S(=O)(=O)[O-])cc7F)c7ccc([nH]7)c(-c7c(F)cc(S(=O)(=O)[O-])cc7F)c7nc(c(-c8c(F)cc(S(=O)(=O)[O-])cc8F)c8ccc5[nH]8)C=C7)C=C6)cc4)c3)C(O)=NC2=S)c1C
REMARK SMILES IDX 25 1 24 2 22 3 23 4 21 5 17 6 18 7 96 8 19 9 20 10 16 11
REMARK SMILES IDX 12 12 13 13 14 14 15 15 11 16 7 17 8 18 100 19 9 20 10 21
REMARK SMILES IDX 99 22 101 23 97 24 6 25 1 26 2 27 3 28 102 29 4 30 103 31
REMARK SMILES IDX 5 32 98 33 26 35 27 36 28 37 29 38 30 39 31 40 95 41 32 42
REMARK SMILES IDX 94 43 33 44 34 45 35 46 88 47 36 48 93 49 87 50 89 51 37 52
REMARK SMILES IDX 92 53 86 54 85 55 38 57 72 58 51 59 71 60 52 61 55 62 70 63
REMARK SMILES IDX 90 64 53 65 54 66 69 68 91 69 56 70 39 71 40 72 49 73 41 74
REMARK SMILES IDX 42 75 48 76 50 77 43 78 44 79 45 80 46 81 47 82 73 83 74 84
REMARK SMILES IDX 83 85 75 86 76 87 82 88 84 89 77 90 78 91 79 92 80 93 81 94
REMARK SMILES IDX 57 95 58 96 67 97 59 98 60 99 66 100 68 101 61 102 62 103
REMARK SMILES IDX 63 104 64 105 65 106
REMARK H PARENT 98 34 89 56 55 67
REMARK Flexibility Score: inf
ROOT
ATOM      1  C   UNL A   1      32.805  30.824  27.353  1.00  0.00     0.275 C 
ENDROOT
BRANCH   1   2
ATOM      2  O   UNL A   1      33.930  30.449  26.535  1.00  0.00    -0.458 OA
BRANCH   2   3
ATOM      3  C   UNL A   1      34.094  29.116  26.329  1.00  0.00     0.338 C 
ATOM      4  O   UNL A   1      34.595  28.322  27.117  1.00  0.00    -0.246 OA
BRANCH   3   5
ATOM      5  C   UNL A   1      33.456  28.695  25.053  1.00  0.00     0.062 A 
ATOM      6  C   UNL A   1      31.595  27.781  23.789  1.00  0.00     0.046 A 
ATOM      7  C   UNL A   1      32.382  27.772  22.630  1.00  0.00     0.026 A 
ATOM      8  C   UNL A   1      32.145  28.211  25.005  1.00  0.00     0.042 A 
ATOM      9  C   UNL A   1      33.689  28.259  22.677  1.00  0.00     0.003 A 
ATOM     10  C   UNL A   1      34.220  28.732  23.879  1.00  0.00     0.016 A 
BRANCH   6  11
ATOM     11  N   UNL A   1      30.235  27.367  23.715  1.00  0.00    -0.317 N 
ATOM     12  C   UNL A   1      29.738  26.068  23.564  1.00  0.00     0.047 A 
ATOM     13  C   UNL A   1      28.355  26.137  23.548  1.00  0.00     0.028 A 
ATOM     14  C   UNL A   1      27.988  27.494  23.648  1.00  0.00     0.020 A 
ATOM     15  C   UNL A   1      29.150  28.221  23.775  1.00  0.00     0.092 A 
BRANCH  12  16
ATOM     16  C   UNL A   1      30.608  24.947  23.565  1.00  0.00     0.046 C 
ATOM     17  N   UNL A   1      32.366  22.441  25.528  1.00  0.00    -0.251 N 
ATOM     18  C   UNL A   1      31.869  23.069  24.384  1.00  0.00     0.270 C 
ATOM     19  C   UNL A   1      32.107  22.904  26.833  1.00  0.00     0.210 C 
ATOM     20  O   UNL A   1      32.163  22.754  23.230  1.00  0.00    -0.268 OA
ATOM     21  C   UNL A   1      30.933  24.207  24.643  1.00  0.00     0.104 C 
ATOM     22  N   UNL A   1      31.041  23.743  27.029  1.00  0.00    -0.184 NA
ATOM     23  S   UNL A   1      33.049  22.504  28.193  1.00  0.00    -0.038 S 
ATOM     24  C   UNL A   1      30.495  24.338  26.036  1.00  0.00     0.226 C 
BRANCH  17  25
ATOM     25  C   UNL A   1      33.242  21.326  25.314  1.00  0.00     0.055 A 
ATOM     26  C   UNL A   1      36.943  20.478  24.730  1.00  0.00     0.044 C 
ATOM     27  C   UNL A   1      35.450  20.376  24.904  1.00  0.00    -0.046 A 
ATOM     28  C   UNL A   1      34.849  19.112  24.761  1.00  0.00     0.004 A 
ATOM     29  C   UNL A   1      34.648  21.499  25.211  1.00  0.00    -0.024 A 
ATOM     30  C   UNL A   1      33.476  18.947  24.921  1.00  0.00     0.002 A 
ATOM     31  C   UNL A   1      35.265  22.852  25.475  1.00  0.00     0.047 C 
ATOM     32  C   UNL A   1      32.675  20.048  25.199  1.00  0.00     0.027 A 
ENDBRANCH  17  25
BRANCH  24  33
ATOM     33  O   UNL A   1      29.419  25.083  26.323  1.00  0.00    -0.493 OA
ATOM     34  H   UNL A   1      28.584  24.858  25.964  1.00  0.00     0.295 HD
ENDBRANCH  24  33
ENDBRANCH  12  16
ENDBRANCH   6  11
ENDBRANCH   3   5
ENDBRANCH   2   3
ENDBRANCH   1   2
BRANCH   1  35
ATOM     35  C   UNL A   1      32.357  32.268  27.117  1.00  0.00     0.275 C 
BRANCH  35  36
ATOM     36  O   UNL A   1      33.410  33.230  27.230  1.00  0.00    -0.458 OA
BRANCH  36  37
ATOM     37  C   UNL A   1      33.297  34.001  28.334  1.00  0.00     0.338 C 
ATOM     38  O   UNL A   1      32.493  34.901  28.525  1.00  0.00    -0.246 OA
BRANCH  37  39
ATOM     39  C   UNL A   1      34.429  33.823  29.238  1.00  0.00     0.060 A 
ATOM     40  C   UNL A   1      35.669  34.281  28.781  1.00  0.00     0.016 A 
ATOM     41  C   UNL A   1      34.311  32.916  30.298  1.00  0.00     0.016 A 
ATOM     42  C   UNL A   1      36.814  33.732  29.317  1.00  0.00     0.010 A 
ATOM     43  C   UNL A   1      35.459  32.346  30.815  1.00  0.00     0.010 A 
ATOM     44  C   UNL A   1      36.701  32.741  30.302  1.00  0.00    -0.014 A 
BRANCH  44  45
ATOM     45  C   UNL A   1      37.946  32.317  30.960  1.00  0.00     0.031 A 
ATOM     46  C   UNL A   1      38.423  30.986  30.275  1.00  0.00     0.074 A 
ATOM     47  C   UNL A   1      38.345  33.100  32.019  1.00  0.00     0.049 A 
ATOM     48  N   UNL A   1      39.092  29.975  30.740  1.00  0.00    -0.248 NA
ATOM     49  C   UNL A   1      38.006  30.709  28.859  1.00  0.00     0.031 C 
ATOM     50  C   UNL A   1      37.740  34.400  32.430  1.00  0.00     0.029 A 
ATOM     51  N   UNL A   1      39.333  32.988  32.974  1.00  0.00    -0.354 N 
ATOM     52  C   UNL A   1      39.396  29.120  29.645  1.00  0.00     0.074 A 
ATOM     53  C   UNL A   1      38.578  29.543  28.557  1.00  0.00     0.031 C 
ATOM     54  C   UNL A   1      38.297  34.876  33.573  1.00  0.00     0.029 A 
ATOM     55  C   UNL A   1      39.322  33.960  34.030  1.00  0.00     0.049 A 
ATOM     56  H   UNL A   1      40.012  32.278  32.934  1.00  0.00     0.167 HD
ATOM     57  C   UNL A   1      40.426  28.222  29.658  1.00  0.00     0.037 A 
ATOM     58  C   UNL A   1      40.056  33.962  35.199  1.00  0.00     0.037 A 
ATOM     59  C   UNL A   1      41.042  28.247  30.935  1.00  0.00     0.049 A 
ATOM     60  C   UNL A   1      40.944  32.812  35.009  1.00  0.00     0.074 A 
ATOM     61  C   UNL A   1      40.699  27.691  32.135  1.00  0.00     0.029 A 
ATOM     62  N   UNL A   1      42.000  29.210  31.130  1.00  0.00    -0.354 N 
ATOM     63  N   UNL A   1      41.948  32.785  34.189  1.00  0.00    -0.248 NA
ATOM     64  C   UNL A   1      40.589  31.552  35.665  1.00  0.00     0.031 C 
ATOM     65  C   UNL A   1      41.124  28.655  33.070  1.00  0.00     0.029 A 
ATOM     66  C   UNL A   1      41.879  29.644  32.428  1.00  0.00     0.049 A 
ATOM     67  H   UNL A   1      42.652  29.529  30.466  1.00  0.00     0.167 HD
ATOM     68  C   UNL A   1      42.129  31.442  33.980  1.00  0.00     0.074 A 
ATOM     69  C   UNL A   1      41.497  30.766  35.097  1.00  0.00     0.031 C 
ATOM     70  C   UNL A   1      42.361  30.972  32.728  1.00  0.00     0.037 A 
BRANCH  57  71
ATOM     71  C   UNL A   1      41.164  27.455  28.585  1.00  0.00     0.058 A 
ATOM     72  C   UNL A   1      40.876  26.070  28.464  1.00  0.00     0.135 A 
ATOM     73  C   UNL A   1      42.355  27.888  27.989  1.00  0.00     0.135 A 
ATOM     74  F   UNL A   1      39.715  25.564  28.914  1.00  0.00    -0.206 F 
ATOM     75  C   UNL A   1      41.791  25.153  27.962  1.00  0.00     0.059 A 
ATOM     76  C   UNL A   1      43.268  26.986  27.424  1.00  0.00     0.059 A 
ATOM     77  F   UNL A   1      42.703  29.182  28.002  1.00  0.00    -0.206 F 
ATOM     78  C   UNL A   1      43.004  25.617  27.476  1.00  0.00     0.060 A 
BRANCH  78  79
ATOM     79  S   UNL A   1      44.221  24.396  26.944  1.00  0.00     0.124 S 
ATOM     80  O   UNL A   1      45.186  25.224  26.232  1.00  0.00    -0.237 OA
ATOM     81  O   UNL A   1      44.680  23.845  28.216  1.00  0.00    -0.237 OA
ATOM     82  O   UNL A   1      43.439  23.479  26.120  1.00  0.00    -0.744 OA
ENDBRANCH  78  79
ENDBRANCH  57  71
BRANCH  58  83
ATOM     83  C   UNL A   1      40.151  34.619  36.579  1.00  0.00     0.058 A 
ATOM     84  C   UNL A   1      41.114  35.536  37.017  1.00  0.00     0.135 A 
ATOM     85  C   UNL A   1      39.087  34.425  37.520  1.00  0.00     0.135 A 
ATOM     86  F   UNL A   1      42.246  35.716  36.324  1.00  0.00    -0.206 F 
ATOM     87  C   UNL A   1      40.937  36.322  38.186  1.00  0.00     0.059 A 
ATOM     88  C   UNL A   1      38.857  35.226  38.639  1.00  0.00     0.059 A 
ATOM     89  F   UNL A   1      38.176  33.453  37.367  1.00  0.00    -0.206 F 
ATOM     90  C   UNL A   1      39.771  36.209  38.949  1.00  0.00     0.060 A 
BRANCH  90  91
ATOM     91  S   UNL A   1      39.361  37.414  40.240  1.00  0.00     0.124 S 
ATOM     92  O   UNL A   1      40.665  37.976  40.569  1.00  0.00    -0.237 OA
ATOM     93  O   UNL A   1      38.437  38.309  39.549  1.00  0.00    -0.237 OA
ATOM     94  O   UNL A   1      38.748  36.595  41.285  1.00  0.00    -0.744 OA
ENDBRANCH  90  91
ENDBRANCH  58  83
BRANCH  70  95
ATOM     95  C   UNL A   1      42.786  32.037  31.709  1.00  0.00     0.058 A 
ATOM     96  C   UNL A   1      44.015  32.699  31.842  1.00  0.00     0.135 A 
ATOM     97  C   UNL A   1      41.973  32.499  30.652  1.00  0.00     0.135 A 
ATOM     98  F   UNL A   1      44.866  32.330  32.812  1.00  0.00    -0.206 F 
ATOM     99  C   UNL A   1      44.407  33.745  30.992  1.00  0.00     0.059 A 
ATOM    100  C   UNL A   1      42.333  33.540  29.787  1.00  0.00     0.059 A 
ATOM    101  F   UNL A   1      40.791  31.938  30.418  1.00  0.00    -0.206 F 
ATOM    102  C   UNL A   1      43.560  34.160  29.964  1.00  0.00     0.060 A 
BRANCH 102 103
ATOM    103  S   UNL A   1      44.092  35.488  28.855  1.00  0.00     0.124 S 
ATOM    104  O   UNL A   1      44.307  34.782  27.596  1.00  0.00    -0.237 OA
ATOM    105  O   UNL A   1      42.945  36.388  28.886  1.00  0.00    -0.237 OA
ATOM    106  O   UNL A   1      45.305  36.006  29.487  1.00  0.00    -0.744 OA
ENDBRANCH 102 103
ENDBRANCH  70  95
ENDBRANCH  44  45
ENDBRANCH  37  39
ENDBRANCH  36  37
ENDBRANCH  35  36
ENDBRANCH   1  35
TORSDOF 18
ENDMDL
