MODEL 1
REMARK VINA RESULT:      -8.8      0.000      0.000
REMARK SMILES COC[C@H](O)CC1(C(=O)OCCOC(=O)c2ccc(-c3c4nc(c(-c5c(F)cc(S(=O)(=O)[O-])cc5F)c5ccc([nH]5)c(-c5c(F)cc(S(=O)(=O)[O-])cc5F)c5nc(c(-c6c(F)cc(S(=O)(=O)[O-])cc6F)c6ccc3[nH]6)C=C5)C=C4)cc2)CC1
REMARK SMILES IDX 11 1 10 2 8 3 9 4 7 5 82 6 83 7 6 8 4 9 3 10 2 11 1 12 5 13
REMARK SMILES IDX 12 15 13 16 14 17 15 18 16 19 17 20 81 21 18 22 80 23 19 24
REMARK SMILES IDX 20 25 21 26 74 27 22 28 79 29 73 30 75 31 23 32 78 33 72 34
REMARK SMILES IDX 71 35 24 37 58 38 37 39 57 40 38 41 41 42 56 43 76 44 39 45
REMARK SMILES IDX 40 46 55 48 77 49 42 50 25 51 26 52 35 53 27 54 28 55 34 56
REMARK SMILES IDX 36 57 29 58 30 59 31 60 32 61 33 62 59 63 60 64 69 65 61 66
REMARK SMILES IDX 62 67 68 68 70 69 63 70 64 71 65 72 66 73 67 74 43 75 44 76
REMARK SMILES IDX 53 77 45 78 46 79 52 80 54 81 47 82 48 83 49 84 50 85 51 86
REMARK H PARENT 5 14 75 36 41 47
REMARK Flexibility Score: inf
ROOT
ATOM      1  C   UNL A   1      42.430  21.895  28.079  1.00  0.00     0.274 C 
ENDROOT
BRANCH   1   2
ATOM      2  O   UNL A   1      42.902  23.108  27.457  1.00  0.00    -0.462 OA
BRANCH   2   3
ATOM      3  C   UNL A   1      44.232  23.150  27.171  1.00  0.00     0.312 C 
ATOM      4  O   UNL A   1      45.133  23.198  27.991  1.00  0.00    -0.252 OA
BRANCH   3   5
ATOM      5  C   UNL A   1      44.529  23.158  25.693  1.00  0.00     0.071 C 
ATOM      6  C   UNL A   1      44.693  24.555  25.091  1.00  0.00     0.020 C 
ATOM      7  C   UNL A   1      43.510  23.723  24.713  1.00  0.00     0.020 C 
BRANCH   5   8
ATOM      8  C   UNL A   1      45.497  22.083  25.178  1.00  0.00     0.053 C 
BRANCH   8   9
ATOM      9  C   UNL A   1      44.791  20.805  24.699  1.00  0.00     0.141 C 
BRANCH   9  10
ATOM     10  C   UNL A   1      45.506  19.533  25.173  1.00  0.00     0.191 C 
BRANCH  10  11
ATOM     11  O   UNL A   1      44.633  18.398  25.100  1.00  0.00    -0.382 OA
ATOM     12  C   UNL A   1      43.373  18.649  25.718  1.00  0.00     0.195 C 
ENDBRANCH  10  11
ENDBRANCH   9  10
BRANCH   9  13
ATOM     13  O   UNL A   1      44.788  20.800  23.261  1.00  0.00    -0.391 OA
ATOM     14  H   UNL A   1      44.631  21.700  22.935  1.00  0.00     0.211 HD
ENDBRANCH   9  13
ENDBRANCH   8   9
ENDBRANCH   5   8
ENDBRANCH   3   5
ENDBRANCH   2   3
ENDBRANCH   1   2
BRANCH   1  15
ATOM     15  C   UNL A   1      41.067  21.467  27.533  1.00  0.00     0.275 C 
BRANCH  15  16
ATOM     16  O   UNL A   1      40.729  22.181  26.327  1.00  0.00    -0.458 OA
BRANCH  16  17
ATOM     17  C   UNL A   1      39.491  22.715  26.353  1.00  0.00     0.338 C 
ATOM     18  O   UNL A   1      38.438  22.134  26.134  1.00  0.00    -0.246 OA
BRANCH  17  19
ATOM     19  C   UNL A   1      39.479  24.127  26.754  1.00  0.00     0.060 A 
ATOM     20  C   UNL A   1      40.142  25.025  25.927  1.00  0.00     0.016 A 
ATOM     21  C   UNL A   1      39.254  24.438  28.098  1.00  0.00     0.016 A 
ATOM     22  C   UNL A   1      40.764  26.132  26.500  1.00  0.00     0.010 A 
ATOM     23  C   UNL A   1      39.765  25.627  28.635  1.00  0.00     0.010 A 
ATOM     24  C   UNL A   1      40.589  26.458  27.862  1.00  0.00    -0.014 A 
BRANCH  24  25
ATOM     25  C   UNL A   1      41.243  27.674  28.436  1.00  0.00     0.031 A 
ATOM     26  C   UNL A   1      40.456  28.814  29.051  1.00  0.00     0.074 A 
ATOM     27  C   UNL A   1      42.589  27.749  28.407  1.00  0.00     0.049 A 
ATOM     28  N   UNL A   1      40.876  29.995  29.440  1.00  0.00    -0.248 NA
ATOM     29  C   UNL A   1      39.015  28.611  29.252  1.00  0.00     0.031 C 
ATOM     30  C   UNL A   1      43.475  26.717  27.863  1.00  0.00     0.029 A 
ATOM     31  N   UNL A   1      43.450  28.727  28.836  1.00  0.00    -0.354 N 
ATOM     32  C   UNL A   1      39.750  30.689  29.882  1.00  0.00     0.074 A 
ATOM     33  C   UNL A   1      38.626  29.791  29.722  1.00  0.00     0.031 C 
ATOM     34  C   UNL A   1      44.746  27.086  28.036  1.00  0.00     0.029 A 
ATOM     35  C   UNL A   1      44.766  28.444  28.556  1.00  0.00     0.049 A 
ATOM     36  H   UNL A   1      43.157  29.545  29.297  1.00  0.00     0.167 HD
ATOM     37  C   UNL A   1      39.666  31.958  30.361  1.00  0.00     0.037 A 
ATOM     38  C   UNL A   1      45.870  29.210  28.611  1.00  0.00     0.037 A 
ATOM     39  C   UNL A   1      40.807  32.827  30.540  1.00  0.00     0.049 A 
ATOM     40  C   UNL A   1      45.753  30.620  29.083  1.00  0.00     0.074 A 
ATOM     41  C   UNL A   1      40.838  34.114  31.054  1.00  0.00     0.029 A 
ATOM     42  N   UNL A   1      42.115  32.506  30.203  1.00  0.00    -0.354 N 
ATOM     43  N   UNL A   1      44.679  31.268  29.464  1.00  0.00    -0.248 NA
ATOM     44  C   UNL A   1      46.988  31.406  29.124  1.00  0.00     0.031 C 
ATOM     45  C   UNL A   1      42.149  34.595  30.960  1.00  0.00     0.029 A 
ATOM     46  C   UNL A   1      42.952  33.584  30.456  1.00  0.00     0.049 A 
ATOM     47  H   UNL A   1      42.407  31.641  29.837  1.00  0.00     0.167 HD
ATOM     48  C   UNL A   1      45.107  32.547  29.790  1.00  0.00     0.074 A 
ATOM     49  C   UNL A   1      46.544  32.568  29.585  1.00  0.00     0.031 C 
ATOM     50  C   UNL A   1      44.376  33.604  30.222  1.00  0.00     0.037 A 
BRANCH  37  51
ATOM     51  C   UNL A   1      38.297  32.527  30.667  1.00  0.00     0.058 A 
ATOM     52  C   UNL A   1      37.639  32.317  31.889  1.00  0.00     0.135 A 
ATOM     53  C   UNL A   1      37.660  33.359  29.728  1.00  0.00     0.135 A 
ATOM     54  F   UNL A   1      38.192  31.535  32.828  1.00  0.00    -0.206 F 
ATOM     55  C   UNL A   1      36.390  32.882  32.155  1.00  0.00     0.059 A 
ATOM     56  C   UNL A   1      36.427  33.958  29.983  1.00  0.00     0.059 A 
ATOM     57  F   UNL A   1      38.241  33.609  28.543  1.00  0.00    -0.206 F 
ATOM     58  C   UNL A   1      35.790  33.699  31.194  1.00  0.00     0.060 A 
BRANCH  58  59
ATOM     59  S   UNL A   1      34.167  34.411  31.543  1.00  0.00     0.124 S 
ATOM     60  O   UNL A   1      34.527  35.745  32.014  1.00  0.00    -0.237 OA
ATOM     61  O   UNL A   1      33.512  34.356  30.240  1.00  0.00    -0.237 OA
ATOM     62  O   UNL A   1      33.612  33.519  32.557  1.00  0.00    -0.744 OA
ENDBRANCH  58  59
ENDBRANCH  37  51
BRANCH  38  63
ATOM     63  C   UNL A   1      47.145  28.639  28.105  1.00  0.00     0.058 A 
ATOM     64  C   UNL A   1      48.064  28.032  28.967  1.00  0.00     0.135 A 
ATOM     65  C   UNL A   1      47.387  28.559  26.721  1.00  0.00     0.135 A 
ATOM     66  F   UNL A   1      47.878  28.089  30.295  1.00  0.00    -0.206 F 
ATOM     67  C   UNL A   1      49.167  27.340  28.478  1.00  0.00     0.059 A 
ATOM     68  C   UNL A   1      48.460  27.843  26.207  1.00  0.00     0.059 A 
ATOM     69  F   UNL A   1      46.518  29.104  25.853  1.00  0.00    -0.206 F 
ATOM     70  C   UNL A   1      49.343  27.233  27.095  1.00  0.00     0.060 A 
BRANCH  70  71
ATOM     71  S   UNL A   1      50.697  26.217  26.468  1.00  0.00     0.124 S 
ATOM     72  O   UNL A   1      50.555  26.396  25.028  1.00  0.00    -0.237 OA
ATOM     73  O   UNL A   1      51.863  26.848  27.080  1.00  0.00    -0.237 OA
ATOM     74  O   UNL A   1      50.379  24.885  26.975  1.00  0.00    -0.744 OA
ENDBRANCH  70  71
ENDBRANCH  38  63
BRANCH  50  75
ATOM     75  C   UNL A   1      45.131  34.870  30.516  1.00  0.00     0.058 A 
ATOM     76  C   UNL A   1      45.273  35.884  29.555  1.00  0.00     0.135 A 
ATOM     77  C   UNL A   1      45.720  35.069  31.774  1.00  0.00     0.135 A 
ATOM     78  F   UNL A   1      44.741  35.737  28.331  1.00  0.00    -0.206 F 
ATOM     79  C   UNL A   1      46.006  37.036  29.820  1.00  0.00     0.059 A 
ATOM     80  C   UNL A   1      46.430  36.227  32.071  1.00  0.00     0.059 A 
ATOM     81  F   UNL A   1      45.607  34.134  32.730  1.00  0.00    -0.206 F 
ATOM     82  C   UNL A   1      46.583  37.197  31.081  1.00  0.00     0.060 A 
BRANCH  82  83
ATOM     83  S   UNL A   1      47.532  38.696  31.413  1.00  0.00     0.124 S 
ATOM     84  O   UNL A   1      48.549  38.202  32.334  1.00  0.00    -0.237 OA
ATOM     85  O   UNL A   1      48.006  39.066  30.083  1.00  0.00    -0.237 OA
ATOM     86  O   UNL A   1      46.545  39.601  31.995  1.00  0.00    -0.744 OA
ENDBRANCH  82  83
ENDBRANCH  50  75
ENDBRANCH  24  25
ENDBRANCH  17  19
ENDBRANCH  16  17
ENDBRANCH  15  16
ENDBRANCH   1  15
TORSDOF 19
ENDMDL
MODEL 2
REMARK VINA RESULT:      -8.7      3.260      5.077
REMARK SMILES COC[C@H](O)CC1(C(=O)OCCOC(=O)c2ccc(-c3c4nc(c(-c5c(F)cc(S(=O)(=O)[O-])cc5F)c5ccc([nH]5)c(-c5c(F)cc(S(=O)(=O)[O-])cc5F)c5nc(c(-c6c(F)cc(S(=O)(=O)[O-])cc6F)c6ccc3[nH]6)C=C5)C=C4)cc2)CC1
REMARK SMILES IDX 11 1 10 2 8 3 9 4 7 5 82 6 83 7 6 8 4 9 3 10 2 11 1 12 5 13
REMARK SMILES IDX 12 15 13 16 14 17 15 18 16 19 17 20 81 21 18 22 80 23 19 24
REMARK SMILES IDX 20 25 21 26 74 27 22 28 79 29 73 30 75 31 23 32 78 33 72 34
REMARK SMILES IDX 71 35 24 37 58 38 37 39 57 40 38 41 41 42 56 43 76 44 39 45
REMARK SMILES IDX 40 46 55 48 77 49 42 50 25 51 26 52 35 53 27 54 28 55 34 56
REMARK SMILES IDX 36 57 29 58 30 59 31 60 32 61 33 62 59 63 60 64 69 65 61 66
REMARK SMILES IDX 62 67 68 68 70 69 63 70 64 71 65 72 66 73 67 74 43 75 44 76
REMARK SMILES IDX 53 77 45 78 46 79 52 80 54 81 47 82 48 83 49 84 50 85 51 86
REMARK H PARENT 5 14 75 36 41 47
REMARK Flexibility Score: inf
ROOT
ATOM      1  C   UNL A   1      36.290  21.376  25.476  1.00  0.00     0.274 C 
ENDROOT
BRANCH   1   2
ATOM      2  O   UNL A   1      35.344  20.493  24.840  1.00  0.00    -0.462 OA
BRANCH   2   3
ATOM      3  C   UNL A   1      34.239  21.087  24.311  1.00  0.00     0.312 C 
ATOM      4  O   UNL A   1      34.185  22.226  23.878  1.00  0.00    -0.252 OA
BRANCH   3   5
ATOM      5  C   UNL A   1      33.017  20.204  24.321  1.00  0.00     0.071 C 
ATOM      6  C   UNL A   1      31.884  20.707  25.218  1.00  0.00     0.020 C 
ATOM      7  C   UNL A   1      32.623  19.462  25.591  1.00  0.00     0.020 C 
BRANCH   5   8
ATOM      8  C   UNL A   1      32.595  19.595  22.977  1.00  0.00     0.053 C 
BRANCH   8   9
ATOM      9  C   UNL A   1      32.415  18.070  23.027  1.00  0.00     0.141 C 
BRANCH   9  10
ATOM     10  C   UNL A   1      33.755  17.328  23.114  1.00  0.00     0.191 C 
BRANCH  10  11
ATOM     11  O   UNL A   1      33.772  16.432  24.233  1.00  0.00    -0.382 OA
ATOM     12  C   UNL A   1      35.029  16.436  24.906  1.00  0.00     0.195 C 
ENDBRANCH  10  11
ENDBRANCH   9  10
BRANCH   9  13
ATOM     13  O   UNL A   1      31.755  17.651  21.820  1.00  0.00    -0.391 OA
ATOM     14  H   UNL A   1      32.375  17.148  21.271  1.00  0.00     0.211 HD
ENDBRANCH   9  13
ENDBRANCH   8   9
ENDBRANCH   5   8
ENDBRANCH   3   5
ENDBRANCH   2   3
ENDBRANCH   1   2
BRANCH   1  15
ATOM     15  C   UNL A   1      37.720  20.839  25.388  1.00  0.00     0.275 C 
BRANCH  15  16
ATOM     16  O   UNL A   1      38.688  21.907  25.378  1.00  0.00    -0.458 OA
BRANCH  16  17
ATOM     17  C   UNL A   1      39.655  21.759  26.307  1.00  0.00     0.338 C 
ATOM     18  O   UNL A   1      40.368  20.780  26.471  1.00  0.00    -0.246 OA
BRANCH  17  19
ATOM     19  C   UNL A   1      39.858  22.959  27.127  1.00  0.00     0.060 A 
ATOM     20  C   UNL A   1      39.313  24.147  26.655  1.00  0.00     0.016 A 
ATOM     21  C   UNL A   1      40.927  22.980  28.027  1.00  0.00     0.016 A 
ATOM     22  C   UNL A   1      39.979  25.342  26.918  1.00  0.00     0.010 A 
ATOM     23  C   UNL A   1      41.504  24.203  28.397  1.00  0.00     0.010 A 
ATOM     24  C   UNL A   1      41.084  25.397  27.794  1.00  0.00    -0.014 A 
BRANCH  24  25
ATOM     25  C   UNL A   1      41.754  26.703  28.082  1.00  0.00     0.031 A 
ATOM     26  C   UNL A   1      41.063  27.833  28.819  1.00  0.00     0.074 A 
ATOM     27  C   UNL A   1      43.027  26.872  27.670  1.00  0.00     0.049 A 
ATOM     28  N   UNL A   1      41.461  29.070  28.998  1.00  0.00    -0.248 NA
ATOM     29  C   UNL A   1      39.758  27.544  29.431  1.00  0.00     0.031 C 
ATOM     30  C   UNL A   1      43.821  25.863  26.965  1.00  0.00     0.029 A 
ATOM     31  N   UNL A   1      43.876  27.944  27.775  1.00  0.00    -0.354 N 
ATOM     32  C   UNL A   1      40.440  29.717  29.694  1.00  0.00     0.074 A 
ATOM     33  C   UNL A   1      39.405  28.729  29.915  1.00  0.00     0.031 C 
ATOM     34  C   UNL A   1      45.050  26.337  26.749  1.00  0.00     0.029 A 
ATOM     35  C   UNL A   1      45.085  27.734  27.155  1.00  0.00     0.049 A 
ATOM     36  H   UNL A   1      43.646  28.776  28.247  1.00  0.00     0.167 HD
ATOM     37  C   UNL A   1      40.371  31.013  30.094  1.00  0.00     0.037 A 
ATOM     38  C   UNL A   1      46.084  28.579  26.847  1.00  0.00     0.037 A 
ATOM     39  C   UNL A   1      41.430  31.976  29.889  1.00  0.00     0.049 A 
ATOM     40  C   UNL A   1      45.970  30.013  27.243  1.00  0.00     0.074 A 
ATOM     41  C   UNL A   1      41.481  33.301  30.290  1.00  0.00     0.029 A 
ATOM     42  N   UNL A   1      42.620  31.722  29.218  1.00  0.00    -0.354 N 
ATOM     43  N   UNL A   1      44.986  30.613  27.868  1.00  0.00    -0.248 NA
ATOM     44  C   UNL A   1      47.089  30.887  26.883  1.00  0.00     0.031 C 
ATOM     45  C   UNL A   1      42.664  33.866  29.800  1.00  0.00     0.029 A 
ATOM     46  C   UNL A   1      43.389  32.876  29.156  1.00  0.00     0.049 A 
ATOM     47  H   UNL A   1      42.880  30.851  28.841  1.00  0.00     0.167 HD
ATOM     48  C   UNL A   1      45.365  31.943  27.978  1.00  0.00     0.074 A 
ATOM     49  C   UNL A   1      46.681  32.050  27.376  1.00  0.00     0.031 C 
ATOM     50  C   UNL A   1      44.685  32.978  28.530  1.00  0.00     0.037 A 
BRANCH  37  51
ATOM     51  C   UNL A   1      39.092  31.506  30.737  1.00  0.00     0.058 A 
ATOM     52  C   UNL A   1      38.875  31.481  32.124  1.00  0.00     0.135 A 
ATOM     53  C   UNL A   1      38.085  32.079  29.939  1.00  0.00     0.135 A 
ATOM     54  F   UNL A   1      39.796  30.949  32.942  1.00  0.00    -0.206 F 
ATOM     55  C   UNL A   1      37.698  31.972  32.690  1.00  0.00     0.059 A 
ATOM     56  C   UNL A   1      36.914  32.603  30.485  1.00  0.00     0.059 A 
ATOM     57  F   UNL A   1      38.235  32.145  28.606  1.00  0.00    -0.206 F 
ATOM     58  C   UNL A   1      36.721  32.529  31.861  1.00  0.00     0.060 A 
BRANCH  58  59
ATOM     59  S   UNL A   1      35.194  33.148  32.604  1.00  0.00     0.124 S 
ATOM     60  O   UNL A   1      35.403  32.825  34.012  1.00  0.00    -0.237 OA
ATOM     61  O   UNL A   1      35.232  34.567  32.267  1.00  0.00    -0.237 OA
ATOM     62  O   UNL A   1      34.150  32.377  31.935  1.00  0.00    -0.744 OA
ENDBRANCH  58  59
ENDBRANCH  37  51
BRANCH  38  63
ATOM     63  C   UNL A   1      47.218  28.060  26.040  1.00  0.00     0.058 A 
ATOM     64  C   UNL A   1      47.134  27.955  24.648  1.00  0.00     0.135 A 
ATOM     65  C   UNL A   1      48.462  27.805  26.646  1.00  0.00     0.135 A 
ATOM     66  F   UNL A   1      45.966  28.183  24.027  1.00  0.00    -0.206 F 
ATOM     67  C   UNL A   1      48.249  27.643  23.878  1.00  0.00     0.059 A 
ATOM     68  C   UNL A   1      49.597  27.527  25.896  1.00  0.00     0.059 A 
ATOM     69  F   UNL A   1      48.598  27.918  27.978  1.00  0.00    -0.206 F 
ATOM     70  C   UNL A   1      49.481  27.452  24.510  1.00  0.00     0.060 A 
BRANCH  70  71
ATOM     71  S   UNL A   1      50.948  27.186  23.493  1.00  0.00     0.124 S 
ATOM     72  O   UNL A   1      50.357  26.742  22.237  1.00  0.00    -0.237 OA
ATOM     73  O   UNL A   1      51.558  28.512  23.482  1.00  0.00    -0.237 OA
ATOM     74  O   UNL A   1      51.692  26.172  24.237  1.00  0.00    -0.744 OA
ENDBRANCH  70  71
ENDBRANCH  38  63
BRANCH  50  75
ATOM     75  C   UNL A   1      45.369  34.316  28.518  1.00  0.00     0.058 A 
ATOM     76  C   UNL A   1      46.228  34.715  29.555  1.00  0.00     0.135 A 
ATOM     77  C   UNL A   1      45.159  35.211  27.457  1.00  0.00     0.135 A 
ATOM     78  F   UNL A   1      46.451  33.903  30.599  1.00  0.00    -0.206 F 
ATOM     79  C   UNL A   1      46.826  35.971  29.557  1.00  0.00     0.059 A 
ATOM     80  C   UNL A   1      45.772  36.459  27.424  1.00  0.00     0.059 A 
ATOM     81  F   UNL A   1      44.352  34.876  26.438  1.00  0.00    -0.206 F 
ATOM     82  C   UNL A   1      46.590  36.837  28.488  1.00  0.00     0.060 A 
BRANCH  82  83
ATOM     83  S   UNL A   1      47.373  38.463  28.503  1.00  0.00     0.124 S 
ATOM     84  O   UNL A   1      48.628  38.178  29.188  1.00  0.00    -0.237 OA
ATOM     85  O   UNL A   1      47.482  38.769  27.079  1.00  0.00    -0.237 OA
ATOM     86  O   UNL A   1      46.426  39.290  29.245  1.00  0.00    -0.744 OA
ENDBRANCH  82  83
ENDBRANCH  50  75
ENDBRANCH  24  25
ENDBRANCH  17  19
ENDBRANCH  16  17
ENDBRANCH  15  16
ENDBRANCH   1  15
TORSDOF 19
ENDMDL
MODEL 3
REMARK VINA RESULT:      -8.7      4.195     10.250
REMARK SMILES COC[C@H](O)CC1(C(=O)OCCOC(=O)c2ccc(-c3c4nc(c(-c5c(F)cc(S(=O)(=O)[O-])cc5F)c5ccc([nH]5)c(-c5c(F)cc(S(=O)(=O)[O-])cc5F)c5nc(c(-c6c(F)cc(S(=O)(=O)[O-])cc6F)c6ccc3[nH]6)C=C5)C=C4)cc2)CC1
REMARK SMILES IDX 11 1 10 2 8 3 9 4 7 5 82 6 83 7 6 8 4 9 3 10 2 11 1 12 5 13
REMARK SMILES IDX 12 15 13 16 14 17 15 18 16 19 17 20 81 21 18 22 80 23 19 24
REMARK SMILES IDX 20 25 21 26 74 27 22 28 79 29 73 30 75 31 23 32 78 33 72 34
REMARK SMILES IDX 71 35 24 37 58 38 37 39 57 40 38 41 41 42 56 43 76 44 39 45
REMARK SMILES IDX 40 46 55 48 77 49 42 50 25 51 26 52 35 53 27 54 28 55 34 56
REMARK SMILES IDX 36 57 29 58 30 59 31 60 32 61 33 62 59 63 60 64 69 65 61 66
REMARK SMILES IDX 62 67 68 68 70 69 63 70 64 71 65 72 66 73 67 74 43 75 44 76
REMARK SMILES IDX 53 77 45 78 46 79 52 80 54 81 47 82 48 83 49 84 50 85 51 86
REMARK H PARENT 5 14 75 36 41 47
REMARK Flexibility Score: inf
ROOT
ATOM      1  C   UNL A   1      33.436  29.631  27.124  1.00  0.00     0.274 C 
ENDROOT
BRANCH   1   2
ATOM      2  O   UNL A   1      33.181  29.221  25.765  1.00  0.00    -0.462 OA
BRANCH   2   3
ATOM      3  C   UNL A   1      32.017  28.546  25.557  1.00  0.00     0.312 C 
ATOM      4  O   UNL A   1      31.373  27.961  26.413  1.00  0.00    -0.252 OA
BRANCH   3   5
ATOM      5  C   UNL A   1      31.567  28.552  24.118  1.00  0.00     0.071 C 
ATOM      6  C   UNL A   1      30.393  29.491  23.831  1.00  0.00     0.020 C 
ATOM      7  C   UNL A   1      30.192  28.012  23.747  1.00  0.00     0.020 C 
BRANCH   5   8
ATOM      8  C   UNL A   1      32.667  28.500  23.051  1.00  0.00     0.053 C 
BRANCH   8   9
ATOM      9  C   UNL A   1      32.868  27.102  22.447  1.00  0.00     0.141 C 
BRANCH   9  10
ATOM     10  C   UNL A   1      33.588  26.149  23.411  1.00  0.00     0.191 C 
BRANCH  10  11
ATOM     11  O   UNL A   1      32.980  24.851  23.397  1.00  0.00    -0.382 OA
ATOM     12  C   UNL A   1      31.931  24.739  24.357  1.00  0.00     0.195 C 
ENDBRANCH  10  11
ENDBRANCH   9  10
BRANCH   9  13
ATOM     13  O   UNL A   1      33.676  27.229  21.265  1.00  0.00    -0.391 OA
ATOM     14  H   UNL A   1      33.611  28.135  20.924  1.00  0.00     0.211 HD
ENDBRANCH   9  13
ENDBRANCH   8   9
ENDBRANCH   5   8
ENDBRANCH   3   5
ENDBRANCH   2   3
ENDBRANCH   1   2
BRANCH   1  15
ATOM     15  C   UNL A   1      34.870  29.319  27.555  1.00  0.00     0.275 C 
BRANCH  15  16
ATOM     16  O   UNL A   1      35.443  30.400  28.317  1.00  0.00    -0.458 OA
BRANCH  16  17
ATOM     17  C   UNL A   1      36.222  29.981  29.336  1.00  0.00     0.338 C 
ATOM     18  O   UNL A   1      35.857  29.381  30.336  1.00  0.00    -0.246 OA
BRANCH  17  19
ATOM     19  C   UNL A   1      37.648  30.252  29.123  1.00  0.00     0.060 A 
ATOM     20  C   UNL A   1      38.162  29.980  27.860  1.00  0.00     0.016 A 
ATOM     21  C   UNL A   1      38.493  30.296  30.235  1.00  0.00     0.016 A 
ATOM     22  C   UNL A   1      39.480  29.542  27.753  1.00  0.00     0.010 A 
ATOM     23  C   UNL A   1      39.853  29.990  30.091  1.00  0.00     0.010 A 
ATOM     24  C   UNL A   1      40.353  29.539  28.861  1.00  0.00    -0.014 A 
BRANCH  24  25
ATOM     25  C   UNL A   1      41.773  29.097  28.702  1.00  0.00     0.031 A 
ATOM     26  C   UNL A   1      42.946  30.049  28.815  1.00  0.00     0.074 A 
ATOM     27  C   UNL A   1      42.011  27.792  28.454  1.00  0.00     0.049 A 
ATOM     28  N   UNL A   1      44.212  29.840  28.543  1.00  0.00    -0.248 NA
ATOM     29  C   UNL A   1      42.667  31.413  29.286  1.00  0.00     0.031 C 
ATOM     30  C   UNL A   1      40.979  26.759  28.339  1.00  0.00     0.029 A 
ATOM     31  N   UNL A   1      43.183  27.110  28.250  1.00  0.00    -0.354 N 
ATOM     32  C   UNL A   1      44.869  31.051  28.760  1.00  0.00     0.074 A 
ATOM     33  C   UNL A   1      43.859  31.991  29.198  1.00  0.00     0.031 C 
ATOM     34  C   UNL A   1      41.559  25.573  28.140  1.00  0.00     0.029 A 
ATOM     35  C   UNL A   1      42.986  25.782  27.955  1.00  0.00     0.049 A 
ATOM     36  H   UNL A   1      44.072  27.527  28.311  1.00  0.00     0.167 HD
ATOM     37  C   UNL A   1      46.184  31.348  28.595  1.00  0.00     0.037 A 
ATOM     38  C   UNL A   1      43.828  24.841  27.491  1.00  0.00     0.037 A 
ATOM     39  C   UNL A   1      47.181  30.384  28.186  1.00  0.00     0.049 A 
ATOM     40  C   UNL A   1      45.258  25.197  27.259  1.00  0.00     0.074 A 
ATOM     41  C   UNL A   1      48.545  30.567  28.028  1.00  0.00     0.029 A 
ATOM     42  N   UNL A   1      46.922  29.058  27.860  1.00  0.00    -0.354 N 
ATOM     43  N   UNL A   1      45.852  26.351  27.437  1.00  0.00    -0.248 NA
ATOM     44  C   UNL A   1      46.128  24.132  26.755  1.00  0.00     0.031 C 
ATOM     45  C   UNL A   1      49.097  29.379  27.538  1.00  0.00     0.029 A 
ATOM     46  C   UNL A   1      48.092  28.428  27.459  1.00  0.00     0.049 A 
ATOM     47  H   UNL A   1      46.039  28.628  27.905  1.00  0.00     0.167 HD
ATOM     48  C   UNL A   1      47.174  26.155  27.064  1.00  0.00     0.074 A 
ATOM     49  C   UNL A   1      47.293  24.762  26.675  1.00  0.00     0.031 C 
ATOM     50  C   UNL A   1      48.194  27.049  27.047  1.00  0.00     0.037 A 
BRANCH  37  51
ATOM     51  C   UNL A   1      46.634  32.780  28.787  1.00  0.00     0.058 A 
ATOM     52  C   UNL A   1      47.119  33.272  30.009  1.00  0.00     0.135 A 
ATOM     53  C   UNL A   1      46.635  33.665  27.693  1.00  0.00     0.135 A 
ATOM     54  F   UNL A   1      47.145  32.480  31.093  1.00  0.00    -0.206 F 
ATOM     55  C   UNL A   1      47.557  34.590  30.147  1.00  0.00     0.059 A 
ATOM     56  C   UNL A   1      47.094  34.976  27.799  1.00  0.00     0.059 A 
ATOM     57  F   UNL A   1      46.194  33.254  26.492  1.00  0.00    -0.206 F 
ATOM     58  C   UNL A   1      47.537  35.436  29.036  1.00  0.00     0.060 A 
BRANCH  58  59
ATOM     59  S   UNL A   1      48.091  37.145  29.231  1.00  0.00     0.124 S 
ATOM     60  O   UNL A   1      47.750  37.406  30.626  1.00  0.00    -0.237 OA
ATOM     61  O   UNL A   1      49.517  37.051  28.934  1.00  0.00    -0.237 OA
ATOM     62  O   UNL A   1      47.298  37.877  28.247  1.00  0.00    -0.744 OA
ENDBRANCH  58  59
ENDBRANCH  37  51
BRANCH  38  63
ATOM     63  C   UNL A   1      43.267  23.511  27.139  1.00  0.00     0.058 A 
ATOM     64  C   UNL A   1      43.048  23.142  25.807  1.00  0.00     0.135 A 
ATOM     65  C   UNL A   1      43.085  22.532  28.133  1.00  0.00     0.135 A 
ATOM     66  F   UNL A   1      43.203  24.044  24.826  1.00  0.00    -0.206 F 
ATOM     67  C   UNL A   1      42.696  21.840  25.467  1.00  0.00     0.059 A 
ATOM     68  C   UNL A   1      42.770  21.218  27.815  1.00  0.00     0.059 A 
ATOM     69  F   UNL A   1      43.308  22.833  29.423  1.00  0.00    -0.206 F 
ATOM     70  C   UNL A   1      42.581  20.880  26.477  1.00  0.00     0.060 A 
BRANCH  70  71
ATOM     71  S   UNL A   1      42.261  19.165  26.014  1.00  0.00     0.124 S 
ATOM     72  O   UNL A   1      42.729  18.451  27.196  1.00  0.00    -0.237 OA
ATOM     73  O   UNL A   1      40.818  19.170  25.797  1.00  0.00    -0.237 OA
ATOM     74  O   UNL A   1      43.066  18.989  24.808  1.00  0.00    -0.744 OA
ENDBRANCH  70  71
ENDBRANCH  38  63
BRANCH  50  75
ATOM     75  C   UNL A   1      49.535  26.532  26.606  1.00  0.00     0.058 A 
ATOM     76  C   UNL A   1      49.943  26.590  25.264  1.00  0.00     0.135 A 
ATOM     77  C   UNL A   1      50.421  25.970  27.539  1.00  0.00     0.135 A 
ATOM     78  F   UNL A   1      49.127  27.105  24.330  1.00  0.00    -0.206 F 
ATOM     79  C   UNL A   1      51.168  26.075  24.856  1.00  0.00     0.059 A 
ATOM     80  C   UNL A   1      51.664  25.477  27.157  1.00  0.00     0.059 A 
ATOM     81  F   UNL A   1      50.083  25.897  28.835  1.00  0.00    -0.206 F 
ATOM     82  C   UNL A   1      52.021  25.518  25.810  1.00  0.00     0.060 A 
BRANCH  82  83
ATOM     83  S   UNL A   1      53.609  24.853  25.268  1.00  0.00     0.124 S 
ATOM     84  O   UNL A   1      53.861  25.637  24.064  1.00  0.00    -0.237 OA
ATOM     85  O   UNL A   1      54.474  25.144  26.408  1.00  0.00    -0.237 OA
ATOM     86  O   UNL A   1      53.328  23.438  25.047  1.00  0.00    -0.744 OA
ENDBRANCH  82  83
ENDBRANCH  50  75
ENDBRANCH  24  25
ENDBRANCH  17  19
ENDBRANCH  16  17
ENDBRANCH  15  16
ENDBRANCH   1  15
TORSDOF 19
ENDMDL
