MODEL 1
REMARK VINA RESULT:     -11.7      0.000      0.000
REMARK SMILES Cc1cc2c(c(C)c1Cl)C=C(C(=O)OCCOC(=O)c1ccc(-c3c4nc(c(-c5c(F)cc(S(=O)(=O)[O-])cc5F)c5ccc([nH]5)c(-c5c(F)cc(S(=O)(=O)[O-])cc5F)c5nc(c(-c6c(F)cc(S(=O)(=O)[O-])cc6F)c6ccc3[nH]6)C=C5)C=C4)cc1)[C@@H](C(F)(F)F)O2
REMARK SMILES IDX 16 1 15 2 14 3 12 4 13 5 11 6 1 7 2 8 3 9 8 10 4 11 6 12
REMARK SMILES IDX 9 13 5 14 91 15 7 16 10 17 86 18 87 19 88 20 89 21 90 22
REMARK SMILES IDX 17 23 18 24 19 25 20 26 21 27 85 28 22 29 84 30 23 31 24 32
REMARK SMILES IDX 25 33 78 34 26 35 83 36 77 37 79 38 27 39 82 40 76 41 75 42
REMARK SMILES IDX 28 44 62 45 41 46 61 47 42 48 45 49 60 50 80 51 43 52 44 53
REMARK SMILES IDX 59 55 81 56 46 57 29 58 30 59 39 60 31 61 32 62 38 63 40 64
REMARK SMILES IDX 33 65 34 66 35 67 36 68 37 69 63 70 64 71 73 72 65 73 66 74
REMARK SMILES IDX 72 75 74 76 67 77 68 78 69 79 70 80 71 81 47 82 48 83 57 84
REMARK SMILES IDX 49 85 50 86 56 87 58 88 51 89 52 90 53 91 54 92 55 93
REMARK H PARENT 79 43 45 54
REMARK Flexibility Score: inf
ROOT
ATOM      1  C   UNL A   1      32.541  28.361  27.477  1.00  0.00     0.275 C 
ENDROOT
BRANCH   1   2
ATOM      2  C   UNL A   1      32.021  28.599  26.060  1.00  0.00     0.275 C 
BRANCH   2   3
ATOM      3  O   UNL A   1      31.713  27.359  25.387  1.00  0.00    -0.459 OA
BRANCH   3   4
ATOM      4  C   UNL A   1      32.715  26.843  24.636  1.00  0.00     0.338 C 
ATOM      5  O   UNL A   1      33.455  27.468  23.890  1.00  0.00    -0.246 OA
BRANCH   4   6
ATOM      6  C   UNL A   1      32.818  25.383  24.823  1.00  0.00     0.087 C 
ATOM      7  C   UNL A   1      34.372  19.088  24.709  1.00  0.00     0.046 C 
ATOM      8  C   UNL A   1      34.378  20.591  24.806  1.00  0.00    -0.028 A 
ATOM      9  C   UNL A   1      33.133  21.236  24.850  1.00  0.00     0.052 A 
ATOM     10  C   UNL A   1      35.551  21.366  24.876  1.00  0.00     0.047 A 
ATOM     11  C   UNL A   1      33.043  22.625  24.905  1.00  0.00     0.128 A 
ATOM     12  C   UNL A   1      35.481  22.779  24.925  1.00  0.00    -0.021 A 
ATOM     13  Cl  UNL A   1      37.092  20.566  24.902  1.00  0.00    -0.084 Cl
ATOM     14  C   UNL A   1      34.204  23.401  24.924  1.00  0.00     0.022 A 
ATOM     15  O   UNL A   1      31.772  23.132  24.955  1.00  0.00    -0.475 OA
ATOM     16  C   UNL A   1      36.733  23.626  24.996  1.00  0.00     0.047 C 
ATOM     17  C   UNL A   1      34.042  24.851  24.907  1.00  0.00     0.027 C 
ATOM     18  C   UNL A   1      31.571  24.556  24.760  1.00  0.00     0.316 C 
BRANCH  18  19
ATOM     19  C   UNL A   1      30.816  24.774  23.439  1.00  0.00     0.430 C 
ATOM     20  F   UNL A   1      31.667  25.105  22.436  1.00  0.00    -0.167 F 
ATOM     21  F   UNL A   1      30.173  23.651  23.037  1.00  0.00    -0.167 F 
ATOM     22  F   UNL A   1      29.895  25.758  23.529  1.00  0.00    -0.167 F 
ENDBRANCH  18  19
ENDBRANCH   4   6
ENDBRANCH   3   4
ENDBRANCH   2   3
ENDBRANCH   1   2
BRANCH   1  23
ATOM     23  O   UNL A   1      33.962  28.576  27.542  1.00  0.00    -0.458 OA
BRANCH  23  24
ATOM     24  C   UNL A   1      34.333  29.836  27.864  1.00  0.00     0.338 C 
ATOM     25  O   UNL A   1      33.621  30.822  27.923  1.00  0.00    -0.246 OA
BRANCH  24  26
ATOM     26  C   UNL A   1      35.754  29.870  28.242  1.00  0.00     0.060 A 
ATOM     27  C   UNL A   1      36.680  30.235  27.276  1.00  0.00     0.016 A 
ATOM     28  C   UNL A   1      36.186  29.339  29.455  1.00  0.00     0.016 A 
ATOM     29  C   UNL A   1      38.022  29.915  27.447  1.00  0.00     0.010 A 
ATOM     30  C   UNL A   1      37.559  29.159  29.680  1.00  0.00     0.010 A 
ATOM     31  C   UNL A   1      38.495  29.388  28.657  1.00  0.00    -0.014 A 
BRANCH  31  32
ATOM     32  C   UNL A   1      39.944  29.054  28.825  1.00  0.00     0.031 A 
ATOM     33  C   UNL A   1      40.908  30.079  29.380  1.00  0.00     0.074 A 
ATOM     34  C   UNL A   1      40.407  27.821  28.521  1.00  0.00     0.049 A 
ATOM     35  N   UNL A   1      42.218  30.065  29.386  1.00  0.00    -0.248 NA
ATOM     36  C   UNL A   1      40.326  31.283  29.994  1.00  0.00     0.031 C 
ATOM     37  C   UNL A   1      39.592  26.697  28.048  1.00  0.00     0.029 A 
ATOM     38  N   UNL A   1      41.675  27.293  28.581  1.00  0.00    -0.354 N 
ATOM     39  C   UNL A   1      42.614  31.278  29.943  1.00  0.00     0.074 A 
ATOM     40  C   UNL A   1      41.405  32.007  30.262  1.00  0.00     0.031 C 
ATOM     41  C   UNL A   1      40.360  25.606  27.934  1.00  0.00     0.029 A 
ATOM     42  C   UNL A   1      41.745  25.978  28.181  1.00  0.00     0.049 A 
ATOM     43  H   UNL A   1      42.458  27.808  28.881  1.00  0.00     0.167 HD
ATOM     44  C   UNL A   1      43.870  31.739  30.164  1.00  0.00     0.037 A 
ATOM     45  C   UNL A   1      42.802  25.169  27.966  1.00  0.00     0.037 A 
ATOM     46  C   UNL A   1      45.065  30.976  29.896  1.00  0.00     0.049 A 
ATOM     47  C   UNL A   1      44.184  25.720  28.153  1.00  0.00     0.074 A 
ATOM     48  C   UNL A   1      46.386  31.357  30.062  1.00  0.00     0.029 A 
ATOM     49  N   UNL A   1      45.085  29.667  29.436  1.00  0.00    -0.354 N 
ATOM     50  N   UNL A   1      44.546  26.914  28.557  1.00  0.00    -0.248 NA
ATOM     51  C   UNL A   1      45.303  24.827  27.828  1.00  0.00     0.031 C 
ATOM     52  C   UNL A   1      47.204  30.296  29.662  1.00  0.00     0.029 A 
ATOM     53  C   UNL A   1      46.394  29.230  29.304  1.00  0.00     0.049 A 
ATOM     54  H   UNL A   1      44.287  29.127  29.232  1.00  0.00     0.167 HD
ATOM     55  C   UNL A   1      45.935  26.911  28.553  1.00  0.00     0.074 A 
ATOM     56  C   UNL A   1      46.347  25.591  28.120  1.00  0.00     0.031 C 
ATOM     57  C   UNL A   1      46.790  27.911  28.879  1.00  0.00     0.037 A 
BRANCH  44  58
ATOM     58  C   UNL A   1      44.034  33.144  30.685  1.00  0.00     0.058 A 
ATOM     59  C   UNL A   1      44.205  34.245  29.833  1.00  0.00     0.135 A 
ATOM     60  C   UNL A   1      43.950  33.398  32.066  1.00  0.00     0.135 A 
ATOM     61  F   UNL A   1      44.311  34.064  28.506  1.00  0.00    -0.206 F 
ATOM     62  C   UNL A   1      44.302  35.544  30.329  1.00  0.00     0.059 A 
ATOM     63  C   UNL A   1      44.015  34.690  32.581  1.00  0.00     0.059 A 
ATOM     64  F   UNL A   1      43.786  32.384  32.930  1.00  0.00    -0.206 F 
ATOM     65  C   UNL A   1      44.202  35.756  31.705  1.00  0.00     0.060 A 
BRANCH  65  66
ATOM     66  S   UNL A   1      44.310  37.448  32.331  1.00  0.00     0.124 S 
ATOM     67  O   UNL A   1      43.525  37.357  33.557  1.00  0.00    -0.237 OA
ATOM     68  O   UNL A   1      45.748  37.621  32.509  1.00  0.00    -0.237 OA
ATOM     69  O   UNL A   1      43.713  38.245  31.264  1.00  0.00    -0.744 OA
ENDBRANCH  65  66
ENDBRANCH  44  58
BRANCH  45  70
ATOM     70  C   UNL A   1      42.580  23.773  27.497  1.00  0.00     0.058 A 
ATOM     71  C   UNL A   1      42.587  23.461  26.131  1.00  0.00     0.135 A 
ATOM     72  C   UNL A   1      42.405  22.716  28.408  1.00  0.00     0.135 A 
ATOM     73  F   UNL A   1      42.734  24.435  25.221  1.00  0.00    -0.206 F 
ATOM     74  C   UNL A   1      42.436  22.152  25.682  1.00  0.00     0.059 A 
ATOM     75  C   UNL A   1      42.288  21.397  27.985  1.00  0.00     0.059 A 
ATOM     76  F   UNL A   1      42.400  22.959  29.727  1.00  0.00    -0.206 F 
ATOM     77  C   UNL A   1      42.299  21.125  26.618  1.00  0.00     0.060 A 
BRANCH  77  78
ATOM     78  S   UNL A   1      42.182  19.422  26.027  1.00  0.00     0.124 S 
ATOM     79  O   UNL A   1      42.661  18.677  27.185  1.00  0.00    -0.237 OA
ATOM     80  O   UNL A   1      40.758  19.299  25.732  1.00  0.00    -0.237 OA
ATOM     81  O   UNL A   1      43.061  19.410  24.861  1.00  0.00    -0.744 OA
ENDBRANCH  77  78
ENDBRANCH  45  70
BRANCH  57  82
ATOM     82  C   UNL A   1      48.260  27.601  28.830  1.00  0.00     0.058 A 
ATOM     83  C   UNL A   1      49.022  27.800  27.669  1.00  0.00     0.135 A 
ATOM     84  C   UNL A   1      48.921  27.134  29.978  1.00  0.00     0.135 A 
ATOM     85  F   UNL A   1      48.436  28.237  26.542  1.00  0.00    -0.206 F 
ATOM     86  C   UNL A   1      50.383  27.517  27.638  1.00  0.00     0.059 A 
ATOM     87  C   UNL A   1      50.287  26.873  29.978  1.00  0.00     0.059 A 
ATOM     88  F   UNL A   1      48.240  26.937  31.118  1.00  0.00    -0.206 F 
ATOM     89  C   UNL A   1      51.007  27.055  28.798  1.00  0.00     0.060 A 
BRANCH  89  90
ATOM     90  S   UNL A   1      52.778  26.709  28.747  1.00  0.00     0.124 S 
ATOM     91  O   UNL A   1      53.336  28.052  28.623  1.00  0.00    -0.237 OA
ATOM     92  O   UNL A   1      53.001  26.043  30.025  1.00  0.00    -0.237 OA
ATOM     93  O   UNL A   1      52.926  25.858  27.569  1.00  0.00    -0.744 OA
ENDBRANCH  89  90
ENDBRANCH  57  82
ENDBRANCH  31  32
ENDBRANCH  24  26
ENDBRANCH  23  24
ENDBRANCH   1  23
TORSDOF 15
ENDMDL
MODEL 2
REMARK VINA RESULT:     -11.6      5.636     11.060
REMARK SMILES Cc1cc2c(c(C)c1Cl)C=C(C(=O)OCCOC(=O)c1ccc(-c3c4nc(c(-c5c(F)cc(S(=O)(=O)[O-])cc5F)c5ccc([nH]5)c(-c5c(F)cc(S(=O)(=O)[O-])cc5F)c5nc(c(-c6c(F)cc(S(=O)(=O)[O-])cc6F)c6ccc3[nH]6)C=C5)C=C4)cc1)[C@@H](C(F)(F)F)O2
REMARK SMILES IDX 16 1 15 2 14 3 12 4 13 5 11 6 1 7 2 8 3 9 8 10 4 11 6 12
REMARK SMILES IDX 9 13 5 14 91 15 7 16 10 17 86 18 87 19 88 20 89 21 90 22
REMARK SMILES IDX 17 23 18 24 19 25 20 26 21 27 85 28 22 29 84 30 23 31 24 32
REMARK SMILES IDX 25 33 78 34 26 35 83 36 77 37 79 38 27 39 82 40 76 41 75 42
REMARK SMILES IDX 28 44 62 45 41 46 61 47 42 48 45 49 60 50 80 51 43 52 44 53
REMARK SMILES IDX 59 55 81 56 46 57 29 58 30 59 39 60 31 61 32 62 38 63 40 64
REMARK SMILES IDX 33 65 34 66 35 67 36 68 37 69 63 70 64 71 73 72 65 73 66 74
REMARK SMILES IDX 72 75 74 76 67 77 68 78 69 79 70 80 71 81 47 82 48 83 57 84
REMARK SMILES IDX 49 85 50 86 56 87 58 88 51 89 52 90 53 91 54 92 55 93
REMARK H PARENT 79 43 45 54
REMARK Flexibility Score: inf
ROOT
ATOM      1  C   UNL A   1      33.374  33.161  28.071  1.00  0.00     0.275 C 
ENDROOT
BRANCH   1   2
ATOM      2  C   UNL A   1      34.016  34.209  28.980  1.00  0.00     0.275 C 
BRANCH   2   3
ATOM      3  O   UNL A   1      34.750  33.601  30.064  1.00  0.00    -0.459 OA
BRANCH   3   4
ATOM      4  C   UNL A   1      34.696  34.263  31.244  1.00  0.00     0.338 C 
ATOM      5  O   UNL A   1      33.684  34.643  31.815  1.00  0.00    -0.246 OA
BRANCH   4   6
ATOM      6  C   UNL A   1      36.050  34.487  31.787  1.00  0.00     0.087 C 
ATOM      7  C   UNL A   1      42.376  34.452  33.213  1.00  0.00     0.046 C 
ATOM      8  C   UNL A   1      41.034  34.502  32.531  1.00  0.00    -0.028 A 
ATOM      9  C   UNL A   1      39.901  34.617  33.351  1.00  0.00     0.052 A 
ATOM     10  C   UNL A   1      40.864  34.462  31.134  1.00  0.00     0.047 A 
ATOM     11  C   UNL A   1      38.618  34.637  32.808  1.00  0.00     0.128 A 
ATOM     12  C   UNL A   1      39.569  34.473  30.564  1.00  0.00    -0.021 A 
ATOM     13  Cl  UNL A   1      42.268  34.399  30.114  1.00  0.00    -0.084 Cl
ATOM     14  C   UNL A   1      38.442  34.546  31.426  1.00  0.00     0.022 A 
ATOM     15  O   UNL A   1      37.598  34.764  33.711  1.00  0.00    -0.475 OA
ATOM     16  C   UNL A   1      39.370  34.426  29.064  1.00  0.00     0.047 C 
ATOM     17  C   UNL A   1      37.073  34.497  30.926  1.00  0.00     0.027 C 
ATOM     18  C   UNL A   1      36.233  34.541  33.272  1.00  0.00     0.316 C 
BRANCH  18  19
ATOM     19  C   UNL A   1      35.694  33.272  33.954  1.00  0.00     0.430 C 
ATOM     20  F   UNL A   1      34.441  33.468  34.433  1.00  0.00    -0.167 F 
ATOM     21  F   UNL A   1      35.612  32.234  33.087  1.00  0.00    -0.167 F 
ATOM     22  F   UNL A   1      36.466  32.877  34.989  1.00  0.00    -0.167 F 
ENDBRANCH  18  19
ENDBRANCH   4   6
ENDBRANCH   3   4
ENDBRANCH   2   3
ENDBRANCH   1   2
BRANCH   1  23
ATOM     23  O   UNL A   1      34.374  32.478  27.295  1.00  0.00    -0.458 OA
BRANCH  23  24
ATOM     24  C   UNL A   1      34.412  31.137  27.468  1.00  0.00     0.338 C 
ATOM     25  O   UNL A   1      33.519  30.339  27.245  1.00  0.00    -0.246 OA
BRANCH  24  26
ATOM     26  C   UNL A   1      35.754  30.714  27.896  1.00  0.00     0.060 A 
ATOM     27  C   UNL A   1      35.934  29.392  28.274  1.00  0.00     0.016 A 
ATOM     28  C   UNL A   1      36.759  31.650  28.132  1.00  0.00     0.016 A 
ATOM     29  C   UNL A   1      37.039  29.035  29.039  1.00  0.00     0.010 A 
ATOM     30  C   UNL A   1      37.940  31.246  28.772  1.00  0.00     0.010 A 
ATOM     31  C   UNL A   1      38.074  29.946  29.290  1.00  0.00    -0.014 A 
BRANCH  31  32
ATOM     32  C   UNL A   1      39.258  29.543  30.112  1.00  0.00     0.031 A 
ATOM     33  C   UNL A   1      40.303  28.609  29.544  1.00  0.00     0.074 A 
ATOM     34  C   UNL A   1      39.432  30.037  31.358  1.00  0.00     0.049 A 
ATOM     35  N   UNL A   1      41.264  27.968  30.162  1.00  0.00    -0.248 NA
ATOM     36  C   UNL A   1      40.255  28.349  28.096  1.00  0.00     0.031 C 
ATOM     37  C   UNL A   1      38.555  31.007  32.021  1.00  0.00     0.029 A 
ATOM     38  N   UNL A   1      40.417  29.808  32.289  1.00  0.00    -0.354 N 
ATOM     39  C   UNL A   1      41.889  27.185  29.195  1.00  0.00     0.074 A 
ATOM     40  C   UNL A   1      41.199  27.429  27.948  1.00  0.00     0.031 C 
ATOM     41  C   UNL A   1      39.077  31.342  33.208  1.00  0.00     0.029 A 
ATOM     42  C   UNL A   1      40.242  30.508  33.461  1.00  0.00     0.049 A 
ATOM     43  H   UNL A   1      41.175  29.199  32.133  1.00  0.00     0.167 HD
ATOM     44  C   UNL A   1      42.940  26.339  29.340  1.00  0.00     0.037 A 
ATOM     45  C   UNL A   1      40.896  30.448  34.638  1.00  0.00     0.037 A 
ATOM     46  C   UNL A   1      43.656  26.151  30.578  1.00  0.00     0.049 A 
ATOM     47  C   UNL A   1      42.013  29.459  34.797  1.00  0.00     0.074 A 
ATOM     48  C   UNL A   1      44.719  25.303  30.838  1.00  0.00     0.029 A 
ATOM     49  N   UNL A   1      43.404  26.842  31.755  1.00  0.00    -0.354 N 
ATOM     50  N   UNL A   1      42.509  28.630  33.909  1.00  0.00    -0.248 NA
ATOM     51  C   UNL A   1      42.639  29.373  36.122  1.00  0.00     0.031 C 
ATOM     52  C   UNL A   1      45.081  25.449  32.181  1.00  0.00     0.029 A 
ATOM     53  C   UNL A   1      44.284  26.433  32.744  1.00  0.00     0.049 A 
ATOM     54  H   UNL A   1      42.701  27.523  31.870  1.00  0.00     0.167 HD
ATOM     55  C   UNL A   1      43.520  27.937  34.563  1.00  0.00     0.074 A 
ATOM     56  C   UNL A   1      43.572  28.454  35.916  1.00  0.00     0.031 C 
ATOM     57  C   UNL A   1      44.330  26.961  34.084  1.00  0.00     0.037 A 
BRANCH  44  58
ATOM     58  C   UNL A   1      43.365  25.518  28.149  1.00  0.00     0.058 A 
ATOM     59  C   UNL A   1      44.359  25.950  27.257  1.00  0.00     0.135 A 
ATOM     60  C   UNL A   1      42.811  24.242  27.938  1.00  0.00     0.135 A 
ATOM     61  F   UNL A   1      44.912  27.165  27.397  1.00  0.00    -0.206 F 
ATOM     62  C   UNL A   1      44.777  25.155  26.192  1.00  0.00     0.059 A 
ATOM     63  C   UNL A   1      43.236  23.420  26.898  1.00  0.00     0.059 A 
ATOM     64  F   UNL A   1      41.857  23.776  28.759  1.00  0.00    -0.206 F 
ATOM     65  C   UNL A   1      44.212  23.889  26.023  1.00  0.00     0.060 A 
BRANCH  65  66
ATOM     66  S   UNL A   1      44.781  22.864  24.648  1.00  0.00     0.124 S 
ATOM     67  O   UNL A   1      45.769  23.737  24.022  1.00  0.00    -0.237 OA
ATOM     68  O   UNL A   1      45.314  21.692  25.334  1.00  0.00    -0.237 OA
ATOM     69  O   UNL A   1      43.568  22.634  23.869  1.00  0.00    -0.744 OA
ENDBRANCH  65  66
ENDBRANCH  44  58
BRANCH  45  70
ATOM     70  C   UNL A   1      40.465  31.317  35.769  1.00  0.00     0.058 A 
ATOM     71  C   UNL A   1      41.266  32.379  36.209  1.00  0.00     0.135 A 
ATOM     72  C   UNL A   1      39.221  31.132  36.398  1.00  0.00     0.135 A 
ATOM     73  F   UNL A   1      42.469  32.588  35.653  1.00  0.00    -0.206 F 
ATOM     74  C   UNL A   1      40.849  33.232  37.228  1.00  0.00     0.059 A 
ATOM     75  C   UNL A   1      38.768  31.992  37.392  1.00  0.00     0.059 A 
ATOM     76  F   UNL A   1      38.411  30.136  36.008  1.00  0.00    -0.206 F 
ATOM     77  C   UNL A   1      39.593  33.037  37.804  1.00  0.00     0.060 A 
BRANCH  77  78
ATOM     78  S   UNL A   1      39.030  34.196  39.070  1.00  0.00     0.124 S 
ATOM     79  O   UNL A   1      38.972  35.444  38.319  1.00  0.00    -0.237 OA
ATOM     80  O   UNL A   1      37.745  33.623  39.458  1.00  0.00    -0.237 OA
ATOM     81  O   UNL A   1      40.076  34.118  40.086  1.00  0.00    -0.744 OA
ENDBRANCH  77  78
ENDBRANCH  45  70
BRANCH  57  82
ATOM     82  C   UNL A   1      45.380  26.422  35.015  1.00  0.00     0.058 A 
ATOM     83  C   UNL A   1      46.647  27.014  35.126  1.00  0.00     0.135 A 
ATOM     84  C   UNL A   1      45.096  25.318  35.835  1.00  0.00     0.135 A 
ATOM     85  F   UNL A   1      46.972  28.066  34.359  1.00  0.00    -0.206 F 
ATOM     86  C   UNL A   1      47.608  26.511  35.997  1.00  0.00     0.059 A 
ATOM     87  C   UNL A   1      46.031  24.816  36.734  1.00  0.00     0.059 A 
ATOM     88  F   UNL A   1      43.894  24.722  35.774  1.00  0.00    -0.206 F 
ATOM     89  C   UNL A   1      47.290  25.412  36.798  1.00  0.00     0.060 A 
BRANCH  89  90
ATOM     90  S   UNL A   1      48.542  24.782  37.936  1.00  0.00     0.124 S 
ATOM     91  O   UNL A   1      49.572  24.320  37.012  1.00  0.00    -0.237 OA
ATOM     92  O   UNL A   1      48.875  25.967  38.718  1.00  0.00    -0.237 OA
ATOM     93  O   UNL A   1      47.840  23.731  38.668  1.00  0.00    -0.744 OA
ENDBRANCH  89  90
ENDBRANCH  57  82
ENDBRANCH  31  32
ENDBRANCH  24  26
ENDBRANCH  23  24
ENDBRANCH   1  23
TORSDOF 15
ENDMDL
MODEL 3
REMARK VINA RESULT:     -11.6      2.001      2.766
REMARK SMILES Cc1cc2c(c(C)c1Cl)C=C(C(=O)OCCOC(=O)c1ccc(-c3c4nc(c(-c5c(F)cc(S(=O)(=O)[O-])cc5F)c5ccc([nH]5)c(-c5c(F)cc(S(=O)(=O)[O-])cc5F)c5nc(c(-c6c(F)cc(S(=O)(=O)[O-])cc6F)c6ccc3[nH]6)C=C5)C=C4)cc1)[C@@H](C(F)(F)F)O2
REMARK SMILES IDX 16 1 15 2 14 3 12 4 13 5 11 6 1 7 2 8 3 9 8 10 4 11 6 12
REMARK SMILES IDX 9 13 5 14 91 15 7 16 10 17 86 18 87 19 88 20 89 21 90 22
REMARK SMILES IDX 17 23 18 24 19 25 20 26 21 27 85 28 22 29 84 30 23 31 24 32
REMARK SMILES IDX 25 33 78 34 26 35 83 36 77 37 79 38 27 39 82 40 76 41 75 42
REMARK SMILES IDX 28 44 62 45 41 46 61 47 42 48 45 49 60 50 80 51 43 52 44 53
REMARK SMILES IDX 59 55 81 56 46 57 29 58 30 59 39 60 31 61 32 62 38 63 40 64
REMARK SMILES IDX 33 65 34 66 35 67 36 68 37 69 63 70 64 71 73 72 65 73 66 74
REMARK SMILES IDX 72 75 74 76 67 77 68 78 69 79 70 80 71 81 47 82 48 83 57 84
REMARK SMILES IDX 49 85 50 86 56 87 58 88 51 89 52 90 53 91 54 92 55 93
REMARK H PARENT 79 43 45 54
REMARK Flexibility Score: inf
ROOT
ATOM      1  C   UNL A   1      33.941  31.081  27.708  1.00  0.00     0.275 C 
ENDROOT
BRANCH   1   2
ATOM      2  C   UNL A   1      32.954  30.344  26.803  1.00  0.00     0.275 C 
BRANCH   2   3
ATOM      3  O   UNL A   1      33.082  28.910  26.926  1.00  0.00    -0.459 OA
BRANCH   3   4
ATOM      4  C   UNL A   1      33.438  28.261  25.792  1.00  0.00     0.338 C 
ATOM      5  O   UNL A   1      34.029  28.744  24.838  1.00  0.00    -0.246 OA
BRANCH   4   6
ATOM      6  C   UNL A   1      33.015  26.848  25.837  1.00  0.00     0.087 C 
ATOM      7  C   UNL A   1      32.153  20.477  24.992  1.00  0.00     0.046 C 
ATOM      8  C   UNL A   1      32.713  21.856  25.219  1.00  0.00    -0.028 A 
ATOM      9  C   UNL A   1      31.796  22.890  25.461  1.00  0.00     0.052 A 
ATOM     10  C   UNL A   1      34.091  22.150  25.224  1.00  0.00     0.047 A 
ATOM     11  C   UNL A   1      32.224  24.202  25.649  1.00  0.00     0.128 A 
ATOM     12  C   UNL A   1      34.544  23.478  25.405  1.00  0.00    -0.021 A 
ATOM     13  Cl  UNL A   1      35.230  20.858  25.003  1.00  0.00    -0.084 Cl
ATOM     14  C   UNL A   1      33.586  24.508  25.604  1.00  0.00     0.022 A 
ATOM     15  O   UNL A   1      31.234  25.116  25.887  1.00  0.00    -0.475 OA
ATOM     16  C   UNL A   1      36.021  23.810  25.408  1.00  0.00     0.047 C 
ATOM     17  C   UNL A   1      33.964  25.911  25.734  1.00  0.00     0.027 C 
ATOM     18  C   UNL A   1      31.552  26.532  25.843  1.00  0.00     0.316 C 
BRANCH  18  19
ATOM     19  C   UNL A   1      30.833  27.165  24.641  1.00  0.00     0.430 C 
ATOM     20  F   UNL A   1      31.533  26.976  23.496  1.00  0.00    -0.167 F 
ATOM     21  F   UNL A   1      29.613  26.610  24.437  1.00  0.00    -0.167 F 
ATOM     22  F   UNL A   1      30.653  28.495  24.791  1.00  0.00    -0.167 F 
ENDBRANCH  18  19
ENDBRANCH   4   6
ENDBRANCH   3   4
ENDBRANCH   2   3
ENDBRANCH   1   2
BRANCH   1  23
ATOM     23  O   UNL A   1      34.884  30.162  28.290  1.00  0.00    -0.458 OA
BRANCH  23  24
ATOM     24  C   UNL A   1      35.932  30.743  28.916  1.00  0.00     0.338 C 
ATOM     25  O   UNL A   1      35.907  31.722  29.643  1.00  0.00    -0.246 OA
BRANCH  24  26
ATOM     26  C   UNL A   1      37.160  29.969  28.683  1.00  0.00     0.060 A 
ATOM     27  C   UNL A   1      37.888  29.548  29.786  1.00  0.00     0.016 A 
ATOM     28  C   UNL A   1      37.702  29.852  27.405  1.00  0.00     0.016 A 
ATOM     29  C   UNL A   1      39.217  29.171  29.636  1.00  0.00     0.010 A 
ATOM     30  C   UNL A   1      38.993  29.327  27.249  1.00  0.00     0.010 A 
ATOM     31  C   UNL A   1      39.794  29.034  28.366  1.00  0.00    -0.014 A 
BRANCH  31  32
ATOM     32  C   UNL A   1      41.227  28.622  28.223  1.00  0.00     0.031 A 
ATOM     33  C   UNL A   1      42.337  29.631  28.415  1.00  0.00     0.074 A 
ATOM     34  C   UNL A   1      41.551  27.337  27.957  1.00  0.00     0.049 A 
ATOM     35  N   UNL A   1      43.607  29.531  28.113  1.00  0.00    -0.248 NA
ATOM     36  C   UNL A   1      41.971  30.925  29.012  1.00  0.00     0.031 C 
ATOM     37  C   UNL A   1      40.601  26.229  27.818  1.00  0.00     0.029 A 
ATOM     38  N   UNL A   1      42.773  26.735  27.773  1.00  0.00    -0.354 N 
ATOM     39  C   UNL A   1      44.175  30.764  28.422  1.00  0.00     0.074 A 
ATOM     40  C   UNL A   1      43.111  31.599  28.934  1.00  0.00     0.031 C 
ATOM     41  C   UNL A   1      41.274  25.083  27.648  1.00  0.00     0.029 A 
ATOM     42  C   UNL A   1      42.690  25.385  27.517  1.00  0.00     0.049 A 
ATOM     43  H   UNL A   1      43.626  27.224  27.819  1.00  0.00     0.167 HD
ATOM     44  C   UNL A   1      45.465  31.161  28.285  1.00  0.00     0.037 A 
ATOM     45  C   UNL A   1      43.630  24.492  27.149  1.00  0.00     0.037 A 
ATOM     46  C   UNL A   1      46.528  30.297  27.828  1.00  0.00     0.049 A 
ATOM     47  C   UNL A   1      45.038  24.965  26.941  1.00  0.00     0.074 A 
ATOM     48  C   UNL A   1      47.863  30.605  27.633  1.00  0.00     0.029 A 
ATOM     49  N   UNL A   1      46.382  28.951  27.525  1.00  0.00    -0.354 N 
ATOM     50  N   UNL A   1      45.535  26.167  27.111  1.00  0.00    -0.248 NA
ATOM     51  C   UNL A   1      46.007  23.972  26.461  1.00  0.00     0.031 C 
ATOM     52  C   UNL A   1      48.516  29.458  27.171  1.00  0.00     0.029 A 
ATOM     53  C   UNL A   1      47.601  28.418  27.136  1.00  0.00     0.049 A 
ATOM     54  H   UNL A   1      45.537  28.448  27.578  1.00  0.00     0.167 HD
ATOM     55  C   UNL A   1      46.880  26.071  26.779  1.00  0.00     0.074 A 
ATOM     56  C   UNL A   1      47.121  24.691  26.410  1.00  0.00     0.031 C 
ATOM     57  C   UNL A   1      47.828  27.040  26.779  1.00  0.00     0.037 A 
BRANCH  44  58
ATOM     58  C   UNL A   1      45.808  32.596  28.593  1.00  0.00     0.058 A 
ATOM     59  C   UNL A   1      46.286  33.000  29.849  1.00  0.00     0.135 A 
ATOM     60  C   UNL A   1      45.718  33.574  27.586  1.00  0.00     0.135 A 
ATOM     61  F   UNL A   1      46.378  32.115  30.855  1.00  0.00    -0.206 F 
ATOM     62  C   UNL A   1      46.649  34.322  30.100  1.00  0.00     0.059 A 
ATOM     63  C   UNL A   1      46.102  34.894  27.807  1.00  0.00     0.059 A 
ATOM     64  F   UNL A   1      45.267  33.246  26.365  1.00  0.00    -0.206 F 
ATOM     65  C   UNL A   1      46.557  35.261  29.071  1.00  0.00     0.060 A 
BRANCH  65  66
ATOM     66  S   UNL A   1      47.049  36.966  29.409  1.00  0.00     0.124 S 
ATOM     67  O   UNL A   1      47.826  36.809  30.634  1.00  0.00    -0.237 OA
ATOM     68  O   UNL A   1      47.812  37.312  28.214  1.00  0.00    -0.237 OA
ATOM     69  O   UNL A   1      45.777  37.665  29.562  1.00  0.00    -0.744 OA
ENDBRANCH  65  66
ENDBRANCH  44  58
BRANCH  45  70
ATOM     70  C   UNL A   1      43.245  23.073  26.904  1.00  0.00     0.058 A 
ATOM     71  C   UNL A   1      43.191  22.555  25.603  1.00  0.00     0.135 A 
ATOM     72  C   UNL A   1      42.971  22.198  27.969  1.00  0.00     0.135 A 
ATOM     73  F   UNL A   1      43.428  23.353  24.552  1.00  0.00    -0.206 F 
ATOM     74  C   UNL A   1      42.885  21.217  25.365  1.00  0.00     0.059 A 
ATOM     75  C   UNL A   1      42.699  20.851  27.758  1.00  0.00     0.059 A 
ATOM     76  F   UNL A   1      43.018  22.641  29.235  1.00  0.00    -0.206 F 
ATOM     77  C   UNL A   1      42.653  20.371  26.450  1.00  0.00     0.060 A 
BRANCH  77  78
ATOM     78  S   UNL A   1      42.335  18.621  26.133  1.00  0.00     0.124 S 
ATOM     79  O   UNL A   1      42.642  18.028  27.429  1.00  0.00    -0.237 OA
ATOM     80  O   UNL A   1      40.927  18.631  25.752  1.00  0.00    -0.237 OA
ATOM     81  O   UNL A   1      43.267  18.300  25.055  1.00  0.00    -0.744 OA
ENDBRANCH  77  78
ENDBRANCH  45  70
BRANCH  57  82
ATOM     82  C   UNL A   1      49.229  26.631  26.418  1.00  0.00     0.058 A 
ATOM     83  C   UNL A   1      50.115  26.100  27.367  1.00  0.00     0.135 A 
ATOM     84  C   UNL A   1      49.675  26.738  25.090  1.00  0.00     0.135 A 
ATOM     85  F   UNL A   1      49.741  25.984  28.651  1.00  0.00    -0.206 F 
ATOM     86  C   UNL A   1      51.406  25.717  27.018  1.00  0.00     0.059 A 
ATOM     87  C   UNL A   1      50.951  26.334  24.713  1.00  0.00     0.059 A 
ATOM     88  F   UNL A   1      48.862  27.231  24.141  1.00  0.00    -0.206 F 
ATOM     89  C   UNL A   1      51.814  25.837  25.689  1.00  0.00     0.060 A 
BRANCH  89  90
ATOM     90  S   UNL A   1      53.487  25.320  25.249  1.00  0.00     0.124 S 
ATOM     91  O   UNL A   1      53.602  25.826  23.885  1.00  0.00    -0.237 OA
ATOM     92  O   UNL A   1      54.297  26.003  26.251  1.00  0.00    -0.237 OA
ATOM     93  O   UNL A   1      53.439  23.866  25.376  1.00  0.00    -0.744 OA
ENDBRANCH  89  90
ENDBRANCH  57  82
ENDBRANCH  31  32
ENDBRANCH  24  26
ENDBRANCH  23  24
ENDBRANCH   1  23
TORSDOF 15
ENDMDL
