MODEL 1
REMARK VINA RESULT:     -12.3      0.000      0.000
REMARK SMILES Cc1c(/C=C/C(=O)OCCOC(=O)c2ccc(-c3c4nc(c(-c5c(F)cc(S(=O)(=O)[O-])cc5F)c5ccc([nH]5)c(-c5c(F)cc(S(=O)(=O)[O-])cc5F)c5nc(c(-c6c(F)cc(S(=O)(=O)[O-])cc6F)c6ccc3[nH]6)C=C5)C=C4)cc2)cccc1C(=O)N1C[C@@H](C)[C@@H](C)C1
REMARK SMILES IDX 9 1 8 2 6 3 7 4 5 5 4 6 3 7 1 8 2 9 83 10 80 11 82 12 81 13
REMARK SMILES IDX 84 14 85 15 86 16 87 17 92 18 88 19 90 20 89 21 91 22 10 23
REMARK SMILES IDX 11 24 12 25 13 26 14 27 15 28 79 29 16 30 78 31 17 32 18 33
REMARK SMILES IDX 19 34 72 35 20 36 77 37 71 38 73 39 21 40 76 41 70 42 69 43
REMARK SMILES IDX 22 45 56 46 35 47 55 48 36 49 39 50 54 51 74 52 37 53 38 54
REMARK SMILES IDX 53 56 75 57 40 58 23 59 24 60 33 61 25 62 26 63 32 64 34 65
REMARK SMILES IDX 27 66 28 67 29 68 30 69 31 70 57 71 58 72 67 73 59 74 60 75
REMARK SMILES IDX 66 76 68 77 61 78 62 79 63 80 64 81 65 82 41 83 42 84 51 85
REMARK SMILES IDX 43 86 44 87 50 88 52 89 45 90 46 91 47 92 48 93 49 94
REMARK H PARENT 73 44 39 55
REMARK Flexibility Score: inf
ROOT
ATOM      1  C   UNL A   1      40.743  20.630  27.218  1.00  0.00     0.275 C 
ENDROOT
BRANCH   1   2
ATOM      2  O   UNL A   1      39.991  21.116  26.097  1.00  0.00    -0.459 OA
BRANCH   2   3
ATOM      3  C   UNL A   1      38.922  20.256  25.618  1.00  0.00     0.330 C 
ATOM      4  O   UNL A   1      39.464  19.146  25.393  1.00  0.00    -0.247 OA
BRANCH   3   5
ATOM      5  C   UNL A   1      36.907  20.917  25.336  1.00  0.00     0.094 C 
ATOM      6  C   UNL A   1      35.957  21.877  25.671  1.00  0.00     0.016 C 
BRANCH   6   7
ATOM      7  C   UNL A   1      34.507  21.847  25.350  1.00  0.00    -0.022 A 
ATOM      8  C   UNL A   1      34.370  24.222  26.121  1.00  0.00     0.046 C 
ATOM      9  C   UNL A   1      33.689  22.973  25.623  1.00  0.00    -0.031 A 
ATOM     10  C   UNL A   1      32.283  22.845  25.497  1.00  0.00     0.043 A 
ATOM     11  C   UNL A   1      33.922  20.616  25.013  1.00  0.00     0.008 A 
ATOM     12  C   UNL A   1      31.726  21.585  25.204  1.00  0.00     0.014 A 
ATOM     13  C   UNL A   1      32.538  20.479  24.964  1.00  0.00     0.001 A 
BRANCH  10  14
ATOM     14  C   UNL A   1      31.309  23.888  25.934  1.00  0.00     0.254 C 
ATOM     15  O   UNL A   1      30.872  23.824  27.085  1.00  0.00    -0.269 OA
BRANCH  14  16
ATOM     16  N   UNL A   1      31.007  24.958  25.116  1.00  0.00    -0.338 N 
ATOM     17  C   UNL A   1      31.292  26.294  25.584  1.00  0.00     0.123 C 
ATOM     18  C   UNL A   1      30.380  24.956  23.800  1.00  0.00     0.123 C 
ATOM     19  C   UNL A   1      30.585  27.233  24.619  1.00  0.00     0.010 C 
ATOM     20  C   UNL A   1      30.449  26.416  23.312  1.00  0.00     0.010 C 
ATOM     21  C   UNL A   1      31.313  28.566  24.520  1.00  0.00     0.010 C 
ATOM     22  C   UNL A   1      31.559  26.635  22.287  1.00  0.00     0.010 C 
ENDBRANCH  14  16
ENDBRANCH  10  14
ENDBRANCH   6   7
ENDBRANCH   3   5
ENDBRANCH   2   3
ENDBRANCH   1   2
BRANCH   1  23
ATOM     23  C   UNL A   1      42.228  20.900  26.951  1.00  0.00     0.275 C 
BRANCH  23  24
ATOM     24  O   UNL A   1      42.516  21.878  25.920  1.00  0.00    -0.458 OA
BRANCH  24  25
ATOM     25  C   UNL A   1      43.310  22.941  26.204  1.00  0.00     0.338 C 
ATOM     26  O   UNL A   1      44.524  22.989  26.123  1.00  0.00    -0.246 OA
BRANCH  25  27
ATOM     27  C   UNL A   1      42.506  24.061  26.688  1.00  0.00     0.060 A 
ATOM     28  C   UNL A   1      42.162  25.445  25.559  1.00  0.00     0.016 A 
ATOM     29  C   UNL A   1      42.511  24.304  28.493  1.00  0.00     0.016 A 
ATOM     30  C   UNL A   1      42.006  27.145  26.207  1.00  0.00     0.010 A 
ATOM     31  C   UNL A   1      42.372  25.996  29.142  1.00  0.00     0.010 A 
ATOM     32  C   UNL A   1      42.207  27.405  27.998  1.00  0.00    -0.014 A 
BRANCH  32  33
ATOM     33  C   UNL A   1      42.538  28.647  28.627  1.00  0.00     0.031 A 
ATOM     34  C   UNL A   1      41.414  29.545  28.879  1.00  0.00     0.074 A 
ATOM     35  C   UNL A   1      43.754  28.732  29.204  1.00  0.00     0.049 A 
ATOM     36  N   UNL A   1      41.544  30.756  29.264  1.00  0.00    -0.248 NA
ATOM     37  C   UNL A   1      40.017  29.161  28.679  1.00  0.00     0.031 C 
ATOM     38  C   UNL A   1      44.192  29.583  30.302  1.00  0.00     0.029 A 
ATOM     39  N   UNL A   1      44.928  28.107  28.831  1.00  0.00    -0.354 N 
ATOM     40  C   UNL A   1      40.319  31.154  29.748  1.00  0.00     0.074 A 
ATOM     41  C   UNL A   1      39.379  30.192  29.235  1.00  0.00     0.031 C 
ATOM     42  C   UNL A   1      45.539  29.636  30.303  1.00  0.00     0.029 A 
ATOM     43  C   UNL A   1      46.012  28.930  29.123  1.00  0.00     0.049 A 
ATOM     44  H   UNL A   1      44.988  27.215  28.419  1.00  0.00     0.167 HD
ATOM     45  C   UNL A   1      40.312  32.147  30.679  1.00  0.00     0.037 A 
ATOM     46  C   UNL A   1      46.704  29.517  28.094  1.00  0.00     0.037 A 
ATOM     47  C   UNL A   1      41.681  32.655  30.867  1.00  0.00     0.049 A 
ATOM     48  C   UNL A   1      46.371  31.004  27.931  1.00  0.00     0.074 A 
ATOM     49  C   UNL A   1      42.681  32.448  31.804  1.00  0.00     0.029 A 
ATOM     50  N   UNL A   1      42.323  33.186  29.765  1.00  0.00    -0.354 N 
ATOM     51  N   UNL A   1      45.496  31.645  28.663  1.00  0.00    -0.248 NA
ATOM     52  C   UNL A   1      46.968  31.884  26.927  1.00  0.00     0.031 C 
ATOM     53  C   UNL A   1      43.927  32.853  31.223  1.00  0.00     0.029 A 
ATOM     54  C   UNL A   1      43.682  33.315  29.942  1.00  0.00     0.049 A 
ATOM     55  H   UNL A   1      41.856  33.445  28.938  1.00  0.00     0.167 HD
ATOM     56  C   UNL A   1      45.359  32.942  28.242  1.00  0.00     0.074 A 
ATOM     57  C   UNL A   1      46.298  33.036  27.133  1.00  0.00     0.031 C 
ATOM     58  C   UNL A   1      44.476  33.820  28.822  1.00  0.00     0.037 A 
BRANCH  45  59
ATOM     59  C   UNL A   1      39.150  32.480  31.585  1.00  0.00     0.058 A 
ATOM     60  C   UNL A   1      38.010  33.112  31.045  1.00  0.00     0.135 A 
ATOM     61  C   UNL A   1      39.081  32.241  32.975  1.00  0.00     0.135 A 
ATOM     62  F   UNL A   1      37.898  33.357  29.733  1.00  0.00    -0.206 F 
ATOM     63  C   UNL A   1      36.927  33.522  31.819  1.00  0.00     0.059 A 
ATOM     64  C   UNL A   1      38.026  32.683  33.780  1.00  0.00     0.059 A 
ATOM     65  F   UNL A   1      40.002  31.516  33.620  1.00  0.00    -0.206 F 
ATOM     66  C   UNL A   1      36.948  33.318  33.189  1.00  0.00     0.060 A 
BRANCH  66  67
ATOM     67  S   UNL A   1      35.531  33.848  34.163  1.00  0.00     0.124 S 
ATOM     68  O   UNL A   1      35.922  33.449  35.511  1.00  0.00    -0.237 OA
ATOM     69  O   UNL A   1      35.511  35.284  33.903  1.00  0.00    -0.237 OA
ATOM     70  O   UNL A   1      34.421  33.092  33.588  1.00  0.00    -0.744 OA
ENDBRANCH  66  67
ENDBRANCH  45  59
BRANCH  46  71
ATOM     71  C   UNL A   1      47.032  28.516  27.026  1.00  0.00     0.058 A 
ATOM     72  C   UNL A   1      46.166  28.477  25.908  1.00  0.00     0.135 A 
ATOM     73  C   UNL A   1      48.316  27.985  26.844  1.00  0.00     0.135 A 
ATOM     74  F   UNL A   1      44.905  28.925  26.024  1.00  0.00    -0.206 F 
ATOM     75  C   UNL A   1      46.610  28.126  24.634  1.00  0.00     0.059 A 
ATOM     76  C   UNL A   1      48.769  27.585  25.576  1.00  0.00     0.059 A 
ATOM     77  F   UNL A   1      49.196  27.983  27.856  1.00  0.00    -0.206 F 
ATOM     78  C   UNL A   1      47.931  27.727  24.468  1.00  0.00     0.060 A 
BRANCH  78  79
ATOM     79  S   UNL A   1      48.554  27.530  22.776  1.00  0.00     0.124 S 
ATOM     80  O   UNL A   1      49.941  27.959  22.914  1.00  0.00    -0.237 OA
ATOM     81  O   UNL A   1      48.361  26.104  22.530  1.00  0.00    -0.237 OA
ATOM     82  O   UNL A   1      47.705  28.423  21.992  1.00  0.00    -0.744 OA
ENDBRANCH  78  79
ENDBRANCH  46  71
BRANCH  58  83
ATOM     83  C   UNL A   1      44.247  35.249  28.363  1.00  0.00     0.058 A 
ATOM     84  C   UNL A   1      44.628  36.363  29.126  1.00  0.00     0.135 A 
ATOM     85  C   UNL A   1      43.535  35.557  27.173  1.00  0.00     0.135 A 
ATOM     86  F   UNL A   1      45.178  36.213  30.340  1.00  0.00    -0.206 F 
ATOM     87  C   UNL A   1      44.425  37.675  28.686  1.00  0.00     0.059 A 
ATOM     88  C   UNL A   1      43.257  36.851  26.753  1.00  0.00     0.059 A 
ATOM     89  F   UNL A   1      43.094  34.621  26.325  1.00  0.00    -0.206 F 
ATOM     90  C   UNL A   1      43.745  37.907  27.492  1.00  0.00     0.060 A 
BRANCH  90  91
ATOM     91  S   UNL A   1      43.482  39.590  26.920  1.00  0.00     0.124 S 
ATOM     92  O   UNL A   1      43.716  40.369  28.132  1.00  0.00    -0.237 OA
ATOM     93  O   UNL A   1      44.501  39.706  25.883  1.00  0.00    -0.237 OA
ATOM     94  O   UNL A   1      42.102  39.580  26.444  1.00  0.00    -0.744 OA
ENDBRANCH  90  91
ENDBRANCH  58  83
ENDBRANCH  32  33
ENDBRANCH  25  27
ENDBRANCH  24  25
ENDBRANCH  23  24
ENDBRANCH   1  23
TORSDOF 17
ENDMDL
MODEL 2
REMARK VINA RESULT:     -12.2      3.763      9.459
REMARK SMILES Cc1c(/C=C/C(=O)OCCOC(=O)c2ccc(-c3c4nc(c(-c5c(F)cc(S(=O)(=O)[O-])cc5F)c5ccc([nH]5)c(-c5c(F)cc(S(=O)(=O)[O-])cc5F)c5nc(c(-c6c(F)cc(S(=O)(=O)[O-])cc6F)c6ccc3[nH]6)C=C5)C=C4)cc2)cccc1C(=O)N1C[C@@H](C)[C@@H](C)C1
REMARK SMILES IDX 9 1 8 2 6 3 7 4 5 5 4 6 3 7 1 8 2 9 83 10 80 11 82 12 81 13
REMARK SMILES IDX 84 14 85 15 86 16 87 17 92 18 88 19 90 20 89 21 91 22 10 23
REMARK SMILES IDX 11 24 12 25 13 26 14 27 15 28 79 29 16 30 78 31 17 32 18 33
REMARK SMILES IDX 19 34 72 35 20 36 77 37 71 38 73 39 21 40 76 41 70 42 69 43
REMARK SMILES IDX 22 45 56 46 35 47 55 48 36 49 39 50 54 51 74 52 37 53 38 54
REMARK SMILES IDX 53 56 75 57 40 58 23 59 24 60 33 61 25 62 26 63 32 64 34 65
REMARK SMILES IDX 27 66 28 67 29 68 30 69 31 70 57 71 58 72 67 73 59 74 60 75
REMARK SMILES IDX 66 76 68 77 61 78 62 79 63 80 64 81 65 82 41 83 42 84 51 85
REMARK SMILES IDX 43 86 44 87 50 88 52 89 45 90 46 91 47 92 48 93 49 94
REMARK H PARENT 73 44 39 55
REMARK Flexibility Score: inf
ROOT
ATOM      1  C   UNL A   1      35.552  31.564  29.544  1.00  0.00     0.275 C 
ENDROOT
BRANCH   1   2
ATOM      2  O   UNL A   1      35.318  31.070  28.218  1.00  0.00    -0.459 OA
BRANCH   2   3
ATOM      3  C   UNL A   1      34.038  31.410  27.622  1.00  0.00     0.330 C 
ATOM      4  O   UNL A   1      33.748  32.543  28.078  1.00  0.00    -0.247 OA
BRANCH   3   5
ATOM      5  C   UNL A   1      32.956  30.105  26.316  1.00  0.00     0.094 C 
ATOM      6  C   UNL A   1      32.187  28.949  26.229  1.00  0.00     0.016 C 
BRANCH   6   7
ATOM      7  C   UNL A   1      31.750  28.260  24.987  1.00  0.00    -0.022 A 
ATOM      8  C   UNL A   1      33.487  26.517  25.440  1.00  0.00     0.046 C 
ATOM      9  C   UNL A   1      32.420  27.091  24.543  1.00  0.00    -0.031 A 
ATOM     10  C   UNL A   1      32.116  26.574  23.258  1.00  0.00     0.043 A 
ATOM     11  C   UNL A   1      30.843  28.917  24.140  1.00  0.00     0.008 A 
ATOM     12  C   UNL A   1      31.239  27.284  22.416  1.00  0.00     0.014 A 
ATOM     13  C   UNL A   1      30.607  28.446  22.853  1.00  0.00     0.001 A 
BRANCH  10  14
ATOM     14  C   UNL A   1      32.880  25.472  22.602  1.00  0.00     0.254 C 
ATOM     15  O   UNL A   1      33.670  25.771  21.704  1.00  0.00    -0.269 OA
BRANCH  14  16
ATOM     16  N   UNL A   1      32.795  24.177  23.075  1.00  0.00    -0.338 N 
ATOM     17  C   UNL A   1      34.014  23.477  23.404  1.00  0.00     0.123 C 
ATOM     18  C   UNL A   1      31.611  23.349  23.268  1.00  0.00     0.123 C 
ATOM     19  C   UNL A   1      33.618  22.020  23.594  1.00  0.00     0.010 C 
ATOM     20  C   UNL A   1      32.116  22.071  23.964  1.00  0.00     0.010 C 
ATOM     21  C   UNL A   1      34.543  21.325  24.582  1.00  0.00     0.010 C 
ATOM     22  C   UNL A   1      31.813  22.067  25.461  1.00  0.00     0.010 C 
ENDBRANCH  14  16
ENDBRANCH  10  14
ENDBRANCH   6   7
ENDBRANCH   3   5
ENDBRANCH   2   3
ENDBRANCH   1   2
BRANCH   1  23
ATOM     23  C   UNL A   1      36.681  30.738  30.171  1.00  0.00     0.275 C 
BRANCH  23  24
ATOM     24  O   UNL A   1      36.941  29.454  29.551  1.00  0.00    -0.458 OA
BRANCH  24  25
ATOM     25  C   UNL A   1      38.118  28.819  29.785  1.00  0.00     0.338 C 
ATOM     26  O   UNL A   1      38.302  27.874  30.532  1.00  0.00    -0.246 OA
BRANCH  25  27
ATOM     27  C   UNL A   1      39.199  29.461  29.042  1.00  0.00     0.060 A 
ATOM     28  C   UNL A   1      39.736  28.726  27.467  1.00  0.00     0.016 A 
ATOM     29  C   UNL A   1      40.337  30.476  30.037  1.00  0.00     0.016 A 
ATOM     30  C   UNL A   1      41.484  28.832  26.950  1.00  0.00     0.010 A 
ATOM     31  C   UNL A   1      42.081  30.572  29.536  1.00  0.00     0.010 A 
ATOM     32  C   UNL A   1      42.657  29.685  28.051  1.00  0.00    -0.014 A 
BRANCH  32  33
ATOM     33  C   UNL A   1      44.077  29.513  28.047  1.00  0.00     0.031 A 
ATOM     34  C   UNL A   1      44.836  30.558  27.364  1.00  0.00     0.074 A 
ATOM     35  C   UNL A   1      44.585  28.619  28.919  1.00  0.00     0.049 A 
ATOM     36  N   UNL A   1      46.085  30.477  27.108  1.00  0.00    -0.248 NA
ATOM     37  C   UNL A   1      44.234  31.793  26.863  1.00  0.00     0.031 C 
ATOM     38  C   UNL A   1      45.913  28.570  29.516  1.00  0.00     0.029 A 
ATOM     39  N   UNL A   1      44.008  27.457  29.392  1.00  0.00    -0.354 N 
ATOM     40  C   UNL A   1      46.515  31.752  26.816  1.00  0.00     0.074 A 
ATOM     41  C   UNL A   1      45.317  32.500  26.537  1.00  0.00     0.031 C 
ATOM     42  C   UNL A   1      46.126  27.333  30.007  1.00  0.00     0.029 A 
ATOM     43  C   UNL A   1      44.995  26.503  29.624  1.00  0.00     0.049 A 
ATOM     44  H   UNL A   1      43.044  27.322  29.540  1.00  0.00     0.167 HD
ATOM     45  C   UNL A   1      47.827  32.031  27.041  1.00  0.00     0.037 A 
ATOM     46  C   UNL A   1      45.081  25.412  28.797  1.00  0.00     0.037 A 
ATOM     47  C   UNL A   1      48.527  30.805  27.459  1.00  0.00     0.049 A 
ATOM     48  C   UNL A   1      46.240  25.514  27.801  1.00  0.00     0.074 A 
ATOM     49  C   UNL A   1      48.934  30.277  28.673  1.00  0.00     0.029 A 
ATOM     50  N   UNL A   1      48.522  29.736  26.584  1.00  0.00    -0.354 N 
ATOM     51  N   UNL A   1      47.044  26.543  27.714  1.00  0.00    -0.248 NA
ATOM     52  C   UNL A   1      46.578  24.492  26.811  1.00  0.00     0.031 C 
ATOM     53  C   UNL A   1      49.151  28.871  28.498  1.00  0.00     0.029 A 
ATOM     54  C   UNL A   1      48.889  28.550  27.178  1.00  0.00     0.049 A 
ATOM     55  H   UNL A   1      48.281  29.815  25.633  1.00  0.00     0.167 HD
ATOM     56  C   UNL A   1      47.938  26.383  26.687  1.00  0.00     0.074 A 
ATOM     57  C   UNL A   1      47.589  25.080  26.139  1.00  0.00     0.031 C 
ATOM     58  C   UNL A   1      48.871  27.337  26.361  1.00  0.00     0.037 A 
BRANCH  45  59
ATOM     59  C   UNL A   1      48.417  33.420  27.133  1.00  0.00     0.058 A 
ATOM     60  C   UNL A   1      47.967  34.298  28.141  1.00  0.00     0.135 A 
ATOM     61  C   UNL A   1      49.393  33.969  26.273  1.00  0.00     0.135 A 
ATOM     62  F   UNL A   1      47.083  33.908  29.069  1.00  0.00    -0.206 F 
ATOM     63  C   UNL A   1      48.399  35.617  28.252  1.00  0.00     0.059 A 
ATOM     64  C   UNL A   1      49.810  35.302  26.336  1.00  0.00     0.059 A 
ATOM     65  F   UNL A   1      50.039  33.231  25.364  1.00  0.00    -0.206 F 
ATOM     66  C   UNL A   1      49.311  36.119  27.337  1.00  0.00     0.060 A 
BRANCH  66  67
ATOM     67  S   UNL A   1      49.860  37.823  27.510  1.00  0.00     0.124 S 
ATOM     68  O   UNL A   1      48.980  38.522  26.579  1.00  0.00    -0.237 OA
ATOM     69  O   UNL A   1      49.617  38.072  28.927  1.00  0.00    -0.237 OA
ATOM     70  O   UNL A   1      51.265  37.769  27.115  1.00  0.00    -0.744 OA
ENDBRANCH  66  67
ENDBRANCH  45  59
BRANCH  46  71
ATOM     71  C   UNL A   1      43.733  24.785  28.593  1.00  0.00     0.058 A 
ATOM     72  C   UNL A   1      43.137  24.965  27.322  1.00  0.00     0.135 A 
ATOM     73  C   UNL A   1      43.268  23.706  29.356  1.00  0.00     0.135 A 
ATOM     74  F   UNL A   1      43.501  26.008  26.557  1.00  0.00    -0.206 F 
ATOM     75  C   UNL A   1      42.286  24.018  26.757  1.00  0.00     0.059 A 
ATOM     76  C   UNL A   1      42.375  22.763  28.821  1.00  0.00     0.059 A 
ATOM     77  F   UNL A   1      43.780  23.468  30.573  1.00  0.00    -0.206 F 
ATOM     78  C   UNL A   1      41.947  22.890  27.498  1.00  0.00     0.060 A 
BRANCH  78  79
ATOM     79  S   UNL A   1      41.058  21.554  26.655  1.00  0.00     0.124 S 
ATOM     80  O   UNL A   1      39.879  22.250  26.149  1.00  0.00    -0.237 OA
ATOM     81  O   UNL A   1      42.015  21.125  25.640  1.00  0.00    -0.237 OA
ATOM     82  O   UNL A   1      40.797  20.590  27.720  1.00  0.00    -0.744 OA
ENDBRANCH  78  79
ENDBRANCH  46  71
BRANCH  58  83
ATOM     83  C   UNL A   1      49.848  27.234  25.204  1.00  0.00     0.058 A 
ATOM     84  C   UNL A   1      49.454  27.350  23.863  1.00  0.00     0.135 A 
ATOM     85  C   UNL A   1      51.217  26.907  25.396  1.00  0.00     0.135 A 
ATOM     86  F   UNL A   1      48.164  27.512  23.534  1.00  0.00    -0.206 F 
ATOM     87  C   UNL A   1      50.366  27.267  22.806  1.00  0.00     0.059 A 
ATOM     88  C   UNL A   1      52.126  26.747  24.359  1.00  0.00     0.059 A 
ATOM     89  F   UNL A   1      51.767  26.757  26.607  1.00  0.00    -0.206 F 
ATOM     90  C   UNL A   1      51.702  26.973  23.067  1.00  0.00     0.060 A 
BRANCH  90  91
ATOM     91  S   UNL A   1      52.880  26.867  21.713  1.00  0.00     0.124 S 
ATOM     92  O   UNL A   1      52.194  25.984  20.775  1.00  0.00    -0.237 OA
ATOM     93  O   UNL A   1      52.986  28.265  21.311  1.00  0.00    -0.237 OA
ATOM     94  O   UNL A   1      54.072  26.303  22.338  1.00  0.00    -0.744 OA
ENDBRANCH  90  91
ENDBRANCH  58  83
ENDBRANCH  32  33
ENDBRANCH  25  27
ENDBRANCH  24  25
ENDBRANCH  23  24
ENDBRANCH   1  23
TORSDOF 17
ENDMDL
MODEL 3
REMARK VINA RESULT:     -12.0      6.901     10.365
REMARK SMILES Cc1c(/C=C/C(=O)OCCOC(=O)c2ccc(-c3c4nc(c(-c5c(F)cc(S(=O)(=O)[O-])cc5F)c5ccc([nH]5)c(-c5c(F)cc(S(=O)(=O)[O-])cc5F)c5nc(c(-c6c(F)cc(S(=O)(=O)[O-])cc6F)c6ccc3[nH]6)C=C5)C=C4)cc2)cccc1C(=O)N1C[C@@H](C)[C@@H](C)C1
REMARK SMILES IDX 9 1 8 2 6 3 7 4 5 5 4 6 3 7 1 8 2 9 83 10 80 11 82 12 81 13
REMARK SMILES IDX 84 14 85 15 86 16 87 17 92 18 88 19 90 20 89 21 91 22 10 23
REMARK SMILES IDX 11 24 12 25 13 26 14 27 15 28 79 29 16 30 78 31 17 32 18 33
REMARK SMILES IDX 19 34 72 35 20 36 77 37 71 38 73 39 21 40 76 41 70 42 69 43
REMARK SMILES IDX 22 45 56 46 35 47 55 48 36 49 39 50 54 51 74 52 37 53 38 54
REMARK SMILES IDX 53 56 75 57 40 58 23 59 24 60 33 61 25 62 26 63 32 64 34 65
REMARK SMILES IDX 27 66 28 67 29 68 30 69 31 70 57 71 58 72 67 73 59 74 60 75
REMARK SMILES IDX 66 76 68 77 61 78 62 79 63 80 64 81 65 82 41 83 42 84 51 85
REMARK SMILES IDX 43 86 44 87 50 88 52 89 45 90 46 91 47 92 48 93 49 94
REMARK H PARENT 73 44 39 55
REMARK Flexibility Score: inf
ROOT
ATOM      1  C   UNL A   1      48.430  26.812  24.438  1.00  0.00     0.275 C 
ENDROOT
BRANCH   1   2
ATOM      2  O   UNL A   1      47.129  26.827  23.834  1.00  0.00    -0.459 OA
BRANCH   2   3
ATOM      3  C   UNL A   1      46.171  27.763  24.394  1.00  0.00     0.330 C 
ATOM      4  O   UNL A   1      46.697  28.896  24.266  1.00  0.00    -0.247 OA
BRANCH   3   5
ATOM      5  C   UNL A   1      44.320  27.169  25.288  1.00  0.00     0.094 C 
ATOM      6  C   UNL A   1      42.933  27.202  25.183  1.00  0.00     0.016 C 
BRANCH   6   7
ATOM      7  C   UNL A   1      41.950  26.771  26.211  1.00  0.00    -0.022 A 
ATOM      8  C   UNL A   1      41.980  29.109  27.101  1.00  0.00     0.046 C 
ATOM      9  C   UNL A   1      41.513  27.679  27.209  1.00  0.00    -0.031 A 
ATOM     10  C   UNL A   1      40.738  27.189  28.290  1.00  0.00     0.043 A 
ATOM     11  C   UNL A   1      41.661  25.402  26.329  1.00  0.00     0.008 A 
ATOM     12  C   UNL A   1      40.506  25.804  28.403  1.00  0.00     0.014 A 
ATOM     13  C   UNL A   1      40.963  24.917  27.431  1.00  0.00     0.001 A 
BRANCH  10  14
ATOM     14  C   UNL A   1      40.379  27.997  29.492  1.00  0.00     0.254 C 
ATOM     15  O   UNL A   1      41.140  27.959  30.462  1.00  0.00    -0.269 OA
BRANCH  14  16
ATOM     16  N   UNL A   1      39.298  28.856  29.467  1.00  0.00    -0.338 N 
ATOM     17  C   UNL A   1      38.272  28.654  28.472  1.00  0.00     0.123 C 
ATOM     18  C   UNL A   1      39.033  30.018  30.307  1.00  0.00     0.123 C 
ATOM     19  C   UNL A   1      37.407  29.905  28.506  1.00  0.00     0.010 C 
ATOM     20  C   UNL A   1      37.613  30.480  29.928  1.00  0.00     0.010 C 
ATOM     21  C   UNL A   1      35.975  29.592  28.096  1.00  0.00     0.010 C 
ATOM     22  C   UNL A   1      36.570  30.057  30.960  1.00  0.00     0.010 C 
ENDBRANCH  14  16
ENDBRANCH  10  14
ENDBRANCH   6   7
ENDBRANCH   3   5
ENDBRANCH   2   3
ENDBRANCH   1   2
BRANCH   1  23
ATOM     23  C   UNL A   1      48.345  26.008  25.741  1.00  0.00     0.275 C 
BRANCH  23  24
ATOM     24  O   UNL A   1      48.614  26.750  26.957  1.00  0.00    -0.458 OA
BRANCH  24  25
ATOM     25  C   UNL A   1      47.585  27.288  27.659  1.00  0.00     0.338 C 
ATOM     26  O   UNL A   1      47.154  28.424  27.569  1.00  0.00    -0.246 OA
BRANCH  25  27
ATOM     27  C   UNL A   1      47.059  26.318  28.616  1.00  0.00     0.060 A 
ATOM     28  C   UNL A   1      45.293  25.888  28.547  1.00  0.00     0.016 A 
ATOM     29  C   UNL A   1      48.001  26.161  30.167  1.00  0.00     0.016 A 
ATOM     30  C   UNL A   1      44.386  25.474  30.077  1.00  0.00     0.010 A 
ATOM     31  C   UNL A   1      47.100  25.766  31.695  1.00  0.00     0.010 A 
ATOM     32  C   UNL A   1      45.296  25.510  31.654  1.00  0.00    -0.014 A 
BRANCH  32  33
ATOM     33  C   UNL A   1      44.707  25.637  32.952  1.00  0.00     0.031 A 
ATOM     34  C   UNL A   1      44.214  26.970  33.292  1.00  0.00     0.074 A 
ATOM     35  C   UNL A   1      44.376  24.494  33.585  1.00  0.00     0.049 A 
ATOM     36  N   UNL A   1      43.826  27.307  34.461  1.00  0.00    -0.248 NA
ATOM     37  C   UNL A   1      44.150  28.072  32.333  1.00  0.00     0.031 C 
ATOM     38  C   UNL A   1      43.360  24.270  34.604  1.00  0.00     0.029 A 
ATOM     39  N   UNL A   1      44.989  23.259  33.506  1.00  0.00    -0.354 N 
ATOM     40  C   UNL A   1      43.101  28.468  34.321  1.00  0.00     0.074 A 
ATOM     41  C   UNL A   1      43.449  28.976  33.020  1.00  0.00     0.031 C 
ATOM     42  C   UNL A   1      43.619  23.105  35.232  1.00  0.00     0.029 A 
ATOM     43  C   UNL A   1      44.890  22.604  34.730  1.00  0.00     0.049 A 
ATOM     44  H   UNL A   1      45.431  22.896  32.704  1.00  0.00     0.167 HD
ATOM     45  C   UNL A   1      42.158  28.729  35.266  1.00  0.00     0.037 A 
ATOM     46  C   UNL A   1      46.015  22.443  35.497  1.00  0.00     0.037 A 
ATOM     47  C   UNL A   1      42.225  27.707  36.324  1.00  0.00     0.049 A 
ATOM     48  C   UNL A   1      46.067  23.411  36.684  1.00  0.00     0.074 A 
ATOM     49  C   UNL A   1      41.508  26.560  36.623  1.00  0.00     0.029 A 
ATOM     50  N   UNL A   1      43.415  27.579  37.014  1.00  0.00    -0.354 N 
ATOM     51  N   UNL A   1      45.159  24.323  36.927  1.00  0.00    -0.248 NA
ATOM     52  C   UNL A   1      47.141  23.455  37.675  1.00  0.00     0.031 C 
ATOM     53  C   UNL A   1      42.308  25.747  37.490  1.00  0.00     0.029 A 
ATOM     54  C   UNL A   1      43.503  26.404  37.726  1.00  0.00     0.049 A 
ATOM     55  H   UNL A   1      44.127  28.258  36.999  1.00  0.00     0.167 HD
ATOM     56  C   UNL A   1      45.507  25.084  38.012  1.00  0.00     0.074 A 
ATOM     57  C   UNL A   1      46.774  24.506  38.436  1.00  0.00     0.031 C 
ATOM     58  C   UNL A   1      44.740  26.133  38.457  1.00  0.00     0.037 A 
BRANCH  45  59
ATOM     59  C   UNL A   1      41.033  29.727  35.119  1.00  0.00     0.058 A 
ATOM     60  C   UNL A   1      40.981  30.844  35.980  1.00  0.00     0.135 A 
ATOM     61  C   UNL A   1      39.970  29.655  34.192  1.00  0.00     0.135 A 
ATOM     62  F   UNL A   1      41.946  31.084  36.878  1.00  0.00    -0.206 F 
ATOM     63  C   UNL A   1      39.942  31.770  35.965  1.00  0.00     0.059 A 
ATOM     64  C   UNL A   1      38.894  30.547  34.187  1.00  0.00     0.059 A 
ATOM     65  F   UNL A   1      39.945  28.753  33.205  1.00  0.00    -0.206 F 
ATOM     66  C   UNL A   1      38.892  31.609  35.075  1.00  0.00     0.060 A 
BRANCH  66  67
ATOM     67  S   UNL A   1      37.569  32.827  35.070  1.00  0.00     0.124 S 
ATOM     68  O   UNL A   1      36.715  32.344  33.988  1.00  0.00    -0.237 OA
ATOM     69  O   UNL A   1      37.030  32.688  36.418  1.00  0.00    -0.237 OA
ATOM     70  O   UNL A   1      38.264  34.083  34.798  1.00  0.00    -0.744 OA
ENDBRANCH  66  67
ENDBRANCH  45  59
BRANCH  46  71
ATOM     71  C   UNL A   1      47.156  21.921  34.674  1.00  0.00     0.058 A 
ATOM     72  C   UNL A   1      48.222  22.819  34.428  1.00  0.00     0.135 A 
ATOM     73  C   UNL A   1      47.443  20.556  34.545  1.00  0.00     0.135 A 
ATOM     74  F   UNL A   1      48.005  24.143  34.487  1.00  0.00    -0.206 F 
ATOM     75  C   UNL A   1      49.537  22.388  34.269  1.00  0.00     0.059 A 
ATOM     76  C   UNL A   1      48.757  20.101  34.340  1.00  0.00     0.059 A 
ATOM     77  F   UNL A   1      46.487  19.640  34.759  1.00  0.00    -0.206 F 
ATOM     78  C   UNL A   1      49.804  21.023  34.275  1.00  0.00     0.060 A 
BRANCH  78  79
ATOM     79  S   UNL A   1      51.538  20.495  34.330  1.00  0.00     0.124 S 
ATOM     80  O   UNL A   1      52.102  21.416  35.311  1.00  0.00    -0.237 OA
ATOM     81  O   UNL A   1      51.434  19.105  34.762  1.00  0.00    -0.237 OA
ATOM     82  O   UNL A   1      52.000  20.694  32.959  1.00  0.00    -0.744 OA
ENDBRANCH  78  79
ENDBRANCH  46  71
BRANCH  58  83
ATOM     83  C   UNL A   1      45.103  27.041  39.619  1.00  0.00     0.058 A 
ATOM     84  C   UNL A   1      44.711  26.778  40.940  1.00  0.00     0.135 A 
ATOM     85  C   UNL A   1      45.778  28.276  39.433  1.00  0.00     0.135 A 
ATOM     86  F   UNL A   1      43.942  25.720  41.234  1.00  0.00    -0.206 F 
ATOM     87  C   UNL A   1      45.063  27.614  42.004  1.00  0.00     0.059 A 
ATOM     88  C   UNL A   1      46.075  29.158  40.464  1.00  0.00     0.059 A 
ATOM     89  F   UNL A   1      46.224  28.690  38.241  1.00  0.00    -0.206 F 
ATOM     90  C   UNL A   1      45.753  28.799  41.755  1.00  0.00     0.060 A 
BRANCH  90  91
ATOM     91  S   UNL A   1      46.212  29.876  43.118  1.00  0.00     0.124 S 
ATOM     92  O   UNL A   1      45.072  30.785  43.190  1.00  0.00    -0.237 OA
ATOM     93  O   UNL A   1      46.334  28.921  44.214  1.00  0.00    -0.237 OA
ATOM     94  O   UNL A   1      47.463  30.481  42.673  1.00  0.00    -0.744 OA
ENDBRANCH  90  91
ENDBRANCH  58  83
ENDBRANCH  32  33
ENDBRANCH  25  27
ENDBRANCH  24  25
ENDBRANCH  23  24
ENDBRANCH   1  23
TORSDOF 17
ENDMDL
