MODEL 1
REMARK VINA RESULT:     -10.4      0.000      0.000
REMARK SMILES C/C(=N\Nc1ccccc1C(=O)OCCOC(=O)c1ccc(-c2c3nc(c(-c4c(F)cc(S(=O)(=O)[O-])cc4F)c4ccc([nH]4)c(-c4c(F)cc(S(=O)(=O)[O-])cc4F)c4nc(c(-c5c(F)cc(S(=O)(=O)[O-])cc5F)c5ccc2[nH]5)C=C4)C=C3)cc1)c1ccc(S(C)(=O)=O)cc1
REMARK SMILES IDX 14 1 13 2 11 3 12 4 10 5 5 6 6 7 7 8 9 9 8 10 4 11 3 13 1 14
REMARK SMILES IDX 2 15 85 16 86 17 94 18 87 19 93 20 88 21 89 22 90 23 91 24
REMARK SMILES IDX 92 25 15 26 16 27 17 28 18 29 19 30 20 31 84 32 21 33 83 34
REMARK SMILES IDX 22 35 23 36 24 37 77 38 25 39 82 40 76 41 78 42 26 43 81 44
REMARK SMILES IDX 75 45 74 46 27 48 61 49 40 50 60 51 41 52 44 53 59 54 79 55
REMARK SMILES IDX 42 56 43 57 58 59 80 60 45 61 28 62 29 63 38 64 30 65 31 66
REMARK SMILES IDX 37 67 39 68 32 69 33 70 34 71 35 72 36 73 62 74 63 75 72 76
REMARK SMILES IDX 64 77 65 78 71 79 73 80 66 81 67 82 68 83 69 84 70 85 46 86
REMARK SMILES IDX 47 87 56 88 48 89 49 90 55 91 57 92 50 93 51 94 52 95 53 96
REMARK SMILES IDX 54 97
REMARK H PARENT 4 12 78 47 44 58
REMARK Flexibility Score: inf
ROOT
ATOM      1  C   UNL A   1      33.563  33.889  28.421  1.00  0.00     0.275 C 
ENDROOT
BRANCH   1   2
ATOM      2  O   UNL A   1      32.788  34.666  29.355  1.00  0.00    -0.458 OA
BRANCH   2   3
ATOM      3  C   UNL A   1      33.319  35.873  29.670  1.00  0.00     0.340 C 
ATOM      4  O   UNL A   1      33.603  36.775  28.893  1.00  0.00    -0.246 OA
BRANCH   3   5
ATOM      5  C   UNL A   1      33.513  36.011  31.124  1.00  0.00     0.085 A 
ATOM      6  C   UNL A   1      34.524  35.323  31.811  1.00  0.00     0.071 A 
ATOM      7  C   UNL A   1      34.686  35.611  33.186  1.00  0.00     0.028 A 
ATOM      8  C   UNL A   1      33.910  36.573  33.838  1.00  0.00     0.002 A 
ATOM      9  C   UNL A   1      32.720  36.963  31.792  1.00  0.00     0.018 A 
ATOM     10  C   UNL A   1      32.927  37.254  33.138  1.00  0.00     0.001 A 
BRANCH   6  11
ATOM     11  N   UNL A   1      35.520  34.499  31.235  1.00  0.00    -0.277 N 
ATOM     12  H   UNL A   1      35.697  34.605  30.273  1.00  0.00     0.190 HD
BRANCH  11  13
ATOM     13  N   UNL A   1      36.246  33.579  31.906  1.00  0.00    -0.180 NA
ATOM     14  C   UNL A   1      38.276  34.255  30.592  1.00  0.00     0.069 C 
ATOM     15  C   UNL A   1      37.521  33.452  31.640  1.00  0.00     0.065 C 
BRANCH  15  16
ATOM     16  C   UNL A   1      38.314  32.444  32.432  1.00  0.00    -0.002 A 
ATOM     17  C   UNL A   1      39.519  32.835  33.037  1.00  0.00     0.011 A 
ATOM     18  C   UNL A   1      37.879  31.120  32.582  1.00  0.00     0.011 A 
ATOM     19  C   UNL A   1      40.269  31.927  33.793  1.00  0.00     0.021 A 
ATOM     20  C   UNL A   1      38.633  30.201  33.316  1.00  0.00     0.021 A 
ATOM     21  C   UNL A   1      39.825  30.608  33.916  1.00  0.00     0.067 A 
BRANCH  21  22
ATOM     22  S   UNL A   1      40.788  29.445  34.850  1.00  0.00     0.175 S 
ATOM     23  C   UNL A   1      42.438  30.089  34.776  1.00  0.00     0.163 C 
ATOM     24  O   UNL A   1      40.335  29.514  36.221  1.00  0.00    -0.224 OA
ATOM     25  O   UNL A   1      40.795  28.187  34.118  1.00  0.00    -0.224 OA
ENDBRANCH  21  22
ENDBRANCH  15  16
ENDBRANCH  11  13
ENDBRANCH   6  11
ENDBRANCH   3   5
ENDBRANCH   2   3
ENDBRANCH   1   2
BRANCH   1  26
ATOM     26  C   UNL A   1      34.150  32.628  29.044  1.00  0.00     0.275 C 
BRANCH  26  27
ATOM     27  O   UNL A   1      35.103  32.027  28.156  1.00  0.00    -0.458 OA
BRANCH  27  28
ATOM     28  C   UNL A   1      34.882  30.720  27.908  1.00  0.00     0.338 C 
ATOM     29  O   UNL A   1      33.830  30.189  27.584  1.00  0.00    -0.246 OA
BRANCH  28  30
ATOM     30  C   UNL A   1      36.129  29.963  28.037  1.00  0.00     0.060 A 
ATOM     31  C   UNL A   1      36.475  29.455  29.286  1.00  0.00     0.016 A 
ATOM     32  C   UNL A   1      37.044  29.953  26.989  1.00  0.00     0.016 A 
ATOM     33  C   UNL A   1      37.788  29.085  29.544  1.00  0.00     0.010 A 
ATOM     34  C   UNL A   1      38.330  29.464  27.217  1.00  0.00     0.010 A 
ATOM     35  C   UNL A   1      38.732  29.084  28.511  1.00  0.00    -0.014 A 
BRANCH  35  36
ATOM     36  C   UNL A   1      40.155  28.759  28.789  1.00  0.00     0.031 A 
ATOM     37  C   UNL A   1      41.057  29.826  29.353  1.00  0.00     0.074 A 
ATOM     38  C   UNL A   1      40.636  27.526  28.541  1.00  0.00     0.049 A 
ATOM     39  N   UNL A   1      42.363  29.855  29.425  1.00  0.00    -0.248 NA
ATOM     40  C   UNL A   1      40.402  31.032  29.889  1.00  0.00     0.031 C 
ATOM     41  C   UNL A   1      39.849  26.387  28.062  1.00  0.00     0.029 A 
ATOM     42  N   UNL A   1      41.907  27.023  28.651  1.00  0.00    -0.354 N 
ATOM     43  C   UNL A   1      42.687  31.105  29.941  1.00  0.00     0.074 A 
ATOM     44  C   UNL A   1      41.441  31.804  30.173  1.00  0.00     0.031 C 
ATOM     45  C   UNL A   1      40.648  25.317  27.941  1.00  0.00     0.029 A 
ATOM     46  C   UNL A   1      42.018  25.718  28.233  1.00  0.00     0.049 A 
ATOM     47  H   UNL A   1      42.667  27.547  28.996  1.00  0.00     0.167 HD
ATOM     48  C   UNL A   1      43.915  31.620  30.184  1.00  0.00     0.037 A 
ATOM     49  C   UNL A   1      43.106  24.949  28.043  1.00  0.00     0.037 A 
ATOM     50  C   UNL A   1      45.137  30.878  30.001  1.00  0.00     0.049 A 
ATOM     51  C   UNL A   1      44.460  25.544  28.300  1.00  0.00     0.074 A 
ATOM     52  C   UNL A   1      46.439  31.290  30.221  1.00  0.00     0.029 A 
ATOM     53  N   UNL A   1      45.202  29.560  29.570  1.00  0.00    -0.354 N 
ATOM     54  N   UNL A   1      44.763  26.755  28.709  1.00  0.00    -0.248 NA
ATOM     55  C   UNL A   1      45.621  24.681  28.053  1.00  0.00     0.031 C 
ATOM     56  C   UNL A   1      47.293  30.230  29.895  1.00  0.00     0.029 A 
ATOM     57  C   UNL A   1      46.521  29.144  29.513  1.00  0.00     0.049 A 
ATOM     58  H   UNL A   1      44.424  29.003  29.339  1.00  0.00     0.167 HD
ATOM     59  C   UNL A   1      46.150  26.796  28.776  1.00  0.00     0.074 A 
ATOM     60  C   UNL A   1      46.624  25.483  28.386  1.00  0.00     0.031 C 
ATOM     61  C   UNL A   1      46.959  27.826  29.126  1.00  0.00     0.037 A 
BRANCH  48  62
ATOM     62  C   UNL A   1      44.001  33.055  30.632  1.00  0.00     0.058 A 
ATOM     63  C   UNL A   1      43.960  33.422  31.986  1.00  0.00     0.135 A 
ATOM     64  C   UNL A   1      44.150  34.080  29.682  1.00  0.00     0.135 A 
ATOM     65  F   UNL A   1      43.801  32.488  32.935  1.00  0.00    -0.206 F 
ATOM     66  C   UNL A   1      44.034  34.756  32.380  1.00  0.00     0.059 A 
ATOM     67  C   UNL A   1      44.252  35.417  30.056  1.00  0.00     0.059 A 
ATOM     68  F   UNL A   1      44.193  33.787  28.373  1.00  0.00    -0.206 F 
ATOM     69  C   UNL A   1      44.178  35.747  31.408  1.00  0.00     0.060 A 
BRANCH  69  70
ATOM     70  S   UNL A   1      44.274  37.472  31.933  1.00  0.00     0.124 S 
ATOM     71  O   UNL A   1      43.805  38.168  30.738  1.00  0.00    -0.237 OA
ATOM     72  O   UNL A   1      43.371  37.503  33.079  1.00  0.00    -0.237 OA
ATOM     73  O   UNL A   1      45.688  37.653  32.249  1.00  0.00    -0.744 OA
ENDBRANCH  69  70
ENDBRANCH  48  62
BRANCH  49  74
ATOM     74  C   UNL A   1      42.950  23.560  27.537  1.00  0.00     0.058 A 
ATOM     75  C   UNL A   1      42.728  22.492  28.417  1.00  0.00     0.135 A 
ATOM     76  C   UNL A   1      42.981  23.278  26.161  1.00  0.00     0.135 A 
ATOM     77  F   UNL A   1      42.699  22.707  29.740  1.00  0.00    -0.206 F 
ATOM     78  C   UNL A   1      42.544  21.192  27.953  1.00  0.00     0.059 A 
ATOM     79  C   UNL A   1      42.771  21.992  25.672  1.00  0.00     0.059 A 
ATOM     80  F   UNL A   1      43.177  24.267  25.276  1.00  0.00    -0.206 F 
ATOM     81  C   UNL A   1      42.562  20.954  26.577  1.00  0.00     0.060 A 
BRANCH  81  82
ATOM     82  S   UNL A   1      42.256  19.277  25.982  1.00  0.00     0.124 S 
ATOM     83  O   UNL A   1      43.088  19.234  24.785  1.00  0.00    -0.237 OA
ATOM     84  O   UNL A   1      42.710  18.462  27.105  1.00  0.00    -0.237 OA
ATOM     85  O   UNL A   1      40.814  19.261  25.751  1.00  0.00    -0.744 OA
ENDBRANCH  81  82
ENDBRANCH  49  74
BRANCH  61  86
ATOM     86  C   UNL A   1      48.435  27.555  29.133  1.00  0.00     0.058 A 
ATOM     87  C   UNL A   1      49.235  27.800  28.008  1.00  0.00     0.135 A 
ATOM     88  C   UNL A   1      49.061  27.078  30.297  1.00  0.00     0.135 A 
ATOM     89  F   UNL A   1      48.682  28.248  26.870  1.00  0.00    -0.206 F 
ATOM     90  C   UNL A   1      50.604  27.559  28.026  1.00  0.00     0.059 A 
ATOM     91  C   UNL A   1      50.431  26.852  30.345  1.00  0.00     0.059 A 
ATOM     92  F   UNL A   1      48.339  26.837  31.403  1.00  0.00    -0.206 F 
ATOM     93  C   UNL A   1      51.193  27.083  29.200  1.00  0.00     0.060 A 
BRANCH  93  94
ATOM     94  S   UNL A   1      52.974  26.796  29.221  1.00  0.00     0.124 S 
ATOM     95  O   UNL A   1      53.155  25.993  28.017  1.00  0.00    -0.237 OA
ATOM     96  O   UNL A   1      53.512  28.151  29.167  1.00  0.00    -0.237 OA
ATOM     97  O   UNL A   1      53.189  26.094  30.483  1.00  0.00    -0.744 OA
ENDBRANCH  93  94
ENDBRANCH  61  86
ENDBRANCH  35  36
ENDBRANCH  28  30
ENDBRANCH  27  28
ENDBRANCH  26  27
ENDBRANCH   1  26
TORSDOF 18
ENDMDL
MODEL 2
REMARK VINA RESULT:     -10.3      3.988     12.274
REMARK SMILES C/C(=N\Nc1ccccc1C(=O)OCCOC(=O)c1ccc(-c2c3nc(c(-c4c(F)cc(S(=O)(=O)[O-])cc4F)c4ccc([nH]4)c(-c4c(F)cc(S(=O)(=O)[O-])cc4F)c4nc(c(-c5c(F)cc(S(=O)(=O)[O-])cc5F)c5ccc2[nH]5)C=C4)C=C3)cc1)c1ccc(S(C)(=O)=O)cc1
REMARK SMILES IDX 14 1 13 2 11 3 12 4 10 5 5 6 6 7 7 8 9 9 8 10 4 11 3 13 1 14
REMARK SMILES IDX 2 15 85 16 86 17 94 18 87 19 93 20 88 21 89 22 90 23 91 24
REMARK SMILES IDX 92 25 15 26 16 27 17 28 18 29 19 30 20 31 84 32 21 33 83 34
REMARK SMILES IDX 22 35 23 36 24 37 77 38 25 39 82 40 76 41 78 42 26 43 81 44
REMARK SMILES IDX 75 45 74 46 27 48 61 49 40 50 60 51 41 52 44 53 59 54 79 55
REMARK SMILES IDX 42 56 43 57 58 59 80 60 45 61 28 62 29 63 38 64 30 65 31 66
REMARK SMILES IDX 37 67 39 68 32 69 33 70 34 71 35 72 36 73 62 74 63 75 72 76
REMARK SMILES IDX 64 77 65 78 71 79 73 80 66 81 67 82 68 83 69 84 70 85 46 86
REMARK SMILES IDX 47 87 56 88 48 89 49 90 55 91 57 92 50 93 51 94 52 95 53 96
REMARK SMILES IDX 54 97
REMARK H PARENT 4 12 78 47 44 58
REMARK Flexibility Score: inf
ROOT
ATOM      1  C   UNL A   1      40.427  20.652  26.771  1.00  0.00     0.275 C 
ENDROOT
BRANCH   1   2
ATOM      2  O   UNL A   1      41.638  20.764  25.999  1.00  0.00    -0.458 OA
BRANCH   2   3
ATOM      3  C   UNL A   1      42.259  19.587  25.739  1.00  0.00     0.340 C 
ATOM      4  O   UNL A   1      41.764  18.470  25.790  1.00  0.00    -0.246 OA
BRANCH   3   5
ATOM      5  C   UNL A   1      43.664  19.797  25.349  1.00  0.00     0.085 A 
ATOM      6  C   UNL A   1      44.152  21.054  24.960  1.00  0.00     0.071 A 
ATOM      7  C   UNL A   1      45.539  21.162  24.709  1.00  0.00     0.028 A 
ATOM      8  C   UNL A   1      46.410  20.082  24.880  1.00  0.00     0.002 A 
ATOM      9  C   UNL A   1      44.543  18.708  25.498  1.00  0.00     0.018 A 
ATOM     10  C   UNL A   1      45.911  18.853  25.280  1.00  0.00     0.001 A 
BRANCH   6  11
ATOM     11  N   UNL A   1      43.432  22.272  24.966  1.00  0.00    -0.277 N 
ATOM     12  H   UNL A   1      42.454  22.224  24.867  1.00  0.00     0.190 HD
BRANCH  11  13
ATOM     13  N   UNL A   1      43.986  23.497  25.098  1.00  0.00    -0.180 NA
ATOM     14  C   UNL A   1      43.143  23.602  27.460  1.00  0.00     0.069 C 
ATOM     15  C   UNL A   1      43.879  24.128  26.238  1.00  0.00     0.065 C 
BRANCH  15  16
ATOM     16  C   UNL A   1      44.541  25.477  26.367  1.00  0.00    -0.002 A 
ATOM     17  C   UNL A   1      44.559  26.346  25.264  1.00  0.00     0.011 A 
ATOM     18  C   UNL A   1      45.144  25.889  27.564  1.00  0.00     0.011 A 
ATOM     19  C   UNL A   1      45.150  27.610  25.358  1.00  0.00     0.021 A 
ATOM     20  C   UNL A   1      45.757  27.142  27.659  1.00  0.00     0.021 A 
ATOM     21  C   UNL A   1      45.759  27.994  26.555  1.00  0.00     0.067 A 
BRANCH  21  22
ATOM     22  S   UNL A   1      46.536  29.587  26.670  1.00  0.00     0.175 S 
ATOM     23  C   UNL A   1      48.265  29.218  26.809  1.00  0.00     0.163 C 
ATOM     24  O   UNL A   1      46.317  30.264  25.412  1.00  0.00    -0.224 OA
ATOM     25  O   UNL A   1      46.132  30.186  27.933  1.00  0.00    -0.224 OA
ENDBRANCH  21  22
ENDBRANCH  15  16
ENDBRANCH  11  13
ENDBRANCH   6  11
ENDBRANCH   3   5
ENDBRANCH   2   3
ENDBRANCH   1   2
BRANCH   1  26
ATOM     26  C   UNL A   1      39.260  21.416  26.157  1.00  0.00     0.275 C 
BRANCH  26  27
ATOM     27  O   UNL A   1      39.708  22.664  25.609  1.00  0.00    -0.458 OA
BRANCH  27  28
ATOM     28  C   UNL A   1      38.917  23.714  25.905  1.00  0.00     0.338 C 
ATOM     29  O   UNL A   1      37.779  23.928  25.512  1.00  0.00    -0.246 OA
BRANCH  28  30
ATOM     30  C   UNL A   1      39.596  24.609  26.845  1.00  0.00     0.060 A 
ATOM     31  C   UNL A   1      39.282  24.518  28.198  1.00  0.00     0.016 A 
ATOM     32  C   UNL A   1      40.358  25.669  26.363  1.00  0.00     0.016 A 
ATOM     33  C   UNL A   1      39.588  25.569  29.052  1.00  0.00     0.010 A 
ATOM     34  C   UNL A   1      40.772  26.664  27.250  1.00  0.00     0.010 A 
ATOM     35  C   UNL A   1      40.338  26.655  28.588  1.00  0.00    -0.014 A 
BRANCH  35  36
ATOM     36  C   UNL A   1      40.610  27.818  29.472  1.00  0.00     0.031 A 
ATOM     37  C   UNL A   1      41.833  27.804  30.352  1.00  0.00     0.074 A 
ATOM     38  C   UNL A   1      39.774  28.874  29.489  1.00  0.00     0.049 A 
ATOM     39  N   UNL A   1      42.127  28.565  31.374  1.00  0.00    -0.248 NA
ATOM     40  C   UNL A   1      42.851  26.782  30.053  1.00  0.00     0.031 C 
ATOM     41  C   UNL A   1      38.596  29.039  28.634  1.00  0.00     0.029 A 
ATOM     42  N   UNL A   1      39.784  30.009  30.259  1.00  0.00    -0.354 N 
ATOM     43  C   UNL A   1      43.322  28.068  31.885  1.00  0.00     0.074 A 
ATOM     44  C   UNL A   1      43.703  26.945  31.056  1.00  0.00     0.031 C 
ATOM     45  C   UNL A   1      38.010  30.213  28.911  1.00  0.00     0.029 A 
ATOM     46  C   UNL A   1      38.708  30.834  30.029  1.00  0.00     0.049 A 
ATOM     47  H   UNL A   1      40.491  30.212  30.913  1.00  0.00     0.167 HD
ATOM     48  C   UNL A   1      44.024  28.507  32.956  1.00  0.00     0.037 A 
ATOM     49  C   UNL A   1      38.293  31.934  30.686  1.00  0.00     0.037 A 
ATOM     50  C   UNL A   1      43.652  29.666  33.728  1.00  0.00     0.049 A 
ATOM     51  C   UNL A   1      39.073  32.394  31.883  1.00  0.00     0.074 A 
ATOM     52  C   UNL A   1      44.287  30.212  34.828  1.00  0.00     0.029 A 
ATOM     53  N   UNL A   1      42.551  30.470  33.462  1.00  0.00    -0.354 N 
ATOM     54  N   UNL A   1      40.156  31.869  32.410  1.00  0.00    -0.248 NA
ATOM     55  C   UNL A   1      38.570  33.578  32.587  1.00  0.00     0.031 C 
ATOM     56  C   UNL A   1      43.554  31.328  35.246  1.00  0.00     0.029 A 
ATOM     57  C   UNL A   1      42.486  31.504  34.380  1.00  0.00     0.049 A 
ATOM     58  H   UNL A   1      41.911  30.326  32.728  1.00  0.00     0.167 HD
ATOM     59  C   UNL A   1      40.468  32.667  33.504  1.00  0.00     0.074 A 
ATOM     60  C   UNL A   1      39.472  33.719  33.549  1.00  0.00     0.031 C 
ATOM     61  C   UNL A   1      41.484  32.540  34.394  1.00  0.00     0.037 A 
BRANCH  48  62
ATOM     62  C   UNL A   1      45.231  27.715  33.380  1.00  0.00     0.058 A 
ATOM     63  C   UNL A   1      46.507  27.943  32.841  1.00  0.00     0.135 A 
ATOM     64  C   UNL A   1      45.109  26.719  34.364  1.00  0.00     0.135 A 
ATOM     65  F   UNL A   1      46.680  28.869  31.885  1.00  0.00    -0.206 F 
ATOM     66  C   UNL A   1      47.611  27.194  33.241  1.00  0.00     0.059 A 
ATOM     67  C   UNL A   1      46.204  25.977  34.797  1.00  0.00     0.059 A 
ATOM     68  F   UNL A   1      43.913  26.455  34.914  1.00  0.00    -0.206 F 
ATOM     69  C   UNL A   1      47.450  26.211  34.219  1.00  0.00     0.060 A 
BRANCH  69  70
ATOM     70  S   UNL A   1      48.890  25.249  34.729  1.00  0.00     0.124 S 
ATOM     71  O   UNL A   1      49.814  26.303  35.139  1.00  0.00    -0.237 OA
ATOM     72  O   UNL A   1      48.352  24.425  35.806  1.00  0.00    -0.237 OA
ATOM     73  O   UNL A   1      49.263  24.526  33.517  1.00  0.00    -0.744 OA
ENDBRANCH  69  70
ENDBRANCH  48  62
BRANCH  49  74
ATOM     74  C   UNL A   1      37.054  32.630  30.250  1.00  0.00     0.058 A 
ATOM     75  C   UNL A   1      35.824  32.371  30.870  1.00  0.00     0.135 A 
ATOM     76  C   UNL A   1      37.081  33.599  29.232  1.00  0.00     0.135 A 
ATOM     77  F   UNL A   1      35.743  31.448  31.840  1.00  0.00    -0.206 F 
ATOM     78  C   UNL A   1      34.663  33.042  30.496  1.00  0.00     0.059 A 
ATOM     79  C   UNL A   1      35.941  34.304  28.861  1.00  0.00     0.059 A 
ATOM     80  F   UNL A   1      38.236  33.895  28.616  1.00  0.00    -0.206 F 
ATOM     81  C   UNL A   1      34.734  34.012  29.494  1.00  0.00     0.060 A 
BRANCH  81  82
ATOM     82  S   UNL A   1      33.238  34.926  29.061  1.00  0.00     0.124 S 
ATOM     83  O   UNL A   1      32.646  34.058  28.050  1.00  0.00    -0.237 OA
ATOM     84  O   UNL A   1      32.534  34.989  30.339  1.00  0.00    -0.237 OA
ATOM     85  O   UNL A   1      33.753  36.203  28.576  1.00  0.00    -0.744 OA
ENDBRANCH  81  82
ENDBRANCH  49  74
BRANCH  61  86
ATOM     86  C   UNL A   1      41.581  33.587  35.464  1.00  0.00     0.058 A 
ATOM     87  C   UNL A   1      42.304  34.773  35.270  1.00  0.00     0.135 A 
ATOM     88  C   UNL A   1      40.911  33.414  36.686  1.00  0.00     0.135 A 
ATOM     89  F   UNL A   1      42.968  34.980  34.123  1.00  0.00    -0.206 F 
ATOM     90  C   UNL A   1      42.380  35.744  36.262  1.00  0.00     0.059 A 
ATOM     91  C   UNL A   1      40.953  34.382  37.682  1.00  0.00     0.059 A 
ATOM     92  F   UNL A   1      40.198  32.299  36.915  1.00  0.00    -0.206 F 
ATOM     93  C   UNL A   1      41.702  35.539  37.466  1.00  0.00     0.060 A 
BRANCH  93  94
ATOM     94  S   UNL A   1      41.786  36.817  38.737  1.00  0.00     0.124 S 
ATOM     95  O   UNL A   1      42.834  37.685  38.210  1.00  0.00    -0.237 OA
ATOM     96  O   UNL A   1      40.435  37.369  38.718  1.00  0.00    -0.237 OA
ATOM     97  O   UNL A   1      42.134  36.072  39.943  1.00  0.00    -0.744 OA
ENDBRANCH  93  94
ENDBRANCH  61  86
ENDBRANCH  35  36
ENDBRANCH  28  30
ENDBRANCH  27  28
ENDBRANCH  26  27
ENDBRANCH   1  26
TORSDOF 18
ENDMDL
MODEL 3
REMARK VINA RESULT:     -10.2      2.883      9.296
REMARK SMILES C/C(=N\Nc1ccccc1C(=O)OCCOC(=O)c1ccc(-c2c3nc(c(-c4c(F)cc(S(=O)(=O)[O-])cc4F)c4ccc([nH]4)c(-c4c(F)cc(S(=O)(=O)[O-])cc4F)c4nc(c(-c5c(F)cc(S(=O)(=O)[O-])cc5F)c5ccc2[nH]5)C=C4)C=C3)cc1)c1ccc(S(C)(=O)=O)cc1
REMARK SMILES IDX 14 1 13 2 11 3 12 4 10 5 5 6 6 7 7 8 9 9 8 10 4 11 3 13 1 14
REMARK SMILES IDX 2 15 85 16 86 17 94 18 87 19 93 20 88 21 89 22 90 23 91 24
REMARK SMILES IDX 92 25 15 26 16 27 17 28 18 29 19 30 20 31 84 32 21 33 83 34
REMARK SMILES IDX 22 35 23 36 24 37 77 38 25 39 82 40 76 41 78 42 26 43 81 44
REMARK SMILES IDX 75 45 74 46 27 48 61 49 40 50 60 51 41 52 44 53 59 54 79 55
REMARK SMILES IDX 42 56 43 57 58 59 80 60 45 61 28 62 29 63 38 64 30 65 31 66
REMARK SMILES IDX 37 67 39 68 32 69 33 70 34 71 35 72 36 73 62 74 63 75 72 76
REMARK SMILES IDX 64 77 65 78 71 79 73 80 66 81 67 82 68 83 69 84 70 85 46 86
REMARK SMILES IDX 47 87 56 88 48 89 49 90 55 91 57 92 50 93 51 94 52 95 53 96
REMARK SMILES IDX 54 97
REMARK H PARENT 4 12 78 47 44 58
REMARK Flexibility Score: inf
ROOT
ATOM      1  C   UNL A   1      37.089  32.330  34.339  1.00  0.00     0.275 C 
ENDROOT
BRANCH   1   2
ATOM      2  O   UNL A   1      36.034  32.996  33.620  1.00  0.00    -0.458 OA
BRANCH   2   3
ATOM      3  C   UNL A   1      36.262  34.307  33.359  1.00  0.00     0.340 C 
ATOM      4  O   UNL A   1      37.227  34.969  33.715  1.00  0.00    -0.246 OA
BRANCH   3   5
ATOM      5  C   UNL A   1      35.181  34.888  32.543  1.00  0.00     0.085 A 
ATOM      6  C   UNL A   1      34.855  34.389  31.273  1.00  0.00     0.071 A 
ATOM      7  C   UNL A   1      33.733  34.953  30.623  1.00  0.00     0.028 A 
ATOM      8  C   UNL A   1      32.943  35.936  31.227  1.00  0.00     0.002 A 
ATOM      9  C   UNL A   1      34.395  35.893  33.136  1.00  0.00     0.018 A 
ATOM     10  C   UNL A   1      33.273  36.403  32.489  1.00  0.00     0.001 A 
BRANCH   6  11
ATOM     11  N   UNL A   1      35.421  33.255  30.645  1.00  0.00    -0.277 N 
ATOM     12  H   UNL A   1      36.387  33.105  30.762  1.00  0.00     0.190 HD
BRANCH  11  13
ATOM     13  N   UNL A   1      34.737  32.362  29.897  1.00  0.00    -0.180 NA
ATOM     14  C   UNL A   1      36.335  32.757  28.001  1.00  0.00     0.069 C 
ATOM     15  C   UNL A   1      35.142  32.103  28.680  1.00  0.00     0.065 C 
BRANCH  15  16
ATOM     16  C   UNL A   1      34.381  31.073  27.884  1.00  0.00    -0.002 A 
ATOM     17  C   UNL A   1      33.103  31.385  27.393  1.00  0.00     0.011 A 
ATOM     18  C   UNL A   1      34.918  29.806  27.619  1.00  0.00     0.011 A 
ATOM     19  C   UNL A   1      32.379  30.456  26.637  1.00  0.00     0.021 A 
ATOM     20  C   UNL A   1      34.192  28.865  26.883  1.00  0.00     0.021 A 
ATOM     21  C   UNL A   1      32.927  29.193  26.398  1.00  0.00     0.067 A 
BRANCH  21  22
ATOM     22  S   UNL A   1      32.000  28.002  25.463  1.00  0.00     0.175 S 
ATOM     23  C   UNL A   1      31.079  28.980  24.306  1.00  0.00     0.163 C 
ATOM     24  O   UNL A   1      32.950  27.201  24.725  1.00  0.00    -0.224 OA
ATOM     25  O   UNL A   1      31.032  27.391  26.361  1.00  0.00    -0.224 OA
ENDBRANCH  21  22
ENDBRANCH  15  16
ENDBRANCH  11  13
ENDBRANCH   6  11
ENDBRANCH   3   5
ENDBRANCH   2   3
ENDBRANCH   1   2
BRANCH   1  26
ATOM     26  C   UNL A   1      37.603  31.088  33.619  1.00  0.00     0.275 C 
BRANCH  26  27
ATOM     27  O   UNL A   1      37.527  31.263  32.197  1.00  0.00    -0.458 OA
BRANCH  27  28
ATOM     28  C   UNL A   1      37.060  30.188  31.531  1.00  0.00     0.338 C 
ATOM     29  O   UNL A   1      35.920  29.750  31.525  1.00  0.00    -0.246 OA
BRANCH  28  30
ATOM     30  C   UNL A   1      38.129  29.588  30.729  1.00  0.00     0.060 A 
ATOM     31  C   UNL A   1      39.130  28.874  31.379  1.00  0.00     0.016 A 
ATOM     32  C   UNL A   1      38.255  29.922  29.384  1.00  0.00     0.016 A 
ATOM     33  C   UNL A   1      40.336  28.629  30.736  1.00  0.00     0.010 A 
ATOM     34  C   UNL A   1      39.419  29.566  28.703  1.00  0.00     0.010 A 
ATOM     35  C   UNL A   1      40.495  28.972  29.389  1.00  0.00    -0.014 A 
BRANCH  35  36
ATOM     36  C   UNL A   1      41.803  28.782  28.710  1.00  0.00     0.031 A 
ATOM     37  C   UNL A   1      42.152  27.428  28.151  1.00  0.00     0.074 A 
ATOM     38  C   UNL A   1      42.668  29.807  28.595  1.00  0.00     0.049 A 
ATOM     39  N   UNL A   1      43.312  26.965  27.763  1.00  0.00    -0.248 NA
ATOM     40  C   UNL A   1      41.050  26.457  28.030  1.00  0.00     0.031 C 
ATOM     41  C   UNL A   1      42.420  31.183  29.032  1.00  0.00     0.029 A 
ATOM     42  N   UNL A   1      43.939  29.851  28.080  1.00  0.00    -0.354 N 
ATOM     43  C   UNL A   1      43.096  25.633  27.427  1.00  0.00     0.074 A 
ATOM     44  C   UNL A   1      41.692  25.362  27.647  1.00  0.00     0.031 C 
ATOM     45  C   UNL A   1      43.491  31.938  28.748  1.00  0.00     0.029 A 
ATOM     46  C   UNL A   1      44.538  31.083  28.205  1.00  0.00     0.049 A 
ATOM     47  H   UNL A   1      44.379  29.076  27.662  1.00  0.00     0.167 HD
ATOM     48  C   UNL A   1      43.996  24.721  26.986  1.00  0.00     0.037 A 
ATOM     49  C   UNL A   1      45.806  31.466  27.970  1.00  0.00     0.037 A 
ATOM     50  C   UNL A   1      45.376  25.035  26.718  1.00  0.00     0.049 A 
ATOM     51  C   UNL A   1      46.794  30.437  27.501  1.00  0.00     0.074 A 
ATOM     52  C   UNL A   1      46.379  24.199  26.262  1.00  0.00     0.029 A 
ATOM     53  N   UNL A   1      45.941  26.295  26.864  1.00  0.00    -0.354 N 
ATOM     54  N   UNL A   1      46.601  29.159  27.265  1.00  0.00    -0.248 NA
ATOM     55  C   UNL A   1      48.172  30.891  27.285  1.00  0.00     0.031 C 
ATOM     56  C   UNL A   1      47.558  24.947  26.161  1.00  0.00     0.029 A 
ATOM     57  C   UNL A   1      47.280  26.258  26.512  1.00  0.00     0.049 A 
ATOM     58  H   UNL A   1      45.461  27.097  27.172  1.00  0.00     0.167 HD
ATOM     59  C   UNL A   1      47.833  28.659  26.863  1.00  0.00     0.074 A 
ATOM     60  C   UNL A   1      48.758  29.776  26.870  1.00  0.00     0.031 C 
ATOM     61  C   UNL A   1      48.172  27.390  26.523  1.00  0.00     0.037 A 
BRANCH  48  62
ATOM     62  C   UNL A   1      43.530  23.301  26.809  1.00  0.00     0.058 A 
ATOM     63  C   UNL A   1      43.229  22.468  27.898  1.00  0.00     0.135 A 
ATOM     64  C   UNL A   1      43.363  22.772  25.518  1.00  0.00     0.135 A 
ATOM     65  F   UNL A   1      43.388  22.914  29.153  1.00  0.00    -0.206 F 
ATOM     66  C   UNL A   1      42.806  21.154  27.713  1.00  0.00     0.059 A 
ATOM     67  C   UNL A   1      42.916  21.470  25.310  1.00  0.00     0.059 A 
ATOM     68  F   UNL A   1      43.637  23.522  24.439  1.00  0.00    -0.206 F 
ATOM     69  C   UNL A   1      42.654  20.662  26.416  1.00  0.00     0.060 A 
BRANCH  69  70
ATOM     70  S   UNL A   1      42.103  18.958  26.192  1.00  0.00     0.124 S 
ATOM     71  O   UNL A   1      42.276  18.416  27.537  1.00  0.00    -0.237 OA
ATOM     72  O   UNL A   1      40.722  19.128  25.751  1.00  0.00    -0.237 OA
ATOM     73  O   UNL A   1      43.019  18.433  25.183  1.00  0.00    -0.744 OA
ENDBRANCH  69  70
ENDBRANCH  48  62
BRANCH  49  74
ATOM     74  C   UNL A   1      46.213  32.873  28.229  1.00  0.00     0.058 A 
ATOM     75  C   UNL A   1      46.722  33.259  29.476  1.00  0.00     0.135 A 
ATOM     76  C   UNL A   1      46.137  33.850  27.222  1.00  0.00     0.135 A 
ATOM     77  F   UNL A   1      46.806  32.366  30.473  1.00  0.00    -0.206 F 
ATOM     78  C   UNL A   1      47.140  34.565  29.720  1.00  0.00     0.059 A 
ATOM     79  C   UNL A   1      46.575  35.154  27.433  1.00  0.00     0.059 A 
ATOM     80  F   UNL A   1      45.669  33.529  26.007  1.00  0.00    -0.206 F 
ATOM     81  C   UNL A   1      47.067  35.504  28.689  1.00  0.00     0.060 A 
BRANCH  81  82
ATOM     82  S   UNL A   1      47.673  37.177  28.994  1.00  0.00     0.124 S 
ATOM     83  O   UNL A   1      46.493  37.977  28.686  1.00  0.00    -0.237 OA
ATOM     84  O   UNL A   1      48.054  37.116  30.402  1.00  0.00    -0.237 OA
ATOM     85  O   UNL A   1      48.787  37.306  28.057  1.00  0.00    -0.744 OA
ENDBRANCH  81  82
ENDBRANCH  49  74
BRANCH  61  86
ATOM     86  C   UNL A   1      49.592  27.160  26.098  1.00  0.00     0.058 A 
ATOM     87  C   UNL A   1      50.600  26.862  27.027  1.00  0.00     0.135 A 
ATOM     88  C   UNL A   1      49.939  27.202  24.738  1.00  0.00     0.135 A 
ATOM     89  F   UNL A   1      50.319  26.819  28.339  1.00  0.00    -0.206 F 
ATOM     90  C   UNL A   1      51.912  26.638  26.625  1.00  0.00     0.059 A 
ATOM     91  C   UNL A   1      51.239  26.957  24.311  1.00  0.00     0.059 A 
ATOM     92  F   UNL A   1      49.007  27.473  23.810  1.00  0.00    -0.206 F 
ATOM     93  C   UNL A   1      52.222  26.688  25.264  1.00  0.00     0.060 A 
BRANCH  93  94
ATOM     94  S   UNL A   1      53.922  26.370  24.750  1.00  0.00     0.124 S 
ATOM     95  O   UNL A   1      53.938  26.956  23.414  1.00  0.00    -0.237 OA
ATOM     96  O   UNL A   1      54.695  27.082  25.763  1.00  0.00    -0.237 OA
ATOM     97  O   UNL A   1      54.025  24.915  24.800  1.00  0.00    -0.744 OA
ENDBRANCH  93  94
ENDBRANCH  61  86
ENDBRANCH  35  36
ENDBRANCH  28  30
ENDBRANCH  27  28
ENDBRANCH  26  27
ENDBRANCH   1  26
TORSDOF 18
ENDMDL
