MODEL 1
REMARK VINA RESULT:     -11.6      0.000      0.000
REMARK SMILES O=C(CNC(=O)N1CC(OCCOC(=O)c2ccc(-c3c4nc(c(-c5c(F)cc(S(=O)(=O)[O-])cc5F)c5ccc([nH]5)c(-c5c(F)cc(S(=O)(=O)[O-])cc5F)c5nc(c(-c6c(F)cc(S(=O)(=O)[O-])cc6F)c6ccc3[nH]6)C=C5)C=C4)cc2)=Nc2ccccc21)N[C@H](C(=O)[O-])c1ccccc1
REMARK SMILES IDX 11 1 10 2 9 3 7 4 8 5 88 6 83 7 87 8 82 9 84 10 86 11 85 12
REMARK SMILES IDX 5 13 4 14 6 16 3 17 2 18 1 19 89 20 90 22 94 23 95 24 99 25
REMARK SMILES IDX 96 26 98 27 97 28 91 29 92 30 93 31 12 32 13 33 14 34 15 35
REMARK SMILES IDX 16 36 17 37 81 38 18 39 80 40 19 41 20 42 21 43 74 44 22 45
REMARK SMILES IDX 79 46 73 47 75 48 23 49 78 50 72 51 71 52 24 54 58 55 37 56
REMARK SMILES IDX 57 57 38 58 41 59 56 60 76 61 39 62 40 63 55 65 77 66 42 67
REMARK SMILES IDX 25 68 26 69 35 70 27 71 28 72 34 73 36 74 29 75 30 76 31 77
REMARK SMILES IDX 32 78 33 79 59 80 60 81 69 82 61 83 62 84 68 85 70 86 63 87
REMARK SMILES IDX 64 88 65 89 66 90 67 91 43 92 44 93 53 94 45 95 46 96 52 97
REMARK SMILES IDX 54 98 47 99 48 100 49 101 50 102 51 103
REMARK H PARENT 4 15 89 21 75 53 41 64
REMARK Flexibility Score: inf
ROOT
ATOM      1  C   UNL A   1      36.211  24.138  26.308  1.00  0.00     0.272 C 
ENDROOT
BRANCH   1   2
ATOM      2  O   UNL A   1      35.221  23.136  26.643  1.00  0.00    -0.476 OA
BRANCH   2   3
ATOM      3  C   UNL A   1      34.708  22.395  25.630  1.00  0.00     0.209 C 
ATOM      4  N   UNL A   1      33.379  22.637  23.575  1.00  0.00    -0.283 N 
ATOM      5  C   UNL A   1      34.485  23.179  24.355  1.00  0.00     0.224 C 
ATOM      6  C   UNL A   1      33.231  21.208  23.614  1.00  0.00     0.072 A 
ATOM      7  C   UNL A   1      33.807  20.497  24.702  1.00  0.00     0.091 A 
ATOM      8  C   UNL A   1      32.377  20.525  22.739  1.00  0.00     0.029 A 
ATOM      9  N   UNL A   1      34.484  21.129  25.758  1.00  0.00    -0.214 NA
ATOM     10  C   UNL A   1      33.511  19.142  24.889  1.00  0.00     0.030 A 
ATOM     11  C   UNL A   1      32.075  19.174  22.958  1.00  0.00     0.002 A 
ATOM     12  C   UNL A   1      32.638  18.484  24.030  1.00  0.00     0.002 A 
BRANCH   4  13
ATOM     13  C   UNL A   1      32.885  23.423  22.561  1.00  0.00     0.322 C 
ATOM     14  N   UNL A   1      31.689  24.053  22.761  1.00  0.00    -0.329 N 
ATOM     15  H   UNL A   1      31.433  24.693  22.059  1.00  0.00     0.165 HD
ATOM     16  O   UNL A   1      33.511  23.622  21.520  1.00  0.00    -0.248 OA
BRANCH  14  17
ATOM     17  C   UNL A   1      30.733  23.923  23.855  1.00  0.00     0.218 C 
BRANCH  17  18
ATOM     18  C   UNL A   1      30.425  25.226  24.613  1.00  0.00     0.240 C 
ATOM     19  O   UNL A   1      29.882  25.218  25.712  1.00  0.00    -0.273 OA
ATOM     20  N   UNL A   1      30.734  26.341  23.874  1.00  0.00    -0.342 N 
ATOM     21  H   UNL A   1      30.973  26.178  22.932  1.00  0.00     0.164 HD
BRANCH  20  22
ATOM     22  C   UNL A   1      30.757  27.754  24.308  1.00  0.00     0.158 C 
BRANCH  22  23
ATOM     23  C   UNL A   1      31.882  28.026  25.286  1.00  0.00    -0.020 A 
ATOM     24  C   UNL A   1      31.576  28.718  26.476  1.00  0.00     0.006 A 
ATOM     25  C   UNL A   1      33.211  27.652  25.068  1.00  0.00     0.006 A 
ATOM     26  C   UNL A   1      32.562  29.029  27.410  1.00  0.00     0.000 A 
ATOM     27  C   UNL A   1      34.205  27.977  25.995  1.00  0.00     0.000 A 
ATOM     28  C   UNL A   1      33.882  28.664  27.164  1.00  0.00     0.000 A 
ENDBRANCH  22  23
BRANCH  22  29
ATOM     29  C   UNL A   1      30.319  28.781  23.211  1.00  0.00     0.068 C 
ATOM     30  O   UNL A   1      29.979  29.939  23.598  1.00  0.00    -0.548 OA
ATOM     31  O   UNL A   1      30.199  28.292  22.039  1.00  0.00    -0.548 OA
ENDBRANCH  22  29
ENDBRANCH  20  22
ENDBRANCH  17  18
ENDBRANCH  14  17
ENDBRANCH   4  13
ENDBRANCH   2   3
ENDBRANCH   1   2
BRANCH   1  32
ATOM     32  C   UNL A   1      37.617  23.559  26.049  1.00  0.00     0.274 C 
BRANCH  32  33
ATOM     33  O   UNL A   1      38.654  24.551  25.821  1.00  0.00    -0.458 OA
BRANCH  33  34
ATOM     34  C   UNL A   1      39.740  24.373  26.606  1.00  0.00     0.338 C 
ATOM     35  O   UNL A   1      40.576  23.490  26.414  1.00  0.00    -0.246 OA
BRANCH  34  36
ATOM     36  C   UNL A   1      40.015  25.449  27.588  1.00  0.00     0.060 A 
ATOM     37  C   UNL A   1      39.318  25.308  28.781  1.00  0.00     0.016 A 
ATOM     38  C   UNL A   1      40.745  26.619  27.399  1.00  0.00     0.016 A 
ATOM     39  C   UNL A   1      39.297  26.270  29.772  1.00  0.00     0.010 A 
ATOM     40  C   UNL A   1      40.761  27.609  28.420  1.00  0.00     0.010 A 
ATOM     41  C   UNL A   1      40.033  27.435  29.614  1.00  0.00    -0.014 A 
BRANCH  41  42
ATOM     42  C   UNL A   1      39.955  28.374  30.766  1.00  0.00     0.031 A 
ATOM     43  C   UNL A   1      41.066  28.427  31.777  1.00  0.00     0.074 A 
ATOM     44  C   UNL A   1      39.065  29.389  30.709  1.00  0.00     0.049 A 
ATOM     45  N   UNL A   1      41.244  29.273  32.761  1.00  0.00    -0.248 NA
ATOM     46  C   UNL A   1      42.131  27.423  31.643  1.00  0.00     0.031 C 
ATOM     47  C   UNL A   1      38.065  29.559  29.654  1.00  0.00     0.029 A 
ATOM     48  N   UNL A   1      38.913  30.509  31.492  1.00  0.00    -0.354 N 
ATOM     49  C   UNL A   1      42.421  28.883  33.390  1.00  0.00     0.074 A 
ATOM     50  C   UNL A   1      42.933  27.749  32.649  1.00  0.00     0.031 C 
ATOM     51  C   UNL A   1      37.450  30.740  29.818  1.00  0.00     0.029 A 
ATOM     52  C   UNL A   1      37.955  31.383  31.029  1.00  0.00     0.049 A 
ATOM     53  H   UNL A   1      39.439  30.669  32.309  1.00  0.00     0.167 HD
ATOM     54  C   UNL A   1      42.995  29.402  34.503  1.00  0.00     0.037 A 
ATOM     55  C   UNL A   1      37.521  32.559  31.528  1.00  0.00     0.037 A 
ATOM     56  C   UNL A   1      42.474  30.530  35.238  1.00  0.00     0.049 A 
ATOM     57  C   UNL A   1      38.123  33.068  32.813  1.00  0.00     0.074 A 
ATOM     58  C   UNL A   1      42.909  31.053  36.444  1.00  0.00     0.029 A 
ATOM     59  N   UNL A   1      41.405  31.317  34.830  1.00  0.00    -0.354 N 
ATOM     60  N   UNL A   1      39.141  32.598  33.494  1.00  0.00    -0.248 NA
ATOM     61  C   UNL A   1      37.491  34.249  33.420  1.00  0.00     0.031 C 
ATOM     62  C   UNL A   1      42.074  32.124  36.789  1.00  0.00     0.029 A 
ATOM     63  C   UNL A   1      41.152  32.306  35.771  1.00  0.00     0.049 A 
ATOM     64  H   UNL A   1      40.899  31.192  33.995  1.00  0.00     0.167 HD
ATOM     65  C   UNL A   1      39.262  33.414  34.613  1.00  0.00     0.074 A 
ATOM     66  C   UNL A   1      38.245  34.439  34.494  1.00  0.00     0.031 C 
ATOM     67  C   UNL A   1      40.123  33.311  35.657  1.00  0.00     0.037 A 
BRANCH  54  68
ATOM     68  C   UNL A   1      44.180  28.667  35.068  1.00  0.00     0.058 A 
ATOM     69  C   UNL A   1      44.055  27.588  35.956  1.00  0.00     0.135 A 
ATOM     70  C   UNL A   1      45.475  29.058  34.692  1.00  0.00     0.135 A 
ATOM     71  F   UNL A   1      42.841  27.181  36.358  1.00  0.00    -0.206 F 
ATOM     72  C   UNL A   1      45.177  26.933  36.465  1.00  0.00     0.059 A 
ATOM     73  C   UNL A   1      46.607  28.405  35.168  1.00  0.00     0.059 A 
ATOM     74  F   UNL A   1      45.652  30.084  33.844  1.00  0.00    -0.206 F 
ATOM     75  C   UNL A   1      46.449  27.348  36.063  1.00  0.00     0.060 A 
BRANCH  75  76
ATOM     76  S   UNL A   1      47.901  26.472  36.689  1.00  0.00     0.124 S 
ATOM     77  O   UNL A   1      48.741  26.393  35.501  1.00  0.00    -0.237 OA
ATOM     78  O   UNL A   1      48.375  27.362  37.745  1.00  0.00    -0.237 OA
ATOM     79  O   UNL A   1      47.357  25.199  37.156  1.00  0.00    -0.744 OA
ENDBRANCH  75  76
ENDBRANCH  54  68
BRANCH  55  80
ATOM     80  C   UNL A   1      36.409  33.304  30.866  1.00  0.00     0.058 A 
ATOM     81  C   UNL A   1      36.617  34.064  29.704  1.00  0.00     0.135 A 
ATOM     82  C   UNL A   1      35.114  33.303  31.411  1.00  0.00     0.135 A 
ATOM     83  F   UNL A   1      37.838  34.125  29.152  1.00  0.00    -0.206 F 
ATOM     84  C   UNL A   1      35.592  34.806  29.118  1.00  0.00     0.059 A 
ATOM     85  C   UNL A   1      34.066  34.004  30.824  1.00  0.00     0.059 A 
ATOM     86  F   UNL A   1      34.853  32.602  32.526  1.00  0.00    -0.206 F 
ATOM     87  C   UNL A   1      34.318  34.767  29.687  1.00  0.00     0.060 A 
BRANCH  87  88
ATOM     88  S   UNL A   1      32.978  35.700  28.913  1.00  0.00     0.124 S 
ATOM     89  O   UNL A   1      32.366  34.685  28.061  1.00  0.00    -0.237 OA
ATOM     90  O   UNL A   1      32.187  36.127  30.062  1.00  0.00    -0.237 OA
ATOM     91  O   UNL A   1      33.678  36.773  28.211  1.00  0.00    -0.744 OA
ENDBRANCH  87  88
ENDBRANCH  55  80
BRANCH  67  92
ATOM     92  C   UNL A   1      39.991  34.332  36.757  1.00  0.00     0.058 A 
ATOM     93  C   UNL A   1      40.621  35.586  36.676  1.00  0.00     0.135 A 
ATOM     94  C   UNL A   1      39.230  34.059  37.905  1.00  0.00     0.135 A 
ATOM     95  F   UNL A   1      41.364  35.902  35.604  1.00  0.00    -0.206 F 
ATOM     96  C   UNL A   1      40.539  36.513  37.713  1.00  0.00     0.059 A 
ATOM     97  C   UNL A   1      39.111  34.982  38.941  1.00  0.00     0.059 A 
ATOM     98  F   UNL A   1      38.594  32.885  38.032  1.00  0.00    -0.206 F 
ATOM     99  C   UNL A   1      39.789  36.197  38.847  1.00  0.00     0.060 A 
BRANCH  99 100
ATOM    100  S   UNL A   1      39.705  37.397  40.195  1.00  0.00     0.124 S 
ATOM    101  O   UNL A   1      40.225  36.620  41.315  1.00  0.00    -0.237 OA
ATOM    102  O   UNL A   1      40.569  38.474  39.717  1.00  0.00    -0.237 OA
ATOM    103  O   UNL A   1      38.285  37.730  40.268  1.00  0.00    -0.744 OA
ENDBRANCH  99 100
ENDBRANCH  67  92
ENDBRANCH  41  42
ENDBRANCH  34  36
ENDBRANCH  33  34
ENDBRANCH  32  33
ENDBRANCH   1  32
TORSDOF 19
ENDMDL
MODEL 2
REMARK VINA RESULT:     -11.5      1.382      8.134
REMARK SMILES O=C(CNC(=O)N1CC(OCCOC(=O)c2ccc(-c3c4nc(c(-c5c(F)cc(S(=O)(=O)[O-])cc5F)c5ccc([nH]5)c(-c5c(F)cc(S(=O)(=O)[O-])cc5F)c5nc(c(-c6c(F)cc(S(=O)(=O)[O-])cc6F)c6ccc3[nH]6)C=C5)C=C4)cc2)=Nc2ccccc21)N[C@H](C(=O)[O-])c1ccccc1
REMARK SMILES IDX 11 1 10 2 9 3 7 4 8 5 88 6 83 7 87 8 82 9 84 10 86 11 85 12
REMARK SMILES IDX 5 13 4 14 6 16 3 17 2 18 1 19 89 20 90 22 94 23 95 24 99 25
REMARK SMILES IDX 96 26 98 27 97 28 91 29 92 30 93 31 12 32 13 33 14 34 15 35
REMARK SMILES IDX 16 36 17 37 81 38 18 39 80 40 19 41 20 42 21 43 74 44 22 45
REMARK SMILES IDX 79 46 73 47 75 48 23 49 78 50 72 51 71 52 24 54 58 55 37 56
REMARK SMILES IDX 57 57 38 58 41 59 56 60 76 61 39 62 40 63 55 65 77 66 42 67
REMARK SMILES IDX 25 68 26 69 35 70 27 71 28 72 34 73 36 74 29 75 30 76 31 77
REMARK SMILES IDX 32 78 33 79 59 80 60 81 69 82 61 83 62 84 68 85 70 86 63 87
REMARK SMILES IDX 64 88 65 89 66 90 67 91 43 92 44 93 53 94 45 95 46 96 52 97
REMARK SMILES IDX 54 98 47 99 48 100 49 101 50 102 51 103
REMARK H PARENT 4 15 89 21 75 53 41 64
REMARK Flexibility Score: inf
ROOT
ATOM      1  C   UNL A   1      37.650  22.713  25.145  1.00  0.00     0.272 C 
ENDROOT
BRANCH   1   2
ATOM      2  O   UNL A   1      36.811  23.828  24.758  1.00  0.00    -0.476 OA
BRANCH   2   3
ATOM      3  C   UNL A   1      35.468  23.673  24.866  1.00  0.00     0.209 C 
ATOM      4  N   UNL A   1      33.478  23.270  23.480  1.00  0.00    -0.283 N 
ATOM      5  C   UNL A   1      34.856  22.870  23.740  1.00  0.00     0.224 C 
ATOM      6  C   UNL A   1      32.712  23.650  24.634  1.00  0.00     0.072 A 
ATOM      7  C   UNL A   1      33.407  24.057  25.805  1.00  0.00     0.091 A 
ATOM      8  C   UNL A   1      31.323  23.826  24.580  1.00  0.00     0.029 A 
ATOM      9  N   UNL A   1      34.809  24.139  25.875  1.00  0.00    -0.214 NA
ATOM     10  C   UNL A   1      32.708  24.632  26.873  1.00  0.00     0.030 A 
ATOM     11  C   UNL A   1      30.644  24.424  25.651  1.00  0.00     0.002 A 
ATOM     12  C   UNL A   1      31.334  24.827  26.793  1.00  0.00     0.002 A 
BRANCH   4  13
ATOM     13  C   UNL A   1      32.913  22.836  22.303  1.00  0.00     0.322 C 
ATOM     14  N   UNL A   1      32.848  23.716  21.261  1.00  0.00    -0.329 N 
ATOM     15  H   UNL A   1      32.544  23.329  20.408  1.00  0.00     0.165 HD
ATOM     16  O   UNL A   1      32.528  21.677  22.147  1.00  0.00    -0.248 OA
BRANCH  14  17
ATOM     17  C   UNL A   1      33.160  25.141  21.214  1.00  0.00     0.218 C 
BRANCH  17  18
ATOM     18  C   UNL A   1      32.020  26.075  21.655  1.00  0.00     0.240 C 
ATOM     19  O   UNL A   1      31.002  26.208  20.985  1.00  0.00    -0.273 OA
ATOM     20  N   UNL A   1      32.337  26.778  22.792  1.00  0.00    -0.342 N 
ATOM     21  H   UNL A   1      33.272  26.707  23.093  1.00  0.00     0.164 HD
BRANCH  20  22
ATOM     22  C   UNL A   1      31.456  27.626  23.622  1.00  0.00     0.158 C 
BRANCH  22  23
ATOM     23  C   UNL A   1      32.098  27.976  24.950  1.00  0.00    -0.020 A 
ATOM     24  C   UNL A   1      33.488  27.784  25.089  1.00  0.00     0.006 A 
ATOM     25  C   UNL A   1      31.389  28.457  26.054  1.00  0.00     0.006 A 
ATOM     26  C   UNL A   1      34.143  28.056  26.287  1.00  0.00     0.000 A 
ATOM     27  C   UNL A   1      32.041  28.715  27.263  1.00  0.00     0.000 A 
ATOM     28  C   UNL A   1      33.416  28.515  27.380  1.00  0.00     0.000 A 
ENDBRANCH  22  23
BRANCH  22  29
ATOM     29  C   UNL A   1      30.571  28.634  22.815  1.00  0.00     0.068 C 
ATOM     30  O   UNL A   1      31.168  29.493  22.100  1.00  0.00    -0.548 OA
ATOM     31  O   UNL A   1      29.326  28.586  23.086  1.00  0.00    -0.548 OA
ENDBRANCH  22  29
ENDBRANCH  20  22
ENDBRANCH  17  18
ENDBRANCH  14  17
ENDBRANCH   4  13
ENDBRANCH   2   3
ENDBRANCH   1   2
BRANCH   1  32
ATOM     32  C   UNL A   1      38.547  23.006  26.365  1.00  0.00     0.274 C 
BRANCH  32  33
ATOM     33  O   UNL A   1      38.982  24.387  26.486  1.00  0.00    -0.458 OA
BRANCH  33  34
ATOM     34  C   UNL A   1      40.306  24.507  26.730  1.00  0.00     0.338 C 
ATOM     35  O   UNL A   1      41.171  23.940  26.062  1.00  0.00    -0.246 OA
BRANCH  34  36
ATOM     36  C   UNL A   1      40.695  25.552  27.707  1.00  0.00     0.060 A 
ATOM     37  C   UNL A   1      39.735  25.791  28.681  1.00  0.00     0.016 A 
ATOM     38  C   UNL A   1      41.802  26.395  27.668  1.00  0.00     0.016 A 
ATOM     39  C   UNL A   1      39.813  26.825  29.594  1.00  0.00     0.010 A 
ATOM     40  C   UNL A   1      41.916  27.448  28.618  1.00  0.00     0.010 A 
ATOM     41  C   UNL A   1      40.916  27.665  29.587  1.00  0.00    -0.014 A 
BRANCH  41  42
ATOM     42  C   UNL A   1      40.897  28.716  30.641  1.00  0.00     0.031 A 
ATOM     43  C   UNL A   1      39.799  29.743  30.667  1.00  0.00     0.074 A 
ATOM     44  C   UNL A   1      41.660  28.537  31.741  1.00  0.00     0.049 A 
ATOM     45  N   UNL A   1      39.534  30.642  31.582  1.00  0.00    -0.248 NA
ATOM     46  C   UNL A   1      38.858  29.734  29.538  1.00  0.00     0.031 C 
ATOM     47  C   UNL A   1      42.620  27.447  31.918  1.00  0.00     0.029 A 
ATOM     48  N   UNL A   1      41.688  29.201  32.945  1.00  0.00    -0.354 N 
ATOM     49  C   UNL A   1      38.419  31.334  31.125  1.00  0.00     0.074 A 
ATOM     50  C   UNL A   1      38.035  30.721  29.869  1.00  0.00     0.031 C 
ATOM     51  C   UNL A   1      43.094  27.479  33.173  1.00  0.00     0.029 A 
ATOM     52  C   UNL A   1      42.531  28.631  33.873  1.00  0.00     0.049 A 
ATOM     53  H   UNL A   1      41.157  30.010  33.125  1.00  0.00     0.167 HD
ATOM     54  C   UNL A   1      37.802  32.404  31.683  1.00  0.00     0.037 A 
ATOM     55  C   UNL A   1      42.829  29.001  35.135  1.00  0.00     0.037 A 
ATOM     56  C   UNL A   1      38.195  33.010  32.933  1.00  0.00     0.049 A 
ATOM     57  C   UNL A   1      42.188  30.243  35.699  1.00  0.00     0.074 A 
ATOM     58  C   UNL A   1      37.716  34.168  33.521  1.00  0.00     0.029 A 
ATOM     59  N   UNL A   1      39.158  32.501  33.793  1.00  0.00    -0.354 N 
ATOM     60  N   UNL A   1      41.240  30.991  35.186  1.00  0.00    -0.248 NA
ATOM     61  C   UNL A   1      42.683  30.715  37.001  1.00  0.00     0.031 C 
ATOM     62  C   UNL A   1      38.423  34.385  34.711  1.00  0.00     0.029 A 
ATOM     63  C   UNL A   1      39.304  33.333  34.895  1.00  0.00     0.049 A 
ATOM     64  H   UNL A   1      39.665  31.671  33.644  1.00  0.00     0.167 HD
ATOM     65  C   UNL A   1      41.037  32.026  36.091  1.00  0.00     0.074 A 
ATOM     66  C   UNL A   1      41.925  31.781  37.210  1.00  0.00     0.031 C 
ATOM     67  C   UNL A   1      40.207  33.095  35.995  1.00  0.00     0.037 A 
BRANCH  54  68
ATOM     68  C   UNL A   1      36.718  33.067  30.877  1.00  0.00     0.058 A 
ATOM     69  C   UNL A   1      36.986  33.968  29.836  1.00  0.00     0.135 A 
ATOM     70  C   UNL A   1      35.374  32.773  31.158  1.00  0.00     0.135 A 
ATOM     71  F   UNL A   1      38.252  34.294  29.533  1.00  0.00    -0.206 F 
ATOM     72  C   UNL A   1      35.955  34.569  29.112  1.00  0.00     0.059 A 
ATOM     73  C   UNL A   1      34.331  33.342  30.435  1.00  0.00     0.059 A 
ATOM     74  F   UNL A   1      35.061  31.915  32.143  1.00  0.00    -0.206 F 
ATOM     75  C   UNL A   1      34.631  34.248  29.419  1.00  0.00     0.060 A 
BRANCH  75  76
ATOM     76  S   UNL A   1      33.297  34.994  28.453  1.00  0.00     0.124 S 
ATOM     77  O   UNL A   1      32.553  35.719  29.477  1.00  0.00    -0.237 OA
ATOM     78  O   UNL A   1      34.026  35.817  27.493  1.00  0.00    -0.237 OA
ATOM     79  O   UNL A   1      32.607  33.842  27.877  1.00  0.00    -0.744 OA
ENDBRANCH  75  76
ENDBRANCH  54  68
BRANCH  55  80
ATOM     80  C   UNL A   1      43.838  28.242  35.933  1.00  0.00     0.058 A 
ATOM     81  C   UNL A   1      45.215  28.486  35.809  1.00  0.00     0.135 A 
ATOM     82  C   UNL A   1      43.443  27.219  36.813  1.00  0.00     0.135 A 
ATOM     83  F   UNL A   1      45.655  29.432  34.965  1.00  0.00    -0.206 F 
ATOM     84  C   UNL A   1      46.160  27.739  36.511  1.00  0.00     0.059 A 
ATOM     85  C   UNL A   1      44.364  26.485  37.552  1.00  0.00     0.059 A 
ATOM     86  F   UNL A   1      42.141  26.931  36.969  1.00  0.00    -0.206 F 
ATOM     87  C   UNL A   1      45.723  26.740  37.382  1.00  0.00     0.060 A 
BRANCH  87  88
ATOM     88  S   UNL A   1      46.942  25.791  38.319  1.00  0.00     0.124 S 
ATOM     89  O   UNL A   1      46.263  25.623  39.600  1.00  0.00    -0.237 OA
ATOM     90  O   UNL A   1      47.089  24.584  37.513  1.00  0.00    -0.237 OA
ATOM     91  O   UNL A   1      48.109  26.669  38.336  1.00  0.00    -0.744 OA
ENDBRANCH  87  88
ENDBRANCH  55  80
BRANCH  67  92
ATOM     92  C   UNL A   1      40.231  34.085  37.131  1.00  0.00     0.058 A 
ATOM     93  C   UNL A   1      39.383  33.948  38.244  1.00  0.00     0.135 A 
ATOM     94  C   UNL A   1      41.106  35.182  37.111  1.00  0.00     0.135 A 
ATOM     95  F   UNL A   1      38.523  32.920  38.317  1.00  0.00    -0.206 F 
ATOM     96  C   UNL A   1      39.370  34.888  39.272  1.00  0.00     0.059 A 
ATOM     97  C   UNL A   1      41.130  36.119  38.142  1.00  0.00     0.059 A 
ATOM     98  F   UNL A   1      41.949  35.357  36.082  1.00  0.00    -0.206 F 
ATOM     99  C   UNL A   1      40.242  35.976  39.207  1.00  0.00     0.060 A 
BRANCH  99 100
ATOM    100  S   UNL A   1      40.204  37.200  40.535  1.00  0.00     0.124 S 
ATOM    101  O   UNL A   1      41.494  36.975  41.181  1.00  0.00    -0.237 OA
ATOM    102  O   UNL A   1      40.075  38.459  39.804  1.00  0.00    -0.237 OA
ATOM    103  O   UNL A   1      39.035  36.818  41.320  1.00  0.00    -0.744 OA
ENDBRANCH  99 100
ENDBRANCH  67  92
ENDBRANCH  41  42
ENDBRANCH  34  36
ENDBRANCH  33  34
ENDBRANCH  32  33
ENDBRANCH   1  32
TORSDOF 19
ENDMDL
MODEL 3
REMARK VINA RESULT:     -11.5      2.017      8.773
REMARK SMILES O=C(CNC(=O)N1CC(OCCOC(=O)c2ccc(-c3c4nc(c(-c5c(F)cc(S(=O)(=O)[O-])cc5F)c5ccc([nH]5)c(-c5c(F)cc(S(=O)(=O)[O-])cc5F)c5nc(c(-c6c(F)cc(S(=O)(=O)[O-])cc6F)c6ccc3[nH]6)C=C5)C=C4)cc2)=Nc2ccccc21)N[C@H](C(=O)[O-])c1ccccc1
REMARK SMILES IDX 11 1 10 2 9 3 7 4 8 5 88 6 83 7 87 8 82 9 84 10 86 11 85 12
REMARK SMILES IDX 5 13 4 14 6 16 3 17 2 18 1 19 89 20 90 22 94 23 95 24 99 25
REMARK SMILES IDX 96 26 98 27 97 28 91 29 92 30 93 31 12 32 13 33 14 34 15 35
REMARK SMILES IDX 16 36 17 37 81 38 18 39 80 40 19 41 20 42 21 43 74 44 22 45
REMARK SMILES IDX 79 46 73 47 75 48 23 49 78 50 72 51 71 52 24 54 58 55 37 56
REMARK SMILES IDX 57 57 38 58 41 59 56 60 76 61 39 62 40 63 55 65 77 66 42 67
REMARK SMILES IDX 25 68 26 69 35 70 27 71 28 72 34 73 36 74 29 75 30 76 31 77
REMARK SMILES IDX 32 78 33 79 59 80 60 81 69 82 61 83 62 84 68 85 70 86 63 87
REMARK SMILES IDX 64 88 65 89 66 90 67 91 43 92 44 93 53 94 45 95 46 96 52 97
REMARK SMILES IDX 54 98 47 99 48 100 49 101 50 102 51 103
REMARK H PARENT 4 15 89 21 75 53 41 64
REMARK Flexibility Score: inf
ROOT
ATOM      1  C   UNL A   1      36.283  22.958  24.129  1.00  0.00     0.272 C 
ENDROOT
BRANCH   1   2
ATOM      2  O   UNL A   1      35.241  23.482  24.987  1.00  0.00    -0.476 OA
BRANCH   2   3
ATOM      3  C   UNL A   1      34.463  24.478  24.495  1.00  0.00     0.209 C 
ATOM      4  N   UNL A   1      32.727  26.069  25.206  1.00  0.00    -0.283 N 
ATOM      5  C   UNL A   1      34.016  25.474  25.542  1.00  0.00     0.224 C 
ATOM      6  C   UNL A   1      32.492  26.293  23.807  1.00  0.00     0.072 A 
ATOM      7  C   UNL A   1      33.246  25.543  22.864  1.00  0.00     0.091 A 
ATOM      8  C   UNL A   1      31.418  27.067  23.348  1.00  0.00     0.029 A 
ATOM      9  N   UNL A   1      34.185  24.566  23.237  1.00  0.00    -0.214 NA
ATOM     10  C   UNL A   1      32.904  25.576  21.507  1.00  0.00     0.030 A 
ATOM     11  C   UNL A   1      31.078  27.069  21.988  1.00  0.00     0.002 A 
ATOM     12  C   UNL A   1      31.818  26.324  21.070  1.00  0.00     0.002 A 
BRANCH   4  13
ATOM     13  C   UNL A   1      32.076  26.754  26.205  1.00  0.00     0.322 C 
ATOM     14  N   UNL A   1      30.880  26.262  26.644  1.00  0.00    -0.329 N 
ATOM     15  H   UNL A   1      30.508  26.717  27.435  1.00  0.00     0.165 HD
ATOM     16  O   UNL A   1      32.563  27.746  26.747  1.00  0.00    -0.248 OA
BRANCH  14  17
ATOM     17  C   UNL A   1      30.067  25.167  26.125  1.00  0.00     0.218 C 
BRANCH  17  18
ATOM     18  C   UNL A   1      30.433  23.771  26.657  1.00  0.00     0.240 C 
ATOM     19  O   UNL A   1      29.797  23.241  27.563  1.00  0.00    -0.273 OA
ATOM     20  N   UNL A   1      31.574  23.277  26.075  1.00  0.00    -0.342 N 
ATOM     21  H   UNL A   1      32.078  23.911  25.515  1.00  0.00     0.164 HD
BRANCH  20  22
ATOM     22  C   UNL A   1      32.143  21.917  26.179  1.00  0.00     0.158 C 
BRANCH  22  23
ATOM     23  C   UNL A   1      32.183  21.217  24.836  1.00  0.00    -0.020 A 
ATOM     24  C   UNL A   1      31.910  21.978  23.680  1.00  0.00     0.006 A 
ATOM     25  C   UNL A   1      32.451  19.854  24.676  1.00  0.00     0.006 A 
ATOM     26  C   UNL A   1      31.901  21.398  22.414  1.00  0.00     0.000 A 
ATOM     27  C   UNL A   1      32.425  19.267  23.408  1.00  0.00     0.000 A 
ATOM     28  C   UNL A   1      32.151  20.037  22.279  1.00  0.00     0.000 A 
ENDBRANCH  22  23
BRANCH  22  29
ATOM     29  C   UNL A   1      33.274  21.763  27.251  1.00  0.00     0.068 C 
ATOM     30  O   UNL A   1      34.300  21.094  26.925  1.00  0.00    -0.548 OA
ATOM     31  O   UNL A   1      32.975  22.201  28.410  1.00  0.00    -0.548 OA
ENDBRANCH  22  29
ENDBRANCH  20  22
ENDBRANCH  17  18
ENDBRANCH  14  17
ENDBRANCH   4  13
ENDBRANCH   2   3
ENDBRANCH   1   2
BRANCH   1  32
ATOM     32  C   UNL A   1      37.707  23.357  24.567  1.00  0.00     0.274 C 
BRANCH  32  33
ATOM     33  O   UNL A   1      37.787  24.004  25.866  1.00  0.00    -0.458 OA
BRANCH  33  34
ATOM     34  C   UNL A   1      38.956  23.771  26.503  1.00  0.00     0.338 C 
ATOM     35  O   UNL A   1      39.564  22.702  26.432  1.00  0.00    -0.246 OA
BRANCH  34  36
ATOM     36  C   UNL A   1      39.611  24.953  27.114  1.00  0.00     0.060 A 
ATOM     37  C   UNL A   1      39.261  25.162  28.440  1.00  0.00     0.016 A 
ATOM     38  C   UNL A   1      40.385  25.926  26.487  1.00  0.00     0.016 A 
ATOM     39  C   UNL A   1      39.622  26.285  29.159  1.00  0.00     0.010 A 
ATOM     40  C   UNL A   1      40.792  27.076  27.218  1.00  0.00     0.010 A 
ATOM     41  C   UNL A   1      40.409  27.258  28.562  1.00  0.00    -0.014 A 
BRANCH  41  42
ATOM     42  C   UNL A   1      40.759  28.399  29.452  1.00  0.00     0.031 A 
ATOM     43  C   UNL A   1      39.755  29.486  29.719  1.00  0.00     0.074 A 
ATOM     44  C   UNL A   1      41.831  28.276  30.264  1.00  0.00     0.049 A 
ATOM     45  N   UNL A   1      39.823  30.478  30.572  1.00  0.00    -0.248 NA
ATOM     46  C   UNL A   1      38.500  29.429  28.957  1.00  0.00     0.031 C 
ATOM     47  C   UNL A   1      42.769  27.153  30.238  1.00  0.00     0.029 A 
ATOM     48  N   UNL A   1      42.264  29.044  31.319  1.00  0.00    -0.354 N 
ATOM     49  C   UNL A   1      38.638  31.188  30.424  1.00  0.00     0.074 A 
ATOM     50  C   UNL A   1      37.853  30.488  29.428  1.00  0.00     0.031 C 
ATOM     51  C   UNL A   1      43.624  27.271  31.265  1.00  0.00     0.029 A 
ATOM     52  C   UNL A   1      43.347  28.512  31.984  1.00  0.00     0.049 A 
ATOM     53  H   UNL A   1      41.840  29.895  31.574  1.00  0.00     0.167 HD
ATOM     54  C   UNL A   1      38.261  32.338  31.036  1.00  0.00     0.037 A 
ATOM     55  C   UNL A   1      44.046  28.977  33.039  1.00  0.00     0.037 A 
ATOM     56  C   UNL A   1      39.053  33.032  32.025  1.00  0.00     0.049 A 
ATOM     57  C   UNL A   1      43.653  30.300  33.646  1.00  0.00     0.074 A 
ATOM     58  C   UNL A   1      38.819  34.264  32.611  1.00  0.00     0.029 A 
ATOM     59  N   UNL A   1      40.229  32.548  32.581  1.00  0.00    -0.354 N 
ATOM     60  N   UNL A   1      42.609  31.052  33.386  1.00  0.00    -0.248 NA
ATOM     61  C   UNL A   1      44.555  30.859  34.664  1.00  0.00     0.031 C 
ATOM     62  C   UNL A   1      39.877  34.547  33.484  1.00  0.00     0.029 A 
ATOM     63  C   UNL A   1      40.744  33.466  33.485  1.00  0.00     0.049 A 
ATOM     64  H   UNL A   1      40.639  31.679  32.365  1.00  0.00     0.167 HD
ATOM     65  C   UNL A   1      42.736  32.175  34.196  1.00  0.00     0.074 A 
ATOM     66  C   UNL A   1      43.932  31.982  34.992  1.00  0.00     0.031 C 
ATOM     67  C   UNL A   1      41.947  33.277  34.259  1.00  0.00     0.037 A 
BRANCH  54  68
ATOM     68  C   UNL A   1      36.993  32.987  30.553  1.00  0.00     0.058 A 
ATOM     69  C   UNL A   1      35.757  32.817  31.196  1.00  0.00     0.135 A 
ATOM     70  C   UNL A   1      37.031  33.812  29.417  1.00  0.00     0.135 A 
ATOM     71  F   UNL A   1      35.661  32.029  32.278  1.00  0.00    -0.206 F 
ATOM     72  C   UNL A   1      34.599  33.430  30.717  1.00  0.00     0.059 A 
ATOM     73  C   UNL A   1      35.894  34.452  28.936  1.00  0.00     0.059 A 
ATOM     74  F   UNL A   1      38.188  34.011  28.765  1.00  0.00    -0.206 F 
ATOM     75  C   UNL A   1      34.678  34.247  29.587  1.00  0.00     0.060 A 
BRANCH  75  76
ATOM     76  S   UNL A   1      33.186  35.076  28.991  1.00  0.00     0.124 S 
ATOM     77  O   UNL A   1      33.734  36.279  28.377  1.00  0.00    -0.237 OA
ATOM     78  O   UNL A   1      32.624  34.091  28.072  1.00  0.00    -0.237 OA
ATOM     79  O   UNL A   1      32.409  35.295  30.209  1.00  0.00    -0.744 OA
ENDBRANCH  75  76
ENDBRANCH  54  68
BRANCH  55  80
ATOM     80  C   UNL A   1      45.239  28.236  33.548  1.00  0.00     0.058 A 
ATOM     81  C   UNL A   1      46.520  28.441  33.012  1.00  0.00     0.135 A 
ATOM     82  C   UNL A   1      45.112  27.271  34.562  1.00  0.00     0.135 A 
ATOM     83  F   UNL A   1      46.701  29.331  32.025  1.00  0.00    -0.206 F 
ATOM     84  C   UNL A   1      47.624  27.709  33.448  1.00  0.00     0.059 A 
ATOM     85  C   UNL A   1      46.204  26.555  35.039  1.00  0.00     0.059 A 
ATOM     86  F   UNL A   1      43.911  27.023  35.109  1.00  0.00    -0.206 F 
ATOM     87  C   UNL A   1      47.454  26.767  34.464  1.00  0.00     0.060 A 
BRANCH  87  88
ATOM     88  S   UNL A   1      48.888  25.839  35.056  1.00  0.00     0.124 S 
ATOM     89  O   UNL A   1      49.983  26.523  34.375  1.00  0.00    -0.237 OA
ATOM     90  O   UNL A   1      48.815  26.035  36.500  1.00  0.00    -0.237 OA
ATOM     91  O   UNL A   1      48.616  24.478  34.601  1.00  0.00    -0.744 OA
ENDBRANCH  87  88
ENDBRANCH  55  80
BRANCH  67  92
ATOM     92  C   UNL A   1      42.362  34.363  35.218  1.00  0.00     0.058 A 
ATOM     93  C   UNL A   1      43.185  35.428  34.811  1.00  0.00     0.135 A 
ATOM     94  C   UNL A   1      41.938  34.344  36.556  1.00  0.00     0.135 A 
ATOM     95  F   UNL A   1      43.625  35.498  33.544  1.00  0.00    -0.206 F 
ATOM     96  C   UNL A   1      43.609  36.407  35.707  1.00  0.00     0.059 A 
ATOM     97  C   UNL A   1      42.326  35.328  37.462  1.00  0.00     0.059 A 
ATOM     98  F   UNL A   1      41.139  33.360  36.998  1.00  0.00    -0.206 F 
ATOM     99  C   UNL A   1      43.181  36.343  37.033  1.00  0.00     0.060 A 
BRANCH  99 100
ATOM    100  S   UNL A   1      43.751  37.606  38.193  1.00  0.00     0.124 S 
ATOM    101  O   UNL A   1      44.152  38.678  37.288  1.00  0.00    -0.237 OA
ATOM    102  O   UNL A   1      42.557  37.867  38.992  1.00  0.00    -0.237 OA
ATOM    103  O   UNL A   1      44.842  36.947  38.906  1.00  0.00    -0.744 OA
ENDBRANCH  99 100
ENDBRANCH  67  92
ENDBRANCH  41  42
ENDBRANCH  34  36
ENDBRANCH  33  34
ENDBRANCH  32  33
ENDBRANCH   1  32
TORSDOF 19
ENDMDL
