MODEL 1
REMARK VINA RESULT:     -11.6      0.000      0.000
REMARK SMILES Cc1cc(O[C@@H]2C[C@H](C)C[C@H](C)C2)cc(C(=O)OCCOC(=O)c2ccc(-c3c4nc(c(-c5c(F)cc(S(=O)(=O)[O-])cc5F)c5ccc([nH]5)c(-c5c(F)cc(S(=O)(=O)[O-])cc5F)c5nc(c(-c6c(F)cc(S(=O)(=O)[O-])cc6F)c6ccc3[nH]6)C=C5)C=C4)cc2)c1N
REMARK SMILES IDX 20 1 19 2 18 3 16 4 17 5 15 6 1 7 2 8 3 9 90 10 4 11 14 12
REMARK SMILES IDX 91 13 5 16 6 17 13 18 7 19 11 20 8 21 12 22 10 23 9 24 21 25
REMARK SMILES IDX 22 26 23 27 24 28 25 29 89 30 26 31 88 32 27 33 28 34 29 35
REMARK SMILES IDX 82 36 30 37 87 38 81 39 83 40 31 41 86 42 80 43 79 44 32 46
REMARK SMILES IDX 66 47 45 48 65 49 46 50 49 51 64 52 84 53 47 54 48 55 63 57
REMARK SMILES IDX 85 58 50 59 33 60 34 61 43 62 35 63 36 64 42 65 44 66 37 67
REMARK SMILES IDX 38 68 39 69 40 70 41 71 67 72 68 73 77 74 69 75 70 76 76 77
REMARK SMILES IDX 78 78 71 79 72 80 73 81 74 82 75 83 51 84 52 85 61 86 53 87
REMARK SMILES IDX 54 88 60 89 62 90 55 91 56 92 57 93 58 94 59 95
REMARK H PARENT 91 14 91 15 83 45 49 56
REMARK Flexibility Score: inf
ROOT
ATOM      1  C   UNL A   1      34.510  32.095  28.019  1.00  0.00     0.275 C 
ENDROOT
BRANCH   1   2
ATOM      2  C   UNL A   1      33.387  31.129  27.623  1.00  0.00     0.275 C 
BRANCH   2   3
ATOM      3  O   UNL A   1      33.630  30.460  26.364  1.00  0.00    -0.458 OA
BRANCH   3   4
ATOM      4  C   UNL A   1      33.792  29.118  26.486  1.00  0.00     0.340 C 
ATOM      5  O   UNL A   1      34.567  28.574  27.251  1.00  0.00    -0.246 OA
BRANCH   4   6
ATOM      6  C   UNL A   1      32.921  28.316  25.597  1.00  0.00     0.086 A 
ATOM      7  C   UNL A   1      30.873  29.327  22.564  1.00  0.00     0.047 C 
ATOM      8  C   UNL A   1      31.329  28.656  23.833  1.00  0.00    -0.024 A 
ATOM      9  C   UNL A   1      30.602  27.586  24.361  1.00  0.00     0.052 A 
ATOM     10  C   UNL A   1      32.598  28.889  24.361  1.00  0.00     0.049 A 
ATOM     11  C   UNL A   1      31.313  26.638  25.085  1.00  0.00     0.120 A 
ATOM     12  C   UNL A   1      32.347  27.086  25.913  1.00  0.00     0.064 A 
BRANCH  10  13
ATOM     13  N   UNL A   1      33.617  29.327  23.523  1.00  0.00    -0.398 N 
ATOM     14  H   UNL A   1      34.534  29.421  23.871  1.00  0.00     0.156 HD
ATOM     15  H   UNL A   1      33.423  29.544  22.583  1.00  0.00     0.156 HD
ENDBRANCH  10  13
BRANCH  11  16
ATOM     16  O   UNL A   1      31.206  25.283  24.848  1.00  0.00    -0.490 OA
BRANCH  16  17
ATOM     17  C   UNL A   1      31.509  24.761  23.503  1.00  0.00     0.173 C 
ATOM     18  C   UNL A   1      32.851  25.083  22.850  1.00  0.00     0.048 C 
ATOM     19  C   UNL A   1      31.364  23.196  23.462  1.00  0.00     0.048 C 
ATOM     20  C   UNL A   1      34.030  24.317  23.455  1.00  0.00    -0.010 C 
ATOM     21  C   UNL A   1      32.595  22.301  22.986  1.00  0.00    -0.010 C 
ATOM     22  C   UNL A   1      34.073  24.056  24.966  1.00  0.00     0.008 C 
ATOM     23  C   UNL A   1      33.963  22.985  22.748  1.00  0.00     0.007 C 
ATOM     24  C   UNL A   1      32.798  21.090  23.911  1.00  0.00     0.008 C 
ENDBRANCH  16  17
ENDBRANCH  11  16
ENDBRANCH   4   6
ENDBRANCH   3   4
ENDBRANCH   2   3
ENDBRANCH   1   2
BRANCH   1  25
ATOM     25  O   UNL A   1      35.824  31.510  27.900  1.00  0.00    -0.458 OA
BRANCH  25  26
ATOM     26  C   UNL A   1      36.329  31.025  29.053  1.00  0.00     0.338 C 
ATOM     27  O   UNL A   1      35.895  31.216  30.184  1.00  0.00    -0.246 OA
BRANCH  26  28
ATOM     28  C   UNL A   1      37.453  30.100  28.835  1.00  0.00     0.060 A 
ATOM     29  C   UNL A   1      38.257  29.829  29.932  1.00  0.00     0.016 A 
ATOM     30  C   UNL A   1      37.927  29.837  27.550  1.00  0.00     0.016 A 
ATOM     31  C   UNL A   1      39.601  29.525  29.733  1.00  0.00     0.010 A 
ATOM     32  C   UNL A   1      39.227  29.329  27.375  1.00  0.00     0.010 A 
ATOM     33  C   UNL A   1      40.112  29.223  28.461  1.00  0.00    -0.014 A 
BRANCH  33  34
ATOM     34  C   UNL A   1      41.547  28.810  28.302  1.00  0.00     0.031 A 
ATOM     35  C   UNL A   1      42.679  29.810  28.429  1.00  0.00     0.074 A 
ATOM     36  C   UNL A   1      41.854  27.514  28.061  1.00  0.00     0.049 A 
ATOM     37  N   UNL A   1      43.942  29.676  28.101  1.00  0.00    -0.248 NA
ATOM     38  C   UNL A   1      42.354  31.133  28.985  1.00  0.00     0.031 C 
ATOM     39  C   UNL A   1      40.887  26.415  27.956  1.00  0.00     0.029 A 
ATOM     40  N   UNL A   1      43.064  26.888  27.872  1.00  0.00    -0.354 N 
ATOM     41  C   UNL A   1      44.543  30.910  28.343  1.00  0.00     0.074 A 
ATOM     42  C   UNL A   1      43.506  31.781  28.852  1.00  0.00     0.031 C 
ATOM     43  C   UNL A   1      41.536  25.257  27.801  1.00  0.00     0.029 A 
ATOM     44  C   UNL A   1      42.952  25.537  27.627  1.00  0.00     0.049 A 
ATOM     45  H   UNL A   1      43.928  27.359  27.909  1.00  0.00     0.167 HD
ATOM     46  C   UNL A   1      45.834  31.278  28.149  1.00  0.00     0.037 A 
ATOM     47  C   UNL A   1      43.853  24.624  27.220  1.00  0.00     0.037 A 
ATOM     48  C   UNL A   1      46.872  30.380  27.698  1.00  0.00     0.049 A 
ATOM     49  C   UNL A   1      45.262  25.066  26.959  1.00  0.00     0.074 A 
ATOM     50  C   UNL A   1      48.211  30.654  27.473  1.00  0.00     0.029 A 
ATOM     51  N   UNL A   1      46.694  29.032  27.423  1.00  0.00    -0.354 N 
ATOM     52  N   UNL A   1      45.789  26.256  27.106  1.00  0.00    -0.248 NA
ATOM     53  C   UNL A   1      46.191  24.049  26.450  1.00  0.00     0.031 C 
ATOM     54  C   UNL A   1      48.831  29.487  27.017  1.00  0.00     0.029 A 
ATOM     55  C   UNL A   1      47.894  28.467  27.017  1.00  0.00     0.049 A 
ATOM     56  H   UNL A   1      45.841  28.546  27.505  1.00  0.00     0.167 HD
ATOM     57  C   UNL A   1      47.118  26.130  26.722  1.00  0.00     0.074 A 
ATOM     58  C   UNL A   1      47.318  24.742  26.359  1.00  0.00     0.031 C 
ATOM     59  C   UNL A   1      48.082  27.081  26.667  1.00  0.00     0.037 A 
BRANCH  46  60
ATOM     60  C   UNL A   1      46.213  32.722  28.383  1.00  0.00     0.058 A 
ATOM     61  C   UNL A   1      46.718  33.178  29.610  1.00  0.00     0.135 A 
ATOM     62  C   UNL A   1      46.138  33.649  27.328  1.00  0.00     0.135 A 
ATOM     63  F   UNL A   1      46.804  32.344  30.658  1.00  0.00    -0.206 F 
ATOM     64  C   UNL A   1      47.113  34.503  29.789  1.00  0.00     0.059 A 
ATOM     65  C   UNL A   1      46.555  34.970  27.475  1.00  0.00     0.059 A 
ATOM     66  F   UNL A   1      45.670  33.270  26.128  1.00  0.00    -0.206 F 
ATOM     67  C   UNL A   1      47.031  35.391  28.714  1.00  0.00     0.060 A 
BRANCH  67  68
ATOM     68  S   UNL A   1      47.564  37.100  28.959  1.00  0.00     0.124 S 
ATOM     69  O   UNL A   1      48.512  36.955  30.059  1.00  0.00    -0.237 OA
ATOM     70  O   UNL A   1      48.146  37.434  27.663  1.00  0.00    -0.237 OA
ATOM     71  O   UNL A   1      46.326  37.800  29.286  1.00  0.00    -0.744 OA
ENDBRANCH  67  68
ENDBRANCH  46  60
BRANCH  47  72
ATOM     72  C   UNL A   1      43.422  23.224  26.947  1.00  0.00     0.058 A 
ATOM     73  C   UNL A   1      43.317  22.735  25.638  1.00  0.00     0.135 A 
ATOM     74  C   UNL A   1      43.125  22.338  27.998  1.00  0.00     0.135 A 
ATOM     75  F   UNL A   1      43.579  23.542  24.598  1.00  0.00    -0.206 F 
ATOM     76  C   UNL A   1      42.922  21.426  25.378  1.00  0.00     0.059 A 
ATOM     77  C   UNL A   1      42.767  21.016  27.766  1.00  0.00     0.059 A 
ATOM     78  F   UNL A   1      43.220  22.749  29.273  1.00  0.00    -0.206 F 
ATOM     79  C   UNL A   1      42.653  20.573  26.450  1.00  0.00     0.060 A 
BRANCH  79  80
ATOM     80  S   UNL A   1      42.181  18.865  26.106  1.00  0.00     0.124 S 
ATOM     81  O   UNL A   1      42.460  18.222  27.385  1.00  0.00    -0.237 OA
ATOM     82  O   UNL A   1      40.771  19.001  25.752  1.00  0.00    -0.237 OA
ATOM     83  O   UNL A   1      43.063  18.489  25.004  1.00  0.00    -0.744 OA
ENDBRANCH  79  80
ENDBRANCH  47  72
BRANCH  59  84
ATOM     84  C   UNL A   1      49.454  26.638  26.245  1.00  0.00     0.058 A 
ATOM     85  C   UNL A   1      49.882  26.720  24.911  1.00  0.00     0.135 A 
ATOM     86  C   UNL A   1      50.363  26.147  27.198  1.00  0.00     0.135 A 
ATOM     87  F   UNL A   1      49.047  27.169  23.960  1.00  0.00    -0.206 F 
ATOM     88  C   UNL A   1      51.154  26.306  24.531  1.00  0.00     0.059 A 
ATOM     89  C   UNL A   1      51.650  25.757  26.845  1.00  0.00     0.059 A 
ATOM     90  F   UNL A   1      50.004  26.053  28.488  1.00  0.00    -0.206 F 
ATOM     91  C   UNL A   1      52.032  25.829  25.506  1.00  0.00     0.060 A 
BRANCH  91  92
ATOM     92  S   UNL A   1      53.689  25.321  25.003  1.00  0.00     0.124 S 
ATOM     93  O   UNL A   1      54.504  25.864  26.085  1.00  0.00    -0.237 OA
ATOM     94  O   UNL A   1      53.572  23.868  24.965  1.00  0.00    -0.237 OA
ATOM     95  O   UNL A   1      53.863  25.964  23.704  1.00  0.00    -0.744 OA
ENDBRANCH  91  92
ENDBRANCH  59  84
ENDBRANCH  33  34
ENDBRANCH  26  28
ENDBRANCH  25  26
ENDBRANCH   1  25
TORSDOF 17
ENDMDL
MODEL 2
REMARK VINA RESULT:     -11.5      6.669     12.037
REMARK SMILES Cc1cc(O[C@@H]2C[C@H](C)C[C@H](C)C2)cc(C(=O)OCCOC(=O)c2ccc(-c3c4nc(c(-c5c(F)cc(S(=O)(=O)[O-])cc5F)c5ccc([nH]5)c(-c5c(F)cc(S(=O)(=O)[O-])cc5F)c5nc(c(-c6c(F)cc(S(=O)(=O)[O-])cc6F)c6ccc3[nH]6)C=C5)C=C4)cc2)c1N
REMARK SMILES IDX 20 1 19 2 18 3 16 4 17 5 15 6 1 7 2 8 3 9 90 10 4 11 14 12
REMARK SMILES IDX 91 13 5 16 6 17 13 18 7 19 11 20 8 21 12 22 10 23 9 24 21 25
REMARK SMILES IDX 22 26 23 27 24 28 25 29 89 30 26 31 88 32 27 33 28 34 29 35
REMARK SMILES IDX 82 36 30 37 87 38 81 39 83 40 31 41 86 42 80 43 79 44 32 46
REMARK SMILES IDX 66 47 45 48 65 49 46 50 49 51 64 52 84 53 47 54 48 55 63 57
REMARK SMILES IDX 85 58 50 59 33 60 34 61 43 62 35 63 36 64 42 65 44 66 37 67
REMARK SMILES IDX 38 68 39 69 40 70 41 71 67 72 68 73 77 74 69 75 70 76 76 77
REMARK SMILES IDX 78 78 71 79 72 80 73 81 74 82 75 83 51 84 52 85 61 86 53 87
REMARK SMILES IDX 54 88 60 89 62 90 55 91 56 92 57 93 58 94 59 95
REMARK H PARENT 91 14 91 15 83 45 49 56
REMARK Flexibility Score: inf
ROOT
ATOM      1  C   UNL A   1      39.352  22.186  26.126  1.00  0.00     0.275 C 
ENDROOT
BRANCH   1   2
ATOM      2  C   UNL A   1      37.957  22.651  25.689  1.00  0.00     0.275 C 
BRANCH   2   3
ATOM      3  O   UNL A   1      37.380  21.821  24.653  1.00  0.00    -0.458 OA
BRANCH   3   4
ATOM      4  C   UNL A   1      36.479  22.473  23.876  1.00  0.00     0.340 C 
ATOM      5  O   UNL A   1      36.745  23.074  22.850  1.00  0.00    -0.246 OA
BRANCH   4   6
ATOM      6  C   UNL A   1      35.085  22.400  24.368  1.00  0.00     0.086 A 
ATOM      7  C   UNL A   1      32.544  19.582  24.200  1.00  0.00     0.047 C 
ATOM      8  C   UNL A   1      33.180  20.948  24.201  1.00  0.00    -0.024 A 
ATOM      9  C   UNL A   1      32.380  22.094  24.184  1.00  0.00     0.052 A 
ATOM     10  C   UNL A   1      34.534  21.117  24.486  1.00  0.00     0.049 A 
ATOM     11  C   UNL A   1      32.896  23.230  24.794  1.00  0.00     0.120 A 
ATOM     12  C   UNL A   1      34.262  23.488  24.651  1.00  0.00     0.064 A 
BRANCH  10  13
ATOM     13  N   UNL A   1      35.202  20.153  25.231  1.00  0.00    -0.398 N 
ATOM     14  H   UNL A   1      36.146  20.290  25.480  1.00  0.00     0.156 HD
ATOM     15  H   UNL A   1      34.734  19.333  25.509  1.00  0.00     0.156 HD
ENDBRANCH  10  13
BRANCH  11  16
ATOM     16  O   UNL A   1      32.183  23.971  25.715  1.00  0.00    -0.490 OA
BRANCH  16  17
ATOM     17  C   UNL A   1      31.102  24.855  25.245  1.00  0.00     0.173 C 
ATOM     18  C   UNL A   1      30.637  26.017  26.121  1.00  0.00     0.048 C 
ATOM     19  C   UNL A   1      31.452  25.475  23.843  1.00  0.00     0.048 C 
ATOM     20  C   UNL A   1      31.625  27.185  26.168  1.00  0.00    -0.010 C 
ATOM     21  C   UNL A   1      31.459  27.059  23.659  1.00  0.00    -0.010 C 
ATOM     22  C   UNL A   1      33.133  26.907  26.180  1.00  0.00     0.008 C 
ATOM     23  C   UNL A   1      31.297  27.953  24.911  1.00  0.00     0.007 C 
ATOM     24  C   UNL A   1      32.693  27.525  22.870  1.00  0.00     0.008 C 
ENDBRANCH  16  17
ENDBRANCH  11  16
ENDBRANCH   4   6
ENDBRANCH   3   4
ENDBRANCH   2   3
ENDBRANCH   1   2
BRANCH   1  25
ATOM     25  O   UNL A   1      39.851  22.908  27.272  1.00  0.00    -0.458 OA
BRANCH  25  26
ATOM     26  C   UNL A   1      40.760  23.862  26.983  1.00  0.00     0.338 C 
ATOM     27  O   UNL A   1      41.727  23.754  26.237  1.00  0.00    -0.246 OA
BRANCH  26  28
ATOM     28  C   UNL A   1      40.428  25.163  27.586  1.00  0.00     0.060 A 
ATOM     29  C   UNL A   1      41.413  26.138  27.542  1.00  0.00     0.016 A 
ATOM     30  C   UNL A   1      39.374  25.287  28.491  1.00  0.00     0.016 A 
ATOM     31  C   UNL A   1      41.470  27.095  28.551  1.00  0.00     0.010 A 
ATOM     32  C   UNL A   1      39.336  26.382  29.373  1.00  0.00     0.010 A 
ATOM     33  C   UNL A   1      40.418  27.274  29.462  1.00  0.00    -0.014 A 
BRANCH  33  34
ATOM     34  C   UNL A   1      40.477  28.379  30.478  1.00  0.00     0.031 A 
ATOM     35  C   UNL A   1      41.508  28.381  31.589  1.00  0.00     0.074 A 
ATOM     36  C   UNL A   1      39.611  29.416  30.399  1.00  0.00     0.049 A 
ATOM     37  N   UNL A   1      41.558  29.122  32.670  1.00  0.00    -0.248 NA
ATOM     38  C   UNL A   1      42.619  27.421  31.483  1.00  0.00     0.031 C 
ATOM     39  C   UNL A   1      38.585  29.592  29.364  1.00  0.00     0.029 A 
ATOM     40  N   UNL A   1      39.453  30.529  31.191  1.00  0.00    -0.354 N 
ATOM     41  C   UNL A   1      42.657  28.675  33.401  1.00  0.00     0.074 A 
ATOM     42  C   UNL A   1      43.251  27.599  32.638  1.00  0.00     0.031 C 
ATOM     43  C   UNL A   1      37.967  30.765  29.537  1.00  0.00     0.029 A 
ATOM     44  C   UNL A   1      38.426  31.352  30.784  1.00  0.00     0.049 A 
ATOM     45  H   UNL A   1      40.020  30.720  31.973  1.00  0.00     0.167 HD
ATOM     46  C   UNL A   1      43.118  29.118  34.598  1.00  0.00     0.037 A 
ATOM     47  C   UNL A   1      37.843  32.413  31.374  1.00  0.00     0.037 A 
ATOM     48  C   UNL A   1      42.551  30.234  35.319  1.00  0.00     0.049 A 
ATOM     49  C   UNL A   1      38.332  32.849  32.723  1.00  0.00     0.074 A 
ATOM     50  C   UNL A   1      42.946  30.762  36.538  1.00  0.00     0.029 A 
ATOM     51  N   UNL A   1      41.485  31.005  34.882  1.00  0.00    -0.354 N 
ATOM     52  N   UNL A   1      39.313  32.357  33.438  1.00  0.00    -0.248 NA
ATOM     53  C   UNL A   1      37.620  33.966  33.356  1.00  0.00     0.031 C 
ATOM     54  C   UNL A   1      42.090  31.820  36.858  1.00  0.00     0.029 A 
ATOM     55  C   UNL A   1      41.199  31.994  35.812  1.00  0.00     0.049 A 
ATOM     56  H   UNL A   1      41.001  30.872  34.034  1.00  0.00     0.167 HD
ATOM     57  C   UNL A   1      39.346  33.113  34.603  1.00  0.00     0.074 A 
ATOM     58  C   UNL A   1      38.302  34.110  34.483  1.00  0.00     0.031 C 
ATOM     59  C   UNL A   1      40.163  32.987  35.677  1.00  0.00     0.037 A 
BRANCH  46  60
ATOM     60  C   UNL A   1      44.271  28.384  35.241  1.00  0.00     0.058 A 
ATOM     61  C   UNL A   1      45.605  28.785  35.074  1.00  0.00     0.135 A 
ATOM     62  C   UNL A   1      44.022  27.300  36.103  1.00  0.00     0.135 A 
ATOM     63  F   UNL A   1      45.907  29.805  34.256  1.00  0.00    -0.206 F 
ATOM     64  C   UNL A   1      46.651  28.127  35.720  1.00  0.00     0.059 A 
ATOM     65  C   UNL A   1      45.049  26.648  36.782  1.00  0.00     0.059 A 
ATOM     66  F   UNL A   1      42.766  26.875  36.309  1.00  0.00    -0.206 F 
ATOM     67  C   UNL A   1      46.362  27.061  36.575  1.00  0.00     0.060 A 
BRANCH  67  68
ATOM     68  S   UNL A   1      47.728  26.231  37.418  1.00  0.00     0.124 S 
ATOM     69  O   UNL A   1      48.884  26.882  36.808  1.00  0.00    -0.237 OA
ATOM     70  O   UNL A   1      47.480  26.563  38.817  1.00  0.00    -0.237 OA
ATOM     71  O   UNL A   1      47.543  24.826  37.067  1.00  0.00    -0.744 OA
ENDBRANCH  67  68
ENDBRANCH  46  60
BRANCH  47  72
ATOM     72  C   UNL A   1      36.671  33.070  30.730  1.00  0.00     0.058 A 
ATOM     73  C   UNL A   1      35.367  32.857  31.197  1.00  0.00     0.135 A 
ATOM     74  C   UNL A   1      36.838  33.945  29.642  1.00  0.00     0.135 A 
ATOM     75  F   UNL A   1      35.151  32.023  32.226  1.00  0.00    -0.206 F 
ATOM     76  C   UNL A   1      34.271  33.475  30.603  1.00  0.00     0.059 A 
ATOM     77  C   UNL A   1      35.764  34.605  29.057  1.00  0.00     0.059 A 
ATOM     78  F   UNL A   1      38.067  34.196  29.161  1.00  0.00    -0.206 F 
ATOM     79  C   UNL A   1      34.481  34.351  29.536  1.00  0.00     0.060 A 
BRANCH  79  80
ATOM     80  S   UNL A   1      33.057  35.180  28.797  1.00  0.00     0.124 S 
ATOM     81  O   UNL A   1      32.214  35.408  29.966  1.00  0.00    -0.237 OA
ATOM     82  O   UNL A   1      33.665  36.367  28.205  1.00  0.00    -0.237 OA
ATOM     83  O   UNL A   1      32.556  34.197  27.840  1.00  0.00    -0.744 OA
ENDBRANCH  79  80
ENDBRANCH  47  72
BRANCH  59  84
ATOM     84  C   UNL A   1      39.990  33.985  36.787  1.00  0.00     0.058 A 
ATOM     85  C   UNL A   1      40.635  35.232  36.769  1.00  0.00     0.135 A 
ATOM     86  C   UNL A   1      39.144  33.697  37.871  1.00  0.00     0.135 A 
ATOM     87  F   UNL A   1      41.465  35.550  35.762  1.00  0.00    -0.206 F 
ATOM     88  C   UNL A   1      40.468  36.148  37.802  1.00  0.00     0.059 A 
ATOM     89  C   UNL A   1      38.939  34.612  38.898  1.00  0.00     0.059 A 
ATOM     90  F   UNL A   1      38.500  32.521  37.932  1.00  0.00    -0.206 F 
ATOM     91  C   UNL A   1      39.616  35.830  38.860  1.00  0.00     0.060 A 
BRANCH  91  92
ATOM     92  S   UNL A   1      39.387  37.041  40.180  1.00  0.00     0.124 S 
ATOM     93  O   UNL A   1      40.765  37.298  40.586  1.00  0.00    -0.237 OA
ATOM     94  O   UNL A   1      38.715  38.134  39.485  1.00  0.00    -0.237 OA
ATOM     95  O   UNL A   1      38.568  36.329  41.157  1.00  0.00    -0.744 OA
ENDBRANCH  91  92
ENDBRANCH  59  84
ENDBRANCH  33  34
ENDBRANCH  26  28
ENDBRANCH  25  26
ENDBRANCH   1  25
TORSDOF 17
ENDMDL
MODEL 3
REMARK VINA RESULT:     -11.5      5.340     10.826
REMARK SMILES Cc1cc(O[C@@H]2C[C@H](C)C[C@H](C)C2)cc(C(=O)OCCOC(=O)c2ccc(-c3c4nc(c(-c5c(F)cc(S(=O)(=O)[O-])cc5F)c5ccc([nH]5)c(-c5c(F)cc(S(=O)(=O)[O-])cc5F)c5nc(c(-c6c(F)cc(S(=O)(=O)[O-])cc6F)c6ccc3[nH]6)C=C5)C=C4)cc2)c1N
REMARK SMILES IDX 20 1 19 2 18 3 16 4 17 5 15 6 1 7 2 8 3 9 90 10 4 11 14 12
REMARK SMILES IDX 91 13 5 16 6 17 13 18 7 19 11 20 8 21 12 22 10 23 9 24 21 25
REMARK SMILES IDX 22 26 23 27 24 28 25 29 89 30 26 31 88 32 27 33 28 34 29 35
REMARK SMILES IDX 82 36 30 37 87 38 81 39 83 40 31 41 86 42 80 43 79 44 32 46
REMARK SMILES IDX 66 47 45 48 65 49 46 50 49 51 64 52 84 53 47 54 48 55 63 57
REMARK SMILES IDX 85 58 50 59 33 60 34 61 43 62 35 63 36 64 42 65 44 66 37 67
REMARK SMILES IDX 38 68 39 69 40 70 41 71 67 72 68 73 77 74 69 75 70 76 76 77
REMARK SMILES IDX 78 78 71 79 72 80 73 81 74 82 75 83 51 84 52 85 61 86 53 87
REMARK SMILES IDX 54 88 60 89 62 90 55 91 56 92 57 93 58 94 59 95
REMARK H PARENT 91 14 91 15 83 45 49 56
REMARK Flexibility Score: inf
ROOT
ATOM      1  C   UNL A   1      37.879  21.310  25.054  1.00  0.00     0.275 C 
ENDROOT
BRANCH   1   2
ATOM      2  C   UNL A   1      36.375  21.026  24.969  1.00  0.00     0.275 C 
BRANCH   2   3
ATOM      3  O   UNL A   1      35.682  21.248  26.220  1.00  0.00    -0.458 OA
BRANCH   3   4
ATOM      4  C   UNL A   1      34.344  21.416  26.075  1.00  0.00     0.340 C 
ATOM      5  O   UNL A   1      33.501  20.572  26.327  1.00  0.00    -0.246 OA
BRANCH   4   6
ATOM      6  C   UNL A   1      33.947  22.753  25.579  1.00  0.00     0.086 A 
ATOM      7  C   UNL A   1      33.073  23.938  22.079  1.00  0.00     0.047 C 
ATOM      8  C   UNL A   1      33.604  23.880  23.488  1.00  0.00    -0.024 A 
ATOM      9  C   UNL A   1      34.141  25.025  24.082  1.00  0.00     0.052 A 
ATOM     10  C   UNL A   1      33.338  22.793  24.318  1.00  0.00     0.049 A 
ATOM     11  C   UNL A   1      34.030  25.128  25.463  1.00  0.00     0.120 A 
ATOM     12  C   UNL A   1      34.189  23.965  26.221  1.00  0.00     0.064 A 
BRANCH  10  13
ATOM     13  N   UNL A   1      32.223  22.001  24.073  1.00  0.00    -0.398 N 
ATOM     14  H   UNL A   1      31.350  22.246  24.459  1.00  0.00     0.156 HD
ATOM     15  H   UNL A   1      32.304  21.195  23.513  1.00  0.00     0.156 HD
ENDBRANCH  10  13
BRANCH  11  16
ATOM     16  O   UNL A   1      33.543  26.257  26.090  1.00  0.00    -0.490 OA
BRANCH  16  17
ATOM     17  C   UNL A   1      33.450  27.518  25.331  1.00  0.00     0.173 C 
ATOM     18  C   UNL A   1      32.086  28.162  25.095  1.00  0.00     0.048 C 
ATOM     19  C   UNL A   1      34.354  28.629  25.978  1.00  0.00     0.048 C 
ATOM     20  C   UNL A   1      31.492  28.822  26.341  1.00  0.00    -0.010 C 
ATOM     21  C   UNL A   1      33.706  30.019  26.416  1.00  0.00    -0.010 C 
ATOM     22  C   UNL A   1      31.688  28.169  27.715  1.00  0.00     0.008 C 
ATOM     23  C   UNL A   1      32.167  30.171  26.360  1.00  0.00     0.007 C 
ATOM     24  C   UNL A   1      34.199  30.454  27.805  1.00  0.00     0.008 C 
ENDBRANCH  16  17
ENDBRANCH  11  16
ENDBRANCH   4   6
ENDBRANCH   3   4
ENDBRANCH   2   3
ENDBRANCH   1   2
BRANCH   1  25
ATOM     25  O   UNL A   1      38.223  22.201  26.136  1.00  0.00    -0.458 OA
BRANCH  25  26
ATOM     26  C   UNL A   1      38.197  23.511  25.815  1.00  0.00     0.338 C 
ATOM     27  O   UNL A   1      37.456  24.054  25.004  1.00  0.00    -0.246 OA
BRANCH  26  28
ATOM     28  C   UNL A   1      39.111  24.316  26.641  1.00  0.00     0.060 A 
ATOM     29  C   UNL A   1      38.892  24.297  28.010  1.00  0.00     0.016 A 
ATOM     30  C   UNL A   1      39.875  25.338  26.078  1.00  0.00     0.016 A 
ATOM     31  C   UNL A   1      39.230  25.414  28.770  1.00  0.00     0.010 A 
ATOM     32  C   UNL A   1      40.390  26.359  26.899  1.00  0.00     0.010 A 
ATOM     33  C   UNL A   1      40.023  26.449  28.252  1.00  0.00    -0.014 A 
BRANCH  33  34
ATOM     34  C   UNL A   1      40.443  27.592  29.132  1.00  0.00     0.031 A 
ATOM     35  C   UNL A   1      41.745  27.560  29.907  1.00  0.00     0.074 A 
ATOM     36  C   UNL A   1      39.661  28.693  29.227  1.00  0.00     0.049 A 
ATOM     37  N   UNL A   1      42.150  28.344  30.876  1.00  0.00    -0.248 NA
ATOM     38  C   UNL A   1      42.713  26.506  29.560  1.00  0.00     0.031 C 
ATOM     39  C   UNL A   1      38.398  28.906  28.512  1.00  0.00     0.029 A 
ATOM     40  N   UNL A   1      39.811  29.852  29.953  1.00  0.00    -0.354 N 
ATOM     41  C   UNL A   1      43.379  27.842  31.299  1.00  0.00     0.074 A 
ATOM     42  C   UNL A   1      43.658  26.685  30.476  1.00  0.00     0.031 C 
ATOM     43  C   UNL A   1      37.935  30.134  28.769  1.00  0.00     0.029 A 
ATOM     44  C   UNL A   1      38.769  30.739  29.794  1.00  0.00     0.049 A 
ATOM     45  H   UNL A   1      40.589  30.031  30.530  1.00  0.00     0.167 HD
ATOM     46  C   UNL A   1      44.190  28.300  32.286  1.00  0.00     0.037 A 
ATOM     47  C   UNL A   1      38.450  31.871  30.450  1.00  0.00     0.037 A 
ATOM     48  C   UNL A   1      43.929  29.492  33.058  1.00  0.00     0.049 A 
ATOM     49  C   UNL A   1      39.332  32.328  31.573  1.00  0.00     0.074 A 
ATOM     50  C   UNL A   1      44.689  30.042  34.078  1.00  0.00     0.029 A 
ATOM     51  N   UNL A   1      42.836  30.329  32.885  1.00  0.00    -0.354 N 
ATOM     52  N   UNL A   1      40.441  31.789  32.018  1.00  0.00    -0.248 NA
ATOM     53  C   UNL A   1      38.906  33.529  32.302  1.00  0.00     0.031 C 
ATOM     54  C   UNL A   1      44.033  31.182  34.552  1.00  0.00     0.029 A 
ATOM     55  C   UNL A   1      42.895  31.381  33.788  1.00  0.00     0.049 A 
ATOM     56  H   UNL A   1      42.124  30.198  32.218  1.00  0.00     0.167 HD
ATOM     57  C   UNL A   1      40.854  32.594  33.072  1.00  0.00     0.074 A 
ATOM     58  C   UNL A   1      39.889  33.669  33.180  1.00  0.00     0.031 C 
ATOM     59  C   UNL A   1      41.933  32.450  33.880  1.00  0.00     0.037 A 
BRANCH  46  60
ATOM     60  C   UNL A   1      45.427  27.503  32.629  1.00  0.00     0.058 A 
ATOM     61  C   UNL A   1      45.412  26.456  33.562  1.00  0.00     0.135 A 
ATOM     62  C   UNL A   1      46.633  27.748  31.948  1.00  0.00     0.135 A 
ATOM     63  F   UNL A   1      44.294  26.179  34.252  1.00  0.00    -0.206 F 
ATOM     64  C   UNL A   1      46.551  25.696  33.825  1.00  0.00     0.059 A 
ATOM     65  C   UNL A   1      47.776  26.983  32.172  1.00  0.00     0.059 A 
ATOM     66  F   UNL A   1      46.707  28.732  31.038  1.00  0.00    -0.206 F 
ATOM     67  C   UNL A   1      47.729  25.965  33.122  1.00  0.00     0.060 A 
BRANCH  67  68
ATOM     68  S   UNL A   1      49.191  24.960  33.462  1.00  0.00     0.124 S 
ATOM     69  O   UNL A   1      49.919  25.813  34.397  1.00  0.00    -0.237 OA
ATOM     70  O   UNL A   1      48.611  23.748  34.031  1.00  0.00    -0.237 OA
ATOM     71  O   UNL A   1      49.808  24.799  32.149  1.00  0.00    -0.744 OA
ENDBRANCH  67  68
ENDBRANCH  46  60
BRANCH  47  72
ATOM     72  C   UNL A   1      37.191  32.594  30.116  1.00  0.00     0.058 A 
ATOM     73  C   UNL A   1      37.163  33.597  29.137  1.00  0.00     0.135 A 
ATOM     74  C   UNL A   1      35.981  32.278  30.759  1.00  0.00     0.135 A 
ATOM     75  F   UNL A   1      38.293  33.945  28.501  1.00  0.00    -0.206 F 
ATOM     76  C   UNL A   1      35.988  34.270  28.817  1.00  0.00     0.059 A 
ATOM     77  C   UNL A   1      34.787  32.907  30.428  1.00  0.00     0.059 A 
ATOM     78  F   UNL A   1      35.946  31.317  31.695  1.00  0.00    -0.206 F 
ATOM     79  C   UNL A   1      34.804  33.914  29.465  1.00  0.00     0.060 A 
BRANCH  79  80
ATOM     80  S   UNL A   1      33.276  34.764  29.015  1.00  0.00     0.124 S 
ATOM     81  O   UNL A   1      33.787  36.035  28.513  1.00  0.00    -0.237 OA
ATOM     82  O   UNL A   1      32.706  33.864  28.017  1.00  0.00    -0.237 OA
ATOM     83  O   UNL A   1      32.545  34.831  30.277  1.00  0.00    -0.744 OA
ENDBRANCH  79  80
ENDBRANCH  47  72
BRANCH  59  84
ATOM     84  C   UNL A   1      42.150  33.511  34.922  1.00  0.00     0.058 A 
ATOM     85  C   UNL A   1      42.916  34.658  34.663  1.00  0.00     0.135 A 
ATOM     86  C   UNL A   1      41.560  33.387  36.190  1.00  0.00     0.135 A 
ATOM     87  F   UNL A   1      43.513  34.817  33.471  1.00  0.00    -0.206 F 
ATOM     88  C   UNL A   1      43.112  35.633  35.635  1.00  0.00     0.059 A 
ATOM     89  C   UNL A   1      41.717  34.365  37.166  1.00  0.00     0.059 A 
ATOM     90  F   UNL A   1      40.814  32.311  36.487  1.00  0.00    -0.206 F 
ATOM     91  C   UNL A   1      42.506  35.479  36.883  1.00  0.00     0.060 A 
BRANCH  91  92
ATOM     92  S   UNL A   1      42.744  36.766  38.125  1.00  0.00     0.124 S 
ATOM     93  O   UNL A   1      43.488  36.047  39.155  1.00  0.00    -0.237 OA
ATOM     94  O   UNL A   1      43.497  37.774  37.387  1.00  0.00    -0.237 OA
ATOM     95  O   UNL A   1      41.382  37.148  38.486  1.00  0.00    -0.744 OA
ENDBRANCH  91  92
ENDBRANCH  59  84
ENDBRANCH  33  34
ENDBRANCH  26  28
ENDBRANCH  25  26
ENDBRANCH   1  25
TORSDOF 17
ENDMDL
