MODEL 1
REMARK VINA RESULT:     -10.9      0.000      0.000
REMARK SMILES Cc1ccc(Br)cc1S(=O)(=O)N[C@H]1C=C[C@H](C(=O)OCCOC(=O)c2ccc(-c3c4nc(c(-c5c(F)cc(S(=O)(=O)[O-])cc5F)c5ccc([nH]5)c(-c5c(F)cc(S(=O)(=O)[O-])cc5F)c5nc(c(-c6c(F)cc(S(=O)(=O)[O-])cc6F)c6ccc3[nH]6)C=C5)C=C4)cc2)C1
REMARK SMILES IDX 20 1 19 2 17 3 18 4 16 5 13 6 14 7 91 8 15 9 12 10 9 12
REMARK SMILES IDX 10 13 11 14 8 15 1 16 2 17 3 18 4 19 7 20 5 21 6 22 21 23
REMARK SMILES IDX 22 24 23 25 24 26 25 27 26 28 90 29 27 30 89 31 28 32 29 33
REMARK SMILES IDX 30 34 83 35 31 36 88 37 82 38 84 39 32 40 87 41 81 42 80 43
REMARK SMILES IDX 33 45 67 46 46 47 66 48 47 49 50 50 65 51 85 52 48 53 49 54
REMARK SMILES IDX 64 56 86 57 51 58 34 59 35 60 44 61 36 62 37 63 43 64 45 65
REMARK SMILES IDX 38 66 39 67 40 68 41 69 42 70 68 71 69 72 78 73 70 74 71 75
REMARK SMILES IDX 77 76 79 77 72 78 73 79 74 80 75 81 76 82 52 83 53 84 62 85
REMARK SMILES IDX 54 86 55 87 61 88 63 89 56 90 57 91 58 92 59 93 60 94
REMARK H PARENT 12 11 84 44 50 55
REMARK Flexibility Score: inf
ROOT
ATOM      1  C   UNL A   1      32.288  29.837  25.520  1.00  0.00     0.274 C 
ENDROOT
BRANCH   1   2
ATOM      2  O   UNL A   1      31.150  29.077  25.068  1.00  0.00    -0.462 OA
BRANCH   2   3
ATOM      3  C   UNL A   1      31.340  28.296  23.974  1.00  0.00     0.312 C 
ATOM      4  O   UNL A   1      31.243  28.690  22.815  1.00  0.00    -0.252 OA
BRANCH   3   5
ATOM      5  C   UNL A   1      31.751  26.871  24.315  1.00  0.00     0.123 C 
ATOM      6  C   UNL A   1      32.181  25.288  26.125  1.00  0.00     0.093 C 
ATOM      7  C   UNL A   1      33.449  25.880  25.595  1.00  0.00    -0.011 C 
ATOM      8  C   UNL A   1      31.141  26.277  25.590  1.00  0.00     0.043 C 
ATOM      9  C   UNL A   1      33.218  26.724  24.583  1.00  0.00    -0.015 C 
BRANCH   6  10
ATOM     10  N   UNL A   1      32.119  23.959  25.531  1.00  0.00    -0.204 NA
ATOM     11  H   UNL A   1      31.151  23.649  25.627  1.00  0.00     0.142 HD
BRANCH  10  12
ATOM     12  S   UNL A   1      33.067  22.702  26.076  1.00  0.00     0.241 S 
ATOM     13  O   UNL A   1      32.413  21.471  25.677  1.00  0.00    -0.207 OA
ATOM     14  O   UNL A   1      33.380  22.979  27.457  1.00  0.00    -0.207 OA
BRANCH  12  15
ATOM     15  C   UNL A   1      34.589  22.858  25.160  1.00  0.00     0.086 A 
ATOM     16  C   UNL A   1      33.452  23.007  22.837  1.00  0.00     0.046 C 
ATOM     17  C   UNL A   1      34.641  22.917  23.753  1.00  0.00    -0.031 A 
ATOM     18  C   UNL A   1      35.909  22.898  23.138  1.00  0.00     0.006 A 
ATOM     19  C   UNL A   1      37.082  22.874  23.894  1.00  0.00     0.016 A 
ATOM     20  C   UNL A   1      35.772  22.858  25.919  1.00  0.00     0.037 A 
ATOM     21  C   UNL A   1      37.009  22.875  25.281  1.00  0.00     0.019 A 
ATOM     22  Br  UNL A   1      38.594  22.888  26.309  1.00  0.00    -0.051 Br
ENDBRANCH  12  15
ENDBRANCH  10  12
ENDBRANCH   6  10
ENDBRANCH   3   5
ENDBRANCH   2   3
ENDBRANCH   1   2
BRANCH   1  23
ATOM     23  C   UNL A   1      32.467  29.715  27.034  1.00  0.00     0.275 C 
BRANCH  23  24
ATOM     24  O   UNL A   1      33.833  29.421  27.369  1.00  0.00    -0.458 OA
BRANCH  24  25
ATOM     25  C   UNL A   1      34.482  30.387  28.057  1.00  0.00     0.338 C 
ATOM     26  O   UNL A   1      34.025  31.439  28.472  1.00  0.00    -0.246 OA
BRANCH  25  27
ATOM     27  C   UNL A   1      35.867  29.962  28.288  1.00  0.00     0.060 A 
ATOM     28  C   UNL A   1      36.265  29.587  29.574  1.00  0.00     0.016 A 
ATOM     29  C   UNL A   1      36.789  30.018  27.244  1.00  0.00     0.016 A 
ATOM     30  C   UNL A   1      37.603  29.309  29.834  1.00  0.00     0.010 A 
ATOM     31  C   UNL A   1      38.122  29.689  27.496  1.00  0.00     0.010 A 
ATOM     32  C   UNL A   1      38.541  29.348  28.795  1.00  0.00    -0.014 A 
BRANCH  32  33
ATOM     33  C   UNL A   1      39.967  29.037  29.047  1.00  0.00     0.031 A 
ATOM     34  C   UNL A   1      40.889  30.120  29.526  1.00  0.00     0.074 A 
ATOM     35  C   UNL A   1      40.434  27.800  28.798  1.00  0.00     0.049 A 
ATOM     36  N   UNL A   1      42.195  30.124  29.590  1.00  0.00    -0.248 NA
ATOM     37  C   UNL A   1      40.257  31.368  29.985  1.00  0.00     0.031 C 
ATOM     38  C   UNL A   1      39.622  26.657  28.376  1.00  0.00     0.029 A 
ATOM     39  N   UNL A   1      41.713  27.304  28.837  1.00  0.00    -0.354 N 
ATOM     40  C   UNL A   1      42.546  31.385  30.056  1.00  0.00     0.074 A 
ATOM     41  C   UNL A   1      41.315  32.120  30.259  1.00  0.00     0.031 C 
ATOM     42  C   UNL A   1      40.423  25.597  28.183  1.00  0.00     0.029 A 
ATOM     43  C   UNL A   1      41.807  26.004  28.402  1.00  0.00     0.049 A 
ATOM     44  H   UNL A   1      42.486  27.828  29.147  1.00  0.00     0.167 HD
ATOM     45  C   UNL A   1      43.785  31.880  30.285  1.00  0.00     0.037 A 
ATOM     46  C   UNL A   1      42.890  25.242  28.155  1.00  0.00     0.037 A 
ATOM     47  C   UNL A   1      44.997  31.125  30.100  1.00  0.00     0.049 A 
ATOM     48  C   UNL A   1      44.258  25.828  28.367  1.00  0.00     0.074 A 
ATOM     49  C   UNL A   1      46.303  31.527  30.313  1.00  0.00     0.029 A 
ATOM     50  N   UNL A   1      45.050  29.810  29.659  1.00  0.00    -0.354 N 
ATOM     51  N   UNL A   1      44.581  27.031  28.780  1.00  0.00    -0.248 NA
ATOM     52  C   UNL A   1      45.407  24.963  28.069  1.00  0.00     0.031 C 
ATOM     53  C   UNL A   1      47.148  30.465  29.971  1.00  0.00     0.029 A 
ATOM     54  C   UNL A   1      46.366  29.388  29.583  1.00  0.00     0.049 A 
ATOM     55  H   UNL A   1      44.266  29.258  29.435  1.00  0.00     0.167 HD
ATOM     56  C   UNL A   1      45.970  27.060  28.811  1.00  0.00     0.074 A 
ATOM     57  C   UNL A   1      46.426  25.754  28.380  1.00  0.00     0.031 C 
ATOM     58  C   UNL A   1      46.794  28.077  29.166  1.00  0.00     0.037 A 
BRANCH  45  59
ATOM     59  C   UNL A   1      43.893  33.311  30.728  1.00  0.00     0.058 A 
ATOM     60  C   UNL A   1      43.926  33.667  32.085  1.00  0.00     0.135 A 
ATOM     61  C   UNL A   1      43.995  34.340  29.778  1.00  0.00     0.135 A 
ATOM     62  F   UNL A   1      43.813  32.724  33.034  1.00  0.00    -0.206 F 
ATOM     63  C   UNL A   1      44.031  34.996  32.485  1.00  0.00     0.059 A 
ATOM     64  C   UNL A   1      44.123  35.673  30.155  1.00  0.00     0.059 A 
ATOM     65  F   UNL A   1      43.966  34.054  28.466  1.00  0.00    -0.206 F 
ATOM     66  C   UNL A   1      44.126  35.993  31.511  1.00  0.00     0.060 A 
BRANCH  66  67
ATOM     67  S   UNL A   1      44.258  37.714  32.042  1.00  0.00     0.124 S 
ATOM     68  O   UNL A   1      43.346  37.735  33.182  1.00  0.00    -0.237 OA
ATOM     69  O   UNL A   1      45.677  37.834  32.364  1.00  0.00    -0.237 OA
ATOM     70  O   UNL A   1      43.819  38.465  30.872  1.00  0.00    -0.744 OA
ENDBRANCH  66  67
ENDBRANCH  45  59
BRANCH  46  71
ATOM     71  C   UNL A   1      42.717  23.859  27.643  1.00  0.00     0.058 A 
ATOM     72  C   UNL A   1      42.611  22.773  28.524  1.00  0.00     0.135 A 
ATOM     73  C   UNL A   1      42.620  23.598  26.268  1.00  0.00     0.135 A 
ATOM     74  F   UNL A   1      42.705  22.972  29.847  1.00  0.00    -0.206 F 
ATOM     75  C   UNL A   1      42.420  21.476  28.059  1.00  0.00     0.059 A 
ATOM     76  C   UNL A   1      42.406  22.314  25.779  1.00  0.00     0.059 A 
ATOM     77  F   UNL A   1      42.701  24.607  25.385  1.00  0.00    -0.206 F 
ATOM     78  C   UNL A   1      42.315  21.256  26.684  1.00  0.00     0.060 A 
BRANCH  78  79
ATOM     79  S   UNL A   1      42.005  19.578  26.092  1.00  0.00     0.124 S 
ATOM     80  O   UNL A   1      42.453  18.781  27.228  1.00  0.00    -0.237 OA
ATOM     81  O   UNL A   1      40.566  19.597  25.851  1.00  0.00    -0.237 OA
ATOM     82  O   UNL A   1      42.832  19.490  24.892  1.00  0.00    -0.744 OA
ENDBRANCH  78  79
ENDBRANCH  46  71
BRANCH  58  83
ATOM     83  C   UNL A   1      48.270  27.809  29.145  1.00  0.00     0.058 A 
ATOM     84  C   UNL A   1      48.934  27.259  30.251  1.00  0.00     0.135 A 
ATOM     85  C   UNL A   1      49.011  28.031  27.973  1.00  0.00     0.135 A 
ATOM     86  F   UNL A   1      48.269  27.037  31.396  1.00  0.00    -0.206 F 
ATOM     87  C   UNL A   1      50.287  26.941  30.198  1.00  0.00     0.059 A 
ATOM     88  C   UNL A   1      50.359  27.703  27.892  1.00  0.00     0.059 A 
ATOM     89  F   UNL A   1      48.418  28.551  26.887  1.00  0.00    -0.206 F 
ATOM     90  C   UNL A   1      50.990  27.161  29.012  1.00  0.00     0.060 A 
BRANCH  90  91
ATOM     91  S   UNL A   1      52.730  26.686  28.933  1.00  0.00     0.124 S 
ATOM     92  O   UNL A   1      53.386  27.984  28.827  1.00  0.00    -0.237 OA
ATOM     93  O   UNL A   1      52.920  25.981  30.198  1.00  0.00    -0.237 OA
ATOM     94  O   UNL A   1      52.798  25.847  27.741  1.00  0.00    -0.744 OA
ENDBRANCH  90  91
ENDBRANCH  58  83
ENDBRANCH  32  33
ENDBRANCH  25  27
ENDBRANCH  24  25
ENDBRANCH  23  24
ENDBRANCH   1  23
TORSDOF 17
ENDMDL
MODEL 2
REMARK VINA RESULT:     -10.8      5.198     10.748
REMARK SMILES Cc1ccc(Br)cc1S(=O)(=O)N[C@H]1C=C[C@H](C(=O)OCCOC(=O)c2ccc(-c3c4nc(c(-c5c(F)cc(S(=O)(=O)[O-])cc5F)c5ccc([nH]5)c(-c5c(F)cc(S(=O)(=O)[O-])cc5F)c5nc(c(-c6c(F)cc(S(=O)(=O)[O-])cc6F)c6ccc3[nH]6)C=C5)C=C4)cc2)C1
REMARK SMILES IDX 20 1 19 2 17 3 18 4 16 5 13 6 14 7 91 8 15 9 12 10 9 12
REMARK SMILES IDX 10 13 11 14 8 15 1 16 2 17 3 18 4 19 7 20 5 21 6 22 21 23
REMARK SMILES IDX 22 24 23 25 24 26 25 27 26 28 90 29 27 30 89 31 28 32 29 33
REMARK SMILES IDX 30 34 83 35 31 36 88 37 82 38 84 39 32 40 87 41 81 42 80 43
REMARK SMILES IDX 33 45 67 46 46 47 66 48 47 49 50 50 65 51 85 52 48 53 49 54
REMARK SMILES IDX 64 56 86 57 51 58 34 59 35 60 44 61 36 62 37 63 43 64 45 65
REMARK SMILES IDX 38 66 39 67 40 68 41 69 42 70 68 71 69 72 78 73 70 74 71 75
REMARK SMILES IDX 77 76 79 77 72 78 73 79 74 80 75 81 76 82 52 83 53 84 62 85
REMARK SMILES IDX 54 86 55 87 61 88 63 89 56 90 57 91 58 92 59 93 60 94
REMARK H PARENT 12 11 84 44 50 55
REMARK Flexibility Score: inf
ROOT
ATOM      1  C   UNL A   1      38.534  21.765  25.739  1.00  0.00     0.274 C 
ENDROOT
BRANCH   1   2
ATOM      2  O   UNL A   1      37.607  22.809  25.384  1.00  0.00    -0.462 OA
BRANCH   2   3
ATOM      3  C   UNL A   1      36.305  22.446  25.254  1.00  0.00     0.312 C 
ATOM      4  O   UNL A   1      35.791  21.490  25.828  1.00  0.00    -0.252 OA
BRANCH   3   5
ATOM      5  C   UNL A   1      35.504  23.384  24.361  1.00  0.00     0.123 C 
ATOM      6  C   UNL A   1      33.444  24.679  24.153  1.00  0.00     0.093 C 
ATOM      7  C   UNL A   1      33.353  23.373  23.426  1.00  0.00    -0.011 C 
ATOM      8  C   UNL A   1      34.637  24.425  25.079  1.00  0.00     0.043 C 
ATOM      9  C   UNL A   1      34.491  22.676  23.513  1.00  0.00    -0.015 C 
BRANCH   6  10
ATOM     10  N   UNL A   1      33.684  25.666  23.108  1.00  0.00    -0.204 NA
ATOM     11  H   UNL A   1      34.691  25.835  23.101  1.00  0.00     0.142 HD
BRANCH  10  12
ATOM     12  S   UNL A   1      32.961  27.167  23.127  1.00  0.00     0.241 S 
ATOM     13  O   UNL A   1      31.647  27.013  22.534  1.00  0.00    -0.207 OA
ATOM     14  O   UNL A   1      33.923  28.105  22.603  1.00  0.00    -0.207 OA
BRANCH  12  15
ATOM     15  C   UNL A   1      32.759  27.546  24.858  1.00  0.00     0.086 A 
ATOM     16  C   UNL A   1      30.379  26.539  25.045  1.00  0.00     0.046 C 
ATOM     17  C   UNL A   1      31.572  27.287  25.572  1.00  0.00    -0.031 A 
ATOM     18  C   UNL A   1      31.483  27.759  26.897  1.00  0.00     0.006 A 
ATOM     19  C   UNL A   1      32.552  28.416  27.508  1.00  0.00     0.016 A 
ATOM     20  C   UNL A   1      33.842  28.186  25.483  1.00  0.00     0.037 A 
ATOM     21  C   UNL A   1      33.735  28.609  26.804  1.00  0.00     0.019 A 
ATOM     22  Br  UNL A   1      35.201  29.458  27.641  1.00  0.00    -0.051 Br
ENDBRANCH  12  15
ENDBRANCH  10  12
ENDBRANCH   6  10
ENDBRANCH   3   5
ENDBRANCH   2   3
ENDBRANCH   1   2
BRANCH   1  23
ATOM     23  C   UNL A   1      39.644  22.297  26.646  1.00  0.00     0.275 C 
BRANCH  23  24
ATOM     24  O   UNL A   1      39.589  23.731  26.741  1.00  0.00    -0.458 OA
BRANCH  24  25
ATOM     25  C   UNL A   1      40.784  24.361  26.704  1.00  0.00     0.338 C 
ATOM     26  O   UNL A   1      41.697  24.178  25.916  1.00  0.00    -0.246 OA
BRANCH  25  27
ATOM     27  C   UNL A   1      40.824  25.374  27.764  1.00  0.00     0.060 A 
ATOM     28  C   UNL A   1      39.707  25.555  28.584  1.00  0.00     0.016 A 
ATOM     29  C   UNL A   1      41.939  26.202  27.885  1.00  0.00     0.016 A 
ATOM     30  C   UNL A   1      39.682  26.599  29.504  1.00  0.00     0.010 A 
ATOM     31  C   UNL A   1      41.932  27.217  28.843  1.00  0.00     0.010 A 
ATOM     32  C   UNL A   1      40.797  27.432  29.648  1.00  0.00    -0.014 A 
BRANCH  32  33
ATOM     33  C   UNL A   1      40.798  28.537  30.634  1.00  0.00     0.031 A 
ATOM     34  C   UNL A   1      41.744  28.492  31.798  1.00  0.00     0.074 A 
ATOM     35  C   UNL A   1      39.918  29.547  30.505  1.00  0.00     0.049 A 
ATOM     36  N   UNL A   1      41.756  29.223  32.881  1.00  0.00    -0.248 NA
ATOM     37  C   UNL A   1      42.813  27.481  31.739  1.00  0.00     0.031 C 
ATOM     38  C   UNL A   1      38.985  29.720  29.391  1.00  0.00     0.029 A 
ATOM     39  N   UNL A   1      39.647  30.605  31.335  1.00  0.00    -0.354 N 
ATOM     40  C   UNL A   1      42.804  28.738  33.653  1.00  0.00     0.074 A 
ATOM     41  C   UNL A   1      43.406  27.648  32.914  1.00  0.00     0.031 C 
ATOM     42  C   UNL A   1      38.235  30.812  29.611  1.00  0.00     0.029 A 
ATOM     43  C   UNL A   1      38.588  31.373  30.911  1.00  0.00     0.049 A 
ATOM     44  H   UNL A   1      40.159  30.796  32.153  1.00  0.00     0.167 HD
ATOM     45  C   UNL A   1      43.217  29.163  34.870  1.00  0.00     0.037 A 
ATOM     46  C   UNL A   1      37.940  32.381  31.525  1.00  0.00     0.037 A 
ATOM     47  C   UNL A   1      42.621  30.265  35.580  1.00  0.00     0.049 A 
ATOM     48  C   UNL A   1      38.382  32.804  32.899  1.00  0.00     0.074 A 
ATOM     49  C   UNL A   1      42.969  30.785  36.813  1.00  0.00     0.029 A 
ATOM     50  N   UNL A   1      41.552  31.018  35.116  1.00  0.00    -0.354 N 
ATOM     51  N   UNL A   1      39.356  32.320  33.633  1.00  0.00    -0.248 NA
ATOM     52  C   UNL A   1      37.634  33.898  33.532  1.00  0.00     0.031 C 
ATOM     53  C   UNL A   1      42.091  31.833  37.110  1.00  0.00     0.029 A 
ATOM     54  C   UNL A   1      41.220  31.991  36.042  1.00  0.00     0.049 A 
ATOM     55  H   UNL A   1      41.097  30.881  34.253  1.00  0.00     0.167 HD
ATOM     56  C   UNL A   1      39.350  33.064  34.807  1.00  0.00     0.074 A 
ATOM     57  C   UNL A   1      38.280  34.033  34.683  1.00  0.00     0.031 C 
ATOM     58  C   UNL A   1      40.160  32.956  35.889  1.00  0.00     0.037 A 
BRANCH  45  59
ATOM     59  C   UNL A   1      44.344  28.416  35.525  1.00  0.00     0.058 A 
ATOM     60  C   UNL A   1      45.688  28.758  35.305  1.00  0.00     0.135 A 
ATOM     61  C   UNL A   1      44.074  27.359  36.408  1.00  0.00     0.135 A 
ATOM     62  F   UNL A   1      46.002  29.748  34.455  1.00  0.00    -0.206 F 
ATOM     63  C   UNL A   1      46.724  28.063  35.920  1.00  0.00     0.059 A 
ATOM     64  C   UNL A   1      45.093  26.664  37.051  1.00  0.00     0.059 A 
ATOM     65  F   UNL A   1      42.806  26.989  36.652  1.00  0.00    -0.206 F 
ATOM     66  C   UNL A   1      46.416  27.013  36.789  1.00  0.00     0.060 A 
BRANCH  66  67
ATOM     67  S   UNL A   1      47.770  26.116  37.578  1.00  0.00     0.124 S 
ATOM     68  O   UNL A   1      47.476  24.742  37.182  1.00  0.00    -0.237 OA
ATOM     69  O   UNL A   1      48.948  26.716  36.958  1.00  0.00    -0.237 OA
ATOM     70  O   UNL A   1      47.594  26.412  38.996  1.00  0.00    -0.744 OA
ENDBRANCH  66  67
ENDBRANCH  45  59
BRANCH  46  71
ATOM     71  C   UNL A   1      36.782  33.028  30.857  1.00  0.00     0.058 A 
ATOM     72  C   UNL A   1      35.469  32.762  31.271  1.00  0.00     0.135 A 
ATOM     73  C   UNL A   1      36.965  33.949  29.814  1.00  0.00     0.135 A 
ATOM     74  F   UNL A   1      35.244  31.883  32.259  1.00  0.00    -0.206 F 
ATOM     75  C   UNL A   1      34.378  33.383  30.673  1.00  0.00     0.059 A 
ATOM     76  C   UNL A   1      35.892  34.600  29.215  1.00  0.00     0.059 A 
ATOM     77  F   UNL A   1      38.204  34.247  29.390  1.00  0.00    -0.206 F 
ATOM     78  C   UNL A   1      34.600  34.304  29.648  1.00  0.00     0.060 A 
BRANCH  78  79
ATOM     79  S   UNL A   1      33.181  35.152  28.919  1.00  0.00     0.124 S 
ATOM     80  O   UNL A   1      33.821  36.297  28.282  1.00  0.00    -0.237 OA
ATOM     81  O   UNL A   1      32.645  34.136  28.018  1.00  0.00    -0.237 OA
ATOM     82  O   UNL A   1      32.345  35.457  30.075  1.00  0.00    -0.744 OA
ENDBRANCH  78  79
ENDBRANCH  46  71
BRANCH  58  83
ATOM     83  C   UNL A   1      39.950  33.932  37.009  1.00  0.00     0.058 A 
ATOM     84  C   UNL A   1      40.464  35.235  36.955  1.00  0.00     0.135 A 
ATOM     85  C   UNL A   1      39.155  33.581  38.112  1.00  0.00     0.135 A 
ATOM     86  F   UNL A   1      41.237  35.614  35.924  1.00  0.00    -0.206 F 
ATOM     87  C   UNL A   1      40.201  36.160  37.960  1.00  0.00     0.059 A 
ATOM     88  C   UNL A   1      38.863  34.494  39.118  1.00  0.00     0.059 A 
ATOM     89  F   UNL A   1      38.636  32.346  38.205  1.00  0.00    -0.206 F 
ATOM     90  C   UNL A   1      39.395  35.781  39.035  1.00  0.00     0.060 A 
BRANCH  90  91
ATOM     91  S   UNL A   1      39.006  37.007  40.302  1.00  0.00     0.124 S 
ATOM     92  O   UNL A   1      40.315  37.234  40.904  1.00  0.00    -0.237 OA
ATOM     93  O   UNL A   1      38.469  38.113  39.514  1.00  0.00    -0.237 OA
ATOM     94  O   UNL A   1      38.035  36.323  41.150  1.00  0.00    -0.744 OA
ENDBRANCH  90  91
ENDBRANCH  58  83
ENDBRANCH  32  33
ENDBRANCH  25  27
ENDBRANCH  24  25
ENDBRANCH  23  24
ENDBRANCH   1  23
TORSDOF 17
ENDMDL
MODEL 3
REMARK VINA RESULT:     -10.8      5.249     10.793
REMARK SMILES Cc1ccc(Br)cc1S(=O)(=O)N[C@H]1C=C[C@H](C(=O)OCCOC(=O)c2ccc(-c3c4nc(c(-c5c(F)cc(S(=O)(=O)[O-])cc5F)c5ccc([nH]5)c(-c5c(F)cc(S(=O)(=O)[O-])cc5F)c5nc(c(-c6c(F)cc(S(=O)(=O)[O-])cc6F)c6ccc3[nH]6)C=C5)C=C4)cc2)C1
REMARK SMILES IDX 20 1 19 2 17 3 18 4 16 5 13 6 14 7 91 8 15 9 12 10 9 12
REMARK SMILES IDX 10 13 11 14 8 15 1 16 2 17 3 18 4 19 7 20 5 21 6 22 21 23
REMARK SMILES IDX 22 24 23 25 24 26 25 27 26 28 90 29 27 30 89 31 28 32 29 33
REMARK SMILES IDX 30 34 83 35 31 36 88 37 82 38 84 39 32 40 87 41 81 42 80 43
REMARK SMILES IDX 33 45 67 46 46 47 66 48 47 49 50 50 65 51 85 52 48 53 49 54
REMARK SMILES IDX 64 56 86 57 51 58 34 59 35 60 44 61 36 62 37 63 43 64 45 65
REMARK SMILES IDX 38 66 39 67 40 68 41 69 42 70 68 71 69 72 78 73 70 74 71 75
REMARK SMILES IDX 77 76 79 77 72 78 73 79 74 80 75 81 76 82 52 83 53 84 62 85
REMARK SMILES IDX 54 86 55 87 61 88 63 89 56 90 57 91 58 92 59 93 60 94
REMARK H PARENT 12 11 84 44 50 55
REMARK Flexibility Score: inf
ROOT
ATOM      1  C   UNL A   1      37.824  22.019  25.317  1.00  0.00     0.274 C 
ENDROOT
BRANCH   1   2
ATOM      2  O   UNL A   1      36.548  21.980  25.985  1.00  0.00    -0.462 OA
BRANCH   2   3
ATOM      3  C   UNL A   1      35.488  21.566  25.245  1.00  0.00     0.312 C 
ATOM      4  O   UNL A   1      35.246  20.394  24.976  1.00  0.00    -0.252 OA
BRANCH   3   5
ATOM      5  C   UNL A   1      34.571  22.704  24.818  1.00  0.00     0.123 C 
ATOM      6  C   UNL A   1      34.470  24.926  23.811  1.00  0.00     0.093 C 
ATOM      7  C   UNL A   1      34.405  24.992  25.305  1.00  0.00    -0.011 C 
ATOM      8  C   UNL A   1      35.020  23.514  23.596  1.00  0.00     0.043 C 
ATOM      9  C   UNL A   1      34.428  23.774  25.857  1.00  0.00    -0.015 C 
BRANCH   6  10
ATOM     10  N   UNL A   1      33.093  25.117  23.373  1.00  0.00    -0.204 NA
ATOM     11  H   UNL A   1      32.744  24.192  23.120  1.00  0.00     0.142 HD
BRANCH  10  12
ATOM     12  S   UNL A   1      32.700  26.125  22.107  1.00  0.00     0.241 S 
ATOM     13  O   UNL A   1      31.712  25.433  21.303  1.00  0.00    -0.207 OA
ATOM     14  O   UNL A   1      33.941  26.595  21.541  1.00  0.00    -0.207 OA
BRANCH  12  15
ATOM     15  C   UNL A   1      31.919  27.531  22.878  1.00  0.00     0.086 A 
ATOM     16  C   UNL A   1      34.080  28.417  23.998  1.00  0.00     0.046 C 
ATOM     17  C   UNL A   1      32.601  28.422  23.731  1.00  0.00    -0.031 A 
ATOM     18  C   UNL A   1      31.846  29.411  24.391  1.00  0.00     0.006 A 
ATOM     19  C   UNL A   1      30.474  29.545  24.172  1.00  0.00     0.016 A 
ATOM     20  C   UNL A   1      30.542  27.683  22.641  1.00  0.00     0.037 A 
ATOM     21  C   UNL A   1      29.832  28.693  23.282  1.00  0.00     0.019 A 
ATOM     22  Br  UNL A   1      27.984  28.898  22.948  1.00  0.00    -0.051 Br
ENDBRANCH  12  15
ENDBRANCH  10  12
ENDBRANCH   6  10
ENDBRANCH   3   5
ENDBRANCH   2   3
ENDBRANCH   1   2
BRANCH   1  23
ATOM     23  C   UNL A   1      38.960  22.269  26.310  1.00  0.00     0.275 C 
BRANCH  23  24
ATOM     24  O   UNL A   1      39.086  23.670  26.605  1.00  0.00    -0.458 OA
BRANCH  24  25
ATOM     25  C   UNL A   1      40.353  24.124  26.733  1.00  0.00     0.338 C 
ATOM     26  O   UNL A   1      41.355  23.694  26.187  1.00  0.00    -0.246 OA
BRANCH  25  27
ATOM     27  C   UNL A   1      40.357  25.287  27.627  1.00  0.00     0.060 A 
ATOM     28  C   UNL A   1      41.433  26.178  27.592  1.00  0.00     0.016 A 
ATOM     29  C   UNL A   1      39.332  25.444  28.558  1.00  0.00     0.016 A 
ATOM     30  C   UNL A   1      41.513  27.209  28.522  1.00  0.00     0.010 A 
ATOM     31  C   UNL A   1      39.388  26.510  29.458  1.00  0.00     0.010 A 
ATOM     32  C   UNL A   1      40.487  27.389  29.456  1.00  0.00    -0.014 A 
BRANCH  32  33
ATOM     33  C   UNL A   1      40.543  28.492  30.443  1.00  0.00     0.031 A 
ATOM     34  C   UNL A   1      41.505  28.411  31.593  1.00  0.00     0.074 A 
ATOM     35  C   UNL A   1      39.699  29.534  30.329  1.00  0.00     0.049 A 
ATOM     36  N   UNL A   1      41.560  29.140  32.676  1.00  0.00    -0.248 NA
ATOM     37  C   UNL A   1      42.535  27.362  31.517  1.00  0.00     0.031 C 
ATOM     38  C   UNL A   1      38.756  29.743  29.229  1.00  0.00     0.029 A 
ATOM     39  N   UNL A   1      39.479  30.600  31.164  1.00  0.00    -0.354 N 
ATOM     40  C   UNL A   1      42.602  28.616  33.431  1.00  0.00     0.074 A 
ATOM     41  C   UNL A   1      43.152  27.506  32.682  1.00  0.00     0.031 C 
ATOM     42  C   UNL A   1      38.050  30.861  29.462  1.00  0.00     0.029 A 
ATOM     43  C   UNL A   1      38.443  31.407  30.757  1.00  0.00     0.049 A 
ATOM     44  H   UNL A   1      40.011  30.771  31.974  1.00  0.00     0.167 HD
ATOM     45  C   UNL A   1      43.049  29.024  34.642  1.00  0.00     0.037 A 
ATOM     46  C   UNL A   1      37.842  32.437  31.382  1.00  0.00     0.037 A 
ATOM     47  C   UNL A   1      42.504  30.146  35.362  1.00  0.00     0.049 A 
ATOM     48  C   UNL A   1      38.320  32.842  32.748  1.00  0.00     0.074 A 
ATOM     49  C   UNL A   1      42.890  30.651  36.590  1.00  0.00     0.029 A 
ATOM     50  N   UNL A   1      41.456  30.938  34.915  1.00  0.00    -0.354 N 
ATOM     51  N   UNL A   1      39.287  32.322  33.467  1.00  0.00    -0.248 NA
ATOM     52  C   UNL A   1      37.622  33.961  33.394  1.00  0.00     0.031 C 
ATOM     53  C   UNL A   1      42.055  31.730  36.901  1.00  0.00     0.029 A 
ATOM     54  C   UNL A   1      41.174  31.921  35.847  1.00  0.00     0.049 A 
ATOM     55  H   UNL A   1      40.983  30.819  34.059  1.00  0.00     0.167 HD
ATOM     56  C   UNL A   1      39.326  33.064  34.642  1.00  0.00     0.074 A 
ATOM     57  C   UNL A   1      38.291  34.071  34.535  1.00  0.00     0.031 C 
ATOM     58  C   UNL A   1      40.148  32.924  35.711  1.00  0.00     0.037 A 
BRANCH  45  59
ATOM     59  C   UNL A   1      44.158  28.235  35.279  1.00  0.00     0.058 A 
ATOM     60  C   UNL A   1      43.901  27.143  36.123  1.00  0.00     0.135 A 
ATOM     61  C   UNL A   1      45.498  28.559  35.015  1.00  0.00     0.135 A 
ATOM     62  F   UNL A   1      42.638  26.803  36.423  1.00  0.00    -0.206 F 
ATOM     63  C   UNL A   1      44.935  26.416  36.704  1.00  0.00     0.059 A 
ATOM     64  C   UNL A   1      46.548  27.832  35.567  1.00  0.00     0.059 A 
ATOM     65  F   UNL A   1      45.798  29.596  34.216  1.00  0.00    -0.206 F 
ATOM     66  C   UNL A   1      46.257  26.771  36.422  1.00  0.00     0.060 A 
BRANCH  66  67
ATOM     67  S   UNL A   1      47.591  25.821  37.184  1.00  0.00     0.124 S 
ATOM     68  O   UNL A   1      47.102  25.684  38.553  1.00  0.00    -0.237 OA
ATOM     69  O   UNL A   1      47.599  24.597  36.389  1.00  0.00    -0.237 OA
ATOM     70  O   UNL A   1      48.758  26.681  37.017  1.00  0.00    -0.744 OA
ENDBRANCH  66  67
ENDBRANCH  45  59
BRANCH  46  71
ATOM     71  C   UNL A   1      36.698  33.127  30.732  1.00  0.00     0.058 A 
ATOM     72  C   UNL A   1      35.377  32.826  31.091  1.00  0.00     0.135 A 
ATOM     73  C   UNL A   1      36.904  34.123  29.764  1.00  0.00     0.135 A 
ATOM     74  F   UNL A   1      35.131  31.876  32.005  1.00  0.00    -0.206 F 
ATOM     75  C   UNL A   1      34.298  33.485  30.510  1.00  0.00     0.059 A 
ATOM     76  C   UNL A   1      35.843  34.811  29.186  1.00  0.00     0.059 A 
ATOM     77  F   UNL A   1      38.151  34.456  29.397  1.00  0.00    -0.206 F 
ATOM     78  C   UNL A   1      34.541  34.480  29.561  1.00  0.00     0.060 A 
BRANCH  78  79
ATOM     79  S   UNL A   1      33.137  35.374  28.859  1.00  0.00     0.124 S 
ATOM     80  O   UNL A   1      32.452  34.313  28.129  1.00  0.00    -0.237 OA
ATOM     81  O   UNL A   1      32.460  35.871  30.052  1.00  0.00    -0.237 OA
ATOM     82  O   UNL A   1      33.773  36.398  28.036  1.00  0.00    -0.744 OA
ENDBRANCH  78  79
ENDBRANCH  46  71
BRANCH  58  83
ATOM     83  C   UNL A   1      39.992  33.906  36.835  1.00  0.00     0.058 A 
ATOM     84  C   UNL A   1      40.645  35.147  36.824  1.00  0.00     0.135 A 
ATOM     85  C   UNL A   1      39.112  33.632  37.895  1.00  0.00     0.135 A 
ATOM     86  F   UNL A   1      41.502  35.451  35.836  1.00  0.00    -0.206 F 
ATOM     87  C   UNL A   1      40.435  36.084  37.831  1.00  0.00     0.059 A 
ATOM     88  C   UNL A   1      38.872  34.561  38.900  1.00  0.00     0.059 A 
ATOM     89  F   UNL A   1      38.459  32.460  37.945  1.00  0.00    -0.206 F 
ATOM     90  C   UNL A   1      39.542  35.784  38.861  1.00  0.00     0.060 A 
BRANCH  90  91
ATOM     91  S   UNL A   1      39.228  37.032  40.128  1.00  0.00     0.124 S 
ATOM     92  O   UNL A   1      40.581  37.354  40.566  1.00  0.00    -0.237 OA
ATOM     93  O   UNL A   1      38.540  38.077  39.375  1.00  0.00    -0.237 OA
ATOM     94  O   UNL A   1      38.403  36.326  41.102  1.00  0.00    -0.744 OA
ENDBRANCH  90  91
ENDBRANCH  58  83
ENDBRANCH  32  33
ENDBRANCH  25  27
ENDBRANCH  24  25
ENDBRANCH  23  24
ENDBRANCH   1  23
TORSDOF 17
ENDMDL
