MODEL 1
REMARK VINA RESULT:     -10.4      0.000      0.000
REMARK SMILES CC(C)(O)CCOc1ccc(C(=O)OCCOC(=O)c2ccc(-c3c4nc(c(-c5c(F)cc(S(=O)(=O)[O-])cc5F)c5ccc([nH]5)c(-c5c(F)cc(S(=O)(=O)[O-])cc5F)c5nc(c(-c6c(F)cc(S(=O)(=O)[O-])cc6F)c6ccc3[nH]6)C=C5)C=C4)cc2)cc1
REMARK SMILES IDX 15 1 14 2 12 3 13 4 11 5 8 6 9 7 87 8 10 9 86 10 7 11 6 12
REMARK SMILES IDX 5 13 2 14 1 15 3 16 4 17 16 19 17 20 18 21 19 22 20 23 21 24
REMARK SMILES IDX 85 25 22 26 84 27 23 28 24 29 25 30 78 31 26 32 83 33 77 34
REMARK SMILES IDX 79 35 27 36 82 37 76 38 75 39 28 41 62 42 41 43 61 44 42 45
REMARK SMILES IDX 45 46 60 47 80 48 43 49 44 50 59 52 81 53 46 54 29 55 30 56
REMARK SMILES IDX 39 57 31 58 32 59 38 60 40 61 33 62 34 63 35 64 36 65 37 66
REMARK SMILES IDX 63 67 64 68 73 69 65 70 66 71 72 72 74 73 67 74 68 75 69 76
REMARK SMILES IDX 70 77 71 78 47 79 48 80 57 81 49 82 50 83 56 84 58 85 51 86
REMARK SMILES IDX 52 87 53 88 54 89 55 90
REMARK H PARENT 4 18 79 40 45 51
REMARK Flexibility Score: inf
ROOT
ATOM      1  C   UNL A   1      39.605  21.212  26.120  1.00  0.00     0.275 C 
ENDROOT
BRANCH   1   2
ATOM      2  O   UNL A   1      38.400  21.747  25.541  1.00  0.00    -0.458 OA
BRANCH   2   3
ATOM      3  C   UNL A   1      37.563  20.825  25.005  1.00  0.00     0.338 C 
ATOM      4  O   UNL A   1      37.825  19.672  24.714  1.00  0.00    -0.246 OA
BRANCH   3   5
ATOM      5  C   UNL A   1      36.265  21.454  24.698  1.00  0.00     0.060 A 
ATOM      6  C   UNL A   1      33.774  22.485  24.009  1.00  0.00     0.119 A 
ATOM      7  C   UNL A   1      34.919  23.270  23.858  1.00  0.00     0.047 A 
ATOM      8  C   UNL A   1      33.860  21.252  24.655  1.00  0.00     0.047 A 
ATOM      9  C   UNL A   1      36.175  22.735  24.145  1.00  0.00     0.019 A 
ATOM     10  C   UNL A   1      35.108  20.737  25.005  1.00  0.00     0.019 A 
BRANCH   6  11
ATOM     11  O   UNL A   1      32.645  22.990  23.430  1.00  0.00    -0.493 OA
BRANCH  11  12
ATOM     12  C   UNL A   1      32.398  24.388  23.613  1.00  0.00     0.232 C 
BRANCH  12  13
ATOM     13  C   UNL A   1      31.527  25.038  22.518  1.00  0.00     0.076 C 
BRANCH  13  14
ATOM     14  C   UNL A   1      32.195  26.080  21.587  1.00  0.00     0.062 C 
ATOM     15  C   UNL A   1      32.530  25.502  20.206  1.00  0.00     0.042 C 
ATOM     16  C   UNL A   1      33.508  26.586  22.200  1.00  0.00     0.042 C 
BRANCH  14  17
ATOM     17  O   UNL A   1      31.353  27.228  21.487  1.00  0.00    -0.390 OA
ATOM     18  H   UNL A   1      30.913  27.231  20.621  1.00  0.00     0.211 HD
ENDBRANCH  14  17
ENDBRANCH  13  14
ENDBRANCH  12  13
ENDBRANCH  11  12
ENDBRANCH   6  11
ENDBRANCH   3   5
ENDBRANCH   2   3
ENDBRANCH   1   2
BRANCH   1  19
ATOM     19  C   UNL A   1      40.341  22.276  26.929  1.00  0.00     0.275 C 
BRANCH  19  20
ATOM     20  O   UNL A   1      39.841  23.583  26.605  1.00  0.00    -0.458 OA
BRANCH  20  21
ATOM     21  C   UNL A   1      40.793  24.540  26.510  1.00  0.00     0.338 C 
ATOM     22  O   UNL A   1      41.778  24.541  25.791  1.00  0.00    -0.246 OA
BRANCH  21  23
ATOM     23  C   UNL A   1      40.450  25.686  27.361  1.00  0.00     0.060 A 
ATOM     24  C   UNL A   1      41.236  26.831  27.277  1.00  0.00     0.016 A 
ATOM     25  C   UNL A   1      39.510  25.550  28.380  1.00  0.00     0.016 A 
ATOM     26  C   UNL A   1      41.181  27.788  28.281  1.00  0.00     0.010 A 
ATOM     27  C   UNL A   1      39.376  26.570  29.329  1.00  0.00     0.010 A 
ATOM     28  C   UNL A   1      40.248  27.675  29.321  1.00  0.00    -0.014 A 
BRANCH  28  29
ATOM     29  C   UNL A   1      40.239  28.677  30.422  1.00  0.00     0.031 A 
ATOM     30  C   UNL A   1      41.263  28.594  31.527  1.00  0.00     0.074 A 
ATOM     31  C   UNL A   1      39.348  29.689  30.415  1.00  0.00     0.049 A 
ATOM     32  N   UNL A   1      41.323  29.261  32.651  1.00  0.00    -0.248 NA
ATOM     33  C   UNL A   1      42.355  27.622  31.351  1.00  0.00     0.031 C 
ATOM     34  C   UNL A   1      38.335  29.920  29.381  1.00  0.00     0.029 A 
ATOM     35  N   UNL A   1      39.159  30.725  31.296  1.00  0.00    -0.354 N 
ATOM     36  C   UNL A   1      42.411  28.742  33.345  1.00  0.00     0.074 A 
ATOM     37  C   UNL A   1      42.989  27.710  32.512  1.00  0.00     0.031 C 
ATOM     38  C   UNL A   1      37.672  31.052  29.658  1.00  0.00     0.029 A 
ATOM     39  C   UNL A   1      38.143  31.578  30.934  1.00  0.00     0.049 A 
ATOM     40  H   UNL A   1      39.700  30.846  32.109  1.00  0.00     0.167 HD
ATOM     41  C   UNL A   1      42.881  29.096  34.566  1.00  0.00     0.037 A 
ATOM     42  C   UNL A   1      37.619  32.640  31.573  1.00  0.00     0.037 A 
ATOM     43  C   UNL A   1      42.342  30.173  35.355  1.00  0.00     0.049 A 
ATOM     44  C   UNL A   1      38.159  33.017  32.923  1.00  0.00     0.074 A 
ATOM     45  C   UNL A   1      42.747  30.615  36.603  1.00  0.00     0.029 A 
ATOM     46  N   UNL A   1      41.299  30.998  34.960  1.00  0.00    -0.354 N 
ATOM     47  N   UNL A   1      39.132  32.461  33.603  1.00  0.00    -0.248 NA
ATOM     48  C   UNL A   1      37.514  34.149  33.603  1.00  0.00     0.031 C 
ATOM     49  C   UNL A   1      41.932  31.691  36.973  1.00  0.00     0.029 A 
ATOM     50  C   UNL A   1      41.043  31.942  35.940  1.00  0.00     0.049 A 
ATOM     51  H   UNL A   1      40.812  30.922  34.107  1.00  0.00     0.167 HD
ATOM     52  C   UNL A   1      39.213  33.171  34.795  1.00  0.00     0.074 A 
ATOM     53  C   UNL A   1      38.211  34.215  34.729  1.00  0.00     0.031 C 
ATOM     54  C   UNL A   1      40.037  32.970  35.854  1.00  0.00     0.037 A 
BRANCH  41  55
ATOM     55  C   UNL A   1      44.007  28.283  35.141  1.00  0.00     0.058 A 
ATOM     56  C   UNL A   1      43.785  27.104  35.867  1.00  0.00     0.135 A 
ATOM     57  C   UNL A   1      45.339  28.684  34.937  1.00  0.00     0.135 A 
ATOM     58  F   UNL A   1      42.533  26.684  36.107  1.00  0.00    -0.206 F 
ATOM     59  C   UNL A   1      44.841  26.364  36.396  1.00  0.00     0.059 A 
ATOM     60  C   UNL A   1      46.411  27.949  35.435  1.00  0.00     0.059 A 
ATOM     61  F   UNL A   1      45.609  29.804  34.249  1.00  0.00    -0.206 F 
ATOM     62  C   UNL A   1      46.151  26.799  36.179  1.00  0.00     0.060 A 
BRANCH  62  63
ATOM     63  S   UNL A   1      47.513  25.836  36.872  1.00  0.00     0.124 S 
ATOM     64  O   UNL A   1      48.263  25.488  35.669  1.00  0.00    -0.237 OA
ATOM     65  O   UNL A   1      48.156  26.796  37.764  1.00  0.00    -0.237 OA
ATOM     66  O   UNL A   1      46.839  24.725  37.536  1.00  0.00    -0.744 OA
ENDBRANCH  62  63
ENDBRANCH  41  55
BRANCH  42  67
ATOM     67  C   UNL A   1      36.489  33.387  30.960  1.00  0.00     0.058 A 
ATOM     68  C   UNL A   1      36.692  34.229  29.856  1.00  0.00     0.135 A 
ATOM     69  C   UNL A   1      35.179  33.249  31.444  1.00  0.00     0.135 A 
ATOM     70  F   UNL A   1      37.928  34.403  29.364  1.00  0.00    -0.206 F 
ATOM     71  C   UNL A   1      35.636  34.907  29.254  1.00  0.00     0.059 A 
ATOM     72  C   UNL A   1      34.103  33.894  30.844  1.00  0.00     0.059 A 
ATOM     73  F   UNL A   1      34.931  32.446  32.491  1.00  0.00    -0.206 F 
ATOM     74  C   UNL A   1      34.344  34.729  29.753  1.00  0.00     0.060 A 
BRANCH  74  75
ATOM     75  S   UNL A   1      32.966  35.554  28.926  1.00  0.00     0.124 S 
ATOM     76  O   UNL A   1      32.383  34.457  28.164  1.00  0.00    -0.237 OA
ATOM     77  O   UNL A   1      32.174  36.040  30.053  1.00  0.00    -0.237 OA
ATOM     78  O   UNL A   1      33.624  36.593  28.140  1.00  0.00    -0.744 OA
ENDBRANCH  74  75
ENDBRANCH  42  67
BRANCH  54  79
ATOM     79  C   UNL A   1      39.890  33.909  37.016  1.00  0.00     0.058 A 
ATOM     80  C   UNL A   1      40.467  35.187  36.998  1.00  0.00     0.135 A 
ATOM     81  C   UNL A   1      39.144  33.536  38.144  1.00  0.00     0.135 A 
ATOM     82  F   UNL A   1      41.196  35.586  35.944  1.00  0.00    -0.206 F 
ATOM     83  C   UNL A   1      40.331  36.058  38.074  1.00  0.00     0.059 A 
ATOM     84  C   UNL A   1      38.977  34.398  39.222  1.00  0.00     0.059 A 
ATOM     85  F   UNL A   1      38.565  32.326  38.203  1.00  0.00    -0.206 F 
ATOM     86  C   UNL A   1      39.587  35.652  39.184  1.00  0.00     0.060 A 
BRANCH  86  87
ATOM     87  S   UNL A   1      39.401  36.794  40.569  1.00  0.00     0.124 S 
ATOM     88  O   UNL A   1      38.988  38.016  39.888  1.00  0.00    -0.237 OA
ATOM     89  O   UNL A   1      38.377  36.143  41.381  1.00  0.00    -0.237 OA
ATOM     90  O   UNL A   1      40.735  36.825  41.163  1.00  0.00    -0.744 OA
ENDBRANCH  86  87
ENDBRANCH  54  79
ENDBRANCH  28  29
ENDBRANCH  21  23
ENDBRANCH  20  21
ENDBRANCH  19  20
ENDBRANCH   1  19
TORSDOF 19
ENDMDL
MODEL 2
REMARK VINA RESULT:     -10.3      7.098     12.153
REMARK SMILES CC(C)(O)CCOc1ccc(C(=O)OCCOC(=O)c2ccc(-c3c4nc(c(-c5c(F)cc(S(=O)(=O)[O-])cc5F)c5ccc([nH]5)c(-c5c(F)cc(S(=O)(=O)[O-])cc5F)c5nc(c(-c6c(F)cc(S(=O)(=O)[O-])cc6F)c6ccc3[nH]6)C=C5)C=C4)cc2)cc1
REMARK SMILES IDX 15 1 14 2 12 3 13 4 11 5 8 6 9 7 87 8 10 9 86 10 7 11 6 12
REMARK SMILES IDX 5 13 2 14 1 15 3 16 4 17 16 19 17 20 18 21 19 22 20 23 21 24
REMARK SMILES IDX 85 25 22 26 84 27 23 28 24 29 25 30 78 31 26 32 83 33 77 34
REMARK SMILES IDX 79 35 27 36 82 37 76 38 75 39 28 41 62 42 41 43 61 44 42 45
REMARK SMILES IDX 45 46 60 47 80 48 43 49 44 50 59 52 81 53 46 54 29 55 30 56
REMARK SMILES IDX 39 57 31 58 32 59 38 60 40 61 33 62 34 63 35 64 36 65 37 66
REMARK SMILES IDX 63 67 64 68 73 69 65 70 66 71 72 72 74 73 67 74 68 75 69 76
REMARK SMILES IDX 70 77 71 78 47 79 48 80 57 81 49 82 50 83 56 84 58 85 51 86
REMARK SMILES IDX 52 87 53 88 54 89 55 90
REMARK H PARENT 4 18 79 40 45 51
REMARK Flexibility Score: inf
ROOT
ATOM      1  C   UNL A   1      35.147  32.815  30.292  1.00  0.00     0.275 C 
ENDROOT
BRANCH   1   2
ATOM      2  O   UNL A   1      34.318  32.182  29.300  1.00  0.00    -0.458 OA
BRANCH   2   3
ATOM      3  C   UNL A   1      34.945  31.882  28.136  1.00  0.00     0.338 C 
ATOM      4  O   UNL A   1      35.920  32.435  27.659  1.00  0.00    -0.246 OA
BRANCH   3   5
ATOM      5  C   UNL A   1      34.196  30.828  27.428  1.00  0.00     0.060 A 
ATOM      6  C   UNL A   1      32.918  28.846  25.950  1.00  0.00     0.119 A 
ATOM      7  C   UNL A   1      32.191  29.943  26.421  1.00  0.00     0.047 A 
ATOM      8  C   UNL A   1      34.238  28.664  26.358  1.00  0.00     0.047 A 
ATOM      9  C   UNL A   1      32.842  30.966  27.109  1.00  0.00     0.019 A 
ATOM     10  C   UNL A   1      34.879  29.655  27.102  1.00  0.00     0.019 A 
BRANCH   6  11
ATOM     11  O   UNL A   1      32.259  28.060  25.048  1.00  0.00    -0.493 OA
BRANCH  11  12
ATOM     12  C   UNL A   1      30.884  28.372  24.806  1.00  0.00     0.232 C 
BRANCH  12  13
ATOM     13  C   UNL A   1      30.477  28.385  23.317  1.00  0.00     0.076 C 
BRANCH  13  14
ATOM     14  C   UNL A   1      29.836  29.678  22.755  1.00  0.00     0.062 C 
ATOM     15  C   UNL A   1      29.638  30.750  23.834  1.00  0.00     0.042 C 
ATOM     16  C   UNL A   1      28.456  29.376  22.154  1.00  0.00     0.042 C 
BRANCH  14  17
ATOM     17  O   UNL A   1      30.628  30.161  21.671  1.00  0.00    -0.390 OA
ATOM     18  H   UNL A   1      31.554  29.905  21.808  1.00  0.00     0.211 HD
ENDBRANCH  14  17
ENDBRANCH  13  14
ENDBRANCH  12  13
ENDBRANCH  11  12
ENDBRANCH   6  11
ENDBRANCH   3   5
ENDBRANCH   2   3
ENDBRANCH   1   2
BRANCH   1  19
ATOM     19  C   UNL A   1      35.285  31.934  31.530  1.00  0.00     0.275 C 
BRANCH  19  20
ATOM     20  O   UNL A   1      36.650  31.517  31.695  1.00  0.00    -0.458 OA
BRANCH  20  21
ATOM     21  C   UNL A   1      36.965  30.364  31.061  1.00  0.00     0.338 C 
ATOM     22  O   UNL A   1      36.224  29.427  30.811  1.00  0.00    -0.246 OA
BRANCH  21  23
ATOM     23  C   UNL A   1      38.360  30.396  30.608  1.00  0.00     0.060 A 
ATOM     24  C   UNL A   1      38.613  30.651  29.263  1.00  0.00     0.016 A 
ATOM     25  C   UNL A   1      39.384  29.963  31.447  1.00  0.00     0.016 A 
ATOM     26  C   UNL A   1      39.856  30.351  28.720  1.00  0.00     0.010 A 
ATOM     27  C   UNL A   1      40.665  29.769  30.921  1.00  0.00     0.010 A 
ATOM     28  C   UNL A   1      40.902  29.909  29.540  1.00  0.00    -0.014 A 
BRANCH  28  29
ATOM     29  C   UNL A   1      42.211  29.535  28.937  1.00  0.00     0.031 A 
ATOM     30  C   UNL A   1      42.412  28.154  28.365  1.00  0.00     0.074 A 
ATOM     31  C   UNL A   1      43.207  30.441  28.856  1.00  0.00     0.049 A 
ATOM     32  N   UNL A   1      43.513  27.583  27.950  1.00  0.00    -0.248 NA
ATOM     33  C   UNL A   1      41.219  27.297  28.260  1.00  0.00     0.031 C 
ATOM     34  C   UNL A   1      43.132  31.828  29.322  1.00  0.00     0.029 A 
ATOM     35  N   UNL A   1      44.473  30.337  28.337  1.00  0.00    -0.354 N 
ATOM     36  C   UNL A   1      43.161  26.283  27.603  1.00  0.00     0.074 A 
ATOM     37  C   UNL A   1      41.741  26.151  27.848  1.00  0.00     0.031 C 
ATOM     38  C   UNL A   1      44.277  32.458  29.019  1.00  0.00     0.029 A 
ATOM     39  C   UNL A   1      45.202  31.501  28.426  1.00  0.00     0.049 A 
ATOM     40  H   UNL A   1      44.827  29.510  27.938  1.00  0.00     0.167 HD
ATOM     41  C   UNL A   1      43.953  25.292  27.126  1.00  0.00     0.037 A 
ATOM     42  C   UNL A   1      46.483  31.761  28.105  1.00  0.00     0.037 A 
ATOM     43  C   UNL A   1      45.350  25.456  26.817  1.00  0.00     0.049 A 
ATOM     44  C   UNL A   1      47.341  30.649  27.573  1.00  0.00     0.074 A 
ATOM     45  C   UNL A   1      46.242  24.516  26.327  1.00  0.00     0.029 A 
ATOM     46  N   UNL A   1      46.054  26.645  26.942  1.00  0.00    -0.354 N 
ATOM     47  N   UNL A   1      47.015  29.402  27.333  1.00  0.00    -0.248 NA
ATOM     48  C   UNL A   1      48.747  30.972  27.292  1.00  0.00     0.031 C 
ATOM     49  C   UNL A   1      47.490  25.133  26.178  1.00  0.00     0.029 A 
ATOM     50  C   UNL A   1      47.367  26.464  26.544  1.00  0.00     0.049 A 
ATOM     51  H   UNL A   1      45.674  27.493  27.268  1.00  0.00     0.167 HD
ATOM     52  C   UNL A   1      48.175  28.788  26.878  1.00  0.00     0.074 A 
ATOM     53  C   UNL A   1      49.204  29.809  26.848  1.00  0.00     0.031 C 
ATOM     54  C   UNL A   1      48.375  27.493  26.527  1.00  0.00     0.037 A 
BRANCH  41  55
ATOM     55  C   UNL A   1      43.337  23.932  26.949  1.00  0.00     0.058 A 
ATOM     56  C   UNL A   1      42.982  23.429  25.689  1.00  0.00     0.135 A 
ATOM     57  C   UNL A   1      43.120  23.107  28.067  1.00  0.00     0.135 A 
ATOM     58  F   UNL A   1      43.150  24.181  24.589  1.00  0.00    -0.206 F 
ATOM     59  C   UNL A   1      42.408  22.168  25.543  1.00  0.00     0.059 A 
ATOM     60  C   UNL A   1      42.571  21.834  27.943  1.00  0.00     0.059 A 
ATOM     61  F   UNL A   1      43.442  23.539  29.296  1.00  0.00    -0.206 F 
ATOM     62  C   UNL A   1      42.202  21.380  26.679  1.00  0.00     0.060 A 
BRANCH  62  63
ATOM     63  S   UNL A   1      41.453  19.748  26.480  1.00  0.00     0.124 S 
ATOM     64  O   UNL A   1      40.048  20.094  26.299  1.00  0.00    -0.237 OA
ATOM     65  O   UNL A   1      42.135  19.230  25.299  1.00  0.00    -0.237 OA
ATOM     66  O   UNL A   1      41.778  19.072  27.732  1.00  0.00    -0.744 OA
ENDBRANCH  62  63
ENDBRANCH  41  55
BRANCH  42  67
ATOM     67  C   UNL A   1      47.038  33.123  28.327  1.00  0.00     0.058 A 
ATOM     68  C   UNL A   1      46.966  34.105  27.330  1.00  0.00     0.135 A 
ATOM     69  C   UNL A   1      47.622  33.477  29.554  1.00  0.00     0.135 A 
ATOM     70  F   UNL A   1      46.429  33.811  26.136  1.00  0.00    -0.206 F 
ATOM     71  C   UNL A   1      47.452  35.393  27.539  1.00  0.00     0.059 A 
ATOM     72  C   UNL A   1      48.090  34.763  29.797  1.00  0.00     0.059 A 
ATOM     73  F   UNL A   1      47.704  32.576  30.544  1.00  0.00    -0.206 F 
ATOM     74  C   UNL A   1      48.009  35.712  28.779  1.00  0.00     0.060 A 
BRANCH  74  75
ATOM     75  S   UNL A   1      48.576  37.403  29.073  1.00  0.00     0.124 S 
ATOM     76  O   UNL A   1      48.033  37.666  30.400  1.00  0.00    -0.237 OA
ATOM     77  O   UNL A   1      50.027  37.263  28.993  1.00  0.00    -0.237 OA
ATOM     78  O   UNL A   1      47.967  38.153  27.979  1.00  0.00    -0.744 OA
ENDBRANCH  74  75
ENDBRANCH  42  67
BRANCH  54  79
ATOM     79  C   UNL A   1      49.755  27.120  26.070  1.00  0.00     0.058 A 
ATOM     80  C   UNL A   1      50.720  26.650  26.974  1.00  0.00     0.135 A 
ATOM     81  C   UNL A   1      50.106  27.207  24.715  1.00  0.00     0.135 A 
ATOM     82  F   UNL A   1      50.433  26.556  28.282  1.00  0.00    -0.206 F 
ATOM     83  C   UNL A   1      52.000  26.303  26.552  1.00  0.00     0.059 A 
ATOM     84  C   UNL A   1      51.372  26.846  24.267  1.00  0.00     0.059 A 
ATOM     85  F   UNL A   1      49.213  27.643  23.811  1.00  0.00    -0.206 F 
ATOM     86  C   UNL A   1      52.316  26.408  25.196  1.00  0.00     0.060 A 
BRANCH  86  87
ATOM     87  S   UNL A   1      53.973  25.940  24.653  1.00  0.00     0.124 S 
ATOM     88  O   UNL A   1      54.810  26.699  25.576  1.00  0.00    -0.237 OA
ATOM     89  O   UNL A   1      53.971  24.492  24.843  1.00  0.00    -0.237 OA
ATOM     90  O   UNL A   1      54.011  26.382  23.262  1.00  0.00    -0.744 OA
ENDBRANCH  86  87
ENDBRANCH  54  79
ENDBRANCH  28  29
ENDBRANCH  21  23
ENDBRANCH  20  21
ENDBRANCH  19  20
ENDBRANCH   1  19
TORSDOF 19
ENDMDL
MODEL 3
REMARK VINA RESULT:     -10.2      6.695     12.359
REMARK SMILES CC(C)(O)CCOc1ccc(C(=O)OCCOC(=O)c2ccc(-c3c4nc(c(-c5c(F)cc(S(=O)(=O)[O-])cc5F)c5ccc([nH]5)c(-c5c(F)cc(S(=O)(=O)[O-])cc5F)c5nc(c(-c6c(F)cc(S(=O)(=O)[O-])cc6F)c6ccc3[nH]6)C=C5)C=C4)cc2)cc1
REMARK SMILES IDX 15 1 14 2 12 3 13 4 11 5 8 6 9 7 87 8 10 9 86 10 7 11 6 12
REMARK SMILES IDX 5 13 2 14 1 15 3 16 4 17 16 19 17 20 18 21 19 22 20 23 21 24
REMARK SMILES IDX 85 25 22 26 84 27 23 28 24 29 25 30 78 31 26 32 83 33 77 34
REMARK SMILES IDX 79 35 27 36 82 37 76 38 75 39 28 41 62 42 41 43 61 44 42 45
REMARK SMILES IDX 45 46 60 47 80 48 43 49 44 50 59 52 81 53 46 54 29 55 30 56
REMARK SMILES IDX 39 57 31 58 32 59 38 60 40 61 33 62 34 63 35 64 36 65 37 66
REMARK SMILES IDX 63 67 64 68 73 69 65 70 66 71 72 72 74 73 67 74 68 75 69 76
REMARK SMILES IDX 70 77 71 78 47 79 48 80 57 81 49 82 50 83 56 84 58 85 51 86
REMARK SMILES IDX 52 87 53 88 54 89 55 90
REMARK H PARENT 4 18 79 40 45 51
REMARK Flexibility Score: inf
ROOT
ATOM      1  C   UNL A   1      34.460  31.575  27.638  1.00  0.00     0.275 C 
ENDROOT
BRANCH   1   2
ATOM      2  O   UNL A   1      33.766  30.318  27.753  1.00  0.00    -0.458 OA
BRANCH   2   3
ATOM      3  C   UNL A   1      32.662  30.199  26.976  1.00  0.00     0.338 C 
ATOM      4  O   UNL A   1      31.780  31.024  26.816  1.00  0.00    -0.246 OA
BRANCH   3   5
ATOM      5  C   UNL A   1      32.599  28.840  26.410  1.00  0.00     0.060 A 
ATOM      6  C   UNL A   1      32.542  26.348  25.171  1.00  0.00     0.119 A 
ATOM      7  C   UNL A   1      31.425  26.801  25.877  1.00  0.00     0.047 A 
ATOM      8  C   UNL A   1      33.734  27.069  25.226  1.00  0.00     0.047 A 
ATOM      9  C   UNL A   1      31.429  28.074  26.447  1.00  0.00     0.019 A 
ATOM     10  C   UNL A   1      33.765  28.316  25.850  1.00  0.00     0.019 A 
BRANCH   6  11
ATOM     11  O   UNL A   1      32.334  25.233  24.412  1.00  0.00    -0.493 OA
BRANCH  11  12
ATOM     12  C   UNL A   1      31.460  24.238  24.956  1.00  0.00     0.232 C 
BRANCH  12  13
ATOM     13  C   UNL A   1      31.777  22.792  24.520  1.00  0.00     0.076 C 
BRANCH  13  14
ATOM     14  C   UNL A   1      32.531  21.884  25.523  1.00  0.00     0.062 C 
ATOM     15  C   UNL A   1      32.860  22.607  26.835  1.00  0.00     0.042 C 
ATOM     16  C   UNL A   1      33.859  21.404  24.921  1.00  0.00     0.042 C 
BRANCH  14  17
ATOM     17  O   UNL A   1      31.766  20.701  25.752  1.00  0.00    -0.390 OA
ATOM     18  H   UNL A   1      32.209  19.944  25.335  1.00  0.00     0.211 HD
ENDBRANCH  14  17
ENDBRANCH  13  14
ENDBRANCH  12  13
ENDBRANCH  11  12
ENDBRANCH   6  11
ENDBRANCH   3   5
ENDBRANCH   2   3
ENDBRANCH   1   2
BRANCH   1  19
ATOM     19  C   UNL A   1      34.706  32.190  29.013  1.00  0.00     0.275 C 
BRANCH  19  20
ATOM     20  O   UNL A   1      36.104  32.137  29.339  1.00  0.00    -0.458 OA
BRANCH  20  21
ATOM     21  C   UNL A   1      36.431  31.201  30.258  1.00  0.00     0.338 C 
ATOM     22  O   UNL A   1      35.849  30.946  31.300  1.00  0.00    -0.246 OA
BRANCH  21  23
ATOM     23  C   UNL A   1      37.587  30.420  29.802  1.00  0.00     0.060 A 
ATOM     24  C   UNL A   1      38.422  29.853  30.761  1.00  0.00     0.016 A 
ATOM     25  C   UNL A   1      37.962  30.436  28.461  1.00  0.00     0.016 A 
ATOM     26  C   UNL A   1      39.691  29.416  30.405  1.00  0.00     0.010 A 
ATOM     27  C   UNL A   1      39.196  29.892  28.089  1.00  0.00     0.010 A 
ATOM     28  C   UNL A   1      40.098  29.425  29.065  1.00  0.00    -0.014 A 
BRANCH  28  29
ATOM     29  C   UNL A   1      41.482  29.009  28.706  1.00  0.00     0.031 A 
ATOM     30  C   UNL A   1      42.616  29.999  28.803  1.00  0.00     0.074 A 
ATOM     31  C   UNL A   1      41.737  27.738  28.337  1.00  0.00     0.049 A 
ATOM     32  N   UNL A   1      43.850  29.885  28.383  1.00  0.00    -0.248 NA
ATOM     33  C   UNL A   1      42.320  31.292  29.441  1.00  0.00     0.031 C 
ATOM     34  C   UNL A   1      40.743  26.664  28.251  1.00  0.00     0.029 A 
ATOM     35  N   UNL A   1      42.913  27.125  27.983  1.00  0.00    -0.354 N 
ATOM     36  C   UNL A   1      44.455  31.111  28.642  1.00  0.00     0.074 A 
ATOM     37  C   UNL A   1      43.455  31.952  29.262  1.00  0.00     0.031 C 
ATOM     38  C   UNL A   1      41.358  25.518  27.923  1.00  0.00     0.029 A 
ATOM     39  C   UNL A   1      42.770  25.791  27.682  1.00  0.00     0.049 A 
ATOM     40  H   UNL A   1      43.776  27.596  27.947  1.00  0.00     0.167 HD
ATOM     41  C   UNL A   1      45.728  31.496  28.381  1.00  0.00     0.037 A 
ATOM     42  C   UNL A   1      43.663  24.893  27.225  1.00  0.00     0.037 A 
ATOM     43  C   UNL A   1      46.736  30.628  27.829  1.00  0.00     0.049 A 
ATOM     44  C   UNL A   1      45.070  25.341  26.949  1.00  0.00     0.074 A 
ATOM     45  C   UNL A   1      48.056  30.919  27.530  1.00  0.00     0.029 A 
ATOM     46  N   UNL A   1      46.543  29.290  27.520  1.00  0.00    -0.354 N 
ATOM     47  N   UNL A   1      45.602  26.528  27.117  1.00  0.00    -0.248 NA
ATOM     48  C   UNL A   1      45.989  24.337  26.397  1.00  0.00     0.031 C 
ATOM     49  C   UNL A   1      48.654  29.762  27.017  1.00  0.00     0.029 A 
ATOM     50  C   UNL A   1      47.716  28.742  27.029  1.00  0.00     0.049 A 
ATOM     51  H   UNL A   1      45.695  28.802  27.632  1.00  0.00     0.167 HD
ATOM     52  C   UNL A   1      46.919  26.415  26.687  1.00  0.00     0.074 A 
ATOM     53  C   UNL A   1      47.109  25.038  26.279  1.00  0.00     0.031 C 
ATOM     54  C   UNL A   1      47.881  27.369  26.625  1.00  0.00     0.037 A 
BRANCH  41  55
ATOM     55  C   UNL A   1      46.090  32.931  28.652  1.00  0.00     0.058 A 
ATOM     56  C   UNL A   1      46.637  33.347  29.874  1.00  0.00     0.135 A 
ATOM     57  C   UNL A   1      45.906  33.903  27.653  1.00  0.00     0.135 A 
ATOM     58  F   UNL A   1      46.818  32.464  30.870  1.00  0.00    -0.206 F 
ATOM     59  C   UNL A   1      46.964  34.681  30.109  1.00  0.00     0.059 A 
ATOM     60  C   UNL A   1      46.247  35.237  27.856  1.00  0.00     0.059 A 
ATOM     61  F   UNL A   1      45.386  33.559  26.464  1.00  0.00    -0.206 F 
ATOM     62  C   UNL A   1      46.760  35.619  29.095  1.00  0.00     0.060 A 
BRANCH  62  63
ATOM     63  S   UNL A   1      47.182  37.347  29.410  1.00  0.00     0.124 S 
ATOM     64  O   UNL A   1      48.633  37.323  29.258  1.00  0.00    -0.237 OA
ATOM     65  O   UNL A   1      46.447  38.048  28.362  1.00  0.00    -0.237 OA
ATOM     66  O   UNL A   1      46.696  37.572  30.768  1.00  0.00    -0.744 OA
ENDBRANCH  62  63
ENDBRANCH  41  55
BRANCH  42  67
ATOM     67  C   UNL A   1      43.233  23.495  26.955  1.00  0.00     0.058 A 
ATOM     68  C   UNL A   1      43.060  23.032  25.643  1.00  0.00     0.135 A 
ATOM     69  C   UNL A   1      43.020  22.586  28.003  1.00  0.00     0.135 A 
ATOM     70  F   UNL A   1      43.241  23.867  24.607  1.00  0.00    -0.206 F 
ATOM     71  C   UNL A   1      42.691  21.716  25.378  1.00  0.00     0.059 A 
ATOM     72  C   UNL A   1      42.677  21.260  27.764  1.00  0.00     0.059 A 
ATOM     73  F   UNL A   1      43.184  22.978  29.276  1.00  0.00    -0.206 F 
ATOM     74  C   UNL A   1      42.506  20.837  26.446  1.00  0.00     0.060 A 
BRANCH  74  75
ATOM     75  S   UNL A   1      42.096  19.112  26.098  1.00  0.00     0.124 S 
ATOM     76  O   UNL A   1      43.003  18.812  24.998  1.00  0.00    -0.237 OA
ATOM     77  O   UNL A   1      42.395  18.458  27.369  1.00  0.00    -0.237 OA
ATOM     78  O   UNL A   1      40.679  19.170  25.754  1.00  0.00    -0.744 OA
ENDBRANCH  74  75
ENDBRANCH  42  67
BRANCH  54  79
ATOM     79  C   UNL A   1      49.225  26.945  26.108  1.00  0.00     0.058 A 
ATOM     80  C   UNL A   1      50.203  26.420  26.965  1.00  0.00     0.135 A 
ATOM     81  C   UNL A   1      49.525  27.041  24.741  1.00  0.00     0.135 A 
ATOM     82  F   UNL A   1      49.965  26.315  28.282  1.00  0.00    -0.206 F 
ATOM     83  C   UNL A   1      51.449  26.026  26.487  1.00  0.00     0.059 A 
ATOM     84  C   UNL A   1      50.756  26.634  24.237  1.00  0.00     0.059 A 
ATOM     85  F   UNL A   1      48.618  27.529  23.881  1.00  0.00    -0.206 F 
ATOM     86  C   UNL A   1      51.717  26.141  25.121  1.00  0.00     0.060 A 
BRANCH  86  87
ATOM     87  S   UNL A   1      53.330  25.612  24.505  1.00  0.00     0.124 S 
ATOM     88  O   UNL A   1      53.177  25.818  23.069  1.00  0.00    -0.237 OA
ATOM     89  O   UNL A   1      54.242  26.527  25.183  1.00  0.00    -0.237 OA
ATOM     90  O   UNL A   1      53.415  24.219  24.935  1.00  0.00    -0.744 OA
ENDBRANCH  86  87
ENDBRANCH  54  79
ENDBRANCH  28  29
ENDBRANCH  21  23
ENDBRANCH  20  21
ENDBRANCH  19  20
ENDBRANCH   1  19
TORSDOF 19
ENDMDL
