MODEL 1
REMARK VINA RESULT:     -10.6      0.000      0.000
REMARK SMILES Cn1cc(C(=O)OCCOC(=O)c2ccc(-c3c4nc(c(-c5c(F)cc(S(=O)(=O)[O-])cc5F)c5ccc([nH]5)c(-c5c(F)cc(S(=O)(=O)[O-])cc5F)c5nc(c(-c6c(F)cc(S(=O)(=O)[O-])cc6F)c6ccc3[nH]6)C=C5)C=C4)cc2)c(C(=O)Nc2ccc(-c3nc4cc(Cl)ccc4o3)cc2)n1
REMARK SMILES IDX 8 1 7 2 5 3 6 4 4 5 1 6 2 7 3 8 99 9 79 10 80 11 81 12 82 13
REMARK SMILES IDX 83 15 84 16 98 17 85 18 97 19 86 20 87 21 88 22 96 23 89 24
REMARK SMILES IDX 95 25 90 26 94 27 91 28 93 29 92 30 9 31 10 32 11 33 12 34
REMARK SMILES IDX 13 35 14 36 78 37 15 38 77 39 16 40 17 41 18 42 71 43 19 44
REMARK SMILES IDX 76 45 70 46 72 47 20 48 75 49 69 50 68 51 21 53 55 54 34 55
REMARK SMILES IDX 54 56 35 57 38 58 53 59 73 60 36 61 37 62 52 64 74 65 39 66
REMARK SMILES IDX 22 67 23 68 32 69 24 70 25 71 31 72 33 73 26 74 27 75 28 76
REMARK SMILES IDX 29 77 30 78 56 79 57 80 66 81 58 82 59 83 65 84 67 85 60 86
REMARK SMILES IDX 61 87 62 88 63 89 64 90 40 91 41 92 50 93 42 94 43 95 49 96
REMARK SMILES IDX 51 97 44 98 45 99 46 100 47 101 48 102
REMARK H PARENT 82 14 72 52 38 63
REMARK Flexibility Score: inf
ROOT
ATOM      1  C   UNL A   1      34.053  34.388  27.588  1.00  0.00     0.275 C 
ENDROOT
BRANCH   1   2
ATOM      2  O   UNL A   1      34.298  35.159  28.770  1.00  0.00    -0.458 OA
BRANCH   2   3
ATOM      3  C   UNL A   1      33.258  35.801  29.375  1.00  0.00     0.342 C 
ATOM      4  O   UNL A   1      32.310  36.314  28.801  1.00  0.00    -0.246 OA
BRANCH   3   5
ATOM      5  C   UNL A   1      33.510  35.869  30.793  1.00  0.00     0.111 A 
ATOM      6  C   UNL A   1      33.654  37.830  33.807  1.00  0.00     0.173 C 
ATOM      7  N   UNL A   1      33.671  36.858  32.742  1.00  0.00    -0.274 N 
ATOM      8  C   UNL A   1      33.224  37.039  31.483  1.00  0.00     0.125 A 
ATOM      9  N   UNL A   1      34.201  35.656  32.942  1.00  0.00    -0.167 NA
ATOM     10  C   UNL A   1      34.112  34.990  31.760  1.00  0.00     0.165 A 
BRANCH  10  11
ATOM     11  C   UNL A   1      34.630  33.583  31.787  1.00  0.00     0.277 C 
ATOM     12  O   UNL A   1      34.028  32.703  32.414  1.00  0.00    -0.267 OA
ATOM     13  N   UNL A   1      35.627  33.114  30.963  1.00  0.00    -0.321 N 
ATOM     14  H   UNL A   1      35.392  32.282  30.491  1.00  0.00     0.170 HD
BRANCH  13  15
ATOM     15  C   UNL A   1      36.901  33.586  30.667  1.00  0.00     0.041 A 
ATOM     16  C   UNL A   1      37.629  34.205  31.685  1.00  0.00     0.027 A 
ATOM     17  C   UNL A   1      37.444  33.511  29.395  1.00  0.00     0.027 A 
ATOM     18  C   UNL A   1      38.984  34.489  31.496  1.00  0.00     0.016 A 
ATOM     19  C   UNL A   1      38.777  33.862  29.185  1.00  0.00     0.016 A 
ATOM     20  C   UNL A   1      39.592  34.216  30.267  1.00  0.00     0.037 A 
BRANCH  20  21
ATOM     21  C   UNL A   1      41.036  34.007  30.146  1.00  0.00     0.227 A 
ATOM     22  N   UNL A   1      41.688  32.857  30.042  1.00  0.00    -0.209 NA
ATOM     23  O   UNL A   1      41.813  35.057  30.580  1.00  0.00    -0.436 OA
ATOM     24  C   UNL A   1      42.922  33.134  30.573  1.00  0.00     0.111 A 
ATOM     25  C   UNL A   1      42.999  34.475  30.908  1.00  0.00     0.155 A 
ATOM     26  C   UNL A   1      44.002  32.293  30.871  1.00  0.00     0.053 A 
ATOM     27  C   UNL A   1      44.082  35.077  31.536  1.00  0.00     0.051 A 
ATOM     28  C   UNL A   1      45.099  32.858  31.533  1.00  0.00     0.043 A 
ATOM     29  C   UNL A   1      45.142  34.221  31.860  1.00  0.00     0.024 A 
ATOM     30  Cl  UNL A   1      46.417  31.845  31.989  1.00  0.00    -0.084 Cl
ENDBRANCH  20  21
ENDBRANCH  13  15
ENDBRANCH  10  11
ENDBRANCH   3   5
ENDBRANCH   2   3
ENDBRANCH   1   2
BRANCH   1  31
ATOM     31  C   UNL A   1      33.370  33.075  27.996  1.00  0.00     0.275 C 
BRANCH  31  32
ATOM     32  O   UNL A   1      34.314  32.156  28.593  1.00  0.00    -0.458 OA
BRANCH  32  33
ATOM     33  C   UNL A   1      34.510  30.995  27.911  1.00  0.00     0.338 C 
ATOM     34  O   UNL A   1      33.791  30.551  27.030  1.00  0.00    -0.246 OA
BRANCH  33  35
ATOM     35  C   UNL A   1      35.813  30.380  28.279  1.00  0.00     0.060 A 
ATOM     36  C   UNL A   1      35.898  29.740  29.523  1.00  0.00     0.016 A 
ATOM     37  C   UNL A   1      36.932  30.400  27.437  1.00  0.00     0.016 A 
ATOM     38  C   UNL A   1      37.100  29.164  29.943  1.00  0.00     0.010 A 
ATOM     39  C   UNL A   1      38.142  29.824  27.861  1.00  0.00     0.010 A 
ATOM     40  C   UNL A   1      38.243  29.237  29.134  1.00  0.00    -0.014 A 
BRANCH  40  41
ATOM     41  C   UNL A   1      39.564  28.902  29.732  1.00  0.00     0.031 A 
ATOM     42  C   UNL A   1      39.989  29.644  30.974  1.00  0.00     0.074 A 
ATOM     43  C   UNL A   1      40.352  27.921  29.251  1.00  0.00     0.049 A 
ATOM     44  N   UNL A   1      41.009  29.426  31.765  1.00  0.00    -0.248 NA
ATOM     45  C   UNL A   1      39.139  30.773  31.384  1.00  0.00     0.031 C 
ATOM     46  C   UNL A   1      40.071  27.100  28.077  1.00  0.00     0.029 A 
ATOM     47  N   UNL A   1      41.557  27.446  29.715  1.00  0.00    -0.354 N 
ATOM     48  C   UNL A   1      40.894  30.356  32.790  1.00  0.00     0.074 A 
ATOM     49  C   UNL A   1      39.741  31.179  32.491  1.00  0.00     0.031 C 
ATOM     50  C   UNL A   1      41.079  26.222  27.909  1.00  0.00     0.029 A 
ATOM     51  C   UNL A   1      42.071  26.413  28.967  1.00  0.00     0.049 A 
ATOM     52  H   UNL A   1      42.009  27.811  30.509  1.00  0.00     0.167 HD
ATOM     53  C   UNL A   1      41.660  30.504  33.897  1.00  0.00     0.037 A 
ATOM     54  C   UNL A   1      43.205  25.697  29.126  1.00  0.00     0.037 A 
ATOM     55  C   UNL A   1      42.831  29.727  34.193  1.00  0.00     0.049 A 
ATOM     56  C   UNL A   1      44.106  25.956  30.309  1.00  0.00     0.074 A 
ATOM     57  C   UNL A   1      43.661  29.810  35.298  1.00  0.00     0.029 A 
ATOM     58  N   UNL A   1      43.354  28.742  33.372  1.00  0.00    -0.354 N 
ATOM     59  N   UNL A   1      43.941  26.785  31.312  1.00  0.00    -0.248 NA
ATOM     60  C   UNL A   1      45.350  25.170  30.384  1.00  0.00     0.031 C 
ATOM     61  C   UNL A   1      44.712  28.902  35.124  1.00  0.00     0.029 A 
ATOM     62  C   UNL A   1      44.517  28.234  33.927  1.00  0.00     0.049 A 
ATOM     63  H   UNL A   1      42.957  28.447  32.520  1.00  0.00     0.167 HD
ATOM     64  C   UNL A   1      45.040  26.597  32.148  1.00  0.00     0.074 A 
ATOM     65  C   UNL A   1      45.865  25.578  31.536  1.00  0.00     0.031 C 
ATOM     66  C   UNL A   1      45.333  27.214  33.319  1.00  0.00     0.037 A 
BRANCH  53  67
ATOM     67  C   UNL A   1      41.240  31.563  34.870  1.00  0.00     0.058 A 
ATOM     68  C   UNL A   1      40.249  31.309  35.831  1.00  0.00     0.135 A 
ATOM     69  C   UNL A   1      41.829  32.835  34.845  1.00  0.00     0.135 A 
ATOM     70  F   UNL A   1      39.645  30.111  35.880  1.00  0.00    -0.206 F 
ATOM     71  C   UNL A   1      39.836  32.294  36.721  1.00  0.00     0.059 A 
ATOM     72  C   UNL A   1      41.441  33.831  35.736  1.00  0.00     0.059 A 
ATOM     73  F   UNL A   1      42.775  33.125  33.937  1.00  0.00    -0.206 F 
ATOM     74  C   UNL A   1      40.432  33.554  36.658  1.00  0.00     0.060 A 
BRANCH  74  75
ATOM     75  S   UNL A   1      39.871  34.832  37.803  1.00  0.00     0.124 S 
ATOM     76  O   UNL A   1      40.881  34.744  38.853  1.00  0.00    -0.237 OA
ATOM     77  O   UNL A   1      39.916  36.037  36.980  1.00  0.00    -0.237 OA
ATOM     78  O   UNL A   1      38.534  34.384  38.180  1.00  0.00    -0.744 OA
ENDBRANCH  74  75
ENDBRANCH  53  67
BRANCH  54  79
ATOM     79  C   UNL A   1      43.572  24.648  28.139  1.00  0.00     0.058 A 
ATOM     80  C   UNL A   1      44.388  24.941  27.036  1.00  0.00     0.135 A 
ATOM     81  C   UNL A   1      43.060  23.347  28.247  1.00  0.00     0.135 A 
ATOM     82  F   UNL A   1      44.884  26.178  26.879  1.00  0.00    -0.206 F 
ATOM     83  C   UNL A   1      44.668  23.987  26.064  1.00  0.00     0.059 A 
ATOM     84  C   UNL A   1      43.339  22.371  27.296  1.00  0.00     0.059 A 
ATOM     85  F   UNL A   1      42.272  23.018  29.284  1.00  0.00    -0.206 F 
ATOM     86  C   UNL A   1      44.132  22.704  26.199  1.00  0.00     0.060 A 
BRANCH  86  87
ATOM     87  S   UNL A   1      44.505  21.462  24.942  1.00  0.00     0.124 S 
ATOM     88  O   UNL A   1      44.268  22.209  23.712  1.00  0.00    -0.237 OA
ATOM     89  O   UNL A   1      45.898  21.132  25.230  1.00  0.00    -0.237 OA
ATOM     90  O   UNL A   1      43.546  20.399  25.230  1.00  0.00    -0.744 OA
ENDBRANCH  86  87
ENDBRANCH  54  79
BRANCH  66  91
ATOM     91  C   UNL A   1      46.587  26.801  34.040  1.00  0.00     0.058 A 
ATOM     92  C   UNL A   1      46.578  25.777  34.998  1.00  0.00     0.135 A 
ATOM     93  C   UNL A   1      47.822  27.384  33.715  1.00  0.00     0.135 A 
ATOM     94  F   UNL A   1      45.423  25.189  35.348  1.00  0.00    -0.206 F 
ATOM     95  C   UNL A   1      47.750  25.347  35.615  1.00  0.00     0.059 A 
ATOM     96  C   UNL A   1      49.010  26.957  34.304  1.00  0.00     0.059 A 
ATOM     97  F   UNL A   1      47.889  28.362  32.796  1.00  0.00    -0.206 F 
ATOM     98  C   UNL A   1      48.962  25.943  35.259  1.00  0.00     0.060 A 
BRANCH  98  99
ATOM     99  S   UNL A   1      50.486  25.339  36.020  1.00  0.00     0.124 S 
ATOM    100  O   UNL A   1      50.012  24.154  36.728  1.00  0.00    -0.237 OA
ATOM    101  O   UNL A   1      51.340  25.086  34.864  1.00  0.00    -0.237 OA
ATOM    102  O   UNL A   1      50.905  26.452  36.867  1.00  0.00    -0.744 OA
ENDBRANCH  98  99
ENDBRANCH  66  91
ENDBRANCH  40  41
ENDBRANCH  33  35
ENDBRANCH  32  33
ENDBRANCH  31  32
ENDBRANCH   1  31
TORSDOF 17
ENDMDL
MODEL 2
REMARK VINA RESULT:     -10.0      5.941     12.381
REMARK SMILES Cn1cc(C(=O)OCCOC(=O)c2ccc(-c3c4nc(c(-c5c(F)cc(S(=O)(=O)[O-])cc5F)c5ccc([nH]5)c(-c5c(F)cc(S(=O)(=O)[O-])cc5F)c5nc(c(-c6c(F)cc(S(=O)(=O)[O-])cc6F)c6ccc3[nH]6)C=C5)C=C4)cc2)c(C(=O)Nc2ccc(-c3nc4cc(Cl)ccc4o3)cc2)n1
REMARK SMILES IDX 8 1 7 2 5 3 6 4 4 5 1 6 2 7 3 8 99 9 79 10 80 11 81 12 82 13
REMARK SMILES IDX 83 15 84 16 98 17 85 18 97 19 86 20 87 21 88 22 96 23 89 24
REMARK SMILES IDX 95 25 90 26 94 27 91 28 93 29 92 30 9 31 10 32 11 33 12 34
REMARK SMILES IDX 13 35 14 36 78 37 15 38 77 39 16 40 17 41 18 42 71 43 19 44
REMARK SMILES IDX 76 45 70 46 72 47 20 48 75 49 69 50 68 51 21 53 55 54 34 55
REMARK SMILES IDX 54 56 35 57 38 58 53 59 73 60 36 61 37 62 52 64 74 65 39 66
REMARK SMILES IDX 22 67 23 68 32 69 24 70 25 71 31 72 33 73 26 74 27 75 28 76
REMARK SMILES IDX 29 77 30 78 56 79 57 80 66 81 58 82 59 83 65 84 67 85 60 86
REMARK SMILES IDX 61 87 62 88 63 89 64 90 40 91 41 92 50 93 42 94 43 95 49 96
REMARK SMILES IDX 51 97 44 98 45 99 46 100 47 101 48 102
REMARK H PARENT 82 14 72 52 38 63
REMARK Flexibility Score: inf
ROOT
ATOM      1  C   UNL A   1      36.695  22.594  23.492  1.00  0.00     0.275 C 
ENDROOT
BRANCH   1   2
ATOM      2  O   UNL A   1      35.428  23.044  23.987  1.00  0.00    -0.458 OA
BRANCH   2   3
ATOM      3  C   UNL A   1      34.284  22.569  23.420  1.00  0.00     0.342 C 
ATOM      4  O   UNL A   1      33.727  23.043  22.440  1.00  0.00    -0.246 OA
BRANCH   3   5
ATOM      5  C   UNL A   1      33.778  21.484  24.222  1.00  0.00     0.111 A 
ATOM      6  C   UNL A   1      32.184  18.261  24.397  1.00  0.00     0.173 C 
ATOM      7  N   UNL A   1      32.820  19.544  24.572  1.00  0.00    -0.274 N 
ATOM      8  C   UNL A   1      33.349  20.317  23.603  1.00  0.00     0.125 A 
ATOM      9  N   UNL A   1      32.894  20.094  25.780  1.00  0.00    -0.167 NA
ATOM     10  C   UNL A   1      33.497  21.301  25.622  1.00  0.00     0.165 A 
BRANCH  10  11
ATOM     11  C   UNL A   1      33.709  22.073  26.889  1.00  0.00     0.277 C 
ATOM     12  O   UNL A   1      33.959  21.486  27.949  1.00  0.00    -0.267 OA
ATOM     13  N   UNL A   1      33.878  23.438  26.940  1.00  0.00    -0.321 N 
ATOM     14  H   UNL A   1      34.669  23.720  27.454  1.00  0.00     0.170 HD
BRANCH  13  15
ATOM     15  C   UNL A   1      33.149  24.495  26.407  1.00  0.00     0.041 A 
ATOM     16  C   UNL A   1      33.847  25.535  25.790  1.00  0.00     0.027 A 
ATOM     17  C   UNL A   1      31.770  24.574  26.516  1.00  0.00     0.027 A 
ATOM     18  C   UNL A   1      33.152  26.495  25.050  1.00  0.00     0.016 A 
ATOM     19  C   UNL A   1      31.075  25.575  25.837  1.00  0.00     0.016 A 
ATOM     20  C   UNL A   1      31.755  26.453  24.984  1.00  0.00     0.037 A 
BRANCH  20  21
ATOM     21  C   UNL A   1      31.012  27.064  23.882  1.00  0.00     0.227 A 
ATOM     22  N   UNL A   1      31.411  28.030  23.065  1.00  0.00    -0.209 NA
ATOM     23  O   UNL A   1      29.645  26.915  23.948  1.00  0.00    -0.436 OA
ATOM     24  C   UNL A   1      30.243  28.641  22.687  1.00  0.00     0.111 A 
ATOM     25  C   UNL A   1      29.163  27.965  23.229  1.00  0.00     0.155 A 
ATOM     26  C   UNL A   1      30.016  29.808  21.948  1.00  0.00     0.053 A 
ATOM     27  C   UNL A   1      27.836  28.357  23.106  1.00  0.00     0.051 A 
ATOM     28  C   UNL A   1      28.693  30.252  21.829  1.00  0.00     0.043 A 
ATOM     29  C   UNL A   1      27.623  29.544  22.395  1.00  0.00     0.024 A 
ATOM     30  Cl  UNL A   1      28.375  31.726  20.994  1.00  0.00    -0.084 Cl
ENDBRANCH  20  21
ENDBRANCH  13  15
ENDBRANCH  10  11
ENDBRANCH   3   5
ENDBRANCH   2   3
ENDBRANCH   1   2
BRANCH   1  31
ATOM     31  C   UNL A   1      37.392  21.790  24.598  1.00  0.00     0.275 C 
BRANCH  31  32
ATOM     32  O   UNL A   1      37.632  22.606  25.768  1.00  0.00    -0.458 OA
BRANCH  32  33
ATOM     33  C   UNL A   1      38.921  22.642  26.201  1.00  0.00     0.338 C 
ATOM     34  O   UNL A   1      39.765  21.780  26.014  1.00  0.00    -0.246 OA
BRANCH  33  35
ATOM     35  C   UNL A   1      39.229  23.953  26.831  1.00  0.00     0.060 A 
ATOM     36  C   UNL A   1      39.850  24.924  26.033  1.00  0.00     0.016 A 
ATOM     37  C   UNL A   1      38.911  24.256  28.161  1.00  0.00     0.016 A 
ATOM     38  C   UNL A   1      40.192  26.169  26.569  1.00  0.00     0.010 A 
ATOM     39  C   UNL A   1      39.259  25.507  28.700  1.00  0.00     0.010 A 
ATOM     40  C   UNL A   1      39.937  26.456  27.917  1.00  0.00    -0.014 A 
BRANCH  40  41
ATOM     41  C   UNL A   1      40.587  27.647  28.530  1.00  0.00     0.031 A 
ATOM     42  C   UNL A   1      42.093  27.692  28.566  1.00  0.00     0.074 A 
ATOM     43  C   UNL A   1      39.887  28.705  28.981  1.00  0.00     0.049 A 
ATOM     44  N   UNL A   1      42.888  28.677  28.897  1.00  0.00    -0.248 NA
ATOM     45  C   UNL A   1      42.794  26.464  28.158  1.00  0.00     0.031 C 
ATOM     46  C   UNL A   1      38.432  28.823  28.993  1.00  0.00     0.029 A 
ATOM     47  N   UNL A   1      40.327  29.896  29.511  1.00  0.00    -0.354 N 
ATOM     48  C   UNL A   1      44.178  28.205  28.691  1.00  0.00     0.074 A 
ATOM     49  C   UNL A   1      44.063  26.827  28.263  1.00  0.00     0.031 C 
ATOM     50  C   UNL A   1      38.097  30.022  29.510  1.00  0.00     0.029 A 
ATOM     51  C   UNL A   1      39.313  30.758  29.856  1.00  0.00     0.049 A 
ATOM     52  H   UNL A   1      41.279  30.112  29.631  1.00  0.00     0.167 HD
ATOM     53  C   UNL A   1      45.356  28.860  28.820  1.00  0.00     0.037 A 
ATOM     54  C   UNL A   1      39.361  32.002  30.379  1.00  0.00     0.037 A 
ATOM     55  C   UNL A   1      45.497  30.212  29.282  1.00  0.00     0.049 A 
ATOM     56  C   UNL A   1      40.692  32.672  30.622  1.00  0.00     0.074 A 
ATOM     57  C   UNL A   1      46.657  30.952  29.436  1.00  0.00     0.029 A 
ATOM     58  N   UNL A   1      44.448  31.021  29.687  1.00  0.00    -0.354 N 
ATOM     59  N   UNL A   1      41.900  32.242  30.346  1.00  0.00    -0.248 NA
ATOM     60  C   UNL A   1      40.663  34.007  31.244  1.00  0.00     0.031 C 
ATOM     61  C   UNL A   1      46.313  32.196  29.977  1.00  0.00     0.029 A 
ATOM     62  C   UNL A   1      44.937  32.240  30.128  1.00  0.00     0.049 A 
ATOM     63  H   UNL A   1      43.498  30.766  29.667  1.00  0.00     0.167 HD
ATOM     64  C   UNL A   1      42.767  33.262  30.730  1.00  0.00     0.074 A 
ATOM     65  C   UNL A   1      41.949  34.332  31.259  1.00  0.00     0.031 C 
ATOM     66  C   UNL A   1      44.119  33.307  30.647  1.00  0.00     0.037 A 
BRANCH  53  67
ATOM     67  C   UNL A   1      46.594  28.099  28.452  1.00  0.00     0.058 A 
ATOM     68  C   UNL A   1      47.134  28.181  27.158  1.00  0.00     0.135 A 
ATOM     69  C   UNL A   1      47.242  27.284  29.391  1.00  0.00     0.135 A 
ATOM     70  F   UNL A   1      46.537  28.934  26.222  1.00  0.00    -0.206 F 
ATOM     71  C   UNL A   1      48.267  27.458  26.802  1.00  0.00     0.059 A 
ATOM     72  C   UNL A   1      48.385  26.564  29.059  1.00  0.00     0.059 A 
ATOM     73  F   UNL A   1      46.755  27.169  30.636  1.00  0.00    -0.206 F 
ATOM     74  C   UNL A   1      48.879  26.646  27.757  1.00  0.00     0.060 A 
BRANCH  74  75
ATOM     75  S   UNL A   1      50.335  25.694  27.275  1.00  0.00     0.124 S 
ATOM     76  O   UNL A   1      50.450  26.036  25.861  1.00  0.00    -0.237 OA
ATOM     77  O   UNL A   1      51.372  26.240  28.145  1.00  0.00    -0.237 OA
ATOM     78  O   UNL A   1      49.946  24.316  27.559  1.00  0.00    -0.744 OA
ENDBRANCH  74  75
ENDBRANCH  53  67
BRANCH  54  79
ATOM     79  C   UNL A   1      38.105  32.721  30.717  1.00  0.00     0.058 A 
ATOM     80  C   UNL A   1      37.557  32.660  32.007  1.00  0.00     0.135 A 
ATOM     81  C   UNL A   1      37.396  33.431  29.737  1.00  0.00     0.135 A 
ATOM     82  F   UNL A   1      38.188  31.975  32.972  1.00  0.00    -0.206 F 
ATOM     83  C   UNL A   1      36.339  33.261  32.310  1.00  0.00     0.059 A 
ATOM     84  C   UNL A   1      36.184  34.054  30.019  1.00  0.00     0.059 A 
ATOM     85  F   UNL A   1      37.878  33.516  28.487  1.00  0.00    -0.206 F 
ATOM     86  C   UNL A   1      35.656  33.951  31.305  1.00  0.00     0.060 A 
BRANCH  86  87
ATOM     87  S   UNL A   1      34.080  34.740  31.702  1.00  0.00     0.124 S 
ATOM     88  O   UNL A   1      33.388  34.673  30.419  1.00  0.00    -0.237 OA
ATOM     89  O   UNL A   1      33.554  33.878  32.756  1.00  0.00    -0.237 OA
ATOM     90  O   UNL A   1      34.478  36.076  32.136  1.00  0.00    -0.744 OA
ENDBRANCH  86  87
ENDBRANCH  54  79
BRANCH  66  91
ATOM     91  C   UNL A   1      44.815  34.554  31.118  1.00  0.00     0.058 A 
ATOM     92  C   UNL A   1      44.989  35.659  30.271  1.00  0.00     0.135 A 
ATOM     93  C   UNL A   1      45.243  34.674  32.449  1.00  0.00     0.135 A 
ATOM     94  F   UNL A   1      44.601  35.595  28.988  1.00  0.00    -0.206 F 
ATOM     95  C   UNL A   1      45.571  36.840  30.726  1.00  0.00     0.059 A 
ATOM     96  C   UNL A   1      45.810  35.852  32.931  1.00  0.00     0.059 A 
ATOM     97  F   UNL A   1      45.091  33.650  33.304  1.00  0.00    -0.206 F 
ATOM     98  C   UNL A   1      45.976  36.927  32.060  1.00  0.00     0.060 A 
BRANCH  98  99
ATOM     99  S   UNL A   1      46.675  38.482  32.658  1.00  0.00     0.124 S 
ATOM    100  O   UNL A   1      46.284  39.407  31.599  1.00  0.00    -0.237 OA
ATOM    101  O   UNL A   1      46.000  38.663  33.939  1.00  0.00    -0.237 OA
ATOM    102  O   UNL A   1      48.105  38.198  32.747  1.00  0.00    -0.744 OA
ENDBRANCH  98  99
ENDBRANCH  66  91
ENDBRANCH  40  41
ENDBRANCH  33  35
ENDBRANCH  32  33
ENDBRANCH  31  32
ENDBRANCH   1  31
TORSDOF 17
ENDMDL
MODEL 3
REMARK VINA RESULT:     -10.0      4.232      6.984
REMARK SMILES Cn1cc(C(=O)OCCOC(=O)c2ccc(-c3c4nc(c(-c5c(F)cc(S(=O)(=O)[O-])cc5F)c5ccc([nH]5)c(-c5c(F)cc(S(=O)(=O)[O-])cc5F)c5nc(c(-c6c(F)cc(S(=O)(=O)[O-])cc6F)c6ccc3[nH]6)C=C5)C=C4)cc2)c(C(=O)Nc2ccc(-c3nc4cc(Cl)ccc4o3)cc2)n1
REMARK SMILES IDX 8 1 7 2 5 3 6 4 4 5 1 6 2 7 3 8 99 9 79 10 80 11 81 12 82 13
REMARK SMILES IDX 83 15 84 16 98 17 85 18 97 19 86 20 87 21 88 22 96 23 89 24
REMARK SMILES IDX 95 25 90 26 94 27 91 28 93 29 92 30 9 31 10 32 11 33 12 34
REMARK SMILES IDX 13 35 14 36 78 37 15 38 77 39 16 40 17 41 18 42 71 43 19 44
REMARK SMILES IDX 76 45 70 46 72 47 20 48 75 49 69 50 68 51 21 53 55 54 34 55
REMARK SMILES IDX 54 56 35 57 38 58 53 59 73 60 36 61 37 62 52 64 74 65 39 66
REMARK SMILES IDX 22 67 23 68 32 69 24 70 25 71 31 72 33 73 26 74 27 75 28 76
REMARK SMILES IDX 29 77 30 78 56 79 57 80 66 81 58 82 59 83 65 84 67 85 60 86
REMARK SMILES IDX 61 87 62 88 63 89 64 90 40 91 41 92 50 93 42 94 43 95 49 96
REMARK SMILES IDX 51 97 44 98 45 99 46 100 47 101 48 102
REMARK H PARENT 82 14 72 52 38 63
REMARK Flexibility Score: inf
ROOT
ATOM      1  C   UNL A   1      31.777  28.913  26.411  1.00  0.00     0.275 C 
ENDROOT
BRANCH   1   2
ATOM      2  O   UNL A   1      32.453  27.780  25.853  1.00  0.00    -0.458 OA
BRANCH   2   3
ATOM      3  C   UNL A   1      32.769  27.779  24.526  1.00  0.00     0.342 C 
ATOM      4  O   UNL A   1      33.900  27.727  24.066  1.00  0.00    -0.246 OA
BRANCH   3   5
ATOM      5  C   UNL A   1      31.563  27.957  23.757  1.00  0.00     0.111 A 
ATOM      6  C   UNL A   1      29.573  30.018  21.577  1.00  0.00     0.173 C 
ATOM      7  N   UNL A   1      30.184  29.033  22.437  1.00  0.00    -0.274 N 
ATOM      8  C   UNL A   1      31.441  29.060  22.922  1.00  0.00     0.125 A 
ATOM      9  N   UNL A   1      29.481  27.988  22.861  1.00  0.00    -0.167 NA
ATOM     10  C   UNL A   1      30.300  27.274  23.677  1.00  0.00     0.165 A 
BRANCH  10  11
ATOM     11  C   UNL A   1      29.697  26.020  24.237  1.00  0.00     0.277 C 
ATOM     12  O   UNL A   1      28.680  26.070  24.939  1.00  0.00    -0.267 OA
ATOM     13  N   UNL A   1      30.055  24.751  23.842  1.00  0.00    -0.321 N 
ATOM     14  H   UNL A   1      29.290  24.182  23.596  1.00  0.00     0.170 HD
BRANCH  13  15
ATOM     15  C   UNL A   1      31.288  24.117  23.724  1.00  0.00     0.041 A 
ATOM     16  C   UNL A   1      32.074  24.405  22.607  1.00  0.00     0.027 A 
ATOM     17  C   UNL A   1      31.730  23.179  24.643  1.00  0.00     0.027 A 
ATOM     18  C   UNL A   1      33.401  23.969  22.561  1.00  0.00     0.016 A 
ATOM     19  C   UNL A   1      33.032  22.685  24.559  1.00  0.00     0.016 A 
ATOM     20  C   UNL A   1      33.919  23.189  23.601  1.00  0.00     0.037 A 
BRANCH  20  21
ATOM     21  C   UNL A   1      35.353  23.124  23.880  1.00  0.00     0.227 A 
ATOM     22  N   UNL A   1      36.145  22.061  23.842  1.00  0.00    -0.209 NA
ATOM     23  O   UNL A   1      35.846  24.164  24.637  1.00  0.00    -0.436 OA
ATOM     24  C   UNL A   1      37.141  22.363  24.735  1.00  0.00     0.111 A 
ATOM     25  C   UNL A   1      36.957  23.645  25.227  1.00  0.00     0.155 A 
ATOM     26  C   UNL A   1      38.190  21.584  25.237  1.00  0.00     0.053 A 
ATOM     27  C   UNL A   1      37.742  24.241  26.204  1.00  0.00     0.051 A 
ATOM     28  C   UNL A   1      38.984  22.140  26.248  1.00  0.00     0.043 A 
ATOM     29  C   UNL A   1      38.768  23.441  26.724  1.00  0.00     0.024 A 
ATOM     30  Cl  UNL A   1      40.239  21.189  26.949  1.00  0.00    -0.084 Cl
ENDBRANCH  20  21
ENDBRANCH  13  15
ENDBRANCH  10  11
ENDBRANCH   3   5
ENDBRANCH   2   3
ENDBRANCH   1   2
BRANCH   1  31
ATOM     31  C   UNL A   1      32.773  30.078  26.500  1.00  0.00     0.275 C 
BRANCH  31  32
ATOM     32  O   UNL A   1      33.621  29.955  27.666  1.00  0.00    -0.458 OA
BRANCH  32  33
ATOM     33  C   UNL A   1      34.573  30.917  27.800  1.00  0.00     0.338 C 
ATOM     34  O   UNL A   1      34.387  32.123  27.741  1.00  0.00    -0.246 OA
BRANCH  33  35
ATOM     35  C   UNL A   1      35.881  30.317  28.174  1.00  0.00     0.060 A 
ATOM     36  C   UNL A   1      35.966  29.675  29.417  1.00  0.00     0.016 A 
ATOM     37  C   UNL A   1      37.005  30.352  27.339  1.00  0.00     0.016 A 
ATOM     38  C   UNL A   1      37.173  29.112  29.842  1.00  0.00     0.010 A 
ATOM     39  C   UNL A   1      38.219  29.790  27.768  1.00  0.00     0.010 A 
ATOM     40  C   UNL A   1      38.320  29.200  29.040  1.00  0.00    -0.014 A 
BRANCH  40  41
ATOM     41  C   UNL A   1      39.641  28.880  29.644  1.00  0.00     0.031 A 
ATOM     42  C   UNL A   1      40.053  29.627  30.888  1.00  0.00     0.074 A 
ATOM     43  C   UNL A   1      40.441  27.907  29.169  1.00  0.00     0.049 A 
ATOM     44  N   UNL A   1      41.070  29.421  31.684  1.00  0.00    -0.248 NA
ATOM     45  C   UNL A   1      39.188  30.748  31.293  1.00  0.00     0.031 C 
ATOM     46  C   UNL A   1      40.175  27.082  27.994  1.00  0.00     0.029 A 
ATOM     47  N   UNL A   1      41.649  27.445  29.639  1.00  0.00    -0.354 N 
ATOM     48  C   UNL A   1      40.941  30.351  32.707  1.00  0.00     0.074 A 
ATOM     49  C   UNL A   1      39.781  31.161  32.403  1.00  0.00     0.031 C 
ATOM     50  C   UNL A   1      41.193  26.214  27.831  1.00  0.00     0.029 A 
ATOM     51  C   UNL A   1      42.178  26.416  28.895  1.00  0.00     0.049 A 
ATOM     52  H   UNL A   1      42.093  27.815  30.435  1.00  0.00     0.167 HD
ATOM     53  C   UNL A   1      41.701  30.507  33.818  1.00  0.00     0.037 A 
ATOM     54  C   UNL A   1      43.318  25.713  29.059  1.00  0.00     0.037 A 
ATOM     55  C   UNL A   1      42.878  29.743  34.121  1.00  0.00     0.049 A 
ATOM     56  C   UNL A   1      44.211  25.982  30.247  1.00  0.00     0.074 A 
ATOM     57  C   UNL A   1      43.701  29.836  35.230  1.00  0.00     0.029 A 
ATOM     58  N   UNL A   1      43.414  28.763  33.303  1.00  0.00    -0.354 N 
ATOM     59  N   UNL A   1      44.033  26.810  31.248  1.00  0.00    -0.248 NA
ATOM     60  C   UNL A   1      45.463  25.210  30.328  1.00  0.00     0.031 C 
ATOM     61  C   UNL A   1      44.763  28.939  35.062  1.00  0.00     0.029 A 
ATOM     62  C   UNL A   1      44.580  28.267  33.864  1.00  0.00     0.049 A 
ATOM     63  H   UNL A   1      43.025  28.463  32.450  1.00  0.00     0.167 HD
ATOM     64  C   UNL A   1      45.129  26.635  32.089  1.00  0.00     0.074 A 
ATOM     65  C   UNL A   1      45.967  25.624  31.483  1.00  0.00     0.031 C 
ATOM     66  C   UNL A   1      45.410  27.255  33.262  1.00  0.00     0.037 A 
BRANCH  53  67
ATOM     67  C   UNL A   1      41.265  31.563  34.789  1.00  0.00     0.058 A 
ATOM     68  C   UNL A   1      41.739  32.880  34.684  1.00  0.00     0.135 A 
ATOM     69  C   UNL A   1      40.372  31.259  35.826  1.00  0.00     0.135 A 
ATOM     70  F   UNL A   1      42.609  33.212  33.717  1.00  0.00    -0.206 F 
ATOM     71  C   UNL A   1      41.359  33.859  35.596  1.00  0.00     0.059 A 
ATOM     72  C   UNL A   1      39.968  32.227  36.740  1.00  0.00     0.059 A 
ATOM     73  F   UNL A   1      39.901  30.010  35.969  1.00  0.00    -0.206 F 
ATOM     74  C   UNL A   1      40.480  33.519  36.625  1.00  0.00     0.060 A 
BRANCH  74  75
ATOM     75  S   UNL A   1      40.013  34.792  37.816  1.00  0.00     0.124 S 
ATOM     76  O   UNL A   1      38.581  34.548  37.955  1.00  0.00    -0.237 OA
ATOM     77  O   UNL A   1      40.829  34.454  38.978  1.00  0.00    -0.237 OA
ATOM     78  O   UNL A   1      40.375  36.035  37.141  1.00  0.00    -0.744 OA
ENDBRANCH  74  75
ENDBRANCH  53  67
BRANCH  54  79
ATOM     79  C   UNL A   1      43.701  24.667  28.075  1.00  0.00     0.058 A 
ATOM     80  C   UNL A   1      44.483  24.977  26.952  1.00  0.00     0.135 A 
ATOM     81  C   UNL A   1      43.237  23.350  28.207  1.00  0.00     0.135 A 
ATOM     82  F   UNL A   1      44.931  26.228  26.772  1.00  0.00    -0.206 F 
ATOM     83  C   UNL A   1      44.776  24.022  25.983  1.00  0.00     0.059 A 
ATOM     84  C   UNL A   1      43.530  22.374  27.260  1.00  0.00     0.059 A 
ATOM     85  F   UNL A   1      42.483  23.005  29.263  1.00  0.00    -0.206 F 
ATOM     86  C   UNL A   1      44.288  22.723  26.143  1.00  0.00     0.060 A 
BRANCH  86  87
ATOM     87  S   UNL A   1      44.678  21.482  24.891  1.00  0.00     0.124 S 
ATOM     88  O   UNL A   1      46.034  21.099  25.268  1.00  0.00    -0.237 OA
ATOM     89  O   UNL A   1      43.645  20.475  25.114  1.00  0.00    -0.237 OA
ATOM     90  O   UNL A   1      44.556  22.224  23.638  1.00  0.00    -0.744 OA
ENDBRANCH  86  87
ENDBRANCH  54  79
BRANCH  66  91
ATOM     91  C   UNL A   1      46.665  26.857  33.989  1.00  0.00     0.058 A 
ATOM     92  C   UNL A   1      46.677  25.788  34.897  1.00  0.00     0.135 A 
ATOM     93  C   UNL A   1      47.883  27.500  33.717  1.00  0.00     0.135 A 
ATOM     94  F   UNL A   1      45.539  25.142  35.195  1.00  0.00    -0.206 F 
ATOM     95  C   UNL A   1      47.852  25.374  35.518  1.00  0.00     0.059 A 
ATOM     96  C   UNL A   1      49.074  27.091  34.311  1.00  0.00     0.059 A 
ATOM     97  F   UNL A   1      47.929  28.522  32.847  1.00  0.00    -0.206 F 
ATOM     98  C   UNL A   1      49.047  26.031  35.216  1.00  0.00     0.060 A 
BRANCH  98  99
ATOM     99  S   UNL A   1      50.579  25.449  35.980  1.00  0.00     0.124 S 
ATOM    100  O   UNL A   1      51.453  26.604  35.802  1.00  0.00    -0.237 OA
ATOM    101  O   UNL A   1      50.165  25.173  37.351  1.00  0.00    -0.237 OA
ATOM    102  O   UNL A   1      50.924  24.272  35.189  1.00  0.00    -0.744 OA
ENDBRANCH  98  99
ENDBRANCH  66  91
ENDBRANCH  40  41
ENDBRANCH  33  35
ENDBRANCH  32  33
ENDBRANCH  31  32
ENDBRANCH   1  31
TORSDOF 17
ENDMDL
