MODEL 1
REMARK VINA RESULT:     -13.1      0.000      0.000
REMARK SMILES O=C(NC1(C(=O)OCCOC(=O)c2ccc(-c3c4nc(c(-c5c(F)cc(S(=O)(=O)[O-])cc5F)c5ccc([nH]5)c(-c5c(F)cc(S(=O)(=O)[O-])cc5F)c5nc(c(-c6c(F)cc(S(=O)(=O)[O-])cc6F)c6ccc3[nH]6)C=C5)C=C4)cc2)Cc2ccccc2C1)OCC1c2ccccc2-c2ccccc21
REMARK SMILES IDX 8 1 7 2 5 3 6 4 4 5 79 6 86 7 80 8 85 9 81 10 84 11 82 12
REMARK SMILES IDX 83 13 3 14 1 15 2 16 87 18 88 19 89 20 90 21 101 22 91 23
REMARK SMILES IDX 95 24 96 25 100 26 92 27 94 28 97 29 99 30 93 31 98 32 9 33
REMARK SMILES IDX 10 34 11 35 12 36 13 37 14 38 78 39 15 40 77 41 16 42 17 43
REMARK SMILES IDX 18 44 71 45 19 46 76 47 70 48 72 49 20 50 75 51 69 52 68 53
REMARK SMILES IDX 21 55 55 56 34 57 54 58 35 59 38 60 53 61 73 62 36 63 37 64
REMARK SMILES IDX 52 66 74 67 39 68 22 69 23 70 32 71 24 72 25 73 31 74 33 75
REMARK SMILES IDX 26 76 27 77 28 78 29 79 30 80 56 81 57 82 66 83 58 84 59 85
REMARK SMILES IDX 65 86 67 87 60 88 61 89 62 90 63 91 64 92 40 93 41 94 50 95
REMARK SMILES IDX 42 96 43 97 49 98 51 99 44 100 45 101 46 102 47 103 48 104
REMARK H PARENT 3 17 72 54 38 65
REMARK Flexibility Score: inf
ROOT
ATOM      1  C   UNL A   1      31.930  28.402  26.291  1.00  0.00     0.274 C 
ENDROOT
BRANCH   1   2
ATOM      2  O   UNL A   1      31.516  29.170  25.140  1.00  0.00    -0.460 OA
BRANCH   2   3
ATOM      3  C   UNL A   1      32.268  29.009  24.020  1.00  0.00     0.332 C 
ATOM      4  O   UNL A   1      33.438  29.376  23.927  1.00  0.00    -0.249 OA
BRANCH   3   5
ATOM      5  C   UNL A   1      31.525  28.355  22.831  1.00  0.00     0.149 C 
ATOM      6  C   UNL A   1      30.682  29.500  22.173  1.00  0.00     0.076 C 
ATOM      7  C   UNL A   1      30.494  27.249  23.134  1.00  0.00     0.076 C 
ATOM      8  C   UNL A   1      29.292  29.231  22.685  1.00  0.00    -0.042 A 
ATOM      9  C   UNL A   1      29.188  27.934  23.162  1.00  0.00    -0.042 A 
ATOM     10  C   UNL A   1      28.171  30.038  22.688  1.00  0.00     0.004 A 
ATOM     11  C   UNL A   1      27.996  27.370  23.574  1.00  0.00     0.004 A 
ATOM     12  C   UNL A   1      26.960  29.504  23.159  1.00  0.00     0.000 A 
ATOM     13  C   UNL A   1      26.868  28.171  23.584  1.00  0.00     0.000 A 
BRANCH   5  14
ATOM     14  N   UNL A   1      32.557  27.792  21.941  1.00  0.00    -0.305 N 
ATOM     15  O   UNL A   1      33.694  25.966  21.219  1.00  0.00    -0.225 OA
ATOM     16  C   UNL A   1      33.095  26.544  22.122  1.00  0.00     0.408 C 
ATOM     17  H   UNL A   1      32.873  28.335  21.183  1.00  0.00     0.168 HD
BRANCH  16  18
ATOM     18  O   UNL A   1      32.808  25.999  23.346  1.00  0.00    -0.449 OA
BRANCH  18  19
ATOM     19  C   UNL A   1      33.986  25.838  24.136  1.00  0.00     0.248 C 
BRANCH  19  20
ATOM     20  C   UNL A   1      33.855  25.080  25.496  1.00  0.00     0.088 C 
ATOM     21  C   UNL A   1      32.576  24.325  25.869  1.00  0.00    -0.029 A 
ATOM     22  C   UNL A   1      34.838  23.898  25.367  1.00  0.00    -0.029 A 
ATOM     23  C   UNL A   1      31.344  24.824  26.258  1.00  0.00     0.005 A 
ATOM     24  C   UNL A   1      32.787  22.930  25.853  1.00  0.00    -0.014 A 
ATOM     25  C   UNL A   1      34.135  22.676  25.415  1.00  0.00    -0.014 A 
ATOM     26  C   UNL A   1      36.167  23.954  24.975  1.00  0.00     0.005 A 
ATOM     27  C   UNL A   1      30.316  23.931  26.592  1.00  0.00     0.000 A 
ATOM     28  C   UNL A   1      31.792  22.041  26.243  1.00  0.00     0.009 A 
ATOM     29  C   UNL A   1      34.716  21.516  24.937  1.00  0.00     0.009 A 
ATOM     30  C   UNL A   1      36.751  22.785  24.493  1.00  0.00     0.000 A 
ATOM     31  C   UNL A   1      30.541  22.548  26.599  1.00  0.00     0.001 A 
ATOM     32  C   UNL A   1      36.021  21.585  24.443  1.00  0.00     0.001 A 
ENDBRANCH  19  20
ENDBRANCH  18  19
ENDBRANCH  16  18
ENDBRANCH   5  14
ENDBRANCH   3   5
ENDBRANCH   2   3
ENDBRANCH   1   2
BRANCH   1  33
ATOM     33  C   UNL A   1      32.419  29.283  27.440  1.00  0.00     0.275 C 
BRANCH  33  34
ATOM     34  O   UNL A   1      33.850  29.255  27.500  1.00  0.00    -0.458 OA
BRANCH  34  35
ATOM     35  C   UNL A   1      34.448  30.352  28.016  1.00  0.00     0.338 C 
ATOM     36  O   UNL A   1      33.942  31.441  28.234  1.00  0.00    -0.246 OA
BRANCH  35  37
ATOM     37  C   UNL A   1      35.866  30.068  28.275  1.00  0.00     0.060 A 
ATOM     38  C   UNL A   1      36.806  30.175  27.253  1.00  0.00     0.016 A 
ATOM     39  C   UNL A   1      36.241  29.594  29.530  1.00  0.00     0.016 A 
ATOM     40  C   UNL A   1      38.100  29.711  27.453  1.00  0.00     0.010 A 
ATOM     41  C   UNL A   1      37.576  29.268  29.769  1.00  0.00     0.010 A 
ATOM     42  C   UNL A   1      38.518  29.306  28.728  1.00  0.00    -0.014 A 
BRANCH  42  43
ATOM     43  C   UNL A   1      39.946  28.993  28.990  1.00  0.00     0.031 A 
ATOM     44  C   UNL A   1      40.879  30.055  29.503  1.00  0.00     0.074 A 
ATOM     45  C   UNL A   1      40.406  27.758  28.701  1.00  0.00     0.049 A 
ATOM     46  N   UNL A   1      42.185  30.042  29.570  1.00  0.00    -0.248 NA
ATOM     47  C   UNL A   1      40.267  31.307  29.979  1.00  0.00     0.031 C 
ATOM     48  C   UNL A   1      39.590  26.641  28.213  1.00  0.00     0.029 A 
ATOM     49  N   UNL A   1      41.671  27.232  28.765  1.00  0.00    -0.354 N 
ATOM     50  C   UNL A   1      42.555  31.297  30.041  1.00  0.00     0.074 A 
ATOM     51  C   UNL A   1      41.335  32.051  30.234  1.00  0.00     0.031 C 
ATOM     52  C   UNL A   1      40.362  25.557  28.062  1.00  0.00     0.029 A 
ATOM     53  C   UNL A   1      41.742  25.927  28.332  1.00  0.00     0.049 A 
ATOM     54  H   UNL A   1      42.452  27.737  29.089  1.00  0.00     0.167 HD
ATOM     55  C   UNL A   1      43.803  31.769  30.284  1.00  0.00     0.037 A 
ATOM     56  C   UNL A   1      42.804  25.130  28.118  1.00  0.00     0.037 A 
ATOM     57  C   UNL A   1      44.998  30.978  30.120  1.00  0.00     0.049 A 
ATOM     58  C   UNL A   1      44.175  25.685  28.366  1.00  0.00     0.074 A 
ATOM     59  C   UNL A   1      46.311  31.341  30.365  1.00  0.00     0.029 A 
ATOM     60  N   UNL A   1      45.025  29.662  29.675  1.00  0.00    -0.354 N 
ATOM     61  N   UNL A   1      44.514  26.881  28.786  1.00  0.00    -0.248 NA
ATOM     62  C   UNL A   1      45.308  24.792  28.099  1.00  0.00     0.031 C 
ATOM     63  C   UNL A   1      47.134  30.263  30.021  1.00  0.00     0.029 A 
ATOM     64  C   UNL A   1      46.333  29.206  29.619  1.00  0.00     0.049 A 
ATOM     65  H   UNL A   1      44.232  29.131  29.435  1.00  0.00     0.167 HD
ATOM     66  C   UNL A   1      45.900  26.880  28.853  1.00  0.00     0.074 A 
ATOM     67  C   UNL A   1      46.334  25.557  28.447  1.00  0.00     0.031 C 
ATOM     68  C   UNL A   1      46.739  27.882  29.216  1.00  0.00     0.037 A 
BRANCH  55  69
ATOM     69  C   UNL A   1      43.948  33.205  30.714  1.00  0.00     0.058 A 
ATOM     70  C   UNL A   1      44.160  34.246  29.797  1.00  0.00     0.135 A 
ATOM     71  C   UNL A   1      43.830  33.551  32.073  1.00  0.00     0.135 A 
ATOM     72  F   UNL A   1      44.296  33.978  28.489  1.00  0.00    -0.206 F 
ATOM     73  C   UNL A   1      44.276  35.571  30.212  1.00  0.00     0.059 A 
ATOM     74  C   UNL A   1      43.911  34.871  32.506  1.00  0.00     0.059 A 
ATOM     75  F   UNL A   1      43.626  32.599  32.997  1.00  0.00    -0.206 F 
ATOM     76  C   UNL A   1      44.149  35.875  31.569  1.00  0.00     0.060 A 
BRANCH  76  77
ATOM     77  S   UNL A   1      44.292  37.599  32.087  1.00  0.00     0.124 S 
ATOM     78  O   UNL A   1      43.491  37.604  33.308  1.00  0.00    -0.237 OA
ATOM     79  O   UNL A   1      45.731  37.749  32.274  1.00  0.00    -0.237 OA
ATOM     80  O   UNL A   1      43.728  38.342  30.965  1.00  0.00    -0.744 OA
ENDBRANCH  76  77
ENDBRANCH  55  69
BRANCH  56  81
ATOM     81  C   UNL A   1      42.602  23.745  27.615  1.00  0.00     0.058 A 
ATOM     82  C   UNL A   1      42.548  23.480  26.239  1.00  0.00     0.135 A 
ATOM     83  C   UNL A   1      42.503  22.654  28.494  1.00  0.00     0.135 A 
ATOM     84  F   UNL A   1      42.634  24.489  25.358  1.00  0.00    -0.206 F 
ATOM     85  C   UNL A   1      42.390  22.186  25.751  1.00  0.00     0.059 A 
ATOM     86  C   UNL A   1      42.379  21.348  28.031  1.00  0.00     0.059 A 
ATOM     87  F   UNL A   1      42.568  22.848  29.820  1.00  0.00    -0.206 F 
ATOM     88  C   UNL A   1      42.313  21.126  26.656  1.00  0.00     0.060 A 
BRANCH  88  89
ATOM     89  S   UNL A   1      42.159  19.447  26.011  1.00  0.00     0.124 S 
ATOM     90  O   UNL A   1      43.010  19.507  24.829  1.00  0.00    -0.237 OA
ATOM     91  O   UNL A   1      42.665  18.646  27.122  1.00  0.00    -0.237 OA
ATOM     92  O   UNL A   1      40.728  19.314  25.754  1.00  0.00    -0.744 OA
ENDBRANCH  88  89
ENDBRANCH  56  81
BRANCH  68  93
ATOM     93  C   UNL A   1      48.208  27.567  29.229  1.00  0.00     0.058 A 
ATOM     94  C   UNL A   1      49.013  27.746  28.093  1.00  0.00     0.135 A 
ATOM     95  C   UNL A   1      48.822  27.112  30.407  1.00  0.00     0.135 A 
ATOM     96  F   UNL A   1      48.472  28.167  26.939  1.00  0.00    -0.206 F 
ATOM     97  C   UNL A   1      50.373  27.458  28.118  1.00  0.00     0.059 A 
ATOM     98  C   UNL A   1      50.186  26.849  30.463  1.00  0.00     0.059 A 
ATOM     99  F   UNL A   1      48.097  26.932  31.522  1.00  0.00    -0.206 F 
ATOM    100  C   UNL A   1      50.951  27.013  29.309  1.00  0.00     0.060 A 
BRANCH 100 101
ATOM    101  S   UNL A   1      52.723  26.674  29.336  1.00  0.00     0.124 S 
ATOM    102  O   UNL A   1      52.897  25.918  28.099  1.00  0.00    -0.237 OA
ATOM    103  O   UNL A   1      53.297  28.016  29.345  1.00  0.00    -0.237 OA
ATOM    104  O   UNL A   1      52.906  25.912  30.567  1.00  0.00    -0.744 OA
ENDBRANCH 100 101
ENDBRANCH  68  93
ENDBRANCH  42  43
ENDBRANCH  35  37
ENDBRANCH  34  35
ENDBRANCH  33  34
ENDBRANCH   1  33
TORSDOF 18
ENDMDL
MODEL 2
REMARK VINA RESULT:     -12.9      5.180     10.654
REMARK SMILES O=C(NC1(C(=O)OCCOC(=O)c2ccc(-c3c4nc(c(-c5c(F)cc(S(=O)(=O)[O-])cc5F)c5ccc([nH]5)c(-c5c(F)cc(S(=O)(=O)[O-])cc5F)c5nc(c(-c6c(F)cc(S(=O)(=O)[O-])cc6F)c6ccc3[nH]6)C=C5)C=C4)cc2)Cc2ccccc2C1)OCC1c2ccccc2-c2ccccc21
REMARK SMILES IDX 8 1 7 2 5 3 6 4 4 5 79 6 86 7 80 8 85 9 81 10 84 11 82 12
REMARK SMILES IDX 83 13 3 14 1 15 2 16 87 18 88 19 89 20 90 21 101 22 91 23
REMARK SMILES IDX 95 24 96 25 100 26 92 27 94 28 97 29 99 30 93 31 98 32 9 33
REMARK SMILES IDX 10 34 11 35 12 36 13 37 14 38 78 39 15 40 77 41 16 42 17 43
REMARK SMILES IDX 18 44 71 45 19 46 76 47 70 48 72 49 20 50 75 51 69 52 68 53
REMARK SMILES IDX 21 55 55 56 34 57 54 58 35 59 38 60 53 61 73 62 36 63 37 64
REMARK SMILES IDX 52 66 74 67 39 68 22 69 23 70 32 71 24 72 25 73 31 74 33 75
REMARK SMILES IDX 26 76 27 77 28 78 29 79 30 80 56 81 57 82 66 83 58 84 59 85
REMARK SMILES IDX 65 86 67 87 60 88 61 89 62 90 63 91 64 92 40 93 41 94 50 95
REMARK SMILES IDX 42 96 43 97 49 98 51 99 44 100 45 101 46 102 47 103 48 104
REMARK H PARENT 3 17 72 54 38 65
REMARK Flexibility Score: inf
ROOT
ATOM      1  C   UNL A   1      36.920  23.108  24.886  1.00  0.00     0.274 C 
ENDROOT
BRANCH   1   2
ATOM      2  O   UNL A   1      35.613  23.069  25.499  1.00  0.00    -0.460 OA
BRANCH   2   3
ATOM      3  C   UNL A   1      34.607  22.596  24.718  1.00  0.00     0.332 C 
ATOM      4  O   UNL A   1      34.443  22.926  23.545  1.00  0.00    -0.249 OA
BRANCH   3   5
ATOM      5  C   UNL A   1      33.636  21.625  25.432  1.00  0.00     0.149 C 
ATOM      6  C   UNL A   1      34.473  20.340  25.746  1.00  0.00     0.076 C 
ATOM      7  C   UNL A   1      32.417  21.104  24.644  1.00  0.00     0.076 C 
ATOM      8  C   UNL A   1      34.029  19.378  24.676  1.00  0.00    -0.042 A 
ATOM      9  C   UNL A   1      32.832  19.792  24.112  1.00  0.00    -0.042 A 
ATOM     10  C   UNL A   1      34.594  18.191  24.253  1.00  0.00     0.004 A 
ATOM     11  C   UNL A   1      32.125  19.038  23.195  1.00  0.00     0.004 A 
ATOM     12  C   UNL A   1      33.922  17.437  23.277  1.00  0.00     0.000 A 
ATOM     13  C   UNL A   1      32.684  17.850  22.763  1.00  0.00     0.000 A 
BRANCH   5  14
ATOM     14  N   UNL A   1      33.144  22.322  26.634  1.00  0.00    -0.305 N 
ATOM     15  O   UNL A   1      31.612  23.711  27.567  1.00  0.00    -0.225 OA
ATOM     16  C   UNL A   1      32.251  23.361  26.579  1.00  0.00     0.408 C 
ATOM     17  H   UNL A   1      33.470  22.028  27.516  1.00  0.00     0.168 HD
BRANCH  16  18
ATOM     18  O   UNL A   1      32.089  23.874  25.318  1.00  0.00    -0.449 OA
BRANCH  18  19
ATOM     19  C   UNL A   1      30.813  24.496  25.167  1.00  0.00     0.248 C 
BRANCH  19  20
ATOM     20  C   UNL A   1      30.778  26.037  24.916  1.00  0.00     0.088 C 
ATOM     21  C   UNL A   1      31.602  27.005  25.770  1.00  0.00    -0.029 A 
ATOM     22  C   UNL A   1      31.482  26.215  23.554  1.00  0.00    -0.029 A 
ATOM     23  C   UNL A   1      31.396  27.417  27.076  1.00  0.00     0.005 A 
ATOM     24  C   UNL A   1      32.665  27.561  25.027  1.00  0.00    -0.014 A 
ATOM     25  C   UNL A   1      32.662  26.970  23.713  1.00  0.00    -0.014 A 
ATOM     26  C   UNL A   1      31.213  25.529  22.378  1.00  0.00     0.005 A 
ATOM     27  C   UNL A   1      32.271  28.351  27.649  1.00  0.00     0.000 A 
ATOM     28  C   UNL A   1      33.498  28.533  25.567  1.00  0.00     0.009 A 
ATOM     29  C   UNL A   1      33.652  26.933  22.748  1.00  0.00     0.009 A 
ATOM     30  C   UNL A   1      32.210  25.493  21.407  1.00  0.00     0.000 A 
ATOM     31  C   UNL A   1      33.307  28.917  26.895  1.00  0.00     0.001 A 
ATOM     32  C   UNL A   1      33.431  26.161  21.605  1.00  0.00     0.001 A 
ENDBRANCH  19  20
ENDBRANCH  18  19
ENDBRANCH  16  18
ENDBRANCH   5  14
ENDBRANCH   3   5
ENDBRANCH   2   3
ENDBRANCH   1   2
BRANCH   1  33
ATOM     33  C   UNL A   1      38.052  23.000  25.906  1.00  0.00     0.275 C 
BRANCH  33  34
ATOM     34  O   UNL A   1      38.451  24.309  26.330  1.00  0.00    -0.458 OA
BRANCH  34  35
ATOM     35  C   UNL A   1      39.717  24.428  26.789  1.00  0.00     0.338 C 
ATOM     36  O   UNL A   1      40.679  23.733  26.505  1.00  0.00    -0.246 OA
BRANCH  35  37
ATOM     37  C   UNL A   1      39.796  25.543  27.742  1.00  0.00     0.060 A 
ATOM     38  C   UNL A   1      40.721  26.567  27.558  1.00  0.00     0.016 A 
ATOM     39  C   UNL A   1      39.001  25.510  28.886  1.00  0.00     0.016 A 
ATOM     40  C   UNL A   1      40.926  27.503  28.564  1.00  0.00     0.010 A 
ATOM     41  C   UNL A   1      39.108  26.535  29.825  1.00  0.00     0.010 A 
ATOM     42  C   UNL A   1      40.085  27.534  29.683  1.00  0.00    -0.014 A 
BRANCH  42  43
ATOM     43  C   UNL A   1      40.176  28.646  30.665  1.00  0.00     0.031 A 
ATOM     44  C   UNL A   1      41.157  28.582  31.803  1.00  0.00     0.074 A 
ATOM     45  C   UNL A   1      39.321  29.684  30.556  1.00  0.00     0.049 A 
ATOM     46  N   UNL A   1      41.225  29.326  32.876  1.00  0.00    -0.248 NA
ATOM     47  C   UNL A   1      42.181  27.525  31.741  1.00  0.00     0.031 C 
ATOM     48  C   UNL A   1      38.336  29.862  29.483  1.00  0.00     0.029 A 
ATOM     49  N   UNL A   1      39.132  30.782  31.355  1.00  0.00    -0.354 N 
ATOM     50  C   UNL A   1      42.258  28.798  33.642  1.00  0.00     0.074 A 
ATOM     51  C   UNL A   1      42.783  27.661  32.915  1.00  0.00     0.031 C 
ATOM     52  C   UNL A   1      37.679  31.015  29.668  1.00  0.00     0.029 A 
ATOM     53  C   UNL A   1      38.114  31.602  30.926  1.00  0.00     0.049 A 
ATOM     54  H   UNL A   1      39.673  30.966  32.157  1.00  0.00     0.167 HD
ATOM     55  C   UNL A   1      42.717  29.227  34.843  1.00  0.00     0.037 A 
ATOM     56  C   UNL A   1      37.547  32.676  31.505  1.00  0.00     0.037 A 
ATOM     57  C   UNL A   1      42.199  30.389  35.524  1.00  0.00     0.049 A 
ATOM     58  C   UNL A   1      38.054  33.112  32.847  1.00  0.00     0.074 A 
ATOM     59  C   UNL A   1      42.608  30.934  36.728  1.00  0.00     0.029 A 
ATOM     60  N   UNL A   1      41.164  31.188  35.056  1.00  0.00    -0.354 N 
ATOM     61  N   UNL A   1      39.013  32.589  33.574  1.00  0.00    -0.248 NA
ATOM     62  C   UNL A   1      37.395  34.273  33.457  1.00  0.00     0.031 C 
ATOM     63  C   UNL A   1      41.787  32.031  37.012  1.00  0.00     0.029 A 
ATOM     64  C   UNL A   1      40.906  32.209  35.957  1.00  0.00     0.049 A 
ATOM     65  H   UNL A   1      40.683  31.050  34.207  1.00  0.00     0.167 HD
ATOM     66  C   UNL A   1      39.087  33.369  34.720  1.00  0.00     0.074 A 
ATOM     67  C   UNL A   1      38.087  34.409  34.580  1.00  0.00     0.031 C 
ATOM     68  C   UNL A   1      39.907  33.237  35.792  1.00  0.00     0.037 A 
BRANCH  55  69
ATOM     69  C   UNL A   1      43.802  28.427  35.517  1.00  0.00     0.058 A 
ATOM     70  C   UNL A   1      45.165  28.667  35.284  1.00  0.00     0.135 A 
ATOM     71  C   UNL A   1      43.468  27.427  36.449  1.00  0.00     0.135 A 
ATOM     72  F   UNL A   1      45.547  29.597  34.396  1.00  0.00    -0.206 F 
ATOM     73  C   UNL A   1      46.156  27.928  35.928  1.00  0.00     0.059 A 
ATOM     74  C   UNL A   1      44.441  26.699  37.127  1.00  0.00     0.059 A 
ATOM     75  F   UNL A   1      42.181  27.154  36.713  1.00  0.00    -0.206 F 
ATOM     76  C   UNL A   1      45.785  26.947  36.850  1.00  0.00     0.060 A 
BRANCH  76  77
ATOM     77  S   UNL A   1      47.081  26.006  37.682  1.00  0.00     0.124 S 
ATOM     78  O   UNL A   1      48.017  27.065  38.052  1.00  0.00    -0.237 OA
ATOM     79  O   UNL A   1      46.357  25.387  38.787  1.00  0.00    -0.237 OA
ATOM     80  O   UNL A   1      47.552  25.087  36.651  1.00  0.00    -0.744 OA
ENDBRANCH  76  77
ENDBRANCH  55  69
BRANCH  56  81
ATOM     81  C   UNL A   1      36.424  33.377  30.828  1.00  0.00     0.058 A 
ATOM     82  C   UNL A   1      35.116  33.289  31.325  1.00  0.00     0.135 A 
ATOM     83  C   UNL A   1      36.639  34.184  29.699  1.00  0.00     0.135 A 
ATOM     84  F   UNL A   1      34.858  32.528  32.400  1.00  0.00    -0.206 F 
ATOM     85  C   UNL A   1      34.059  33.963  30.722  1.00  0.00     0.059 A 
ATOM     86  C   UNL A   1      35.606  34.896  29.099  1.00  0.00     0.059 A 
ATOM     87  F   UNL A   1      37.875  34.320  29.193  1.00  0.00    -0.206 F 
ATOM     88  C   UNL A   1      34.316  34.770  29.612  1.00  0.00     0.060 A 
BRANCH  88  89
ATOM     89  S   UNL A   1      32.947  35.681  28.867  1.00  0.00     0.124 S 
ATOM     90  O   UNL A   1      32.360  34.669  27.998  1.00  0.00    -0.237 OA
ATOM     91  O   UNL A   1      32.157  36.054  30.037  1.00  0.00    -0.237 OA
ATOM     92  O   UNL A   1      33.609  36.790  28.188  1.00  0.00    -0.744 OA
ENDBRANCH  88  89
ENDBRANCH  56  81
BRANCH  68  93
ATOM     93  C   UNL A   1      39.781  34.269  36.876  1.00  0.00     0.058 A 
ATOM     94  C   UNL A   1      40.448  35.502  36.804  1.00  0.00     0.135 A 
ATOM     95  C   UNL A   1      38.956  34.030  37.986  1.00  0.00     0.135 A 
ATOM     96  F   UNL A   1      41.258  35.774  35.770  1.00  0.00    -0.206 F 
ATOM     97  C   UNL A   1      40.320  36.453  37.810  1.00  0.00     0.059 A 
ATOM     98  C   UNL A   1      38.788  34.980  38.987  1.00  0.00     0.059 A 
ATOM     99  F   UNL A   1      38.292  32.869  38.099  1.00  0.00    -0.206 F 
ATOM    100  C   UNL A   1      39.484  36.184  38.897  1.00  0.00     0.060 A 
BRANCH 100 101
ATOM    101  S   UNL A   1      39.303  37.440  40.179  1.00  0.00     0.124 S 
ATOM    102  O   UNL A   1      38.903  36.634  41.327  1.00  0.00    -0.237 OA
ATOM    103  O   UNL A   1      40.643  38.016  40.243  1.00  0.00    -0.237 OA
ATOM    104  O   UNL A   1      38.272  38.325  39.645  1.00  0.00    -0.744 OA
ENDBRANCH 100 101
ENDBRANCH  68  93
ENDBRANCH  42  43
ENDBRANCH  35  37
ENDBRANCH  34  35
ENDBRANCH  33  34
ENDBRANCH   1  33
TORSDOF 18
ENDMDL
MODEL 3
REMARK VINA RESULT:     -12.7      1.816      3.000
REMARK SMILES O=C(NC1(C(=O)OCCOC(=O)c2ccc(-c3c4nc(c(-c5c(F)cc(S(=O)(=O)[O-])cc5F)c5ccc([nH]5)c(-c5c(F)cc(S(=O)(=O)[O-])cc5F)c5nc(c(-c6c(F)cc(S(=O)(=O)[O-])cc6F)c6ccc3[nH]6)C=C5)C=C4)cc2)Cc2ccccc2C1)OCC1c2ccccc2-c2ccccc21
REMARK SMILES IDX 8 1 7 2 5 3 6 4 4 5 79 6 86 7 80 8 85 9 81 10 84 11 82 12
REMARK SMILES IDX 83 13 3 14 1 15 2 16 87 18 88 19 89 20 90 21 101 22 91 23
REMARK SMILES IDX 95 24 96 25 100 26 92 27 94 28 97 29 99 30 93 31 98 32 9 33
REMARK SMILES IDX 10 34 11 35 12 36 13 37 14 38 78 39 15 40 77 41 16 42 17 43
REMARK SMILES IDX 18 44 71 45 19 46 76 47 70 48 72 49 20 50 75 51 69 52 68 53
REMARK SMILES IDX 21 55 55 56 34 57 54 58 35 59 38 60 53 61 73 62 36 63 37 64
REMARK SMILES IDX 52 66 74 67 39 68 22 69 23 70 32 71 24 72 25 73 31 74 33 75
REMARK SMILES IDX 26 76 27 77 28 78 29 79 30 80 56 81 57 82 66 83 58 84 59 85
REMARK SMILES IDX 65 86 67 87 60 88 61 89 62 90 63 91 64 92 40 93 41 94 50 95
REMARK SMILES IDX 42 96 43 97 49 98 51 99 44 100 45 101 46 102 47 103 48 104
REMARK H PARENT 3 17 72 54 38 65
REMARK Flexibility Score: inf
ROOT
ATOM      1  C   UNL A   1      34.038  28.355  26.178  1.00  0.00     0.274 C 
ENDROOT
BRANCH   1   2
ATOM      2  O   UNL A   1      33.373  28.694  24.942  1.00  0.00    -0.460 OA
BRANCH   2   3
ATOM      3  C   UNL A   1      32.240  27.996  24.668  1.00  0.00     0.332 C 
ATOM      4  O   UNL A   1      31.683  27.258  25.480  1.00  0.00    -0.249 OA
BRANCH   3   5
ATOM      5  C   UNL A   1      31.711  28.162  23.224  1.00  0.00     0.149 C 
ATOM      6  C   UNL A   1      31.368  29.681  23.067  1.00  0.00     0.076 C 
ATOM      7  C   UNL A   1      30.407  27.434  22.838  1.00  0.00     0.076 C 
ATOM      8  C   UNL A   1      29.869  29.704  23.204  1.00  0.00    -0.042 A 
ATOM      9  C   UNL A   1      29.340  28.438  23.005  1.00  0.00    -0.042 A 
ATOM     10  C   UNL A   1      29.010  30.761  23.431  1.00  0.00     0.004 A 
ATOM     11  C   UNL A   1      27.983  28.184  22.944  1.00  0.00     0.004 A 
ATOM     12  C   UNL A   1      27.627  30.516  23.434  1.00  0.00     0.000 A 
ATOM     13  C   UNL A   1      27.115  29.236  23.174  1.00  0.00     0.000 A 
BRANCH   5  14
ATOM     14  N   UNL A   1      32.781  27.698  22.322  1.00  0.00    -0.305 N 
ATOM     15  O   UNL A   1      33.713  25.994  21.150  1.00  0.00    -0.225 OA
ATOM     16  C   UNL A   1      33.062  26.372  22.120  1.00  0.00     0.408 C 
ATOM     17  H   UNL A   1      33.318  28.371  21.843  1.00  0.00     0.168 HD
BRANCH  16  18
ATOM     18  O   UNL A   1      32.468  25.543  23.036  1.00  0.00    -0.449 OA
BRANCH  18  19
ATOM     19  C   UNL A   1      32.269  24.233  22.504  1.00  0.00     0.248 C 
BRANCH  19  20
ATOM     20  C   UNL A   1      32.972  23.039  23.225  1.00  0.00     0.088 C 
ATOM     21  C   UNL A   1      34.451  23.101  23.618  1.00  0.00    -0.029 A 
ATOM     22  C   UNL A   1      32.323  23.006  24.625  1.00  0.00    -0.029 A 
ATOM     23  C   UNL A   1      35.576  23.017  22.815  1.00  0.00     0.005 A 
ATOM     24  C   UNL A   1      34.601  23.191  25.017  1.00  0.00    -0.014 A 
ATOM     25  C   UNL A   1      33.293  23.267  25.614  1.00  0.00    -0.014 A 
ATOM     26  C   UNL A   1      30.967  23.014  24.919  1.00  0.00     0.005 A 
ATOM     27  C   UNL A   1      36.846  23.062  23.406  1.00  0.00     0.000 A 
ATOM     28  C   UNL A   1      35.856  23.173  25.615  1.00  0.00     0.009 A 
ATOM     29  C   UNL A   1      32.909  23.677  26.878  1.00  0.00     0.009 A 
ATOM     30  C   UNL A   1      30.582  23.427  26.192  1.00  0.00     0.000 A 
ATOM     31  C   UNL A   1      36.987  23.125  24.798  1.00  0.00     0.001 A 
ATOM     32  C   UNL A   1      31.544  23.787  27.151  1.00  0.00     0.001 A 
ENDBRANCH  19  20
ENDBRANCH  18  19
ENDBRANCH  16  18
ENDBRANCH   5  14
ENDBRANCH   3   5
ENDBRANCH   2   3
ENDBRANCH   1   2
BRANCH   1  33
ATOM     33  C   UNL A   1      34.378  29.584  27.019  1.00  0.00     0.275 C 
BRANCH  33  34
ATOM     34  O   UNL A   1      35.134  29.192  28.172  1.00  0.00    -0.458 OA
BRANCH  34  35
ATOM     35  C   UNL A   1      35.925  30.143  28.719  1.00  0.00     0.338 C 
ATOM     36  O   UNL A   1      35.583  31.220  29.179  1.00  0.00    -0.246 OA
BRANCH  35  37
ATOM     37  C   UNL A   1      37.327  29.708  28.667  1.00  0.00     0.060 A 
ATOM     38  C   UNL A   1      38.018  29.410  29.839  1.00  0.00     0.016 A 
ATOM     39  C   UNL A   1      37.985  29.695  27.439  1.00  0.00     0.016 A 
ATOM     40  C   UNL A   1      39.391  29.199  29.799  1.00  0.00     0.010 A 
ATOM     41  C   UNL A   1      39.332  29.338  27.387  1.00  0.00     0.010 A 
ATOM     42  C   UNL A   1      40.055  29.103  28.569  1.00  0.00    -0.014 A 
BRANCH  42  43
ATOM     43  C   UNL A   1      41.480  28.688  28.512  1.00  0.00     0.031 A 
ATOM     44  C   UNL A   1      42.578  29.702  28.683  1.00  0.00     0.074 A 
ATOM     45  C   UNL A   1      41.775  27.400  28.242  1.00  0.00     0.049 A 
ATOM     46  N   UNL A   1      43.857  29.581  28.438  1.00  0.00    -0.248 NA
ATOM     47  C   UNL A   1      42.185  31.035  29.169  1.00  0.00     0.031 C 
ATOM     48  C   UNL A   1      40.792  26.323  28.072  1.00  0.00     0.029 A 
ATOM     49  N   UNL A   1      42.979  26.772  28.052  1.00  0.00    -0.354 N 
ATOM     50  C   UNL A   1      44.412  30.832  28.685  1.00  0.00     0.074 A 
ATOM     51  C   UNL A   1      43.328  31.702  29.089  1.00  0.00     0.031 C 
ATOM     52  C   UNL A   1      41.431  25.168  27.846  1.00  0.00     0.029 A 
ATOM     53  C   UNL A   1      42.857  25.437  27.743  1.00  0.00     0.049 A 
ATOM     54  H   UNL A   1      43.847  27.232  28.131  1.00  0.00     0.167 HD
ATOM     55  C   UNL A   1      45.709  31.211  28.576  1.00  0.00     0.037 A 
ATOM     56  C   UNL A   1      43.780  24.536  27.360  1.00  0.00     0.037 A 
ATOM     57  C   UNL A   1      46.774  30.309  28.209  1.00  0.00     0.049 A 
ATOM     58  C   UNL A   1      45.203  24.988  27.219  1.00  0.00     0.074 A 
ATOM     59  C   UNL A   1      48.128  30.575  28.099  1.00  0.00     0.029 A 
ATOM     60  N   UNL A   1      46.605  28.966  27.899  1.00  0.00    -0.354 N 
ATOM     61  N   UNL A   1      45.712  26.179  27.429  1.00  0.00    -0.248 NA
ATOM     62  C   UNL A   1      46.175  23.983  26.777  1.00  0.00     0.031 C 
ATOM     63  C   UNL A   1      48.769  29.407  27.674  1.00  0.00     0.029 A 
ATOM     64  C   UNL A   1      47.827  28.395  27.578  1.00  0.00     0.049 A 
ATOM     65  H   UNL A   1      45.745  28.488  27.908  1.00  0.00     0.167 HD
ATOM     66  C   UNL A   1      47.069  26.063  27.164  1.00  0.00     0.074 A 
ATOM     67  C   UNL A   1      47.303  24.681  26.794  1.00  0.00     0.031 C 
ATOM     68  C   UNL A   1      48.035  27.013  27.218  1.00  0.00     0.037 A 
BRANCH  55  69
ATOM     69  C   UNL A   1      46.050  32.659  28.820  1.00  0.00     0.058 A 
ATOM     70  C   UNL A   1      46.408  33.143  30.088  1.00  0.00     0.135 A 
ATOM     71  C   UNL A   1      46.058  33.573  27.750  1.00  0.00     0.135 A 
ATOM     72  F   UNL A   1      46.404  32.323  31.151  1.00  0.00    -0.206 F 
ATOM     73  C   UNL A   1      46.736  34.481  30.292  1.00  0.00     0.059 A 
ATOM     74  C   UNL A   1      46.413  34.907  27.925  1.00  0.00     0.059 A 
ATOM     75  F   UNL A   1      45.725  33.168  26.515  1.00  0.00    -0.206 F 
ATOM     76  C   UNL A   1      46.737  35.356  29.204  1.00  0.00     0.060 A 
BRANCH  76  77
ATOM     77  S   UNL A   1      47.173  37.086  29.485  1.00  0.00     0.124 S 
ATOM     78  O   UNL A   1      48.410  37.203  28.717  1.00  0.00    -0.237 OA
ATOM     79  O   UNL A   1      46.019  37.791  28.939  1.00  0.00    -0.237 OA
ATOM     80  O   UNL A   1      47.326  37.169  30.934  1.00  0.00    -0.744 OA
ENDBRANCH  76  77
ENDBRANCH  55  69
BRANCH  56  81
ATOM     81  C   UNL A   1      43.370  23.139  27.054  1.00  0.00     0.058 A 
ATOM     82  C   UNL A   1      43.358  22.665  25.735  1.00  0.00     0.135 A 
ATOM     83  C   UNL A   1      43.027  22.237  28.075  1.00  0.00     0.135 A 
ATOM     84  F   UNL A   1      43.674  23.488  24.724  1.00  0.00    -0.206 F 
ATOM     85  C   UNL A   1      43.006  21.352  25.435  1.00  0.00     0.059 A 
ATOM     86  C   UNL A   1      42.706  20.911  27.805  1.00  0.00     0.059 A 
ATOM     87  F   UNL A   1      43.042  22.632  29.358  1.00  0.00    -0.206 F 
ATOM     88  C   UNL A   1      42.689  20.481  26.479  1.00  0.00     0.060 A 
BRANCH  88  89
ATOM     89  S   UNL A   1      42.284  18.767  26.083  1.00  0.00     0.124 S 
ATOM     90  O   UNL A   1      42.528  18.105  27.359  1.00  0.00    -0.237 OA
ATOM     91  O   UNL A   1      40.886  18.869  25.675  1.00  0.00    -0.237 OA
ATOM     92  O   UNL A   1      43.219  18.438  25.011  1.00  0.00    -0.744 OA
ENDBRANCH  88  89
ENDBRANCH  56  81
BRANCH  68  93
ATOM     93  C   UNL A   1      49.439  26.575  26.911  1.00  0.00     0.058 A 
ATOM     94  C   UNL A   1      49.972  26.656  25.615  1.00  0.00     0.135 A 
ATOM     95  C   UNL A   1      50.269  26.098  27.937  1.00  0.00     0.135 A 
ATOM     96  F   UNL A   1      49.215  27.094  24.598  1.00  0.00    -0.206 F 
ATOM     97  C   UNL A   1      51.275  26.254  25.343  1.00  0.00     0.059 A 
ATOM     98  C   UNL A   1      51.585  25.721  27.693  1.00  0.00     0.059 A 
ATOM     99  F   UNL A   1      49.808  26.007  29.195  1.00  0.00    -0.206 F 
ATOM    100  C   UNL A   1      52.075  25.790  26.390  1.00  0.00     0.060 A 
BRANCH 100 101
ATOM    101  S   UNL A   1      53.774  25.302  26.028  1.00  0.00     0.124 S 
ATOM    102  O   UNL A   1      54.411  25.467  27.331  1.00  0.00    -0.237 OA
ATOM    103  O   UNL A   1      53.612  23.925  25.572  1.00  0.00    -0.237 OA
ATOM    104  O   UNL A   1      54.190  26.251  25.001  1.00  0.00    -0.744 OA
ENDBRANCH 100 101
ENDBRANCH  68  93
ENDBRANCH  42  43
ENDBRANCH  35  37
ENDBRANCH  34  35
ENDBRANCH  33  34
ENDBRANCH   1  33
TORSDOF 18
ENDMDL
