MODEL 1
REMARK VINA RESULT:     -12.3      0.000      0.000
REMARK SMILES COc1cccc([C@@H]2CN(C(=O)CSc3nc(C)n[nH]3)C[C@H]2C(=O)OCCOC(=O)c2ccc(-c3c4nc(c(-c5c(F)cc(S(=O)(=O)[O-])cc5F)c5ccc([nH]5)c(-c5c(F)cc(S(=O)(=O)[O-])cc5F)c5nc(c(-c6c(F)cc(S(=O)(=O)[O-])cc6F)c6ccc3[nH]6)C=C5)C=C4)cc2)c1
REMARK SMILES IDX 26 1 25 2 23 3 24 4 22 5 8 6 9 7 10 8 21 9 7 10 3 11 4 12
REMARK SMILES IDX 97 13 5 14 6 15 2 16 1 17 11 18 12 19 13 20 14 21 15 22
REMARK SMILES IDX 16 23 20 24 17 25 19 26 18 28 27 29 28 30 29 31 30 32 31 33
REMARK SMILES IDX 32 34 96 35 33 36 95 37 34 38 35 39 36 40 89 41 37 42 94 43
REMARK SMILES IDX 88 44 90 45 38 46 93 47 87 48 86 49 39 51 73 52 52 53 72 54
REMARK SMILES IDX 53 55 56 56 71 57 91 58 54 59 55 60 70 62 92 63 57 64 40 65
REMARK SMILES IDX 41 66 50 67 42 68 43 69 49 70 51 71 44 72 45 73 46 74 47 75
REMARK SMILES IDX 48 76 74 77 75 78 84 79 76 80 77 81 83 82 85 83 78 84 79 85
REMARK SMILES IDX 80 86 81 87 82 88 58 89 59 90 68 91 60 92 61 93 67 94 69 95
REMARK SMILES IDX 62 96 63 97 64 98 65 99 66 100
REMARK H PARENT 20 27 90 50 56 61
REMARK Flexibility Score: inf
ROOT
ATOM      1  C   UNL A   1      37.829  22.702  25.712  1.00  0.00     0.274 C 
ENDROOT
BRANCH   1   2
ATOM      2  O   UNL A   1      36.433  22.356  25.554  1.00  0.00    -0.462 OA
BRANCH   2   3
ATOM      3  C   UNL A   1      35.935  22.395  24.287  1.00  0.00     0.311 C 
ATOM      4  O   UNL A   1      36.594  22.688  23.293  1.00  0.00    -0.252 OA
BRANCH   3   5
ATOM      5  C   UNL A   1      34.440  22.171  24.217  1.00  0.00     0.128 C 
ATOM      6  C   UNL A   1      33.836  21.028  25.066  1.00  0.00     0.055 C 
ATOM      7  C   UNL A   1      32.520  21.622  25.583  1.00  0.00     0.128 C 
ATOM      8  N   UNL A   1      32.740  23.052  25.637  1.00  0.00    -0.340 N 
ATOM      9  C   UNL A   1      33.808  23.453  24.748  1.00  0.00     0.135 C 
BRANCH   6  10
ATOM     10  C   UNL A   1      33.544  19.703  24.373  1.00  0.00    -0.039 A 
ATOM     11  C   UNL A   1      34.048  17.364  23.884  1.00  0.00     0.119 A 
ATOM     12  C   UNL A   1      33.010  17.321  22.956  1.00  0.00     0.046 A 
ATOM     13  C   UNL A   1      34.324  18.548  24.580  1.00  0.00     0.050 A 
ATOM     14  C   UNL A   1      32.229  18.452  22.738  1.00  0.00     0.004 A 
ATOM     15  C   UNL A   1      32.501  19.634  23.432  1.00  0.00     0.004 A 
BRANCH  11  16
ATOM     16  O   UNL A   1      34.808  16.232  23.997  1.00  0.00    -0.497 OA
ATOM     17  C   UNL A   1      35.062  15.844  25.343  1.00  0.00     0.278 C 
ENDBRANCH  11  16
ENDBRANCH   6  10
BRANCH   8  18
ATOM     18  C   UNL A   1      32.056  23.993  26.375  1.00  0.00     0.233 C 
ATOM     19  O   UNL A   1      31.534  23.691  27.452  1.00  0.00    -0.274 OA
BRANCH  18  20
ATOM     20  C   UNL A   1      31.887  25.390  25.798  1.00  0.00     0.178 C 
BRANCH  20  21
ATOM     21  S   UNL A   1      30.153  25.822  25.467  1.00  0.00    -0.077 SA
BRANCH  21  22
ATOM     22  C   UNL A   1      30.308  26.804  24.070  1.00  0.00     0.184 A 
ATOM     23  N   UNL A   1      29.891  28.030  23.886  1.00  0.00    -0.206 NA
ATOM     24  N   UNL A   1      30.934  26.352  22.952  1.00  0.00    -0.254 N 
ATOM     25  C   UNL A   1      30.328  28.309  22.617  1.00  0.00     0.148 A 
ATOM     26  N   UNL A   1      30.960  27.302  21.998  1.00  0.00    -0.158 NA
ATOM     27  H   UNL A   1      31.317  25.451  22.853  1.00  0.00     0.192 HD
ATOM     28  C   UNL A   1      30.113  29.630  21.994  1.00  0.00     0.092 C 
ENDBRANCH  21  22
ENDBRANCH  20  21
ENDBRANCH  18  20
ENDBRANCH   8  18
ENDBRANCH   3   5
ENDBRANCH   2   3
ENDBRANCH   1   2
BRANCH   1  29
ATOM     29  C   UNL A   1      38.746  21.484  25.828  1.00  0.00     0.275 C 
BRANCH  29  30
ATOM     30  O   UNL A   1      39.672  21.623  26.906  1.00  0.00    -0.458 OA
BRANCH  30  31
ATOM     31  C   UNL A   1      40.943  21.359  26.526  1.00  0.00     0.338 C 
ATOM     32  O   UNL A   1      41.371  20.279  26.161  1.00  0.00    -0.246 OA
BRANCH  31  33
ATOM     33  C   UNL A   1      41.815  22.516  26.712  1.00  0.00     0.060 A 
ATOM     34  C   UNL A   1      42.413  22.634  27.970  1.00  0.00     0.016 A 
ATOM     35  C   UNL A   1      41.716  23.595  25.833  1.00  0.00     0.016 A 
ATOM     36  C   UNL A   1      42.673  23.888  28.463  1.00  0.00     0.010 A 
ATOM     37  C   UNL A   1      41.999  24.852  26.319  1.00  0.00     0.010 A 
ATOM     38  C   UNL A   1      42.360  24.985  27.662  1.00  0.00    -0.014 A 
BRANCH  38  39
ATOM     39  C   UNL A   1      42.376  26.290  28.296  1.00  0.00     0.031 A 
ATOM     40  C   UNL A   1      43.573  27.095  27.984  1.00  0.00     0.074 A 
ATOM     41  C   UNL A   1      41.315  26.730  29.003  1.00  0.00     0.049 A 
ATOM     42  N   UNL A   1      44.451  27.588  28.794  1.00  0.00    -0.248 NA
ATOM     43  C   UNL A   1      43.899  27.270  26.558  1.00  0.00     0.031 C 
ATOM     44  C   UNL A   1      39.994  26.088  29.079  1.00  0.00     0.029 A 
ATOM     45  N   UNL A   1      41.130  27.900  29.677  1.00  0.00    -0.354 N 
ATOM     46  C   UNL A   1      45.296  28.343  27.989  1.00  0.00     0.074 A 
ATOM     47  C   UNL A   1      45.037  27.958  26.627  1.00  0.00     0.031 C 
ATOM     48  C   UNL A   1      39.092  26.987  29.522  1.00  0.00     0.029 A 
ATOM     49  C   UNL A   1      39.794  28.203  29.898  1.00  0.00     0.049 A 
ATOM     50  H   UNL A   1      41.871  28.473  29.978  1.00  0.00     0.167 HD
ATOM     51  C   UNL A   1      45.913  29.456  28.466  1.00  0.00     0.037 A 
ATOM     52  C   UNL A   1      39.281  29.398  30.276  1.00  0.00     0.037 A 
ATOM     53  C   UNL A   1      45.902  29.515  29.900  1.00  0.00     0.049 A 
ATOM     54  C   UNL A   1      40.359  30.190  30.915  1.00  0.00     0.074 A 
ATOM     55  C   UNL A   1      46.649  28.992  30.931  1.00  0.00     0.029 A 
ATOM     56  N   UNL A   1      44.738  29.995  30.438  1.00  0.00    -0.354 N 
ATOM     57  N   UNL A   1      40.959  29.838  32.019  1.00  0.00    -0.248 NA
ATOM     58  C   UNL A   1      41.023  31.249  30.159  1.00  0.00     0.031 C 
ATOM     59  C   UNL A   1      45.834  29.063  32.100  1.00  0.00     0.029 A 
ATOM     60  C   UNL A   1      44.611  29.631  31.755  1.00  0.00     0.049 A 
ATOM     61  H   UNL A   1      44.076  30.531  29.945  1.00  0.00     0.167 HD
ATOM     62  C   UNL A   1      42.245  30.321  31.882  1.00  0.00     0.074 A 
ATOM     63  C   UNL A   1      42.181  31.314  30.821  1.00  0.00     0.031 C 
ATOM     64  C   UNL A   1      43.313  29.648  32.394  1.00  0.00     0.037 A 
BRANCH  51  65
ATOM     65  C   UNL A   1      46.100  30.701  27.636  1.00  0.00     0.058 A 
ATOM     66  C   UNL A   1      47.395  31.188  27.385  1.00  0.00     0.135 A 
ATOM     67  C   UNL A   1      45.037  31.583  27.330  1.00  0.00     0.135 A 
ATOM     68  F   UNL A   1      48.471  30.438  27.672  1.00  0.00    -0.206 F 
ATOM     69  C   UNL A   1      47.619  32.475  26.894  1.00  0.00     0.059 A 
ATOM     70  C   UNL A   1      45.236  32.845  26.786  1.00  0.00     0.059 A 
ATOM     71  F   UNL A   1      43.766  31.299  27.643  1.00  0.00    -0.206 F 
ATOM     72  C   UNL A   1      46.532  33.299  26.608  1.00  0.00     0.060 A 
BRANCH  72  73
ATOM     73  S   UNL A   1      46.813  34.994  26.067  1.00  0.00     0.124 S 
ATOM     74  O   UNL A   1      47.724  34.793  24.946  1.00  0.00    -0.237 OA
ATOM     75  O   UNL A   1      45.464  35.433  25.726  1.00  0.00    -0.237 OA
ATOM     76  O   UNL A   1      47.391  35.629  27.248  1.00  0.00    -0.744 OA
ENDBRANCH  72  73
ENDBRANCH  51  65
BRANCH  52  77
ATOM     77  C   UNL A   1      38.000  29.990  29.820  1.00  0.00     0.058 A 
ATOM     78  C   UNL A   1      37.081  30.534  30.729  1.00  0.00     0.135 A 
ATOM     79  C   UNL A   1      37.767  30.259  28.454  1.00  0.00     0.135 A 
ATOM     80  F   UNL A   1      37.246  30.348  32.046  1.00  0.00    -0.206 F 
ATOM     81  C   UNL A   1      36.010  31.331  30.311  1.00  0.00     0.059 A 
ATOM     82  C   UNL A   1      36.700  31.037  28.013  1.00  0.00     0.059 A 
ATOM     83  F   UNL A   1      38.626  29.843  27.510  1.00  0.00    -0.206 F 
ATOM     84  C   UNL A   1      35.839  31.590  28.951  1.00  0.00     0.060 A 
BRANCH  84  85
ATOM     85  S   UNL A   1      34.554  32.746  28.422  1.00  0.00     0.124 S 
ATOM     86  O   UNL A   1      35.312  33.681  27.598  1.00  0.00    -0.237 OA
ATOM     87  O   UNL A   1      33.630  31.871  27.709  1.00  0.00    -0.237 OA
ATOM     88  O   UNL A   1      34.050  33.291  29.680  1.00  0.00    -0.744 OA
ENDBRANCH  84  85
ENDBRANCH  52  77
BRANCH  64  89
ATOM     89  C   UNL A   1      43.073  28.743  33.564  1.00  0.00     0.058 A 
ATOM     90  C   UNL A   1      42.876  27.356  33.467  1.00  0.00     0.135 A 
ATOM     91  C   UNL A   1      43.116  29.302  34.849  1.00  0.00     0.135 A 
ATOM     92  F   UNL A   1      42.899  26.741  32.276  1.00  0.00    -0.206 F 
ATOM     93  C   UNL A   1      42.693  26.564  34.601  1.00  0.00     0.059 A 
ATOM     94  C   UNL A   1      42.964  28.528  35.995  1.00  0.00     0.059 A 
ATOM     95  F   UNL A   1      43.349  30.616  35.004  1.00  0.00    -0.206 F 
ATOM     96  C   UNL A   1      42.739  27.160  35.863  1.00  0.00     0.060 A 
BRANCH  96  97
ATOM     97  S   UNL A   1      42.577  26.123  37.332  1.00  0.00     0.124 S 
ATOM     98  O   UNL A   1      43.520  26.745  38.254  1.00  0.00    -0.237 OA
ATOM     99  O   UNL A   1      41.165  26.273  37.672  1.00  0.00    -0.237 OA
ATOM    100  O   UNL A   1      42.955  24.794  36.855  1.00  0.00    -0.744 OA
ENDBRANCH  96  97
ENDBRANCH  64  89
ENDBRANCH  38  39
ENDBRANCH  31  33
ENDBRANCH  30  31
ENDBRANCH  29  30
ENDBRANCH   1  29
TORSDOF 20
ENDMDL
MODEL 2
REMARK VINA RESULT:     -12.0      2.786      9.527
REMARK SMILES COc1cccc([C@@H]2CN(C(=O)CSc3nc(C)n[nH]3)C[C@H]2C(=O)OCCOC(=O)c2ccc(-c3c4nc(c(-c5c(F)cc(S(=O)(=O)[O-])cc5F)c5ccc([nH]5)c(-c5c(F)cc(S(=O)(=O)[O-])cc5F)c5nc(c(-c6c(F)cc(S(=O)(=O)[O-])cc6F)c6ccc3[nH]6)C=C5)C=C4)cc2)c1
REMARK SMILES IDX 26 1 25 2 23 3 24 4 22 5 8 6 9 7 10 8 21 9 7 10 3 11 4 12
REMARK SMILES IDX 97 13 5 14 6 15 2 16 1 17 11 18 12 19 13 20 14 21 15 22
REMARK SMILES IDX 16 23 20 24 17 25 19 26 18 28 27 29 28 30 29 31 30 32 31 33
REMARK SMILES IDX 32 34 96 35 33 36 95 37 34 38 35 39 36 40 89 41 37 42 94 43
REMARK SMILES IDX 88 44 90 45 38 46 93 47 87 48 86 49 39 51 73 52 52 53 72 54
REMARK SMILES IDX 53 55 56 56 71 57 91 58 54 59 55 60 70 62 92 63 57 64 40 65
REMARK SMILES IDX 41 66 50 67 42 68 43 69 49 70 51 71 44 72 45 73 46 74 47 75
REMARK SMILES IDX 48 76 74 77 75 78 84 79 76 80 77 81 83 82 85 83 78 84 79 85
REMARK SMILES IDX 80 86 81 87 82 88 58 89 59 90 68 91 60 92 61 93 67 94 69 95
REMARK SMILES IDX 62 96 63 97 64 98 65 99 66 100
REMARK H PARENT 20 27 90 50 56 61
REMARK Flexibility Score: inf
ROOT
ATOM      1  C   UNL A   1      32.264  30.154  26.419  1.00  0.00     0.274 C 
ENDROOT
BRANCH   1   2
ATOM      2  O   UNL A   1      31.902  28.883  27.006  1.00  0.00    -0.462 OA
BRANCH   2   3
ATOM      3  C   UNL A   1      32.217  27.768  26.290  1.00  0.00     0.311 C 
ATOM      4  O   UNL A   1      33.361  27.442  25.987  1.00  0.00    -0.252 OA
BRANCH   3   5
ATOM      5  C   UNL A   1      31.008  27.018  25.775  1.00  0.00     0.128 C 
ATOM      6  C   UNL A   1      30.729  27.049  24.254  1.00  0.00     0.055 C 
ATOM      7  C   UNL A   1      30.257  25.622  23.946  1.00  0.00     0.128 C 
ATOM      8  N   UNL A   1      30.890  24.786  24.945  1.00  0.00    -0.340 N 
ATOM      9  C   UNL A   1      31.258  25.553  26.115  1.00  0.00     0.135 C 
BRANCH   6  10
ATOM     10  C   UNL A   1      29.688  28.036  23.740  1.00  0.00    -0.039 A 
ATOM     11  C   UNL A   1      28.958  30.289  23.143  1.00  0.00     0.119 A 
ATOM     12  C   UNL A   1      27.669  29.821  22.901  1.00  0.00     0.046 A 
ATOM     13  C   UNL A   1      29.960  29.408  23.572  1.00  0.00     0.050 A 
ATOM     14  C   UNL A   1      27.382  28.469  23.064  1.00  0.00     0.004 A 
ATOM     15  C   UNL A   1      28.379  27.588  23.489  1.00  0.00     0.004 A 
BRANCH  11  16
ATOM     16  O   UNL A   1      29.146  31.639  23.022  1.00  0.00    -0.497 OA
ATOM     17  C   UNL A   1      28.616  32.185  21.818  1.00  0.00     0.278 C 
ENDBRANCH  11  16
ENDBRANCH   6  10
BRANCH   8  18
ATOM     18  C   UNL A   1      31.123  23.429  24.898  1.00  0.00     0.233 C 
ATOM     19  O   UNL A   1      30.662  22.680  25.765  1.00  0.00    -0.274 OA
BRANCH  18  20
ATOM     20  C   UNL A   1      32.026  22.882  23.804  1.00  0.00     0.178 C 
BRANCH  20  21
ATOM     21  S   UNL A   1      32.624  21.200  24.144  1.00  0.00    -0.077 SA
BRANCH  21  22
ATOM     22  C   UNL A   1      34.239  21.506  24.633  1.00  0.00     0.184 A 
ATOM     23  N   UNL A   1      34.918  22.620  24.547  1.00  0.00    -0.206 NA
ATOM     24  N   UNL A   1      35.002  20.537  25.203  1.00  0.00    -0.254 N 
ATOM     25  C   UNL A   1      36.116  22.288  25.126  1.00  0.00     0.148 A 
ATOM     26  N   UNL A   1      36.219  21.012  25.529  1.00  0.00    -0.158 NA
ATOM     27  H   UNL A   1      34.706  19.611  25.355  1.00  0.00     0.192 HD
ATOM     28  C   UNL A   1      37.202  23.274  25.289  1.00  0.00     0.092 C 
ENDBRANCH  21  22
ENDBRANCH  20  21
ENDBRANCH  18  20
ENDBRANCH   8  18
ENDBRANCH   3   5
ENDBRANCH   2   3
ENDBRANCH   1   2
BRANCH   1  29
ATOM     29  C   UNL A   1      33.224  30.971  27.285  1.00  0.00     0.275 C 
BRANCH  29  30
ATOM     30  O   UNL A   1      34.571  30.514  27.151  1.00  0.00    -0.458 OA
BRANCH  30  31
ATOM     31  C   UNL A   1      35.455  31.350  27.740  1.00  0.00     0.338 C 
ATOM     32  O   UNL A   1      35.603  32.532  27.484  1.00  0.00    -0.246 OA
BRANCH  31  33
ATOM     33  C   UNL A   1      36.333  30.642  28.670  1.00  0.00     0.060 A 
ATOM     34  C   UNL A   1      37.161  31.445  29.459  1.00  0.00     0.016 A 
ATOM     35  C   UNL A   1      36.583  29.285  28.473  1.00  0.00     0.016 A 
ATOM     36  C   UNL A   1      38.389  30.959  29.835  1.00  0.00     0.010 A 
ATOM     37  C   UNL A   1      37.804  28.789  28.870  1.00  0.00     0.010 A 
ATOM     38  C   UNL A   1      38.731  29.667  29.438  1.00  0.00    -0.014 A 
BRANCH  38  39
ATOM     39  C   UNL A   1      40.118  29.275  29.597  1.00  0.00     0.031 A 
ATOM     40  C   UNL A   1      40.569  29.215  31.001  1.00  0.00     0.074 A 
ATOM     41  C   UNL A   1      40.857  28.896  28.534  1.00  0.00     0.049 A 
ATOM     42  N   UNL A   1      41.531  29.862  31.571  1.00  0.00    -0.248 NA
ATOM     43  C   UNL A   1      39.753  28.406  31.923  1.00  0.00     0.031 C 
ATOM     44  C   UNL A   1      40.359  28.652  27.172  1.00  0.00     0.029 A 
ATOM     45  N   UNL A   1      42.161  28.507  28.461  1.00  0.00    -0.354 N 
ATOM     46  C   UNL A   1      41.591  29.349  32.862  1.00  0.00     0.074 A 
ATOM     47  C   UNL A   1      40.372  28.617  33.083  1.00  0.00     0.031 C 
ATOM     48  C   UNL A   1      41.266  27.916  26.497  1.00  0.00     0.029 A 
ATOM     49  C   UNL A   1      42.455  27.773  27.321  1.00  0.00     0.049 A 
ATOM     50  H   UNL A   1      42.830  28.725  29.150  1.00  0.00     0.167 HD
ATOM     51  C   UNL A   1      42.767  29.286  33.540  1.00  0.00     0.037 A 
ATOM     52  C   UNL A   1      43.557  27.019  27.098  1.00  0.00     0.037 A 
ATOM     53  C   UNL A   1      43.780  30.119  32.957  1.00  0.00     0.049 A 
ATOM     54  C   UNL A   1      44.635  27.485  28.003  1.00  0.00     0.074 A 
ATOM     55  C   UNL A   1      44.137  31.448  33.008  1.00  0.00     0.029 A 
ATOM     56  N   UNL A   1      44.427  29.561  31.888  1.00  0.00    -0.354 N 
ATOM     57  N   UNL A   1      45.158  28.680  27.952  1.00  0.00    -0.248 NA
ATOM     58  C   UNL A   1      44.940  26.726  29.213  1.00  0.00     0.031 C 
ATOM     59  C   UNL A   1      44.931  31.700  31.851  1.00  0.00     0.029 A 
ATOM     60  C   UNL A   1      45.043  30.519  31.123  1.00  0.00     0.049 A 
ATOM     61  H   UNL A   1      44.448  28.596  31.692  1.00  0.00     0.167 HD
ATOM     62  C   UNL A   1      45.496  28.965  29.260  1.00  0.00     0.074 A 
ATOM     63  C   UNL A   1      45.504  27.686  29.952  1.00  0.00     0.031 C 
ATOM     64  C   UNL A   1      45.411  30.232  29.753  1.00  0.00     0.037 A 
BRANCH  51  65
ATOM     65  C   UNL A   1      43.131  28.124  34.430  1.00  0.00     0.058 A 
ATOM     66  C   UNL A   1      43.414  28.345  35.790  1.00  0.00     0.135 A 
ATOM     67  C   UNL A   1      43.491  26.854  33.922  1.00  0.00     0.135 A 
ATOM     68  F   UNL A   1      43.140  29.530  36.358  1.00  0.00    -0.206 F 
ATOM     69  C   UNL A   1      44.042  27.382  36.581  1.00  0.00     0.059 A 
ATOM     70  C   UNL A   1      44.061  25.861  34.706  1.00  0.00     0.059 A 
ATOM     71  F   UNL A   1      43.400  26.560  32.618  1.00  0.00    -0.206 F 
ATOM     72  C   UNL A   1      44.370  26.147  36.025  1.00  0.00     0.060 A 
BRANCH  72  73
ATOM     73  S   UNL A   1      45.267  24.934  37.010  1.00  0.00     0.124 S 
ATOM     74  O   UNL A   1      46.567  25.578  37.150  1.00  0.00    -0.237 OA
ATOM     75  O   UNL A   1      44.454  24.862  38.220  1.00  0.00    -0.237 OA
ATOM     76  O   UNL A   1      45.238  23.738  36.174  1.00  0.00    -0.744 OA
ENDBRANCH  72  73
ENDBRANCH  51  65
BRANCH  52  77
ATOM     77  C   UNL A   1      43.608  25.726  26.374  1.00  0.00     0.058 A 
ATOM     78  C   UNL A   1      44.526  25.503  25.336  1.00  0.00     0.135 A 
ATOM     79  C   UNL A   1      42.921  24.592  26.859  1.00  0.00     0.135 A 
ATOM     80  F   UNL A   1      45.239  26.524  24.839  1.00  0.00    -0.206 F 
ATOM     81  C   UNL A   1      44.776  24.223  24.831  1.00  0.00     0.059 A 
ATOM     82  C   UNL A   1      43.143  23.311  26.362  1.00  0.00     0.059 A 
ATOM     83  F   UNL A   1      42.075  24.686  27.896  1.00  0.00    -0.206 F 
ATOM     84  C   UNL A   1      44.090  23.131  25.363  1.00  0.00     0.060 A 
BRANCH  84  85
ATOM     85  S   UNL A   1      44.526  21.462  24.824  1.00  0.00     0.124 S 
ATOM     86  O   UNL A   1      43.431  20.672  25.377  1.00  0.00    -0.237 OA
ATOM     87  O   UNL A   1      44.541  21.605  23.372  1.00  0.00    -0.237 OA
ATOM     88  O   UNL A   1      45.831  21.237  25.440  1.00  0.00    -0.744 OA
ENDBRANCH  84  85
ENDBRANCH  52  77
BRANCH  64  89
ATOM     89  C   UNL A   1      45.524  31.368  28.784  1.00  0.00     0.058 A 
ATOM     90  C   UNL A   1      44.429  32.010  28.182  1.00  0.00     0.135 A 
ATOM     91  C   UNL A   1      46.801  31.875  28.506  1.00  0.00     0.135 A 
ATOM     92  F   UNL A   1      43.173  31.630  28.459  1.00  0.00    -0.206 F 
ATOM     93  C   UNL A   1      44.601  33.088  27.313  1.00  0.00     0.059 A 
ATOM     94  C   UNL A   1      46.996  32.966  27.665  1.00  0.00     0.059 A 
ATOM     95  F   UNL A   1      47.882  31.330  29.091  1.00  0.00    -0.206 F 
ATOM     96  C   UNL A   1      45.891  33.559  27.061  1.00  0.00     0.060 A 
BRANCH  96  97
ATOM     97  S   UNL A   1      46.107  35.001  25.995  1.00  0.00     0.124 S 
ATOM     98  O   UNL A   1      45.310  36.013  26.681  1.00  0.00    -0.237 OA
ATOM     99  O   UNL A   1      47.553  35.205  26.026  1.00  0.00    -0.237 OA
ATOM    100  O   UNL A   1      45.577  34.556  24.708  1.00  0.00    -0.744 OA
ENDBRANCH  96  97
ENDBRANCH  64  89
ENDBRANCH  38  39
ENDBRANCH  31  33
ENDBRANCH  30  31
ENDBRANCH  29  30
ENDBRANCH   1  29
TORSDOF 20
ENDMDL
MODEL 3
REMARK VINA RESULT:     -11.8      1.859      2.245
REMARK SMILES COc1cccc([C@@H]2CN(C(=O)CSc3nc(C)n[nH]3)C[C@H]2C(=O)OCCOC(=O)c2ccc(-c3c4nc(c(-c5c(F)cc(S(=O)(=O)[O-])cc5F)c5ccc([nH]5)c(-c5c(F)cc(S(=O)(=O)[O-])cc5F)c5nc(c(-c6c(F)cc(S(=O)(=O)[O-])cc6F)c6ccc3[nH]6)C=C5)C=C4)cc2)c1
REMARK SMILES IDX 26 1 25 2 23 3 24 4 22 5 8 6 9 7 10 8 21 9 7 10 3 11 4 12
REMARK SMILES IDX 97 13 5 14 6 15 2 16 1 17 11 18 12 19 13 20 14 21 15 22
REMARK SMILES IDX 16 23 20 24 17 25 19 26 18 28 27 29 28 30 29 31 30 32 31 33
REMARK SMILES IDX 32 34 96 35 33 36 95 37 34 38 35 39 36 40 89 41 37 42 94 43
REMARK SMILES IDX 88 44 90 45 38 46 93 47 87 48 86 49 39 51 73 52 52 53 72 54
REMARK SMILES IDX 53 55 56 56 71 57 91 58 54 59 55 60 70 62 92 63 57 64 40 65
REMARK SMILES IDX 41 66 50 67 42 68 43 69 49 70 51 71 44 72 45 73 46 74 47 75
REMARK SMILES IDX 48 76 74 77 75 78 84 79 76 80 77 81 83 82 85 83 78 84 79 85
REMARK SMILES IDX 80 86 81 87 82 88 58 89 59 90 68 91 60 92 61 93 67 94 69 95
REMARK SMILES IDX 62 96 63 97 64 98 65 99 66 100
REMARK H PARENT 20 27 90 50 56 61
REMARK Flexibility Score: inf
ROOT
ATOM      1  C   UNL A   1      36.723  23.483  25.507  1.00  0.00     0.274 C 
ENDROOT
BRANCH   1   2
ATOM      2  O   UNL A   1      35.686  22.688  24.886  1.00  0.00    -0.462 OA
BRANCH   2   3
ATOM      3  C   UNL A   1      35.540  22.820  23.538  1.00  0.00     0.311 C 
ATOM      4  O   UNL A   1      36.433  23.185  22.778  1.00  0.00    -0.252 OA
BRANCH   3   5
ATOM      5  C   UNL A   1      34.122  22.603  23.059  1.00  0.00     0.128 C 
ATOM      6  C   UNL A   1      33.107  21.983  24.049  1.00  0.00     0.055 C 
ATOM      7  C   UNL A   1      31.815  22.760  23.771  1.00  0.00     0.128 C 
ATOM      8  N   UNL A   1      32.242  24.054  23.279  1.00  0.00    -0.340 N 
ATOM      9  C   UNL A   1      33.581  23.992  22.734  1.00  0.00     0.135 C 
BRANCH   6  10
ATOM     10  C   UNL A   1      32.822  20.491  23.936  1.00  0.00    -0.039 A 
ATOM     11  C   UNL A   1      32.774  18.227  24.850  1.00  0.00     0.119 A 
ATOM     12  C   UNL A   1      32.389  17.721  23.611  1.00  0.00     0.046 A 
ATOM     13  C   UNL A   1      33.001  19.600  25.012  1.00  0.00     0.050 A 
ATOM     14  C   UNL A   1      32.208  18.586  22.536  1.00  0.00     0.004 A 
ATOM     15  C   UNL A   1      32.433  19.956  22.695  1.00  0.00     0.004 A 
BRANCH  11  16
ATOM     16  O   UNL A   1      32.991  17.307  25.840  1.00  0.00    -0.497 OA
ATOM     17  C   UNL A   1      33.970  16.328  25.506  1.00  0.00     0.278 C 
ENDBRANCH  11  16
ENDBRANCH   6  10
BRANCH   8  18
ATOM     18  C   UNL A   1      31.533  25.235  23.256  1.00  0.00     0.233 C 
ATOM     19  O   UNL A   1      30.606  25.428  24.048  1.00  0.00    -0.274 OA
BRANCH  18  20
ATOM     20  C   UNL A   1      31.863  26.261  22.183  1.00  0.00     0.178 C 
BRANCH  20  21
ATOM     21  S   UNL A   1      32.266  27.899  22.861  1.00  0.00    -0.077 SA
BRANCH  21  22
ATOM     22  C   UNL A   1      30.820  28.764  22.541  1.00  0.00     0.184 A 
ATOM     23  N   UNL A   1      29.638  28.600  23.077  1.00  0.00    -0.206 NA
ATOM     24  N   UNL A   1      30.786  29.777  21.636  1.00  0.00    -0.254 N 
ATOM     25  C   UNL A   1      28.897  29.587  22.479  1.00  0.00     0.148 A 
ATOM     26  N   UNL A   1      29.557  30.325  21.574  1.00  0.00    -0.158 NA
ATOM     27  H   UNL A   1      31.555  30.069  21.097  1.00  0.00     0.192 HD
ATOM     28  C   UNL A   1      27.479  29.810  22.820  1.00  0.00     0.092 C 
ENDBRANCH  21  22
ENDBRANCH  20  21
ENDBRANCH  18  20
ENDBRANCH   8  18
ENDBRANCH   3   5
ENDBRANCH   2   3
ENDBRANCH   1   2
BRANCH   1  29
ATOM     29  C   UNL A   1      37.950  22.666  25.914  1.00  0.00     0.275 C 
BRANCH  29  30
ATOM     30  O   UNL A   1      38.639  23.264  27.013  1.00  0.00    -0.458 OA
BRANCH  30  31
ATOM     31  C   UNL A   1      39.977  23.087  26.935  1.00  0.00     0.338 C 
ATOM     32  O   UNL A   1      40.561  22.017  26.958  1.00  0.00    -0.246 OA
BRANCH  31  33
ATOM     33  C   UNL A   1      40.693  24.360  26.937  1.00  0.00     0.060 A 
ATOM     34  C   UNL A   1      41.848  24.411  27.722  1.00  0.00     0.016 A 
ATOM     35  C   UNL A   1      40.036  25.513  26.509  1.00  0.00     0.016 A 
ATOM     36  C   UNL A   1      42.199  25.603  28.306  1.00  0.00     0.010 A 
ATOM     37  C   UNL A   1      40.401  26.714  27.076  1.00  0.00     0.010 A 
ATOM     38  C   UNL A   1      41.400  26.716  28.053  1.00  0.00    -0.014 A 
BRANCH  38  39
ATOM     39  C   UNL A   1      41.613  27.883  28.887  1.00  0.00     0.031 A 
ATOM     40  C   UNL A   1      42.738  28.735  28.452  1.00  0.00     0.074 A 
ATOM     41  C   UNL A   1      40.763  28.184  29.890  1.00  0.00     0.049 A 
ATOM     42  N   UNL A   1      43.797  29.076  29.108  1.00  0.00    -0.248 NA
ATOM     43  C   UNL A   1      42.732  29.169  27.044  1.00  0.00     0.031 C 
ATOM     44  C   UNL A   1      39.471  27.535  30.157  1.00  0.00     0.029 A 
ATOM     45  N   UNL A   1      40.785  29.211  30.785  1.00  0.00    -0.354 N 
ATOM     46  C   UNL A   1      44.463  29.968  28.275  1.00  0.00     0.074 A 
ATOM     47  C   UNL A   1      43.881  29.837  26.965  1.00  0.00     0.031 C 
ATOM     48  C   UNL A   1      38.732  28.336  30.952  1.00  0.00     0.029 A 
ATOM     49  C   UNL A   1      39.549  29.465  31.363  1.00  0.00     0.049 A 
ATOM     50  H   UNL A   1      41.597  29.723  31.001  1.00  0.00     0.167 HD
ATOM     51  C   UNL A   1      45.216  30.977  28.784  1.00  0.00     0.037 A 
ATOM     52  C   UNL A   1      39.185  30.569  32.057  1.00  0.00     0.037 A 
ATOM     53  C   UNL A   1      45.539  30.774  30.168  1.00  0.00     0.049 A 
ATOM     54  C   UNL A   1      40.412  31.235  32.557  1.00  0.00     0.074 A 
ATOM     55  C   UNL A   1      46.483  30.075  30.886  1.00  0.00     0.029 A 
ATOM     56  N   UNL A   1      44.551  31.144  31.041  1.00  0.00    -0.354 N 
ATOM     57  N   UNL A   1      41.236  30.689  33.408  1.00  0.00    -0.248 NA
ATOM     58  C   UNL A   1      40.924  32.416  31.866  1.00  0.00     0.031 C 
ATOM     59  C   UNL A   1      45.964  29.929  32.206  1.00  0.00     0.029 A 
ATOM     60  C   UNL A   1      44.717  30.546  32.263  1.00  0.00     0.049 A 
ATOM     61  H   UNL A   1      43.815  31.759  30.819  1.00  0.00     0.167 HD
ATOM     62  C   UNL A   1      42.474  31.194  33.062  1.00  0.00     0.074 A 
ATOM     63  C   UNL A   1      42.206  32.363  32.240  1.00  0.00     0.031 C 
ATOM     64  C   UNL A   1      43.603  30.442  33.182  1.00  0.00     0.037 A 
BRANCH  51  65
ATOM     65  C   UNL A   1      45.256  32.353  28.169  1.00  0.00     0.058 A 
ATOM     66  C   UNL A   1      46.469  32.866  27.678  1.00  0.00     0.135 A 
ATOM     67  C   UNL A   1      44.203  33.286  28.312  1.00  0.00     0.135 A 
ATOM     68  F   UNL A   1      47.539  32.067  27.536  1.00  0.00    -0.206 F 
ATOM     69  C   UNL A   1      46.634  34.221  27.382  1.00  0.00     0.059 A 
ATOM     70  C   UNL A   1      44.327  34.625  27.967  1.00  0.00     0.059 A 
ATOM     71  F   UNL A   1      43.040  32.960  28.892  1.00  0.00    -0.206 F 
ATOM     72  C   UNL A   1      45.559  35.093  27.541  1.00  0.00     0.060 A 
BRANCH  72  73
ATOM     73  S   UNL A   1      45.788  36.856  27.254  1.00  0.00     0.124 S 
ATOM     74  O   UNL A   1      46.878  36.853  26.286  1.00  0.00    -0.237 OA
ATOM     75  O   UNL A   1      44.480  37.256  26.746  1.00  0.00    -0.237 OA
ATOM     76  O   UNL A   1      46.120  37.369  28.580  1.00  0.00    -0.744 OA
ENDBRANCH  72  73
ENDBRANCH  51  65
BRANCH  52  77
ATOM     77  C   UNL A   1      37.858  31.230  32.027  1.00  0.00     0.058 A 
ATOM     78  C   UNL A   1      37.139  31.485  33.204  1.00  0.00     0.135 A 
ATOM     79  C   UNL A   1      37.381  31.853  30.853  1.00  0.00     0.135 A 
ATOM     80  F   UNL A   1      37.543  30.953  34.367  1.00  0.00    -0.206 F 
ATOM     81  C   UNL A   1      36.031  32.338  33.226  1.00  0.00     0.059 A 
ATOM     82  C   UNL A   1      36.272  32.695  30.847  1.00  0.00     0.059 A 
ATOM     83  F   UNL A   1      38.037  31.730  29.688  1.00  0.00    -0.206 F 
ATOM     84  C   UNL A   1      35.616  32.952  32.044  1.00  0.00     0.060 A 
BRANCH  84  85
ATOM     85  S   UNL A   1      34.287  34.175  32.098  1.00  0.00     0.124 S 
ATOM     86  O   UNL A   1      35.000  35.374  32.524  1.00  0.00    -0.237 OA
ATOM     87  O   UNL A   1      33.812  34.171  30.718  1.00  0.00    -0.237 OA
ATOM     88  O   UNL A   1      33.356  33.621  33.078  1.00  0.00    -0.744 OA
ENDBRANCH  84  85
ENDBRANCH  52  77
BRANCH  64  89
ATOM     89  C   UNL A   1      43.605  29.339  34.195  1.00  0.00     0.058 A 
ATOM     90  C   UNL A   1      43.242  28.010  33.922  1.00  0.00     0.135 A 
ATOM     91  C   UNL A   1      44.063  29.631  35.487  1.00  0.00     0.135 A 
ATOM     92  F   UNL A   1      42.867  27.640  32.689  1.00  0.00    -0.206 F 
ATOM     93  C   UNL A   1      43.300  27.021  34.904  1.00  0.00     0.059 A 
ATOM     94  C   UNL A   1      44.155  28.656  36.476  1.00  0.00     0.059 A 
ATOM     95  F   UNL A   1      44.468  30.876  35.792  1.00  0.00    -0.206 F 
ATOM     96  C   UNL A   1      43.759  27.355  36.180  1.00  0.00     0.060 A 
BRANCH  96  97
ATOM     97  S   UNL A   1      43.903  26.058  37.429  1.00  0.00     0.124 S 
ATOM     98  O   UNL A   1      42.672  26.229  38.194  1.00  0.00    -0.237 OA
ATOM     99  O   UNL A   1      43.983  24.845  36.621  1.00  0.00    -0.237 OA
ATOM    100  O   UNL A   1      45.132  26.405  38.140  1.00  0.00    -0.744 OA
ENDBRANCH  96  97
ENDBRANCH  64  89
ENDBRANCH  38  39
ENDBRANCH  31  33
ENDBRANCH  30  31
ENDBRANCH  29  30
ENDBRANCH   1  29
TORSDOF 20
ENDMDL
