MODEL 1
REMARK VINA RESULT:     -12.2      0.000      0.000
REMARK SMILES CC(=O)NS(=O)(=O)c1cc(-c2ccn(C(F)F)c(=O)c2)ccc1C(=O)OCCOC(=O)c1ccc(-c2c3nc(c(-c4c(F)cc(S(=O)(=O)[O-])cc4F)c4ccc([nH]4)c(-c4c(F)cc(S(=O)(=O)[O-])cc4F)c4nc(c(-c5c(F)cc(S(=O)(=O)[O-])cc5F)c5ccc2[nH]5)C=C4)C=C3)cc1
REMARK SMILES IDX 28 1 27 2 26 3 24 4 25 5 23 6 8 7 9 8 10 9 22 10 21 11 5 12
REMARK SMILES IDX 6 13 7 14 4 15 1 16 2 17 3 18 11 20 12 21 20 22 13 23 18 24
REMARK SMILES IDX 14 25 19 26 15 27 16 28 17 29 29 30 30 31 31 32 32 33 33 34
REMARK SMILES IDX 97 35 34 36 96 37 35 38 36 39 37 40 90 41 38 42 95 43 89 44
REMARK SMILES IDX 91 45 39 46 94 47 88 48 87 49 40 51 74 52 53 53 73 54 54 55
REMARK SMILES IDX 57 56 72 57 92 58 55 59 56 60 71 62 93 63 58 64 41 65 42 66
REMARK SMILES IDX 51 67 43 68 44 69 50 70 52 71 45 72 46 73 47 74 48 75 49 76
REMARK SMILES IDX 75 77 76 78 85 79 77 80 78 81 84 82 86 83 79 84 80 85 81 86
REMARK SMILES IDX 82 87 83 88 59 89 60 90 69 91 61 92 62 93 68 94 70 95 63 96
REMARK SMILES IDX 64 97 65 98 66 99 67 100
REMARK H PARENT 4 19 91 50 57 61
REMARK Flexibility Score: inf
ROOT
ATOM      1  C   UNL A   1      33.469  29.473  27.212  1.00  0.00     0.275 C 
ENDROOT
BRANCH   1   2
ATOM      2  C   UNL A   1      33.562  28.823  25.826  1.00  0.00     0.275 C 
BRANCH   2   3
ATOM      3  O   UNL A   1      34.035  27.461  25.856  1.00  0.00    -0.458 OA
BRANCH   3   4
ATOM      4  C   UNL A   1      33.619  26.714  24.815  1.00  0.00     0.339 C 
ATOM      5  O   UNL A   1      33.180  27.111  23.748  1.00  0.00    -0.246 OA
BRANCH   4   6
ATOM      6  C   UNL A   1      33.718  25.278  25.079  1.00  0.00     0.080 A 
ATOM      7  C   UNL A   1      32.670  24.536  25.617  1.00  0.00     0.103 A 
ATOM      8  C   UNL A   1      32.736  23.124  25.622  1.00  0.00     0.032 A 
ATOM      9  C   UNL A   1      33.816  22.443  25.033  1.00  0.00    -0.017 A 
ATOM     10  C   UNL A   1      34.812  24.610  24.523  1.00  0.00     0.018 A 
ATOM     11  C   UNL A   1      34.843  23.216  24.472  1.00  0.00     0.010 A 
BRANCH   7  12
ATOM     12  S   UNL A   1      31.208  25.287  26.272  1.00  0.00     0.264 S 
ATOM     13  O   UNL A   1      31.646  26.172  27.322  1.00  0.00    -0.201 OA
ATOM     14  O   UNL A   1      30.261  24.220  26.539  1.00  0.00    -0.201 OA
BRANCH  12  15
ATOM     15  N   UNL A   1      30.539  26.242  25.110  1.00  0.00    -0.249 N 
ATOM     16  C   UNL A   1      30.264  24.569  23.263  1.00  0.00     0.115 C 
ATOM     17  C   UNL A   1      29.958  25.904  23.880  1.00  0.00     0.230 C 
ATOM     18  O   UNL A   1      29.236  26.729  23.334  1.00  0.00    -0.274 OA
ATOM     19  H   UNL A   1      30.548  27.205  25.312  1.00  0.00     0.183 HD
ENDBRANCH  12  15
ENDBRANCH   7  12
BRANCH   9  20
ATOM     20  C   UNL A   1      33.918  20.955  24.985  1.00  0.00    -0.011 A 
ATOM     21  C   UNL A   1      35.200  20.273  24.839  1.00  0.00     0.027 A 
ATOM     22  C   UNL A   1      32.810  20.189  25.034  1.00  0.00     0.080 A 
ATOM     23  C   UNL A   1      35.273  18.946  24.704  1.00  0.00     0.095 A 
ATOM     24  C   UNL A   1      32.881  18.698  24.951  1.00  0.00     0.255 A 
ATOM     25  N   UNL A   1      34.139  18.163  24.744  1.00  0.00    -0.258 N 
ATOM     26  O   UNL A   1      31.842  18.055  25.069  1.00  0.00    -0.269 OA
BRANCH  25  27
ATOM     27  C   UNL A   1      34.242  16.731  24.618  1.00  0.00     0.451 C 
ATOM     28  F   UNL A   1      34.685  16.386  23.383  1.00  0.00    -0.185 F 
ATOM     29  F   UNL A   1      35.099  16.213  25.529  1.00  0.00    -0.185 F 
ENDBRANCH  25  27
ENDBRANCH   9  20
ENDBRANCH   4   6
ENDBRANCH   3   4
ENDBRANCH   2   3
ENDBRANCH   1   2
BRANCH   1  30
ATOM     30  O   UNL A   1      34.067  30.782  27.262  1.00  0.00    -0.458 OA
BRANCH  30  31
ATOM     31  C   UNL A   1      34.750  31.045  28.398  1.00  0.00     0.338 C 
ATOM     32  O   UNL A   1      34.404  31.784  29.308  1.00  0.00    -0.246 OA
BRANCH  31  33
ATOM     33  C   UNL A   1      35.994  30.267  28.473  1.00  0.00     0.060 A 
ATOM     34  C   UNL A   1      36.432  29.804  29.717  1.00  0.00     0.016 A 
ATOM     35  C   UNL A   1      36.836  30.215  27.364  1.00  0.00     0.016 A 
ATOM     36  C   UNL A   1      37.746  29.382  29.884  1.00  0.00     0.010 A 
ATOM     37  C   UNL A   1      38.135  29.725  27.519  1.00  0.00     0.010 A 
ATOM     38  C   UNL A   1      38.615  29.348  28.788  1.00  0.00    -0.014 A 
BRANCH  38  39
ATOM     39  C   UNL A   1      40.045  28.993  28.963  1.00  0.00     0.031 A 
ATOM     40  C   UNL A   1      41.020  30.057  29.384  1.00  0.00     0.074 A 
ATOM     41  C   UNL A   1      40.470  27.737  28.733  1.00  0.00     0.049 A 
ATOM     42  N   UNL A   1      42.325  30.052  29.333  1.00  0.00    -0.248 NA
ATOM     43  C   UNL A   1      40.443  31.299  29.927  1.00  0.00     0.031 C 
ATOM     44  C   UNL A   1      39.614  26.597  28.404  1.00  0.00     0.029 A 
ATOM     45  N   UNL A   1      41.740  27.217  28.719  1.00  0.00    -0.354 N 
ATOM     46  C   UNL A   1      42.726  31.309  29.775  1.00  0.00     0.074 A 
ATOM     47  C   UNL A   1      41.525  32.045  30.105  1.00  0.00     0.031 C 
ATOM     48  C   UNL A   1      40.382  25.513  28.210  1.00  0.00     0.029 A 
ATOM     49  C   UNL A   1      41.784  25.902  28.317  1.00  0.00     0.049 A 
ATOM     50  H   UNL A   1      42.540  27.732  28.972  1.00  0.00     0.167 HD
ATOM     51  C   UNL A   1      43.984  31.798  29.881  1.00  0.00     0.037 A 
ATOM     52  C   UNL A   1      42.834  25.119  28.003  1.00  0.00     0.037 A 
ATOM     53  C   UNL A   1      45.167  31.034  29.580  1.00  0.00     0.049 A 
ATOM     54  C   UNL A   1      44.220  25.697  28.076  1.00  0.00     0.074 A 
ATOM     55  C   UNL A   1      46.491  31.432  29.640  1.00  0.00     0.029 A 
ATOM     56  N   UNL A   1      45.166  29.707  29.173  1.00  0.00    -0.354 N 
ATOM     57  N   UNL A   1      44.589  26.908  28.419  1.00  0.00    -0.248 NA
ATOM     58  C   UNL A   1      45.329  24.810  27.702  1.00  0.00     0.031 C 
ATOM     59  C   UNL A   1      47.289  30.353  29.243  1.00  0.00     0.029 A 
ATOM     60  C   UNL A   1      46.464  29.271  28.976  1.00  0.00     0.049 A 
ATOM     61  H   UNL A   1      44.360  29.157  29.046  1.00  0.00     0.167 HD
ATOM     62  C   UNL A   1      45.975  26.923  28.323  1.00  0.00     0.074 A 
ATOM     63  C   UNL A   1      46.379  25.599  27.895  1.00  0.00     0.031 C 
ATOM     64  C   UNL A   1      46.839  27.941  28.567  1.00  0.00     0.037 A 
BRANCH  51  65
ATOM     65  C   UNL A   1      44.143  33.237  30.291  1.00  0.00     0.058 A 
ATOM     66  C   UNL A   1      44.118  34.285  29.359  1.00  0.00     0.135 A 
ATOM     67  C   UNL A   1      44.302  33.568  31.648  1.00  0.00     0.135 A 
ATOM     68  F   UNL A   1      43.990  34.023  28.050  1.00  0.00    -0.206 F 
ATOM     69  C   UNL A   1      44.271  35.611  29.754  1.00  0.00     0.059 A 
ATOM     70  C   UNL A   1      44.433  34.889  32.067  1.00  0.00     0.059 A 
ATOM     71  F   UNL A   1      44.336  32.604  32.580  1.00  0.00    -0.206 F 
ATOM     72  C   UNL A   1      44.432  35.903  31.111  1.00  0.00     0.060 A 
BRANCH  72  73
ATOM     73  S   UNL A   1      44.640  37.626  31.608  1.00  0.00     0.124 S 
ATOM     74  O   UNL A   1      43.722  37.713  32.740  1.00  0.00    -0.237 OA
ATOM     75  O   UNL A   1      46.060  37.688  31.939  1.00  0.00    -0.237 OA
ATOM     76  O   UNL A   1      44.243  38.374  30.419  1.00  0.00    -0.744 OA
ENDBRANCH  72  73
ENDBRANCH  51  65
BRANCH  52  77
ATOM     77  C   UNL A   1      42.602  23.728  27.538  1.00  0.00     0.058 A 
ATOM     78  C   UNL A   1      42.444  23.439  26.176  1.00  0.00     0.135 A 
ATOM     79  C   UNL A   1      42.570  22.655  28.443  1.00  0.00     0.135 A 
ATOM     80  F   UNL A   1      42.459  24.432  25.274  1.00  0.00    -0.206 F 
ATOM     81  C   UNL A   1      42.257  22.136  25.725  1.00  0.00     0.059 A 
ATOM     82  C   UNL A   1      42.410  21.341  28.016  1.00  0.00     0.059 A 
ATOM     83  F   UNL A   1      42.729  22.877  29.757  1.00  0.00    -0.206 F 
ATOM     84  C   UNL A   1      42.247  21.092  26.653  1.00  0.00     0.060 A 
BRANCH  84  85
ATOM     85  S   UNL A   1      42.069  19.398  26.055  1.00  0.00     0.124 S 
ATOM     86  O   UNL A   1      42.444  18.630  27.237  1.00  0.00    -0.237 OA
ATOM     87  O   UNL A   1      40.659  19.350  25.683  1.00  0.00    -0.237 OA
ATOM     88  O   UNL A   1      43.006  19.338  24.937  1.00  0.00    -0.744 OA
ENDBRANCH  84  85
ENDBRANCH  52  77
BRANCH  64  89
ATOM     89  C   UNL A   1      48.304  27.647  28.428  1.00  0.00     0.058 A 
ATOM     90  C   UNL A   1      49.047  27.090  29.478  1.00  0.00     0.135 A 
ATOM     91  C   UNL A   1      48.954  27.870  27.203  1.00  0.00     0.135 A 
ATOM     92  F   UNL A   1      48.471  26.866  30.669  1.00  0.00    -0.206 F 
ATOM     93  C   UNL A   1      50.392  26.774  29.324  1.00  0.00     0.059 A 
ATOM     94  C   UNL A   1      50.292  27.543  27.021  1.00  0.00     0.059 A 
ATOM     95  F   UNL A   1      48.282  28.395  26.166  1.00  0.00    -0.206 F 
ATOM     96  C   UNL A   1      51.006  27.002  28.089  1.00  0.00     0.060 A 
BRANCH  96  97
ATOM     97  S   UNL A   1      52.740  26.544  27.884  1.00  0.00     0.124 S 
ATOM     98  O   UNL A   1      52.634  25.366  27.031  1.00  0.00    -0.237 OA
ATOM     99  O   UNL A   1      53.307  27.734  27.255  1.00  0.00    -0.237 OA
ATOM    100  O   UNL A   1      53.187  26.293  29.252  1.00  0.00    -0.744 OA
ENDBRANCH  96  97
ENDBRANCH  64  89
ENDBRANCH  38  39
ENDBRANCH  31  33
ENDBRANCH  30  31
ENDBRANCH   1  30
TORSDOF 18
ENDMDL
MODEL 2
REMARK VINA RESULT:     -12.1      1.058      1.719
REMARK SMILES CC(=O)NS(=O)(=O)c1cc(-c2ccn(C(F)F)c(=O)c2)ccc1C(=O)OCCOC(=O)c1ccc(-c2c3nc(c(-c4c(F)cc(S(=O)(=O)[O-])cc4F)c4ccc([nH]4)c(-c4c(F)cc(S(=O)(=O)[O-])cc4F)c4nc(c(-c5c(F)cc(S(=O)(=O)[O-])cc5F)c5ccc2[nH]5)C=C4)C=C3)cc1
REMARK SMILES IDX 28 1 27 2 26 3 24 4 25 5 23 6 8 7 9 8 10 9 22 10 21 11 5 12
REMARK SMILES IDX 6 13 7 14 4 15 1 16 2 17 3 18 11 20 12 21 20 22 13 23 18 24
REMARK SMILES IDX 14 25 19 26 15 27 16 28 17 29 29 30 30 31 31 32 32 33 33 34
REMARK SMILES IDX 97 35 34 36 96 37 35 38 36 39 37 40 90 41 38 42 95 43 89 44
REMARK SMILES IDX 91 45 39 46 94 47 88 48 87 49 40 51 74 52 53 53 73 54 54 55
REMARK SMILES IDX 57 56 72 57 92 58 55 59 56 60 71 62 93 63 58 64 41 65 42 66
REMARK SMILES IDX 51 67 43 68 44 69 50 70 52 71 45 72 46 73 47 74 48 75 49 76
REMARK SMILES IDX 75 77 76 78 85 79 77 80 78 81 84 82 86 83 79 84 80 85 81 86
REMARK SMILES IDX 82 87 83 88 59 89 60 90 69 91 61 92 62 93 68 94 70 95 63 96
REMARK SMILES IDX 64 97 65 98 66 99 67 100
REMARK H PARENT 4 19 91 50 57 61
REMARK Flexibility Score: inf
ROOT
ATOM      1  C   UNL A   1      32.893  30.171  27.029  1.00  0.00     0.275 C 
ENDROOT
BRANCH   1   2
ATOM      2  C   UNL A   1      32.364  29.874  25.620  1.00  0.00     0.275 C 
BRANCH   2   3
ATOM      3  O   UNL A   1      32.231  28.466  25.337  1.00  0.00    -0.458 OA
BRANCH   3   4
ATOM      4  C   UNL A   1      33.351  27.898  24.850  1.00  0.00     0.339 C 
ATOM      5  O   UNL A   1      34.362  28.465  24.467  1.00  0.00    -0.246 OA
BRANCH   4   6
ATOM      6  C   UNL A   1      33.259  26.439  24.786  1.00  0.00     0.080 A 
ATOM      7  C   UNL A   1      33.069  25.747  23.593  1.00  0.00     0.103 A 
ATOM      8  C   UNL A   1      33.231  24.344  23.559  1.00  0.00     0.032 A 
ATOM      9  C   UNL A   1      33.648  23.630  24.696  1.00  0.00    -0.017 A 
ATOM     10  C   UNL A   1      33.640  25.734  25.930  1.00  0.00     0.018 A 
ATOM     11  C   UNL A   1      33.862  24.357  25.876  1.00  0.00     0.010 A 
BRANCH   7  12
ATOM     12  S   UNL A   1      32.665  26.559  22.073  1.00  0.00     0.264 S 
ATOM     13  O   UNL A   1      32.204  25.527  21.177  1.00  0.00    -0.201 OA
ATOM     14  O   UNL A   1      33.792  27.403  21.725  1.00  0.00    -0.201 OA
BRANCH  12  15
ATOM     15  N   UNL A   1      31.381  27.556  22.332  1.00  0.00    -0.249 N 
ATOM     16  C   UNL A   1      29.804  25.966  23.459  1.00  0.00     0.115 C 
ATOM     17  C   UNL A   1      30.219  27.362  23.092  1.00  0.00     0.230 C 
ATOM     18  O   UNL A   1      29.564  28.346  23.409  1.00  0.00    -0.274 OA
ATOM     19  H   UNL A   1      31.437  28.428  21.879  1.00  0.00     0.183 HD
ENDBRANCH  12  15
ENDBRANCH   7  12
BRANCH   9  20
ATOM     20  C   UNL A   1      33.864  22.153  24.704  1.00  0.00    -0.011 A 
ATOM     21  C   UNL A   1      35.183  21.568  24.919  1.00  0.00     0.027 A 
ATOM     22  C   UNL A   1      32.841  21.309  24.471  1.00  0.00     0.080 A 
ATOM     23  C   UNL A   1      35.384  20.249  24.833  1.00  0.00     0.095 A 
ATOM     24  C   UNL A   1      33.037  19.827  24.437  1.00  0.00     0.255 A 
ATOM     25  N   UNL A   1      34.339  19.385  24.584  1.00  0.00    -0.258 N 
ATOM     26  O   UNL A   1      32.052  19.110  24.285  1.00  0.00    -0.269 OA
BRANCH  25  27
ATOM     27  C   UNL A   1      34.573  17.965  24.517  1.00  0.00     0.451 C 
ATOM     28  F   UNL A   1      34.302  17.490  23.275  1.00  0.00    -0.185 F 
ATOM     29  F   UNL A   1      35.859  17.659  24.810  1.00  0.00    -0.185 F 
ENDBRANCH  25  27
ENDBRANCH   9  20
ENDBRANCH   4   6
ENDBRANCH   3   4
ENDBRANCH   2   3
ENDBRANCH   1   2
BRANCH   1  30
ATOM     30  O   UNL A   1      34.192  30.792  27.023  1.00  0.00    -0.458 OA
BRANCH  30  31
ATOM     31  C   UNL A   1      34.744  30.950  28.246  1.00  0.00     0.338 C 
ATOM     32  O   UNL A   1      34.286  31.589  29.181  1.00  0.00    -0.246 OA
BRANCH  31  33
ATOM     33  C   UNL A   1      35.993  30.187  28.378  1.00  0.00     0.060 A 
ATOM     34  C   UNL A   1      36.404  29.770  29.647  1.00  0.00     0.016 A 
ATOM     35  C   UNL A   1      36.864  30.108  27.293  1.00  0.00     0.016 A 
ATOM     36  C   UNL A   1      37.717  29.367  29.860  1.00  0.00     0.010 A 
ATOM     37  C   UNL A   1      38.163  29.637  27.496  1.00  0.00     0.010 A 
ATOM     38  C   UNL A   1      38.614  29.306  28.788  1.00  0.00    -0.014 A 
BRANCH  38  39
ATOM     39  C   UNL A   1      40.042  28.971  29.011  1.00  0.00     0.031 A 
ATOM     40  C   UNL A   1      40.983  30.045  29.486  1.00  0.00     0.074 A 
ATOM     41  C   UNL A   1      40.497  27.727  28.776  1.00  0.00     0.049 A 
ATOM     42  N   UNL A   1      42.289  30.062  29.482  1.00  0.00    -0.248 NA
ATOM     43  C   UNL A   1      40.366  31.267  30.027  1.00  0.00     0.031 C 
ATOM     44  C   UNL A   1      39.673  26.578  28.397  1.00  0.00     0.029 A 
ATOM     45  N   UNL A   1      41.775  27.228  28.801  1.00  0.00    -0.354 N 
ATOM     46  C   UNL A   1      42.652  31.317  29.960  1.00  0.00     0.074 A 
ATOM     47  C   UNL A   1      41.427  32.028  30.258  1.00  0.00     0.031 C 
ATOM     48  C   UNL A   1      40.466  25.511  28.214  1.00  0.00     0.029 A 
ATOM     49  C   UNL A   1      41.856  25.921  28.379  1.00  0.00     0.049 A 
ATOM     50  H   UNL A   1      42.556  27.752  29.092  1.00  0.00     0.167 HD
ATOM     51  C   UNL A   1      43.896  31.825  30.121  1.00  0.00     0.037 A 
ATOM     52  C   UNL A   1      42.930  25.161  28.092  1.00  0.00     0.037 A 
ATOM     53  C   UNL A   1      45.103  31.086  29.852  1.00  0.00     0.049 A 
ATOM     54  C   UNL A   1      44.303  25.760  28.226  1.00  0.00     0.074 A 
ATOM     55  C   UNL A   1      46.416  31.503  29.968  1.00  0.00     0.029 A 
ATOM     56  N   UNL A   1      45.139  29.766  29.424  1.00  0.00    -0.354 N 
ATOM     57  N   UNL A   1      44.638  26.971  28.602  1.00  0.00    -0.248 NA
ATOM     58  C   UNL A   1      45.440  24.898  27.879  1.00  0.00     0.031 C 
ATOM     59  C   UNL A   1      47.247  30.445  29.583  1.00  0.00     0.029 A 
ATOM     60  C   UNL A   1      46.451  29.355  29.267  1.00  0.00     0.049 A 
ATOM     61  H   UNL A   1      44.347  29.205  29.257  1.00  0.00     0.167 HD
ATOM     62  C   UNL A   1      46.027  27.010  28.559  1.00  0.00     0.074 A 
ATOM     63  C   UNL A   1      46.468  25.700  28.125  1.00  0.00     0.031 C 
ATOM     64  C   UNL A   1      46.863  28.037  28.851  1.00  0.00     0.037 A 
BRANCH  51  65
ATOM     65  C   UNL A   1      44.016  33.258  30.560  1.00  0.00     0.058 A 
ATOM     66  C   UNL A   1      44.037  34.320  29.644  1.00  0.00     0.135 A 
ATOM     67  C   UNL A   1      44.089  33.572  31.929  1.00  0.00     0.135 A 
ATOM     68  F   UNL A   1      43.991  34.076  28.325  1.00  0.00    -0.206 F 
ATOM     69  C   UNL A   1      44.153  35.641  30.066  1.00  0.00     0.059 A 
ATOM     70  C   UNL A   1      44.180  34.887  32.374  1.00  0.00     0.059 A 
ATOM     71  F   UNL A   1      44.075  32.594  32.847  1.00  0.00    -0.206 F 
ATOM     72  C   UNL A   1      44.228  35.915  31.434  1.00  0.00     0.060 A 
BRANCH  72  73
ATOM     73  S   UNL A   1      44.388  37.632  31.967  1.00  0.00     0.124 S 
ATOM     74  O   UNL A   1      43.558  37.640  33.169  1.00  0.00    -0.237 OA
ATOM     75  O   UNL A   1      45.825  37.759  32.189  1.00  0.00    -0.237 OA
ATOM     76  O   UNL A   1      43.861  38.390  30.836  1.00  0.00    -0.744 OA
ENDBRANCH  72  73
ENDBRANCH  51  65
BRANCH  52  77
ATOM     77  C   UNL A   1      42.739  23.774  27.596  1.00  0.00     0.058 A 
ATOM     78  C   UNL A   1      42.651  22.695  28.485  1.00  0.00     0.135 A 
ATOM     79  C   UNL A   1      42.607  23.505  26.224  1.00  0.00     0.135 A 
ATOM     80  F   UNL A   1      42.781  22.901  29.804  1.00  0.00    -0.206 F 
ATOM     81  C   UNL A   1      42.442  21.395  28.034  1.00  0.00     0.059 A 
ATOM     82  C   UNL A   1      42.372  22.219  25.749  1.00  0.00     0.059 A 
ATOM     83  F   UNL A   1      42.670  24.506  25.332  1.00  0.00    -0.206 F 
ATOM     84  C   UNL A   1      42.299  21.168  26.664  1.00  0.00     0.060 A 
BRANCH  84  85
ATOM     85  S   UNL A   1      41.963  19.488  26.091  1.00  0.00     0.124 S 
ATOM     86  O   UNL A   1      40.523  19.539  25.867  1.00  0.00    -0.237 OA
ATOM     87  O   UNL A   1      42.794  19.401  24.894  1.00  0.00    -0.237 OA
ATOM     88  O   UNL A   1      42.402  18.660  27.209  1.00  0.00    -0.744 OA
ENDBRANCH  84  85
ENDBRANCH  52  77
BRANCH  64  89
ATOM     89  C   UNL A   1      48.337  27.770  28.762  1.00  0.00     0.058 A 
ATOM     90  C   UNL A   1      49.044  27.179  29.819  1.00  0.00     0.135 A 
ATOM     91  C   UNL A   1      49.034  28.054  27.576  1.00  0.00     0.135 A 
ATOM     92  F   UNL A   1      48.422  26.897  30.974  1.00  0.00    -0.206 F 
ATOM     93  C   UNL A   1      50.400  26.889  29.708  1.00  0.00     0.059 A 
ATOM     94  C   UNL A   1      50.384  27.753  27.437  1.00  0.00     0.059 A 
ATOM     95  F   UNL A   1      48.397  28.613  26.535  1.00  0.00    -0.206 F 
ATOM     96  C   UNL A   1      51.060  27.178  28.511  1.00  0.00     0.060 A 
BRANCH  96  97
ATOM     97  S   UNL A   1      52.809  26.753  28.361  1.00  0.00     0.124 S 
ATOM     98  O   UNL A   1      53.124  26.320  29.718  1.00  0.00    -0.237 OA
ATOM     99  O   UNL A   1      52.791  25.701  27.348  1.00  0.00    -0.237 OA
ATOM    100  O   UNL A   1      53.426  28.008  27.941  1.00  0.00    -0.744 OA
ENDBRANCH  96  97
ENDBRANCH  64  89
ENDBRANCH  38  39
ENDBRANCH  31  33
ENDBRANCH  30  31
ENDBRANCH   1  30
TORSDOF 18
ENDMDL
MODEL 3
REMARK VINA RESULT:     -11.9      3.659      9.677
REMARK SMILES CC(=O)NS(=O)(=O)c1cc(-c2ccn(C(F)F)c(=O)c2)ccc1C(=O)OCCOC(=O)c1ccc(-c2c3nc(c(-c4c(F)cc(S(=O)(=O)[O-])cc4F)c4ccc([nH]4)c(-c4c(F)cc(S(=O)(=O)[O-])cc4F)c4nc(c(-c5c(F)cc(S(=O)(=O)[O-])cc5F)c5ccc2[nH]5)C=C4)C=C3)cc1
REMARK SMILES IDX 28 1 27 2 26 3 24 4 25 5 23 6 8 7 9 8 10 9 22 10 21 11 5 12
REMARK SMILES IDX 6 13 7 14 4 15 1 16 2 17 3 18 11 20 12 21 20 22 13 23 18 24
REMARK SMILES IDX 14 25 19 26 15 27 16 28 17 29 29 30 30 31 31 32 32 33 33 34
REMARK SMILES IDX 97 35 34 36 96 37 35 38 36 39 37 40 90 41 38 42 95 43 89 44
REMARK SMILES IDX 91 45 39 46 94 47 88 48 87 49 40 51 74 52 53 53 73 54 54 55
REMARK SMILES IDX 57 56 72 57 92 58 55 59 56 60 71 62 93 63 58 64 41 65 42 66
REMARK SMILES IDX 51 67 43 68 44 69 50 70 52 71 45 72 46 73 47 74 48 75 49 76
REMARK SMILES IDX 75 77 76 78 85 79 77 80 78 81 84 82 86 83 79 84 80 85 81 86
REMARK SMILES IDX 82 87 83 88 59 89 60 90 69 91 61 92 62 93 68 94 70 95 63 96
REMARK SMILES IDX 64 97 65 98 66 99 67 100
REMARK H PARENT 4 19 91 50 57 61
REMARK Flexibility Score: inf
ROOT
ATOM      1  C   UNL A   1      36.274  31.785  32.332  1.00  0.00     0.275 C 
ENDROOT
BRANCH   1   2
ATOM      2  C   UNL A   1      36.752  32.839  31.326  1.00  0.00     0.275 C 
BRANCH   2   3
ATOM      3  O   UNL A   1      35.812  33.089  30.260  1.00  0.00    -0.458 OA
BRANCH   3   4
ATOM      4  C   UNL A   1      36.158  32.531  29.084  1.00  0.00     0.339 C 
ATOM      5  O   UNL A   1      37.177  32.730  28.442  1.00  0.00    -0.246 OA
BRANCH   4   6
ATOM      6  C   UNL A   1      35.139  31.611  28.576  1.00  0.00     0.080 A 
ATOM      7  C   UNL A   1      33.960  32.048  27.980  1.00  0.00     0.103 A 
ATOM      8  C   UNL A   1      33.134  31.127  27.295  1.00  0.00     0.032 A 
ATOM      9  C   UNL A   1      33.510  29.782  27.146  1.00  0.00    -0.017 A 
ATOM     10  C   UNL A   1      35.504  30.268  28.463  1.00  0.00     0.018 A 
ATOM     11  C   UNL A   1      34.719  29.376  27.731  1.00  0.00     0.010 A 
BRANCH   7  12
ATOM     12  S   UNL A   1      33.451  33.742  27.999  1.00  0.00     0.264 S 
ATOM     13  O   UNL A   1      32.127  33.771  27.429  1.00  0.00    -0.201 OA
ATOM     14  O   UNL A   1      34.531  34.521  27.422  1.00  0.00    -0.201 OA
BRANCH  12  15
ATOM     15  N   UNL A   1      33.293  34.229  29.564  1.00  0.00    -0.249 N 
ATOM     16  C   UNL A   1      33.199  36.714  29.249  1.00  0.00     0.115 C 
ATOM     17  C   UNL A   1      32.997  35.491  30.097  1.00  0.00     0.230 C 
ATOM     18  O   UNL A   1      32.606  35.552  31.256  1.00  0.00    -0.274 OA
ATOM     19  H   UNL A   1      33.428  33.519  30.233  1.00  0.00     0.183 HD
ENDBRANCH  12  15
ENDBRANCH   7  12
BRANCH   9  20
ATOM     20  C   UNL A   1      32.690  28.778  26.406  1.00  0.00    -0.011 A 
ATOM     21  C   UNL A   1      32.193  29.030  25.058  1.00  0.00     0.027 A 
ATOM     22  C   UNL A   1      32.347  27.610  26.986  1.00  0.00     0.080 A 
ATOM     23  C   UNL A   1      31.383  28.165  24.439  1.00  0.00     0.095 A 
ATOM     24  C   UNL A   1      31.497  26.603  26.281  1.00  0.00     0.255 A 
ATOM     25  N   UNL A   1      31.023  26.975  25.036  1.00  0.00    -0.258 N 
ATOM     26  O   UNL A   1      31.275  25.532  26.839  1.00  0.00    -0.269 OA
BRANCH  25  27
ATOM     27  C   UNL A   1      30.167  26.046  24.343  1.00  0.00     0.451 C 
ATOM     28  F   UNL A   1      28.886  26.493  24.326  1.00  0.00    -0.185 F 
ATOM     29  F   UNL A   1      30.564  25.865  23.062  1.00  0.00    -0.185 F 
ENDBRANCH  25  27
ENDBRANCH   9  20
ENDBRANCH   4   6
ENDBRANCH   3   4
ENDBRANCH   2   3
ENDBRANCH   1   2
BRANCH   1  30
ATOM     30  O   UNL A   1      37.309  30.857  32.709  1.00  0.00    -0.458 OA
BRANCH  30  31
ATOM     31  C   UNL A   1      37.527  29.867  31.816  1.00  0.00     0.338 C 
ATOM     32  O   UNL A   1      36.759  28.966  31.515  1.00  0.00    -0.246 OA
BRANCH  31  33
ATOM     33  C   UNL A   1      38.831  30.015  31.154  1.00  0.00     0.060 A 
ATOM     34  C   UNL A   1      38.870  30.289  29.784  1.00  0.00     0.016 A 
ATOM     35  C   UNL A   1      39.989  29.639  31.832  1.00  0.00     0.016 A 
ATOM     36  C   UNL A   1      40.043  30.092  29.064  1.00  0.00     0.010 A 
ATOM     37  C   UNL A   1      41.183  29.509  31.119  1.00  0.00     0.010 A 
ATOM     38  C   UNL A   1      41.209  29.689  29.722  1.00  0.00    -0.014 A 
BRANCH  38  39
ATOM     39  C   UNL A   1      42.444  29.380  28.960  1.00  0.00     0.031 A 
ATOM     40  C   UNL A   1      42.636  27.997  28.400  1.00  0.00     0.074 A 
ATOM     41  C   UNL A   1      43.391  30.320  28.782  1.00  0.00     0.049 A 
ATOM     42  N   UNL A   1      43.723  27.428  27.954  1.00  0.00    -0.248 NA
ATOM     43  C   UNL A   1      41.441  27.138  28.349  1.00  0.00     0.031 C 
ATOM     44  C   UNL A   1      43.288  31.719  29.199  1.00  0.00     0.029 A 
ATOM     45  N   UNL A   1      44.640  30.230  28.222  1.00  0.00    -0.354 N 
ATOM     46  C   UNL A   1      43.362  26.125  27.627  1.00  0.00     0.074 A 
ATOM     47  C   UNL A   1      41.949  25.993  27.913  1.00  0.00     0.031 C 
ATOM     48  C   UNL A   1      44.429  32.355  28.890  1.00  0.00     0.029 A 
ATOM     49  C   UNL A   1      45.371  31.390  28.334  1.00  0.00     0.049 A 
ATOM     50  H   UNL A   1      44.980  29.416  27.783  1.00  0.00     0.167 HD
ATOM     51  C   UNL A   1      44.146  25.133  27.145  1.00  0.00     0.037 A 
ATOM     52  C   UNL A   1      46.672  31.630  28.082  1.00  0.00     0.037 A 
ATOM     53  C   UNL A   1      45.543  25.298  26.834  1.00  0.00     0.049 A 
ATOM     54  C   UNL A   1      47.540  30.502  27.597  1.00  0.00     0.074 A 
ATOM     55  C   UNL A   1      46.438  24.360  26.351  1.00  0.00     0.029 A 
ATOM     56  N   UNL A   1      46.244  26.489  26.965  1.00  0.00    -0.354 N 
ATOM     57  N   UNL A   1      47.212  29.254  27.364  1.00  0.00    -0.248 NA
ATOM     58  C   UNL A   1      48.956  30.809  27.358  1.00  0.00     0.031 C 
ATOM     59  C   UNL A   1      47.687  24.976  26.216  1.00  0.00     0.029 A 
ATOM     60  C   UNL A   1      47.560  26.309  26.576  1.00  0.00     0.049 A 
ATOM     61  H   UNL A   1      45.861  27.337  27.286  1.00  0.00     0.167 HD
ATOM     62  C   UNL A   1      48.376  28.630  26.930  1.00  0.00     0.074 A 
ATOM     63  C   UNL A   1      49.414  29.641  26.928  1.00  0.00     0.031 C 
ATOM     64  C   UNL A   1      48.570  27.338  26.567  1.00  0.00     0.037 A 
BRANCH  51  65
ATOM     65  C   UNL A   1      43.528  23.773  26.971  1.00  0.00     0.058 A 
ATOM     66  C   UNL A   1      43.336  22.898  28.050  1.00  0.00     0.135 A 
ATOM     67  C   UNL A   1      43.102  23.351  25.700  1.00  0.00     0.135 A 
ATOM     68  F   UNL A   1      43.744  23.243  29.281  1.00  0.00    -0.206 F 
ATOM     69  C   UNL A   1      42.766  21.641  27.872  1.00  0.00     0.059 A 
ATOM     70  C   UNL A   1      42.508  22.108  25.503  1.00  0.00     0.059 A 
ATOM     71  F   UNL A   1      43.264  24.148  24.633  1.00  0.00    -0.206 F 
ATOM     72  C   UNL A   1      42.359  21.253  26.594  1.00  0.00     0.060 A 
BRANCH  72  73
ATOM     73  S   UNL A   1      41.631  19.615  26.376  1.00  0.00     0.124 S 
ATOM     74  O   UNL A   1      42.374  19.120  25.221  1.00  0.00    -0.237 OA
ATOM     75  O   UNL A   1      41.932  18.966  27.648  1.00  0.00    -0.237 OA
ATOM     76  O   UNL A   1      40.218  19.899  26.138  1.00  0.00    -0.744 OA
ENDBRANCH  72  73
ENDBRANCH  51  65
BRANCH  52  77
ATOM     77  C   UNL A   1      47.235  32.979  28.341  1.00  0.00     0.058 A 
ATOM     78  C   UNL A   1      47.213  33.973  27.354  1.00  0.00     0.135 A 
ATOM     79  C   UNL A   1      47.776  33.313  29.594  1.00  0.00     0.135 A 
ATOM     80  F   UNL A   1      46.715  33.699  26.139  1.00  0.00    -0.206 F 
ATOM     81  C   UNL A   1      47.710  35.250  27.595  1.00  0.00     0.059 A 
ATOM     82  C   UNL A   1      48.256  34.589  29.868  1.00  0.00     0.059 A 
ATOM     83  F   UNL A   1      47.808  32.400  30.578  1.00  0.00    -0.206 F 
ATOM     84  C   UNL A   1      48.225  35.550  28.858  1.00  0.00     0.060 A 
BRANCH  84  85
ATOM     85  S   UNL A   1      48.809  37.228  29.183  1.00  0.00     0.124 S 
ATOM     86  O   UNL A   1      48.886  37.777  27.835  1.00  0.00    -0.237 OA
ATOM     87  O   UNL A   1      47.749  37.762  30.032  1.00  0.00    -0.237 OA
ATOM     88  O   UNL A   1      50.088  37.012  29.853  1.00  0.00    -0.744 OA
ENDBRANCH  84  85
ENDBRANCH  52  77
BRANCH  64  89
ATOM     89  C   UNL A   1      49.940  26.957  26.087  1.00  0.00     0.058 A 
ATOM     90  C   UNL A   1      50.318  27.102  24.744  1.00  0.00     0.135 A 
ATOM     91  C   UNL A   1      50.904  26.500  27.000  1.00  0.00     0.135 A 
ATOM     92  F   UNL A   1      49.428  27.528  23.834  1.00  0.00    -0.206 F 
ATOM     93  C   UNL A   1      51.605  26.795  24.319  1.00  0.00     0.059 A 
ATOM     94  C   UNL A   1      52.202  26.207  26.600  1.00  0.00     0.059 A 
ATOM     95  F   UNL A   1      50.591  26.353  28.297  1.00  0.00    -0.206 F 
ATOM     96  C   UNL A   1      52.542  26.350  25.255  1.00  0.00     0.060 A 
BRANCH  96  97
ATOM     97  S   UNL A   1      54.224  25.999  24.701  1.00  0.00     0.124 S 
ATOM     98  O   UNL A   1      54.325  24.567  24.958  1.00  0.00    -0.237 OA
ATOM     99  O   UNL A   1      54.180  26.390  23.295  1.00  0.00    -0.237 OA
ATOM    100  O   UNL A   1      55.046  26.851  25.556  1.00  0.00    -0.744 OA
ENDBRANCH  96  97
ENDBRANCH  64  89
ENDBRANCH  38  39
ENDBRANCH  31  33
ENDBRANCH  30  31
ENDBRANCH   1  30
TORSDOF 18
ENDMDL
