MODEL 1
REMARK VINA RESULT:      -9.4      0.000      0.000
REMARK SMILES C[C@@H](CC(=O)OCCOC(=O)c1ccc(-c2c3nc(c(-c4c(F)cc(S(=O)(=O)[O-])cc4F)c4ccc([nH]4)c(-c4c(F)cc(S(=O)(=O)[O-])cc4F)c4nc(c(-c5c(F)cc(S(=O)(=O)[O-])cc5F)c5ccc2[nH]5)C=C4)C=C3)cc1)NC(=O)CCn1cccn1
REMARK SMILES IDX 7 1 6 2 4 3 5 4 3 5 2 6 1 7 78 8 79 9 80 11 81 12 82 13
REMARK SMILES IDX 83 14 84 15 87 16 85 17 86 18 8 19 9 20 10 21 11 22 12 23
REMARK SMILES IDX 13 24 77 25 14 26 76 27 15 28 16 29 17 30 70 31 18 32 75 33
REMARK SMILES IDX 69 34 71 35 19 36 74 37 68 38 67 39 20 41 54 42 33 43 53 44
REMARK SMILES IDX 34 45 37 46 52 47 72 48 35 49 36 50 51 52 73 53 38 54 21 55
REMARK SMILES IDX 22 56 31 57 23 58 24 59 30 60 32 61 25 62 26 63 27 64 28 65
REMARK SMILES IDX 29 66 55 67 56 68 65 69 57 70 58 71 64 72 66 73 59 74 60 75
REMARK SMILES IDX 61 76 62 77 63 78 39 79 40 80 49 81 41 82 42 83 48 84 50 85
REMARK SMILES IDX 43 86 44 87 45 88 46 89 47 90
REMARK H PARENT 78 10 71 40 37 51
REMARK Flexibility Score: inf
ROOT
ATOM      1  C   UNL A   1      33.615  34.046  28.470  1.00  0.00     0.274 C 
ENDROOT
BRANCH   1   2
ATOM      2  O   UNL A   1      32.708  34.627  29.422  1.00  0.00    -0.462 OA
BRANCH   2   3
ATOM      3  C   UNL A   1      32.894  35.937  29.703  1.00  0.00     0.307 C 
ATOM      4  O   UNL A   1      33.058  36.812  28.861  1.00  0.00    -0.252 OA
BRANCH   3   5
ATOM      5  C   UNL A   1      32.995  36.214  31.178  1.00  0.00     0.147 C 
BRANCH   5   6
ATOM      6  C   UNL A   1      34.021  35.450  32.014  1.00  0.00     0.090 C 
ATOM      7  C   UNL A   1      34.410  36.078  33.347  1.00  0.00     0.031 C 
BRANCH   6   8
ATOM      8  N   UNL A   1      35.213  34.996  31.312  1.00  0.00    -0.353 N 
ATOM      9  C   UNL A   1      36.035  33.946  31.602  1.00  0.00     0.222 C 
ATOM     10  H   UNL A   1      35.459  35.520  30.516  1.00  0.00     0.163 HD
ATOM     11  O   UNL A   1      37.173  33.933  31.130  1.00  0.00    -0.275 OA
BRANCH   9  12
ATOM     12  C   UNL A   1      35.535  32.774  32.423  1.00  0.00     0.123 C 
BRANCH  12  13
ATOM     13  C   UNL A   1      36.168  32.644  33.806  1.00  0.00     0.154 C 
BRANCH  13  14
ATOM     14  N   UNL A   1      37.372  31.822  33.833  1.00  0.00    -0.272 N 
ATOM     15  C   UNL A   1      38.569  32.130  34.425  1.00  0.00     0.108 A 
ATOM     16  N   UNL A   1      37.433  30.692  33.094  1.00  0.00    -0.182 NA
ATOM     17  C   UNL A   1      39.475  31.204  33.965  1.00  0.00     0.042 A 
ATOM     18  C   UNL A   1      38.718  30.334  33.163  1.00  0.00     0.135 A 
ENDBRANCH  13  14
ENDBRANCH  12  13
ENDBRANCH   9  12
ENDBRANCH   6   8
ENDBRANCH   5   6
ENDBRANCH   3   5
ENDBRANCH   2   3
ENDBRANCH   1   2
BRANCH   1  19
ATOM     19  C   UNL A   1      33.962  32.605  28.848  1.00  0.00     0.275 C 
BRANCH  19  20
ATOM     20  O   UNL A   1      34.486  31.868  27.725  1.00  0.00    -0.458 OA
BRANCH  20  21
ATOM     21  C   UNL A   1      34.468  30.521  27.861  1.00  0.00     0.338 C 
ATOM     22  O   UNL A   1      33.504  29.785  27.725  1.00  0.00    -0.246 OA
BRANCH  21  23
ATOM     23  C   UNL A   1      35.832  30.009  28.061  1.00  0.00     0.060 A 
ATOM     24  C   UNL A   1      36.210  29.625  29.349  1.00  0.00     0.016 A 
ATOM     25  C   UNL A   1      36.769  30.026  27.028  1.00  0.00     0.016 A 
ATOM     26  C   UNL A   1      37.530  29.279  29.620  1.00  0.00     0.010 A 
ATOM     27  C   UNL A   1      38.092  29.649  27.296  1.00  0.00     0.010 A 
ATOM     28  C   UNL A   1      38.486  29.288  28.597  1.00  0.00    -0.014 A 
BRANCH  28  29
ATOM     29  C   UNL A   1      39.897  28.954  28.919  1.00  0.00     0.031 A 
ATOM     30  C   UNL A   1      40.773  29.955  29.623  1.00  0.00     0.074 A 
ATOM     31  C   UNL A   1      40.381  27.733  28.618  1.00  0.00     0.049 A 
ATOM     32  N   UNL A   1      42.044  29.873  29.924  1.00  0.00    -0.248 NA
ATOM     33  C   UNL A   1      40.137  31.215  30.036  1.00  0.00     0.031 C 
ATOM     34  C   UNL A   1      39.623  26.661  27.969  1.00  0.00     0.029 A 
ATOM     35  N   UNL A   1      41.620  27.183  28.828  1.00  0.00    -0.354 N 
ATOM     36  C   UNL A   1      42.371  31.080  30.530  1.00  0.00     0.074 A 
ATOM     37  C   UNL A   1      41.165  31.883  30.543  1.00  0.00     0.031 C 
ATOM     38  C   UNL A   1      40.408  25.577  27.852  1.00  0.00     0.029 A 
ATOM     39  C   UNL A   1      41.735  25.892  28.370  1.00  0.00     0.049 A 
ATOM     40  H   UNL A   1      42.358  27.667  29.265  1.00  0.00     0.167 HD
ATOM     41  C   UNL A   1      43.565  31.482  31.028  1.00  0.00     0.037 A 
ATOM     42  C   UNL A   1      42.795  25.061  28.351  1.00  0.00     0.037 A 
ATOM     43  C   UNL A   1      44.753  30.666  31.047  1.00  0.00     0.049 A 
ATOM     44  C   UNL A   1      44.109  25.530  28.908  1.00  0.00     0.074 A 
ATOM     45  C   UNL A   1      46.008  30.982  31.538  1.00  0.00     0.029 A 
ATOM     46  N   UNL A   1      44.832  29.367  30.566  1.00  0.00    -0.354 N 
ATOM     47  N   UNL A   1      44.410  26.689  29.445  1.00  0.00    -0.248 NA
ATOM     48  C   UNL A   1      45.229  24.581  28.855  1.00  0.00     0.031 C 
ATOM     49  C   UNL A   1      46.852  29.884  31.331  1.00  0.00     0.029 A 
ATOM     50  C   UNL A   1      46.113  28.870  30.744  1.00  0.00     0.049 A 
ATOM     51  H   UNL A   1      44.085  28.871  30.157  1.00  0.00     0.167 HD
ATOM     52  C   UNL A   1      45.751  26.604  29.804  1.00  0.00     0.074 A 
ATOM     53  C   UNL A   1      46.195  25.274  29.442  1.00  0.00     0.031 C 
ATOM     54  C   UNL A   1      46.542  27.544  30.377  1.00  0.00     0.037 A 
BRANCH  41  55
ATOM     55  C   UNL A   1      43.655  32.882  31.571  1.00  0.00     0.058 A 
ATOM     56  C   UNL A   1      43.444  33.166  32.929  1.00  0.00     0.135 A 
ATOM     57  C   UNL A   1      43.984  33.950  30.722  1.00  0.00     0.135 A 
ATOM     58  F   UNL A   1      43.112  32.183  33.781  1.00  0.00    -0.206 F 
ATOM     59  C   UNL A   1      43.532  34.465  33.422  1.00  0.00     0.059 A 
ATOM     60  C   UNL A   1      44.100  35.253  31.197  1.00  0.00     0.059 A 
ATOM     61  F   UNL A   1      44.197  33.734  29.413  1.00  0.00    -0.206 F 
ATOM     62  C   UNL A   1      43.858  35.503  32.546  1.00  0.00     0.060 A 
BRANCH  62  63
ATOM     63  S   UNL A   1      43.975  37.183  33.196  1.00  0.00     0.124 S 
ATOM     64  O   UNL A   1      45.284  37.155  33.841  1.00  0.00    -0.237 OA
ATOM     65  O   UNL A   1      43.883  37.998  31.988  1.00  0.00    -0.237 OA
ATOM     66  O   UNL A   1      42.832  37.279  34.098  1.00  0.00    -0.744 OA
ENDBRANCH  62  63
ENDBRANCH  41  55
BRANCH  42  67
ATOM     67  C   UNL A   1      42.656  23.700  27.769  1.00  0.00     0.058 A 
ATOM     68  C   UNL A   1      42.443  22.582  28.588  1.00  0.00     0.135 A 
ATOM     69  C   UNL A   1      42.717  23.495  26.382  1.00  0.00     0.135 A 
ATOM     70  F   UNL A   1      42.387  22.727  29.921  1.00  0.00    -0.206 F 
ATOM     71  C   UNL A   1      42.303  21.305  28.054  1.00  0.00     0.059 A 
ATOM     72  C   UNL A   1      42.555  22.232  25.823  1.00  0.00     0.059 A 
ATOM     73  F   UNL A   1      42.907  24.535  25.556  1.00  0.00    -0.206 F 
ATOM     74  C   UNL A   1      42.358  21.141  26.669  1.00  0.00     0.060 A 
BRANCH  74  75
ATOM     75  S   UNL A   1      42.112  19.491  25.976  1.00  0.00     0.124 S 
ATOM     76  O   UNL A   1      42.950  19.547  24.784  1.00  0.00    -0.237 OA
ATOM     77  O   UNL A   1      42.590  18.628  27.053  1.00  0.00    -0.237 OA
ATOM     78  O   UNL A   1      40.673  19.440  25.737  1.00  0.00    -0.744 OA
ENDBRANCH  74  75
ENDBRANCH  42  67
BRANCH  54  79
ATOM     79  C   UNL A   1      47.961  27.150  30.671  1.00  0.00     0.058 A 
ATOM     80  C   UNL A   1      48.322  26.545  31.885  1.00  0.00     0.135 A 
ATOM     81  C   UNL A   1      48.974  27.377  29.724  1.00  0.00     0.135 A 
ATOM     82  F   UNL A   1      47.393  26.312  32.825  1.00  0.00    -0.206 F 
ATOM     83  C   UNL A   1      49.643  26.216  32.168  1.00  0.00     0.059 A 
ATOM     84  C   UNL A   1      50.298  27.034  29.977  1.00  0.00     0.059 A 
ATOM     85  F   UNL A   1      48.680  27.942  28.542  1.00  0.00    -0.206 F 
ATOM     86  C   UNL A   1      50.627  26.473  31.210  1.00  0.00     0.060 A 
BRANCH  86  87
ATOM     87  S   UNL A   1      52.341  26.051  31.586  1.00  0.00     0.124 S 
ATOM     88  O   UNL A   1      52.696  27.092  32.544  1.00  0.00    -0.237 OA
ATOM     89  O   UNL A   1      52.224  24.701  32.131  1.00  0.00    -0.237 OA
ATOM     90  O   UNL A   1      53.003  26.138  30.287  1.00  0.00    -0.744 OA
ENDBRANCH  86  87
ENDBRANCH  54  79
ENDBRANCH  28  29
ENDBRANCH  21  23
ENDBRANCH  20  21
ENDBRANCH  19  20
ENDBRANCH   1  19
TORSDOF 19
ENDMDL
MODEL 2
REMARK VINA RESULT:      -9.1      2.438      3.290
REMARK SMILES C[C@@H](CC(=O)OCCOC(=O)c1ccc(-c2c3nc(c(-c4c(F)cc(S(=O)(=O)[O-])cc4F)c4ccc([nH]4)c(-c4c(F)cc(S(=O)(=O)[O-])cc4F)c4nc(c(-c5c(F)cc(S(=O)(=O)[O-])cc5F)c5ccc2[nH]5)C=C4)C=C3)cc1)NC(=O)CCn1cccn1
REMARK SMILES IDX 7 1 6 2 4 3 5 4 3 5 2 6 1 7 78 8 79 9 80 11 81 12 82 13
REMARK SMILES IDX 83 14 84 15 87 16 85 17 86 18 8 19 9 20 10 21 11 22 12 23
REMARK SMILES IDX 13 24 77 25 14 26 76 27 15 28 16 29 17 30 70 31 18 32 75 33
REMARK SMILES IDX 69 34 71 35 19 36 74 37 68 38 67 39 20 41 54 42 33 43 53 44
REMARK SMILES IDX 34 45 37 46 52 47 72 48 35 49 36 50 51 52 73 53 38 54 21 55
REMARK SMILES IDX 22 56 31 57 23 58 24 59 30 60 32 61 25 62 26 63 27 64 28 65
REMARK SMILES IDX 29 66 55 67 56 68 65 69 57 70 58 71 64 72 66 73 59 74 60 75
REMARK SMILES IDX 61 76 62 77 63 78 39 79 40 80 49 81 41 82 42 83 48 84 50 85
REMARK SMILES IDX 43 86 44 87 45 88 46 89 47 90
REMARK H PARENT 78 10 71 40 37 51
REMARK Flexibility Score: inf
ROOT
ATOM      1  C   UNL A   1      33.646  34.264  28.005  1.00  0.00     0.274 C 
ENDROOT
BRANCH   1   2
ATOM      2  O   UNL A   1      32.546  34.892  28.685  1.00  0.00    -0.462 OA
BRANCH   2   3
ATOM      3  C   UNL A   1      32.830  36.028  29.362  1.00  0.00     0.307 C 
ATOM      4  O   UNL A   1      33.304  37.038  28.856  1.00  0.00    -0.252 OA
BRANCH   3   5
ATOM      5  C   UNL A   1      32.612  35.900  30.845  1.00  0.00     0.147 C 
BRANCH   5   6
ATOM      6  C   UNL A   1      33.821  35.773  31.771  1.00  0.00     0.090 C 
ATOM      7  C   UNL A   1      34.101  36.961  32.684  1.00  0.00     0.031 C 
BRANCH   6   8
ATOM      8  N   UNL A   1      35.058  35.316  31.155  1.00  0.00    -0.353 N 
ATOM      9  C   UNL A   1      35.645  34.085  31.211  1.00  0.00     0.222 C 
ATOM     10  H   UNL A   1      35.538  35.991  30.622  1.00  0.00     0.163 HD
ATOM     11  O   UNL A   1      36.844  33.984  30.946  1.00  0.00    -0.275 OA
BRANCH   9  12
ATOM     12  C   UNL A   1      34.823  32.848  31.515  1.00  0.00     0.123 C 
BRANCH  12  13
ATOM     13  C   UNL A   1      34.404  32.700  32.977  1.00  0.00     0.154 C 
BRANCH  13  14
ATOM     14  N   UNL A   1      35.470  32.980  33.930  1.00  0.00    -0.272 N 
ATOM     15  C   UNL A   1      35.601  34.094  34.719  1.00  0.00     0.108 A 
ATOM     16  N   UNL A   1      36.551  32.171  33.990  1.00  0.00    -0.182 NA
ATOM     17  C   UNL A   1      36.874  34.049  35.239  1.00  0.00     0.042 A 
ATOM     18  C   UNL A   1      37.406  32.837  34.771  1.00  0.00     0.135 A 
ENDBRANCH  13  14
ENDBRANCH  12  13
ENDBRANCH   9  12
ENDBRANCH   6   8
ENDBRANCH   5   6
ENDBRANCH   3   5
ENDBRANCH   2   3
ENDBRANCH   1   2
BRANCH   1  19
ATOM     19  C   UNL A   1      33.508  32.741  28.024  1.00  0.00     0.275 C 
BRANCH  19  20
ATOM     20  O   UNL A   1      34.670  32.091  27.469  1.00  0.00    -0.458 OA
BRANCH  20  21
ATOM     21  C   UNL A   1      34.633  30.738  27.477  1.00  0.00     0.338 C 
ATOM     22  O   UNL A   1      33.753  30.028  27.018  1.00  0.00    -0.246 OA
BRANCH  21  23
ATOM     23  C   UNL A   1      35.896  30.195  28.000  1.00  0.00     0.060 A 
ATOM     24  C   UNL A   1      35.909  29.692  29.303  1.00  0.00     0.016 A 
ATOM     25  C   UNL A   1      37.082  30.296  27.273  1.00  0.00     0.016 A 
ATOM     26  C   UNL A   1      37.107  29.309  29.896  1.00  0.00     0.010 A 
ATOM     27  C   UNL A   1      38.284  29.883  27.861  1.00  0.00     0.010 A 
ATOM     28  C   UNL A   1      38.309  29.401  29.183  1.00  0.00    -0.014 A 
BRANCH  28  29
ATOM     29  C   UNL A   1      39.580  29.024  29.851  1.00  0.00     0.031 A 
ATOM     30  C   UNL A   1      40.015  29.726  31.108  1.00  0.00     0.074 A 
ATOM     31  C   UNL A   1      40.326  28.017  29.353  1.00  0.00     0.049 A 
ATOM     32  N   UNL A   1      41.121  29.586  31.793  1.00  0.00    -0.248 NA
ATOM     33  C   UNL A   1      39.086  30.722  31.664  1.00  0.00     0.031 C 
ATOM     34  C   UNL A   1      39.996  27.233  28.161  1.00  0.00     0.029 A 
ATOM     35  N   UNL A   1      41.507  27.474  29.791  1.00  0.00    -0.354 N 
ATOM     36  C   UNL A   1      41.040  30.497  32.839  1.00  0.00     0.074 A 
ATOM     37  C   UNL A   1      39.779  31.194  32.692  1.00  0.00     0.031 C 
ATOM     38  C   UNL A   1      40.941  26.297  27.976  1.00  0.00     0.029 A 
ATOM     39  C   UNL A   1      41.968  26.447  29.002  1.00  0.00     0.049 A 
ATOM     40  H   UNL A   1      41.981  27.791  30.594  1.00  0.00     0.167 HD
ATOM     41  C   UNL A   1      41.934  30.731  33.830  1.00  0.00     0.037 A 
ATOM     42  C   UNL A   1      43.099  25.721  29.083  1.00  0.00     0.037 A 
ATOM     43  C   UNL A   1      43.172  30.009  33.995  1.00  0.00     0.049 A 
ATOM     44  C   UNL A   1      44.076  26.000  30.190  1.00  0.00     0.074 A 
ATOM     45  C   UNL A   1      44.139  30.169  34.973  1.00  0.00     0.029 A 
ATOM     46  N   UNL A   1      43.607  28.982  33.170  1.00  0.00    -0.354 N 
ATOM     47  N   UNL A   1      44.000  26.891  31.151  1.00  0.00    -0.248 NA
ATOM     48  C   UNL A   1      45.294  25.179  30.223  1.00  0.00     0.031 C 
ATOM     49  C   UNL A   1      45.171  29.256  34.724  1.00  0.00     0.029 A 
ATOM     50  C   UNL A   1      44.829  28.502  33.612  1.00  0.00     0.049 A 
ATOM     51  H   UNL A   1      43.119  28.644  32.384  1.00  0.00     0.167 HD
ATOM     52  C   UNL A   1      45.154  26.729  31.909  1.00  0.00     0.074 A 
ATOM     53  C   UNL A   1      45.900  25.643  31.308  1.00  0.00     0.031 C 
ATOM     54  C   UNL A   1      45.561  27.421  33.002  1.00  0.00     0.037 A 
BRANCH  41  55
ATOM     55  C   UNL A   1      41.620  31.835  34.802  1.00  0.00     0.058 A 
ATOM     56  C   UNL A   1      42.079  33.147  34.608  1.00  0.00     0.135 A 
ATOM     57  C   UNL A   1      40.825  31.579  35.930  1.00  0.00     0.135 A 
ATOM     58  F   UNL A   1      42.855  33.442  33.554  1.00  0.00    -0.206 F 
ATOM     59  C   UNL A   1      41.780  34.162  35.514  1.00  0.00     0.059 A 
ATOM     60  C   UNL A   1      40.495  32.583  36.836  1.00  0.00     0.059 A 
ATOM     61  F   UNL A   1      40.359  30.341  36.163  1.00  0.00    -0.206 F 
ATOM     62  C   UNL A   1      40.990  33.869  36.627  1.00  0.00     0.060 A 
BRANCH  62  63
ATOM     63  S   UNL A   1      40.604  35.193  37.791  1.00  0.00     0.124 S 
ATOM     64  O   UNL A   1      41.931  35.735  38.067  1.00  0.00    -0.237 OA
ATOM     65  O   UNL A   1      39.719  36.052  37.012  1.00  0.00    -0.237 OA
ATOM     66  O   UNL A   1      39.969  34.493  38.904  1.00  0.00    -0.744 OA
ENDBRANCH  62  63
ENDBRANCH  41  55
BRANCH  42  67
ATOM     67  C   UNL A   1      43.373  24.666  28.072  1.00  0.00     0.058 A 
ATOM     68  C   UNL A   1      44.165  24.930  26.947  1.00  0.00     0.135 A 
ATOM     69  C   UNL A   1      42.860  23.368  28.224  1.00  0.00     0.135 A 
ATOM     70  F   UNL A   1      44.670  26.158  26.754  1.00  0.00    -0.206 F 
ATOM     71  C   UNL A   1      44.435  23.947  25.999  1.00  0.00     0.059 A 
ATOM     72  C   UNL A   1      43.136  22.362  27.304  1.00  0.00     0.059 A 
ATOM     73  F   UNL A   1      42.106  23.063  29.291  1.00  0.00    -0.206 F 
ATOM     74  C   UNL A   1      43.918  22.665  26.189  1.00  0.00     0.060 A 
BRANCH  74  75
ATOM     75  S   UNL A   1      44.322  21.376  24.990  1.00  0.00     0.124 S 
ATOM     76  O   UNL A   1      45.706  21.076  25.338  1.00  0.00    -0.237 OA
ATOM     77  O   UNL A   1      43.344  20.339  25.307  1.00  0.00    -0.237 OA
ATOM     78  O   UNL A   1      44.123  22.040  23.706  1.00  0.00    -0.744 OA
ENDBRANCH  74  75
ENDBRANCH  42  67
BRANCH  54  79
ATOM     79  C   UNL A   1      46.859  26.998  33.629  1.00  0.00     0.058 A 
ATOM     80  C   UNL A   1      48.079  27.597  33.273  1.00  0.00     0.135 A 
ATOM     81  C   UNL A   1      46.885  25.984  34.600  1.00  0.00     0.135 A 
ATOM     82  F   UNL A   1      48.108  28.567  32.346  1.00  0.00    -0.206 F 
ATOM     83  C   UNL A   1      49.283  27.177  33.828  1.00  0.00     0.059 A 
ATOM     84  C   UNL A   1      48.075  25.565  35.184  1.00  0.00     0.059 A 
ATOM     85  F   UNL A   1      45.746  25.387  34.983  1.00  0.00    -0.206 F 
ATOM     86  C   UNL A   1      49.272  26.154  34.777  1.00  0.00     0.060 A 
BRANCH  86  87
ATOM     87  S   UNL A   1      50.839  25.608  35.489  1.00  0.00     0.124 S 
ATOM     88  O   UNL A   1      51.786  26.012  34.455  1.00  0.00    -0.237 OA
ATOM     89  O   UNL A   1      50.901  26.363  36.736  1.00  0.00    -0.237 OA
ATOM     90  O   UNL A   1      50.655  24.168  35.645  1.00  0.00    -0.744 OA
ENDBRANCH  86  87
ENDBRANCH  54  79
ENDBRANCH  28  29
ENDBRANCH  21  23
ENDBRANCH  20  21
ENDBRANCH  19  20
ENDBRANCH   1  19
TORSDOF 19
ENDMDL
MODEL 3
REMARK VINA RESULT:      -9.1      2.942      3.747
REMARK SMILES C[C@@H](CC(=O)OCCOC(=O)c1ccc(-c2c3nc(c(-c4c(F)cc(S(=O)(=O)[O-])cc4F)c4ccc([nH]4)c(-c4c(F)cc(S(=O)(=O)[O-])cc4F)c4nc(c(-c5c(F)cc(S(=O)(=O)[O-])cc5F)c5ccc2[nH]5)C=C4)C=C3)cc1)NC(=O)CCn1cccn1
REMARK SMILES IDX 7 1 6 2 4 3 5 4 3 5 2 6 1 7 78 8 79 9 80 11 81 12 82 13
REMARK SMILES IDX 83 14 84 15 87 16 85 17 86 18 8 19 9 20 10 21 11 22 12 23
REMARK SMILES IDX 13 24 77 25 14 26 76 27 15 28 16 29 17 30 70 31 18 32 75 33
REMARK SMILES IDX 69 34 71 35 19 36 74 37 68 38 67 39 20 41 54 42 33 43 53 44
REMARK SMILES IDX 34 45 37 46 52 47 72 48 35 49 36 50 51 52 73 53 38 54 21 55
REMARK SMILES IDX 22 56 31 57 23 58 24 59 30 60 32 61 25 62 26 63 27 64 28 65
REMARK SMILES IDX 29 66 55 67 56 68 65 69 57 70 58 71 64 72 66 73 59 74 60 75
REMARK SMILES IDX 61 76 62 77 63 78 39 79 40 80 49 81 41 82 42 83 48 84 50 85
REMARK SMILES IDX 43 86 44 87 45 88 46 89 47 90
REMARK H PARENT 78 10 71 40 37 51
REMARK Flexibility Score: inf
ROOT
ATOM      1  C   UNL A   1      34.666  33.138  29.894  1.00  0.00     0.274 C 
ENDROOT
BRANCH   1   2
ATOM      2  O   UNL A   1      33.428  33.858  29.769  1.00  0.00    -0.462 OA
BRANCH   2   3
ATOM      3  C   UNL A   1      33.529  35.173  29.471  1.00  0.00     0.307 C 
ATOM      4  O   UNL A   1      34.055  35.618  28.458  1.00  0.00    -0.252 OA
BRANCH   3   5
ATOM      5  C   UNL A   1      33.023  36.066  30.571  1.00  0.00     0.147 C 
BRANCH   5   6
ATOM      6  C   UNL A   1      33.565  35.885  31.989  1.00  0.00     0.090 C 
ATOM      7  C   UNL A   1      33.073  36.881  33.033  1.00  0.00     0.031 C 
BRANCH   6   8
ATOM      8  N   UNL A   1      35.005  35.709  32.109  1.00  0.00    -0.353 N 
ATOM      9  C   UNL A   1      35.707  34.939  32.990  1.00  0.00     0.222 C 
ATOM     10  H   UNL A   1      35.548  36.216  31.464  1.00  0.00     0.163 HD
ATOM     11  O   UNL A   1      36.897  35.190  33.185  1.00  0.00    -0.275 OA
BRANCH   9  12
ATOM     12  C   UNL A   1      35.060  33.743  33.661  1.00  0.00     0.123 C 
BRANCH  12  13
ATOM     13  C   UNL A   1      35.657  32.391  33.274  1.00  0.00     0.154 C 
BRANCH  13  14
ATOM     14  N   UNL A   1      36.906  32.077  33.955  1.00  0.00    -0.272 N 
ATOM     15  C   UNL A   1      37.940  31.317  33.474  1.00  0.00     0.108 A 
ATOM     16  N   UNL A   1      37.070  32.416  35.253  1.00  0.00    -0.182 NA
ATOM     17  C   UNL A   1      38.767  31.070  34.545  1.00  0.00     0.042 A 
ATOM     18  C   UNL A   1      38.192  31.784  35.610  1.00  0.00     0.135 A 
ENDBRANCH  13  14
ENDBRANCH  12  13
ENDBRANCH   9  12
ENDBRANCH   6   8
ENDBRANCH   5   6
ENDBRANCH   3   5
ENDBRANCH   2   3
ENDBRANCH   1   2
BRANCH   1  19
ATOM     19  C   UNL A   1      34.821  32.109  28.772  1.00  0.00     0.275 C 
BRANCH  19  20
ATOM     20  O   UNL A   1      36.177  31.629  28.669  1.00  0.00    -0.458 OA
BRANCH  20  21
ATOM     21  C   UNL A   1      36.520  30.674  29.565  1.00  0.00     0.338 C 
ATOM     22  O   UNL A   1      35.839  30.258  30.487  1.00  0.00    -0.246 OA
BRANCH  21  23
ATOM     23  C   UNL A   1      37.810  30.069  29.198  1.00  0.00     0.060 A 
ATOM     24  C   UNL A   1      38.772  29.911  30.198  1.00  0.00     0.016 A 
ATOM     25  C   UNL A   1      38.121  29.782  27.869  1.00  0.00     0.016 A 
ATOM     26  C   UNL A   1      40.057  29.487  29.875  1.00  0.00     0.010 A 
ATOM     27  C   UNL A   1      39.408  29.327  27.550  1.00  0.00     0.010 A 
ATOM     28  C   UNL A   1      40.390  29.192  28.547  1.00  0.00    -0.014 A 
BRANCH  28  29
ATOM     29  C   UNL A   1      41.779  28.780  28.222  1.00  0.00     0.031 A 
ATOM     30  C   UNL A   1      42.899  29.784  28.266  1.00  0.00     0.074 A 
ATOM     31  C   UNL A   1      42.045  27.491  27.929  1.00  0.00     0.049 A 
ATOM     32  N   UNL A   1      44.159  29.631  27.948  1.00  0.00    -0.248 NA
ATOM     33  C   UNL A   1      42.554  31.140  28.721  1.00  0.00     0.031 C 
ATOM     34  C   UNL A   1      41.054  26.414  27.889  1.00  0.00     0.029 A 
ATOM     35  N   UNL A   1      43.227  26.867  27.621  1.00  0.00    -0.354 N 
ATOM     36  C   UNL A   1      44.752  30.875  28.129  1.00  0.00     0.074 A 
ATOM     37  C   UNL A   1      43.709  31.775  28.576  1.00  0.00     0.031 C 
ATOM     38  C   UNL A   1      41.673  25.259  27.595  1.00  0.00     0.029 A 
ATOM     39  C   UNL A   1      43.092  25.521  27.375  1.00  0.00     0.049 A 
ATOM     40  H   UNL A   1      44.090  27.338  27.579  1.00  0.00     0.167 HD
ATOM     41  C   UNL A   1      46.045  31.232  27.941  1.00  0.00     0.037 A 
ATOM     42  C   UNL A   1      44.002  24.605  26.996  1.00  0.00     0.037 A 
ATOM     43  C   UNL A   1      47.088  30.324  27.533  1.00  0.00     0.049 A 
ATOM     44  C   UNL A   1      45.430  25.026  26.792  1.00  0.00     0.074 A 
ATOM     45  C   UNL A   1      48.431  30.591  27.323  1.00  0.00     0.029 A 
ATOM     46  N   UNL A   1      46.910  28.971  27.284  1.00  0.00    -0.354 N 
ATOM     47  N   UNL A   1      45.967  26.215  26.934  1.00  0.00    -0.248 NA
ATOM     48  C   UNL A   1      46.376  23.983  26.374  1.00  0.00     0.031 C 
ATOM     49  C   UNL A   1      49.059  29.405  26.924  1.00  0.00     0.029 A 
ATOM     50  C   UNL A   1      48.114  28.390  26.920  1.00  0.00     0.049 A 
ATOM     51  H   UNL A   1      46.051  28.492  27.356  1.00  0.00     0.167 HD
ATOM     52  C   UNL A   1      47.315  26.060  26.633  1.00  0.00     0.074 A 
ATOM     53  C   UNL A   1      47.516  24.660  26.323  1.00  0.00     0.031 C 
ATOM     54  C   UNL A   1      48.298  26.994  26.612  1.00  0.00     0.037 A 
BRANCH  41  55
ATOM     55  C   UNL A   1      46.403  32.678  28.148  1.00  0.00     0.058 A 
ATOM     56  C   UNL A   1      46.249  33.633  27.131  1.00  0.00     0.135 A 
ATOM     57  C   UNL A   1      46.882  33.117  29.392  1.00  0.00     0.135 A 
ATOM     58  F   UNL A   1      45.810  33.264  25.918  1.00  0.00    -0.206 F 
ATOM     59  C   UNL A   1      46.582  34.970  27.335  1.00  0.00     0.059 A 
ATOM     60  C   UNL A   1      47.198  34.453  29.625  1.00  0.00     0.059 A 
ATOM     61  F   UNL A   1      47.047  32.244  30.400  1.00  0.00    -0.206 F 
ATOM     62  C   UNL A   1      47.059  35.370  28.585  1.00  0.00     0.060 A 
BRANCH  62  63
ATOM     63  S   UNL A   1      47.481  37.106  28.840  1.00  0.00     0.124 S 
ATOM     64  O   UNL A   1      46.268  37.772  28.376  1.00  0.00    -0.237 OA
ATOM     65  O   UNL A   1      47.725  37.165  30.278  1.00  0.00    -0.237 OA
ATOM     66  O   UNL A   1      48.661  37.295  28.002  1.00  0.00    -0.744 OA
ENDBRANCH  62  63
ENDBRANCH  41  55
BRANCH  42  67
ATOM     67  C   UNL A   1      43.584  23.196  26.772  1.00  0.00     0.058 A 
ATOM     68  C   UNL A   1      43.490  22.666  25.478  1.00  0.00     0.135 A 
ATOM     69  C   UNL A   1      43.286  22.349  27.851  1.00  0.00     0.135 A 
ATOM     70  F   UNL A   1      43.755  23.440  24.415  1.00  0.00    -0.206 F 
ATOM     71  C   UNL A   1      43.107  21.347  25.257  1.00  0.00     0.059 A 
ATOM     72  C   UNL A   1      42.925  21.020  27.657  1.00  0.00     0.059 A 
ATOM     73  F   UNL A   1      43.373  22.806  29.109  1.00  0.00    -0.206 F 
ATOM     74  C   UNL A   1      42.830  20.530  26.354  1.00  0.00     0.060 A 
BRANCH  74  75
ATOM     75  S   UNL A   1      42.395  18.801  26.067  1.00  0.00     0.124 S 
ATOM     76  O   UNL A   1      43.324  18.439  25.004  1.00  0.00    -0.237 OA
ATOM     77  O   UNL A   1      42.648  18.196  27.371  1.00  0.00    -0.237 OA
ATOM     78  O   UNL A   1      40.989  18.871  25.681  1.00  0.00    -0.744 OA
ENDBRANCH  74  75
ENDBRANCH  42  67
BRANCH  54  79
ATOM     79  C   UNL A   1      49.681  26.519  26.268  1.00  0.00     0.058 A 
ATOM     80  C   UNL A   1      50.515  25.921  27.226  1.00  0.00     0.135 A 
ATOM     81  C   UNL A   1      50.178  26.660  24.962  1.00  0.00     0.135 A 
ATOM     82  F   UNL A   1      50.088  25.768  28.490  1.00  0.00    -0.206 F 
ATOM     83  C   UNL A   1      51.807  25.516  26.912  1.00  0.00     0.059 A 
ATOM     84  C   UNL A   1      51.459  26.241  24.621  1.00  0.00     0.059 A 
ATOM     85  F   UNL A   1      49.416  27.216  24.006  1.00  0.00    -0.206 F 
ATOM     86  C   UNL A   1      52.274  25.689  25.608  1.00  0.00     0.060 A 
BRANCH  86  87
ATOM     87  S   UNL A   1      53.956  25.169  25.208  1.00  0.00     0.124 S 
ATOM     88  O   UNL A   1      54.674  25.542  26.422  1.00  0.00    -0.237 OA
ATOM     89  O   UNL A   1      53.800  23.736  24.979  1.00  0.00    -0.237 OA
ATOM     90  O   UNL A   1      54.278  25.953  24.019  1.00  0.00    -0.744 OA
ENDBRANCH  86  87
ENDBRANCH  54  79
ENDBRANCH  28  29
ENDBRANCH  21  23
ENDBRANCH  20  21
ENDBRANCH  19  20
ENDBRANCH   1  19
TORSDOF 19
ENDMDL
