MODEL 1
REMARK VINA RESULT:     -13.0      0.000      0.000
REMARK SMILES CS(=O)(=O)c1ccc(C2=NN(c3ccc(C(=O)OCCOC(=O)c4ccc(-c5c6nc(c(-c7c(F)cc(S(=O)(=O)[O-])cc7F)c7ccc([nH]7)c(-c7c(F)cc(S(=O)(=O)[O-])cc7F)c7nc(c(-c8c(F)cc(S(=O)(=O)[O-])cc8F)c8ccc5[nH]8)C=C7)C=C6)cc4)cc3)[C@H](c3ccc(F)cc3)C2)cc1
REMARK SMILES IDX 19 1 18 2 16 3 17 4 15 5 12 6 13 7 91 8 14 9 90 10 11 11
REMARK SMILES IDX 9 12 10 13 100 14 92 15 8 16 5 17 6 18 102 19 7 20 101 21
REMARK SMILES IDX 2 22 1 23 3 24 4 25 93 26 94 27 99 28 95 29 98 30 96 31
REMARK SMILES IDX 97 32 20 33 21 34 22 35 23 36 24 37 25 38 89 39 26 40 88 41
REMARK SMILES IDX 27 42 28 43 29 44 82 45 30 46 87 47 81 48 83 49 31 50 86 51
REMARK SMILES IDX 80 52 79 53 32 55 66 56 45 57 65 58 46 59 49 60 64 61 84 62
REMARK SMILES IDX 47 63 48 64 63 66 85 67 50 68 33 69 34 70 43 71 35 72 36 73
REMARK SMILES IDX 42 74 44 75 37 76 38 77 39 78 40 79 41 80 67 81 68 82 77 83
REMARK SMILES IDX 69 84 70 85 76 86 78 87 71 88 72 89 73 90 74 91 75 92 51 93
REMARK SMILES IDX 52 94 61 95 53 96 54 97 60 98 62 99 55 100 56 101 57 102
REMARK SMILES IDX 58 103 59 104
REMARK H PARENT 83 54 49 65
REMARK Flexibility Score: inf
ROOT
ATOM      1  C   UNL A   1      34.695  32.942  29.799  1.00  0.00     0.275 C 
ENDROOT
BRANCH   1   2
ATOM      2  O   UNL A   1      33.960  32.055  28.936  1.00  0.00    -0.458 OA
BRANCH   2   3
ATOM      3  C   UNL A   1      34.652  31.549  27.886  1.00  0.00     0.338 C 
ATOM      4  O   UNL A   1      35.706  31.975  27.441  1.00  0.00    -0.246 OA
BRANCH   3   5
ATOM      5  C   UNL A   1      33.992  30.332  27.349  1.00  0.00     0.060 A 
ATOM      6  C   UNL A   1      32.853  28.029  26.209  1.00  0.00     0.060 A 
ATOM      7  C   UNL A   1      34.239  28.131  26.357  1.00  0.00     0.029 A 
ATOM      8  C   UNL A   1      32.042  29.068  26.685  1.00  0.00     0.029 A 
ATOM      9  C   UNL A   1      34.806  29.286  26.891  1.00  0.00     0.018 A 
ATOM     10  C   UNL A   1      32.603  30.214  27.259  1.00  0.00     0.018 A 
BRANCH   6  11
ATOM     11  N   UNL A   1      32.283  26.982  25.481  1.00  0.00    -0.257 N 
ATOM     12  C   UNL A   1      32.554  24.996  24.742  1.00  0.00     0.071 C 
ATOM     13  N   UNL A   1      32.586  25.705  25.827  1.00  0.00    -0.176 NA
ATOM     14  C   UNL A   1      32.292  25.759  23.471  1.00  0.00     0.091 C 
ATOM     15  C   UNL A   1      32.107  27.173  24.034  1.00  0.00     0.144 C 
BRANCH  12  16
ATOM     16  C   UNL A   1      32.739  23.532  24.748  1.00  0.00    -0.002 A 
ATOM     17  C   UNL A   1      32.967  20.751  24.761  1.00  0.00     0.067 A 
ATOM     18  C   UNL A   1      31.786  21.346  25.208  1.00  0.00     0.021 A 
ATOM     19  C   UNL A   1      34.038  21.541  24.322  1.00  0.00     0.021 A 
ATOM     20  C   UNL A   1      31.679  22.737  25.206  1.00  0.00     0.011 A 
ATOM     21  C   UNL A   1      33.924  22.935  24.311  1.00  0.00     0.011 A 
BRANCH  17  22
ATOM     22  S   UNL A   1      33.155  18.985  24.683  1.00  0.00     0.175 S 
ATOM     23  C   UNL A   1      32.468  18.454  23.140  1.00  0.00     0.163 C 
ATOM     24  O   UNL A   1      32.348  18.431  25.750  1.00  0.00    -0.224 OA
ATOM     25  O   UNL A   1      34.584  18.734  24.613  1.00  0.00    -0.224 OA
ENDBRANCH  17  22
ENDBRANCH  12  16
BRANCH  15  26
ATOM     26  C   UNL A   1      30.785  27.891  23.795  1.00  0.00    -0.023 A 
ATOM     27  C   UNL A   1      30.698  29.230  23.382  1.00  0.00     0.009 A 
ATOM     28  C   UNL A   1      29.594  27.134  23.858  1.00  0.00     0.009 A 
ATOM     29  C   UNL A   1      29.462  29.790  23.044  1.00  0.00     0.039 A 
ATOM     30  C   UNL A   1      28.367  27.686  23.495  1.00  0.00     0.039 A 
ATOM     31  C   UNL A   1      28.313  29.011  23.092  1.00  0.00     0.123 A 
ATOM     32  F   UNL A   1      27.139  29.542  22.724  1.00  0.00    -0.207 F 
ENDBRANCH  15  26
ENDBRANCH   6  11
ENDBRANCH   3   5
ENDBRANCH   2   3
ENDBRANCH   1   2
BRANCH   1  33
ATOM     33  C   UNL A   1      35.254  32.187  31.004  1.00  0.00     0.275 C 
BRANCH  33  34
ATOM     34  O   UNL A   1      36.608  31.768  30.755  1.00  0.00    -0.458 OA
BRANCH  34  35
ATOM     35  C   UNL A   1      36.919  30.522  31.177  1.00  0.00     0.338 C 
ATOM     36  O   UNL A   1      36.303  29.827  31.966  1.00  0.00    -0.246 OA
BRANCH  35  37
ATOM     37  C   UNL A   1      38.146  30.078  30.501  1.00  0.00     0.060 A 
ATOM     38  C   UNL A   1      39.213  29.625  31.273  1.00  0.00     0.016 A 
ATOM     39  C   UNL A   1      38.280  30.205  29.121  1.00  0.00     0.016 A 
ATOM     40  C   UNL A   1      40.442  29.345  30.682  1.00  0.00     0.010 A 
ATOM     41  C   UNL A   1      39.493  29.856  28.518  1.00  0.00     0.010 A 
ATOM     42  C   UNL A   1      40.594  29.443  29.293  1.00  0.00    -0.014 A 
BRANCH  42  43
ATOM     43  C   UNL A   1      41.903  29.152  28.648  1.00  0.00     0.031 A 
ATOM     44  C   UNL A   1      42.191  27.767  28.135  1.00  0.00     0.074 A 
ATOM     45  C   UNL A   1      42.837  30.117  28.529  1.00  0.00     0.049 A 
ATOM     46  N   UNL A   1      43.327  27.247  27.747  1.00  0.00    -0.248 NA
ATOM     47  C   UNL A   1      41.049  26.842  28.060  1.00  0.00     0.031 C 
ATOM     48  C   UNL A   1      42.666  31.517  28.922  1.00  0.00     0.029 A 
ATOM     49  N   UNL A   1      44.122  30.064  28.046  1.00  0.00    -0.354 N 
ATOM     50  C   UNL A   1      43.049  25.919  27.438  1.00  0.00     0.074 A 
ATOM     51  C   UNL A   1      41.637  25.716  27.682  1.00  0.00     0.031 C 
ATOM     52  C   UNL A   1      43.793  32.193  28.644  1.00  0.00     0.029 A 
ATOM     53  C   UNL A   1      44.793  31.261  28.138  1.00  0.00     0.049 A 
ATOM     54  H   UNL A   1      44.524  29.248  27.672  1.00  0.00     0.167 HD
ATOM     55  C   UNL A   1      43.900  24.959  26.998  1.00  0.00     0.037 A 
ATOM     56  C   UNL A   1      46.083  31.567  27.890  1.00  0.00     0.037 A 
ATOM     57  C   UNL A   1      45.292  25.187  26.714  1.00  0.00     0.049 A 
ATOM     58  C   UNL A   1      47.021  30.476  27.454  1.00  0.00     0.074 A 
ATOM     59  C   UNL A   1      46.239  24.287  26.255  1.00  0.00     0.029 A 
ATOM     60  N   UNL A   1      45.939  26.407  26.850  1.00  0.00    -0.354 N 
ATOM     61  N   UNL A   1      46.763  29.210  27.227  1.00  0.00    -0.248 NA
ATOM     62  C   UNL A   1      48.430  30.847  27.267  1.00  0.00     0.031 C 
ATOM     63  C   UNL A   1      47.463  24.954  26.147  1.00  0.00     0.029 A 
ATOM     64  C   UNL A   1      47.272  26.282  26.499  1.00  0.00     0.049 A 
ATOM     65  H   UNL A   1      45.511  27.241  27.153  1.00  0.00     0.167 HD
ATOM     66  C   UNL A   1      47.973  28.637  26.852  1.00  0.00     0.074 A 
ATOM     67  C   UNL A   1      48.961  29.696  26.876  1.00  0.00     0.031 C 
ATOM     68  C   UNL A   1      48.239  27.351  26.516  1.00  0.00     0.037 A 
BRANCH  55  69
ATOM     69  C   UNL A   1      43.353  23.566  26.841  1.00  0.00     0.058 A 
ATOM     70  C   UNL A   1      43.113  22.729  27.941  1.00  0.00     0.135 A 
ATOM     71  C   UNL A   1      43.055  23.066  25.562  1.00  0.00     0.135 A 
ATOM     72  F   UNL A   1      43.393  23.151  29.184  1.00  0.00    -0.206 F 
ATOM     73  C   UNL A   1      42.636  21.431  27.777  1.00  0.00     0.059 A 
ATOM     74  C   UNL A   1      42.554  21.781  25.377  1.00  0.00     0.059 A 
ATOM     75  F   UNL A   1      43.261  23.824  24.474  1.00  0.00    -0.206 F 
ATOM     76  C   UNL A   1      42.367  20.963  26.490  1.00  0.00     0.060 A 
BRANCH  76  77
ATOM     77  S   UNL A   1      41.775  19.269  26.287  1.00  0.00     0.124 S 
ATOM     78  O   UNL A   1      42.751  18.731  25.344  1.00  0.00    -0.237 OA
ATOM     79  O   UNL A   1      41.850  18.743  27.646  1.00  0.00    -0.237 OA
ATOM     80  O   UNL A   1      40.424  19.442  25.760  1.00  0.00    -0.744 OA
ENDBRANCH  76  77
ENDBRANCH  55  69
BRANCH  56  81
ATOM     81  C   UNL A   1      46.564  32.961  28.082  1.00  0.00     0.058 A 
ATOM     82  C   UNL A   1      47.085  33.378  29.314  1.00  0.00     0.135 A 
ATOM     83  C   UNL A   1      46.540  33.893  27.033  1.00  0.00     0.135 A 
ATOM     84  F   UNL A   1      47.118  32.527  30.351  1.00  0.00    -0.206 F 
ATOM     85  C   UNL A   1      47.568  34.670  29.501  1.00  0.00     0.059 A 
ATOM     86  C   UNL A   1      47.039  35.183  27.188  1.00  0.00     0.059 A 
ATOM     87  F   UNL A   1      46.057  33.542  25.831  1.00  0.00    -0.206 F 
ATOM     88  C   UNL A   1      47.546  35.563  28.429  1.00  0.00     0.060 A 
BRANCH  88  89
ATOM     89  S   UNL A   1      48.239  37.215  28.661  1.00  0.00     0.124 S 
ATOM     90  O   UNL A   1      47.260  38.044  27.967  1.00  0.00    -0.237 OA
ATOM     91  O   UNL A   1      48.263  37.338  30.116  1.00  0.00    -0.237 OA
ATOM     92  O   UNL A   1      49.550  37.120  28.026  1.00  0.00    -0.744 OA
ENDBRANCH  88  89
ENDBRANCH  56  81
BRANCH  68  93
ATOM     93  C   UNL A   1      49.645  27.021  26.107  1.00  0.00     0.058 A 
ATOM     94  C   UNL A   1      50.582  26.524  27.025  1.00  0.00     0.135 A 
ATOM     95  C   UNL A   1      50.039  27.143  24.765  1.00  0.00     0.135 A 
ATOM     96  F   UNL A   1      50.257  26.400  28.322  1.00  0.00    -0.206 F 
ATOM     97  C   UNL A   1      51.866  26.164  26.627  1.00  0.00     0.059 A 
ATOM     98  C   UNL A   1      51.310  26.769  24.341  1.00  0.00     0.059 A 
ATOM     99  F   UNL A   1      49.176  27.608  23.847  1.00  0.00    -0.206 F 
ATOM    100  C   UNL A   1      52.219  26.286  25.281  1.00  0.00     0.060 A 
BRANCH 100 101
ATOM    101  S   UNL A   1      53.870  25.764  24.767  1.00  0.00     0.124 S 
ATOM    102  O   UNL A   1      53.801  25.954  23.322  1.00  0.00    -0.237 OA
ATOM    103  O   UNL A   1      54.732  26.693  25.490  1.00  0.00    -0.237 OA
ATOM    104  O   UNL A   1      53.941  24.377  25.216  1.00  0.00    -0.744 OA
ENDBRANCH 100 101
ENDBRANCH  68  93
ENDBRANCH  42  43
ENDBRANCH  35  37
ENDBRANCH  34  35
ENDBRANCH  33  34
ENDBRANCH   1  33
TORSDOF 18
ENDMDL
MODEL 2
REMARK VINA RESULT:     -12.4      4.621     11.885
REMARK SMILES CS(=O)(=O)c1ccc(C2=NN(c3ccc(C(=O)OCCOC(=O)c4ccc(-c5c6nc(c(-c7c(F)cc(S(=O)(=O)[O-])cc7F)c7ccc([nH]7)c(-c7c(F)cc(S(=O)(=O)[O-])cc7F)c7nc(c(-c8c(F)cc(S(=O)(=O)[O-])cc8F)c8ccc5[nH]8)C=C7)C=C6)cc4)cc3)[C@H](c3ccc(F)cc3)C2)cc1
REMARK SMILES IDX 19 1 18 2 16 3 17 4 15 5 12 6 13 7 91 8 14 9 90 10 11 11
REMARK SMILES IDX 9 12 10 13 100 14 92 15 8 16 5 17 6 18 102 19 7 20 101 21
REMARK SMILES IDX 2 22 1 23 3 24 4 25 93 26 94 27 99 28 95 29 98 30 96 31
REMARK SMILES IDX 97 32 20 33 21 34 22 35 23 36 24 37 25 38 89 39 26 40 88 41
REMARK SMILES IDX 27 42 28 43 29 44 82 45 30 46 87 47 81 48 83 49 31 50 86 51
REMARK SMILES IDX 80 52 79 53 32 55 66 56 45 57 65 58 46 59 49 60 64 61 84 62
REMARK SMILES IDX 47 63 48 64 63 66 85 67 50 68 33 69 34 70 43 71 35 72 36 73
REMARK SMILES IDX 42 74 44 75 37 76 38 77 39 78 40 79 41 80 67 81 68 82 77 83
REMARK SMILES IDX 69 84 70 85 76 86 78 87 71 88 72 89 73 90 74 91 75 92 51 93
REMARK SMILES IDX 52 94 61 95 53 96 54 97 60 98 62 99 55 100 56 101 57 102
REMARK SMILES IDX 58 103 59 104
REMARK H PARENT 83 54 49 65
REMARK Flexibility Score: inf
ROOT
ATOM      1  C   UNL A   1      35.528  33.807  28.696  1.00  0.00     0.275 C 
ENDROOT
BRANCH   1   2
ATOM      2  O   UNL A   1      34.958  34.897  29.444  1.00  0.00    -0.458 OA
BRANCH   2   3
ATOM      3  C   UNL A   1      34.311  34.553  30.584  1.00  0.00     0.338 C 
ATOM      4  O   UNL A   1      33.107  34.615  30.778  1.00  0.00    -0.246 OA
BRANCH   3   5
ATOM      5  C   UNL A   1      35.256  34.015  31.593  1.00  0.00     0.060 A 
ATOM      6  C   UNL A   1      36.917  32.942  33.591  1.00  0.00     0.060 A 
ATOM      7  C   UNL A   1      35.854  32.192  33.080  1.00  0.00     0.029 A 
ATOM      8  C   UNL A   1      37.171  34.212  33.055  1.00  0.00     0.029 A 
ATOM      9  C   UNL A   1      35.011  32.737  32.114  1.00  0.00     0.018 A 
ATOM     10  C   UNL A   1      36.352  34.748  32.056  1.00  0.00     0.018 A 
BRANCH   6  11
ATOM     11  N   UNL A   1      37.635  32.504  34.707  1.00  0.00    -0.257 N 
ATOM     12  C   UNL A   1      38.073  32.852  36.769  1.00  0.00     0.071 C 
ATOM     13  N   UNL A   1      37.092  32.674  35.939  1.00  0.00    -0.176 NA
ATOM     14  C   UNL A   1      39.446  32.905  36.155  1.00  0.00     0.091 C 
ATOM     15  C   UNL A   1      39.097  32.657  34.682  1.00  0.00     0.144 C 
BRANCH  12  16
ATOM     16  C   UNL A   1      37.865  32.974  38.225  1.00  0.00    -0.002 A 
ATOM     17  C   UNL A   1      37.512  33.320  40.971  1.00  0.00     0.067 A 
ATOM     18  C   UNL A   1      38.373  34.171  40.276  1.00  0.00     0.021 A 
ATOM     19  C   UNL A   1      36.839  32.289  40.302  1.00  0.00     0.021 A 
ATOM     20  C   UNL A   1      38.552  33.990  38.904  1.00  0.00     0.011 A 
ATOM     21  C   UNL A   1      37.012  32.116  38.924  1.00  0.00     0.011 A 
BRANCH  17  22
ATOM     22  S   UNL A   1      37.193  33.526  42.708  1.00  0.00     0.175 S 
ATOM     23  C   UNL A   1      38.446  34.601  43.346  1.00  0.00     0.163 C 
ATOM     24  O   UNL A   1      37.361  32.224  43.320  1.00  0.00    -0.224 OA
ATOM     25  O   UNL A   1      35.935  34.245  42.804  1.00  0.00    -0.224 OA
ENDBRANCH  17  22
ENDBRANCH  12  16
BRANCH  15  26
ATOM     26  C   UNL A   1      39.700  31.449  33.978  1.00  0.00    -0.023 A 
ATOM     27  C   UNL A   1      41.082  31.219  33.890  1.00  0.00     0.009 A 
ATOM     28  C   UNL A   1      38.825  30.442  33.514  1.00  0.00     0.009 A 
ATOM     29  C   UNL A   1      41.570  30.023  33.355  1.00  0.00     0.039 A 
ATOM     30  C   UNL A   1      39.313  29.239  33.006  1.00  0.00     0.039 A 
ATOM     31  C   UNL A   1      40.683  29.041  32.931  1.00  0.00     0.123 A 
ATOM     32  F   UNL A   1      41.157  27.880  32.460  1.00  0.00    -0.207 F 
ENDBRANCH  15  26
ENDBRANCH   6  11
ENDBRANCH   3   5
ENDBRANCH   2   3
ENDBRANCH   1   2
BRANCH   1  33
ATOM     33  C   UNL A   1      34.431  32.931  28.093  1.00  0.00     0.275 C 
BRANCH  33  34
ATOM     34  O   UNL A   1      34.273  31.721  28.855  1.00  0.00    -0.458 OA
BRANCH  34  35
ATOM     35  C   UNL A   1      34.399  30.571  28.155  1.00  0.00     0.338 C 
ATOM     36  O   UNL A   1      33.554  30.016  27.475  1.00  0.00    -0.246 OA
BRANCH  35  37
ATOM     37  C   UNL A   1      35.772  30.067  28.303  1.00  0.00     0.060 A 
ATOM     38  C   UNL A   1      36.193  29.625  29.554  1.00  0.00     0.016 A 
ATOM     39  C   UNL A   1      36.667  30.127  27.238  1.00  0.00     0.016 A 
ATOM     40  C   UNL A   1      37.527  29.288  29.770  1.00  0.00     0.010 A 
ATOM     41  C   UNL A   1      37.991  29.721  27.437  1.00  0.00     0.010 A 
ATOM     42  C   UNL A   1      38.442  29.319  28.710  1.00  0.00    -0.014 A 
BRANCH  42  43
ATOM     43  C   UNL A   1      39.871  28.967  28.926  1.00  0.00     0.031 A 
ATOM     44  C   UNL A   1      40.824  30.002  29.457  1.00  0.00     0.074 A 
ATOM     45  C   UNL A   1      40.322  27.729  28.637  1.00  0.00     0.049 A 
ATOM     46  N   UNL A   1      42.131  29.978  29.510  1.00  0.00    -0.248 NA
ATOM     47  C   UNL A   1      40.224  31.236  29.990  1.00  0.00     0.031 C 
ATOM     48  C   UNL A   1      39.496  26.610  28.179  1.00  0.00     0.029 A 
ATOM     49  N   UNL A   1      41.591  27.205  28.683  1.00  0.00    -0.354 N 
ATOM     50  C   UNL A   1      42.513  31.212  30.027  1.00  0.00     0.074 A 
ATOM     51  C   UNL A   1      41.299  31.960  30.272  1.00  0.00     0.031 C 
ATOM     52  C   UNL A   1      40.275  25.529  28.008  1.00  0.00     0.029 A 
ATOM     53  C   UNL A   1      41.663  25.899  28.258  1.00  0.00     0.049 A 
ATOM     54  H   UNL A   1      42.374  27.716  28.990  1.00  0.00     0.167 HD
ATOM     55  C   UNL A   1      43.764  31.676  30.265  1.00  0.00     0.037 A 
ATOM     56  C   UNL A   1      42.729  25.102  28.045  1.00  0.00     0.037 A 
ATOM     57  C   UNL A   1      44.961  30.904  30.060  1.00  0.00     0.049 A 
ATOM     58  C   UNL A   1      44.110  25.654  28.264  1.00  0.00     0.074 A 
ATOM     59  C   UNL A   1      46.277  31.276  30.279  1.00  0.00     0.029 A 
ATOM     60  N   UNL A   1      44.990  29.596  29.598  1.00  0.00    -0.354 N 
ATOM     61  N   UNL A   1      44.462  26.843  28.691  1.00  0.00    -0.248 NA
ATOM     62  C   UNL A   1      45.238  24.768  27.948  1.00  0.00     0.031 C 
ATOM     63  C   UNL A   1      47.102  30.205  29.918  1.00  0.00     0.029 A 
ATOM     64  C   UNL A   1      46.298  29.150  29.513  1.00  0.00     0.049 A 
ATOM     65  H   UNL A   1      44.196  29.062  29.366  1.00  0.00     0.167 HD
ATOM     66  C   UNL A   1      45.853  26.842  28.713  1.00  0.00     0.074 A 
ATOM     67  C   UNL A   1      46.276  25.531  28.264  1.00  0.00     0.031 C 
ATOM     68  C   UNL A   1      46.700  27.836  29.075  1.00  0.00     0.037 A 
BRANCH  55  69
ATOM     69  C   UNL A   1      43.898  33.100  30.732  1.00  0.00     0.058 A 
ATOM     70  C   UNL A   1      44.011  33.435  32.090  1.00  0.00     0.135 A 
ATOM     71  C   UNL A   1      43.924  34.149  29.796  1.00  0.00     0.135 A 
ATOM     72  F   UNL A   1      43.978  32.475  33.027  1.00  0.00    -0.206 F 
ATOM     73  C   UNL A   1      44.103  34.760  32.507  1.00  0.00     0.059 A 
ATOM     74  C   UNL A   1      44.042  35.479  30.189  1.00  0.00     0.059 A 
ATOM     75  F   UNL A   1      43.824  33.887  28.483  1.00  0.00    -0.206 F 
ATOM     76  C   UNL A   1      44.110  35.776  31.549  1.00  0.00     0.060 A 
BRANCH  76  77
ATOM     77  S   UNL A   1      44.203  37.492  32.103  1.00  0.00     0.124 S 
ATOM     78  O   UNL A   1      43.299  37.478  33.248  1.00  0.00    -0.237 OA
ATOM     79  O   UNL A   1      45.619  37.647  32.417  1.00  0.00    -0.237 OA
ATOM     80  O   UNL A   1      43.735  38.249  30.945  1.00  0.00    -0.744 OA
ENDBRANCH  76  77
ENDBRANCH  55  69
BRANCH  56  81
ATOM     81  C   UNL A   1      42.527  23.708  27.566  1.00  0.00     0.058 A 
ATOM     82  C   UNL A   1      42.486  23.418  26.196  1.00  0.00     0.135 A 
ATOM     83  C   UNL A   1      42.402  22.638  28.466  1.00  0.00     0.135 A 
ATOM     84  F   UNL A   1      42.590  24.409  25.297  1.00  0.00    -0.206 F 
ATOM     85  C   UNL A   1      42.329  22.116  25.731  1.00  0.00     0.059 A 
ATOM     86  C   UNL A   1      42.269  21.324  28.026  1.00  0.00     0.059 A 
ATOM     87  F   UNL A   1      42.442  22.862  29.788  1.00  0.00    -0.206 F 
ATOM     88  C   UNL A   1      42.228  21.074  26.655  1.00  0.00     0.060 A 
BRANCH  88  89
ATOM     89  S   UNL A   1      42.096  19.380  26.044  1.00  0.00     0.124 S 
ATOM     90  O   UNL A   1      42.583  18.617  27.187  1.00  0.00    -0.237 OA
ATOM     91  O   UNL A   1      40.668  19.265  25.761  1.00  0.00    -0.237 OA
ATOM     92  O   UNL A   1      42.961  19.380  24.869  1.00  0.00    -0.744 OA
ENDBRANCH  88  89
ENDBRANCH  56  81
BRANCH  68  93
ATOM     93  C   UNL A   1      48.171  27.536  29.041  1.00  0.00     0.058 A 
ATOM     94  C   UNL A   1      48.951  27.801  27.905  1.00  0.00     0.135 A 
ATOM     95  C   UNL A   1      48.818  27.039  30.183  1.00  0.00     0.135 A 
ATOM     96  F   UNL A   1      48.376  28.267  26.785  1.00  0.00    -0.206 F 
ATOM     97  C   UNL A   1      50.324  27.576  27.901  1.00  0.00     0.059 A 
ATOM     98  C   UNL A   1      50.193  26.827  30.208  1.00  0.00     0.059 A 
ATOM     99  F   UNL A   1      48.117  26.775  31.297  1.00  0.00    -0.206 F 
ATOM    100  C   UNL A   1      50.936  27.093  29.059  1.00  0.00     0.060 A 
BRANCH 100 101
ATOM    101  S   UNL A   1      52.727  26.858  29.058  1.00  0.00     0.124 S 
ATOM    102  O   UNL A   1      52.928  26.131  30.308  1.00  0.00    -0.237 OA
ATOM    103  O   UNL A   1      52.943  26.090  27.836  1.00  0.00    -0.237 OA
ATOM    104  O   UNL A   1      53.247  28.221  29.035  1.00  0.00    -0.744 OA
ENDBRANCH 100 101
ENDBRANCH  68  93
ENDBRANCH  42  43
ENDBRANCH  35  37
ENDBRANCH  34  35
ENDBRANCH  33  34
ENDBRANCH   1  33
TORSDOF 18
ENDMDL
MODEL 3
REMARK VINA RESULT:     -12.2      6.657     11.838
REMARK SMILES CS(=O)(=O)c1ccc(C2=NN(c3ccc(C(=O)OCCOC(=O)c4ccc(-c5c6nc(c(-c7c(F)cc(S(=O)(=O)[O-])cc7F)c7ccc([nH]7)c(-c7c(F)cc(S(=O)(=O)[O-])cc7F)c7nc(c(-c8c(F)cc(S(=O)(=O)[O-])cc8F)c8ccc5[nH]8)C=C7)C=C6)cc4)cc3)[C@H](c3ccc(F)cc3)C2)cc1
REMARK SMILES IDX 19 1 18 2 16 3 17 4 15 5 12 6 13 7 91 8 14 9 90 10 11 11
REMARK SMILES IDX 9 12 10 13 100 14 92 15 8 16 5 17 6 18 102 19 7 20 101 21
REMARK SMILES IDX 2 22 1 23 3 24 4 25 93 26 94 27 99 28 95 29 98 30 96 31
REMARK SMILES IDX 97 32 20 33 21 34 22 35 23 36 24 37 25 38 89 39 26 40 88 41
REMARK SMILES IDX 27 42 28 43 29 44 82 45 30 46 87 47 81 48 83 49 31 50 86 51
REMARK SMILES IDX 80 52 79 53 32 55 66 56 45 57 65 58 46 59 49 60 64 61 84 62
REMARK SMILES IDX 47 63 48 64 63 66 85 67 50 68 33 69 34 70 43 71 35 72 36 73
REMARK SMILES IDX 42 74 44 75 37 76 38 77 39 78 40 79 41 80 67 81 68 82 77 83
REMARK SMILES IDX 69 84 70 85 76 86 78 87 71 88 72 89 73 90 74 91 75 92 51 93
REMARK SMILES IDX 52 94 61 95 53 96 54 97 60 98 62 99 55 100 56 101 57 102
REMARK SMILES IDX 58 103 59 104
REMARK H PARENT 83 54 49 65
REMARK Flexibility Score: inf
ROOT
ATOM      1  C   UNL A   1      33.726  34.787  27.721  1.00  0.00     0.275 C 
ENDROOT
BRANCH   1   2
ATOM      2  O   UNL A   1      34.656  33.812  28.228  1.00  0.00    -0.458 OA
BRANCH   2   3
ATOM      3  C   UNL A   1      34.337  32.516  27.991  1.00  0.00     0.338 C 
ATOM      4  O   UNL A   1      33.250  32.093  27.630  1.00  0.00    -0.246 OA
BRANCH   3   5
ATOM      5  C   UNL A   1      35.518  31.635  28.168  1.00  0.00     0.060 A 
ATOM      6  C   UNL A   1      37.658  29.861  28.587  1.00  0.00     0.060 A 
ATOM      7  C   UNL A   1      36.415  29.379  28.165  1.00  0.00     0.029 A 
ATOM      8  C   UNL A   1      37.831  31.243  28.746  1.00  0.00     0.029 A 
ATOM      9  C   UNL A   1      35.345  30.255  27.991  1.00  0.00     0.018 A 
ATOM     10  C   UNL A   1      36.772  32.131  28.532  1.00  0.00     0.018 A 
BRANCH   6  11
ATOM     11  N   UNL A   1      38.674  28.985  28.978  1.00  0.00    -0.257 N 
ATOM     12  C   UNL A   1      39.785  27.234  28.467  1.00  0.00     0.071 C 
ATOM     13  N   UNL A   1      39.435  28.400  28.019  1.00  0.00    -0.176 NA
ATOM     14  C   UNL A   1      39.210  26.848  29.803  1.00  0.00     0.091 C 
ATOM     15  C   UNL A   1      38.419  28.118  30.138  1.00  0.00     0.144 C 
BRANCH  12  16
ATOM     16  C   UNL A   1      40.705  26.347  27.728  1.00  0.00    -0.002 A 
ATOM     17  C   UNL A   1      42.454  24.756  26.247  1.00  0.00     0.067 A 
ATOM     18  C   UNL A   1      41.767  25.794  25.615  1.00  0.00     0.021 A 
ATOM     19  C   UNL A   1      42.259  24.502  27.611  1.00  0.00     0.021 A 
ATOM     20  C   UNL A   1      40.888  26.583  26.359  1.00  0.00     0.011 A 
ATOM     21  C   UNL A   1      41.385  25.300  28.356  1.00  0.00     0.011 A 
BRANCH  17  22
ATOM     22  S   UNL A   1      43.631  23.746  25.376  1.00  0.00     0.175 S 
ATOM     23  C   UNL A   1      44.567  22.868  26.595  1.00  0.00     0.163 C 
ATOM     24  O   UNL A   1      44.526  24.651  24.686  1.00  0.00    -0.224 OA
ATOM     25  O   UNL A   1      42.854  22.756  24.651  1.00  0.00    -0.224 OA
ENDBRANCH  17  22
ENDBRANCH  12  16
BRANCH  15  26
ATOM     26  C   UNL A   1      38.767  28.887  31.406  1.00  0.00    -0.023 A 
ATOM     27  C   UNL A   1      37.801  29.411  32.279  1.00  0.00     0.009 A 
ATOM     28  C   UNL A   1      40.124  28.955  31.792  1.00  0.00     0.009 A 
ATOM     29  C   UNL A   1      38.182  29.983  33.497  1.00  0.00     0.039 A 
ATOM     30  C   UNL A   1      40.499  29.502  33.019  1.00  0.00     0.039 A 
ATOM     31  C   UNL A   1      39.523  30.012  33.860  1.00  0.00     0.123 A 
ATOM     32  F   UNL A   1      39.876  30.521  35.048  1.00  0.00    -0.207 F 
ENDBRANCH  15  26
ENDBRANCH   6  11
ENDBRANCH   3   5
ENDBRANCH   2   3
ENDBRANCH   1   2
BRANCH   1  33
ATOM     33  C   UNL A   1      33.328  35.777  28.814  1.00  0.00     0.275 C 
BRANCH  33  34
ATOM     34  O   UNL A   1      32.571  35.117  29.843  1.00  0.00    -0.458 OA
BRANCH  34  35
ATOM     35  C   UNL A   1      32.641  35.681  31.071  1.00  0.00     0.338 C 
ATOM     36  O   UNL A   1      31.868  36.479  31.569  1.00  0.00    -0.246 OA
BRANCH  35  37
ATOM     37  C   UNL A   1      33.817  35.152  31.776  1.00  0.00     0.060 A 
ATOM     38  C   UNL A   1      34.559  36.011  32.583  1.00  0.00     0.016 A 
ATOM     39  C   UNL A   1      34.243  33.843  31.561  1.00  0.00     0.016 A 
ATOM     40  C   UNL A   1      35.763  35.588  33.141  1.00  0.00     0.010 A 
ATOM     41  C   UNL A   1      35.416  33.397  32.179  1.00  0.00     0.010 A 
ATOM     42  C   UNL A   1      36.201  34.271  32.958  1.00  0.00    -0.014 A 
BRANCH  42  43
ATOM     43  C   UNL A   1      37.488  33.807  33.543  1.00  0.00     0.031 A 
ATOM     44  C   UNL A   1      37.600  33.599  35.029  1.00  0.00     0.074 A 
ATOM     45  C   UNL A   1      38.557  33.583  32.754  1.00  0.00     0.049 A 
ATOM     46  N   UNL A   1      38.669  33.417  35.762  1.00  0.00    -0.248 NA
ATOM     47  C   UNL A   1      36.342  33.609  35.793  1.00  0.00     0.031 C 
ATOM     48  C   UNL A   1      38.569  33.680  31.293  1.00  0.00     0.029 A 
ATOM     49  N   UNL A   1      39.846  33.229  33.072  1.00  0.00    -0.354 N 
ATOM     50  C   UNL A   1      38.219  33.349  37.077  1.00  0.00     0.074 A 
ATOM     51  C   UNL A   1      36.781  33.508  37.040  1.00  0.00     0.031 C 
ATOM     52  C   UNL A   1      39.796  33.373  30.841  1.00  0.00     0.029 A 
ATOM     53  C   UNL A   1      40.678  33.143  31.980  1.00  0.00     0.049 A 
ATOM     54  H   UNL A   1      40.146  33.055  33.993  1.00  0.00     0.167 HD
ATOM     55  C   UNL A   1      38.944  33.176  38.209  1.00  0.00     0.037 A 
ATOM     56  C   UNL A   1      42.010  32.950  31.903  1.00  0.00     0.037 A 
ATOM     57  C   UNL A   1      40.369  32.973  38.229  1.00  0.00     0.049 A 
ATOM     58  C   UNL A   1      42.803  32.816  33.173  1.00  0.00     0.074 A 
ATOM     59  C   UNL A   1      41.199  32.779  39.320  1.00  0.00     0.029 A 
ATOM     60  N   UNL A   1      41.177  32.924  37.102  1.00  0.00    -0.354 N 
ATOM     61  N   UNL A   1      42.377  32.817  34.413  1.00  0.00    -0.248 NA
ATOM     62  C   UNL A   1      44.259  32.680  33.036  1.00  0.00     0.031 C 
ATOM     63  C   UNL A   1      42.512  32.647  38.855  1.00  0.00     0.029 A 
ATOM     64  C   UNL A   1      42.495  32.717  37.470  1.00  0.00     0.049 A 
ATOM     65  H   UNL A   1      40.859  33.022  36.175  1.00  0.00     0.167 HD
ATOM     66  C   UNL A   1      43.510  32.664  35.204  1.00  0.00     0.074 A 
ATOM     67  C   UNL A   1      44.639  32.565  34.302  1.00  0.00     0.031 C 
ATOM     68  C   UNL A   1      43.605  32.608  36.555  1.00  0.00     0.037 A 
BRANCH  55  69
ATOM     69  C   UNL A   1      38.211  33.248  39.521  1.00  0.00     0.058 A 
ATOM     70  C   UNL A   1      38.261  34.382  40.346  1.00  0.00     0.135 A 
ATOM     71  C   UNL A   1      37.435  32.159  39.954  1.00  0.00     0.135 A 
ATOM     72  F   UNL A   1      38.998  35.445  39.987  1.00  0.00    -0.206 F 
ATOM     73  C   UNL A   1      37.601  34.420  41.571  1.00  0.00     0.059 A 
ATOM     74  C   UNL A   1      36.747  32.186  41.164  1.00  0.00     0.059 A 
ATOM     75  F   UNL A   1      37.347  31.049  39.205  1.00  0.00    -0.206 F 
ATOM     76  C   UNL A   1      36.853  33.314  41.975  1.00  0.00     0.060 A 
BRANCH  76  77
ATOM     77  S   UNL A   1      36.024  33.363  43.580  1.00  0.00     0.124 S 
ATOM     78  O   UNL A   1      36.158  34.773  43.932  1.00  0.00    -0.237 OA
ATOM     79  O   UNL A   1      34.674  32.918  43.252  1.00  0.00    -0.237 OA
ATOM     80  O   UNL A   1      36.806  32.437  44.395  1.00  0.00    -0.744 OA
ENDBRANCH  76  77
ENDBRANCH  55  69
BRANCH  56  81
ATOM     81  C   UNL A   1      42.677  32.908  30.574  1.00  0.00     0.058 A 
ATOM     82  C   UNL A   1      43.071  34.089  29.930  1.00  0.00     0.135 A 
ATOM     83  C   UNL A   1      42.959  31.690  29.937  1.00  0.00     0.135 A 
ATOM     84  F   UNL A   1      42.813  35.278  30.493  1.00  0.00    -0.206 F 
ATOM     85  C   UNL A   1      43.724  34.065  28.701  1.00  0.00     0.059 A 
ATOM     86  C   UNL A   1      43.633  31.639  28.720  1.00  0.00     0.059 A 
ATOM     87  F   UNL A   1      42.609  30.531  30.515  1.00  0.00    -0.206 F 
ATOM     88  C   UNL A   1      44.005  32.834  28.107  1.00  0.00     0.060 A 
BRANCH  88  89
ATOM     89  S   UNL A   1      44.915  32.810  26.547  1.00  0.00     0.124 S 
ATOM     90  O   UNL A   1      46.274  32.542  27.004  1.00  0.00    -0.237 OA
ATOM     91  O   UNL A   1      44.259  31.724  25.824  1.00  0.00    -0.237 OA
ATOM     92  O   UNL A   1      44.683  34.144  26.004  1.00  0.00    -0.744 OA
ENDBRANCH  88  89
ENDBRANCH  56  81
BRANCH  68  93
ATOM     93  C   UNL A   1      44.969  32.391  37.144  1.00  0.00     0.058 A 
ATOM     94  C   UNL A   1      45.794  33.466  37.509  1.00  0.00     0.135 A 
ATOM     95  C   UNL A   1      45.429  31.090  37.404  1.00  0.00     0.135 A 
ATOM     96  F   UNL A   1      45.404  34.728  37.269  1.00  0.00    -0.206 F 
ATOM     97  C   UNL A   1      47.032  33.258  38.107  1.00  0.00     0.059 A 
ATOM     98  C   UNL A   1      46.654  30.860  38.021  1.00  0.00     0.059 A 
ATOM     99  F   UNL A   1      44.674  30.029  37.079  1.00  0.00    -0.206 F 
ATOM    100  C   UNL A   1      47.451  31.950  38.364  1.00  0.00     0.060 A 
BRANCH 100 101
ATOM    101  S   UNL A   1      49.036  31.695  39.192  1.00  0.00     0.124 S 
ATOM    102  O   UNL A   1      49.979  32.065  38.142  1.00  0.00    -0.237 OA
ATOM    103  O   UNL A   1      48.952  32.615  40.322  1.00  0.00    -0.237 OA
ATOM    104  O   UNL A   1      49.011  30.279  39.543  1.00  0.00    -0.744 OA
ENDBRANCH 100 101
ENDBRANCH  68  93
ENDBRANCH  42  43
ENDBRANCH  35  37
ENDBRANCH  34  35
ENDBRANCH  33  34
ENDBRANCH   1  33
TORSDOF 18
ENDMDL
