MODEL 1
REMARK VINA RESULT:     -11.7      0.000      0.000
REMARK SMILES Nc1nc(N2CCCCC2)nc2c1[C@H](C(=O)OCCOC(=O)c1ccc(-c3c4nc(c(-c5c(F)cc(S(=O)(=O)[O-])cc5F)c5ccc([nH]5)c(-c5c(F)cc(S(=O)(=O)[O-])cc5F)c5nc(c(-c6c(F)cc(S(=O)(=O)[O-])cc6F)c6ccc3[nH]6)C=C5)C=C4)cc1)CC(=O)N2
REMARK SMILES IDX 19 1 18 2 17 3 15 4 16 5 14 6 2 7 3 8 13 9 4 10 12 11 11 12
REMARK SMILES IDX 92 13 89 14 90 15 91 17 1 18 5 21 6 22 10 23 7 24 9 25 8 26
REMARK SMILES IDX 20 27 21 28 22 29 23 30 24 31 88 32 25 33 87 34 26 35 27 36
REMARK SMILES IDX 28 37 81 38 29 39 86 40 80 41 82 42 30 43 85 44 79 45 78 46
REMARK SMILES IDX 31 48 65 49 44 50 64 51 45 52 48 53 63 54 83 55 46 56 47 57
REMARK SMILES IDX 62 59 84 60 49 61 32 62 33 63 42 64 34 65 35 66 41 67 43 68
REMARK SMILES IDX 36 69 37 70 38 71 39 72 40 73 66 74 67 75 76 76 68 77 69 78
REMARK SMILES IDX 75 79 77 80 70 81 71 82 72 83 73 84 74 85 50 86 51 87 60 88
REMARK SMILES IDX 52 89 53 90 59 91 61 92 54 93 55 94 56 95 57 96 58 97
REMARK H PARENT 92 16 1 19 1 20 82 47 48 58
REMARK Flexibility Score: inf
ROOT
ATOM      1  C   UNL A   1      33.353  28.243  26.372  1.00  0.00     0.275 C 
ENDROOT
BRANCH   1   2
ATOM      2  C   UNL A   1      32.237  27.207  26.420  1.00  0.00     0.274 C 
BRANCH   2   3
ATOM      3  O   UNL A   1      32.506  26.140  25.487  1.00  0.00    -0.462 OA
BRANCH   3   4
ATOM      4  C   UNL A   1      32.639  24.882  25.984  1.00  0.00     0.314 C 
ATOM      5  O   UNL A   1      31.832  24.327  26.719  1.00  0.00    -0.252 OA
BRANCH   4   6
ATOM      6  C   UNL A   1      33.910  24.202  25.500  1.00  0.00     0.146 C 
ATOM      7  C   UNL A   1      33.905  21.825  26.402  1.00  0.00     0.135 A 
ATOM      8  N   UNL A   1      33.805  20.507  26.216  1.00  0.00    -0.196 NA
ATOM      9  C   UNL A   1      33.756  22.719  25.371  1.00  0.00     0.052 A 
ATOM     10  C   UNL A   1      33.450  20.050  25.006  1.00  0.00     0.229 A 
ATOM     11  C   UNL A   1      33.422  22.157  24.158  1.00  0.00     0.144 A 
ATOM     12  N   UNL A   1      33.220  20.850  23.959  1.00  0.00    -0.195 NA
ATOM     13  N   UNL A   1      33.322  22.977  23.039  1.00  0.00    -0.310 N 
ATOM     14  C   UNL A   1      34.441  24.815  24.209  1.00  0.00     0.120 C 
ATOM     15  C   UNL A   1      33.729  24.278  22.987  1.00  0.00     0.226 C 
ATOM     16  H   UNL A   1      32.926  22.590  22.224  1.00  0.00     0.171 HD
ATOM     17  O   UNL A   1      33.617  24.949  21.963  1.00  0.00    -0.275 OA
BRANCH   7  18
ATOM     18  N   UNL A   1      34.220  22.225  27.687  1.00  0.00    -0.383 N 
ATOM     19  H   UNL A   1      33.701  21.884  28.451  1.00  0.00     0.158 HD
ATOM     20  H   UNL A   1      34.965  22.850  27.839  1.00  0.00     0.158 HD
ENDBRANCH   7  18
BRANCH  10  21
ATOM     21  N   UNL A   1      33.430  18.680  24.842  1.00  0.00    -0.341 N 
ATOM     22  C   UNL A   1      34.632  18.047  24.323  1.00  0.00     0.119 C 
ATOM     23  C   UNL A   1      32.752  17.981  25.926  1.00  0.00     0.119 C 
ATOM     24  C   UNL A   1      34.265  16.645  23.825  1.00  0.00     0.022 C 
ATOM     25  C   UNL A   1      32.374  16.571  25.474  1.00  0.00     0.022 C 
ATOM     26  C   UNL A   1      33.579  15.821  24.913  1.00  0.00     0.004 C 
ENDBRANCH  10  21
ENDBRANCH   4   6
ENDBRANCH   3   4
ENDBRANCH   2   3
ENDBRANCH   1   2
BRANCH   1  27
ATOM     27  O   UNL A   1      33.626  28.672  27.715  1.00  0.00    -0.458 OA
BRANCH  27  28
ATOM     28  C   UNL A   1      34.132  29.914  27.859  1.00  0.00     0.338 C 
ATOM     29  O   UNL A   1      33.537  30.979  27.746  1.00  0.00    -0.246 OA
BRANCH  28  30
ATOM     30  C   UNL A   1      35.559  29.801  28.193  1.00  0.00     0.060 A 
ATOM     31  C   UNL A   1      36.512  30.051  27.207  1.00  0.00     0.016 A 
ATOM     32  C   UNL A   1      35.952  29.371  29.458  1.00  0.00     0.016 A 
ATOM     33  C   UNL A   1      37.856  29.785  27.455  1.00  0.00     0.010 A 
ATOM     34  C   UNL A   1      37.313  29.198  29.733  1.00  0.00     0.010 A 
ATOM     35  C   UNL A   1      38.278  29.359  28.722  1.00  0.00    -0.014 A 
BRANCH  35  36
ATOM     36  C   UNL A   1      39.712  29.026  28.951  1.00  0.00     0.031 A 
ATOM     37  C   UNL A   1      40.641  30.042  29.562  1.00  0.00     0.074 A 
ATOM     38  C   UNL A   1      40.182  27.794  28.666  1.00  0.00     0.049 A 
ATOM     39  N   UNL A   1      41.924  29.947  29.810  1.00  0.00    -0.248 NA
ATOM     40  C   UNL A   1      40.055  31.337  29.941  1.00  0.00     0.031 C 
ATOM     41  C   UNL A   1      39.396  26.697  28.101  1.00  0.00     0.029 A 
ATOM     42  N   UNL A   1      41.437  27.257  28.821  1.00  0.00    -0.354 N 
ATOM     43  C   UNL A   1      42.286  31.155  30.394  1.00  0.00     0.074 A 
ATOM     44  C   UNL A   1      41.112  31.996  30.390  1.00  0.00     0.031 C 
ATOM     45  C   UNL A   1      40.178  25.612  27.981  1.00  0.00     0.029 A 
ATOM     46  C   UNL A   1      41.536  25.954  28.397  1.00  0.00     0.049 A 
ATOM     47  H   UNL A   1      42.194  27.759  29.201  1.00  0.00     0.167 HD
ATOM     48  C   UNL A   1      43.475  31.524  30.924  1.00  0.00     0.037 A 
ATOM     49  C   UNL A   1      42.601  25.133  28.313  1.00  0.00     0.037 A 
ATOM     50  C   UNL A   1      44.655  30.707  30.929  1.00  0.00     0.049 A 
ATOM     51  C   UNL A   1      43.954  25.623  28.740  1.00  0.00     0.074 A 
ATOM     52  C   UNL A   1      45.906  31.001  31.444  1.00  0.00     0.029 A 
ATOM     53  N   UNL A   1      44.735  29.438  30.380  1.00  0.00    -0.354 N 
ATOM     54  N   UNL A   1      44.277  26.768  29.293  1.00  0.00    -0.248 NA
ATOM     55  C   UNL A   1      45.095  24.725  28.507  1.00  0.00     0.031 C 
ATOM     56  C   UNL A   1      46.755  29.923  31.168  1.00  0.00     0.029 A 
ATOM     57  C   UNL A   1      46.024  28.949  30.505  1.00  0.00     0.049 A 
ATOM     58  H   UNL A   1      43.985  28.955  29.963  1.00  0.00     0.167 HD
ATOM     59  C   UNL A   1      45.654  26.728  29.475  1.00  0.00     0.074 A 
ATOM     60  C   UNL A   1      46.104  25.440  28.986  1.00  0.00     0.031 C 
ATOM     61  C   UNL A   1      46.469  27.676  29.998  1.00  0.00     0.037 A 
BRANCH  48  62
ATOM     62  C   UNL A   1      43.547  32.881  31.558  1.00  0.00     0.058 A 
ATOM     63  C   UNL A   1      43.929  34.008  30.814  1.00  0.00     0.135 A 
ATOM     64  C   UNL A   1      43.223  33.061  32.911  1.00  0.00     0.135 A 
ATOM     65  F   UNL A   1      44.267  33.881  29.521  1.00  0.00    -0.206 F 
ATOM     66  C   UNL A   1      44.005  35.268  31.395  1.00  0.00     0.059 A 
ATOM     67  C   UNL A   1      43.282  34.315  33.511  1.00  0.00     0.059 A 
ATOM     68  F   UNL A   1      42.863  32.011  33.665  1.00  0.00    -0.206 F 
ATOM     69  C   UNL A   1      43.685  35.411  32.747  1.00  0.00     0.060 A 
BRANCH  69  70
ATOM     70  S   UNL A   1      43.809  37.051  33.491  1.00  0.00     0.124 S 
ATOM     71  O   UNL A   1      43.795  37.907  32.309  1.00  0.00    -0.237 OA
ATOM     72  O   UNL A   1      42.615  37.107  34.327  1.00  0.00    -0.237 OA
ATOM     73  O   UNL A   1      45.076  37.001  34.214  1.00  0.00    -0.744 OA
ENDBRANCH  69  70
ENDBRANCH  48  62
BRANCH  49  74
ATOM     74  C   UNL A   1      42.425  23.771  27.743  1.00  0.00     0.058 A 
ATOM     75  C   UNL A   1      42.395  23.561  26.358  1.00  0.00     0.135 A 
ATOM     76  C   UNL A   1      42.338  22.648  28.581  1.00  0.00     0.135 A 
ATOM     77  F   UNL A   1      42.459  24.605  25.519  1.00  0.00    -0.206 F 
ATOM     78  C   UNL A   1      42.301  22.280  25.822  1.00  0.00     0.059 A 
ATOM     79  C   UNL A   1      42.266  21.358  28.069  1.00  0.00     0.059 A 
ATOM     80  F   UNL A   1      42.367  22.800  29.914  1.00  0.00    -0.206 F 
ATOM     81  C   UNL A   1      42.248  21.184  26.686  1.00  0.00     0.060 A 
BRANCH  81  82
ATOM     82  S   UNL A   1      42.227  19.520  25.984  1.00  0.00     0.124 S 
ATOM     83  O   UNL A   1      42.706  18.721  27.106  1.00  0.00    -0.237 OA
ATOM     84  O   UNL A   1      40.821  19.351  25.634  1.00  0.00    -0.237 OA
ATOM     85  O   UNL A   1      43.138  19.626  24.847  1.00  0.00    -0.744 OA
ENDBRANCH  81  82
ENDBRANCH  49  74
BRANCH  61  86
ATOM     86  C   UNL A   1      47.938  27.378  30.057  1.00  0.00     0.058 A 
ATOM     87  C   UNL A   1      48.787  27.717  28.993  1.00  0.00     0.135 A 
ATOM     88  C   UNL A   1      48.516  26.825  31.210  1.00  0.00     0.135 A 
ATOM     89  F   UNL A   1      48.281  28.241  27.864  1.00  0.00    -0.206 F 
ATOM     90  C   UNL A   1      50.161  27.515  29.068  1.00  0.00     0.059 A 
ATOM     91  C   UNL A   1      49.889  26.632  31.315  1.00  0.00     0.059 A 
ATOM     92  F   UNL A   1      47.746  26.492  32.258  1.00  0.00    -0.206 F 
ATOM     93  C   UNL A   1      50.703  26.976  30.237  1.00  0.00     0.060 A 
BRANCH  93  94
ATOM     94  S   UNL A   1      52.495  26.774  30.345  1.00  0.00     0.124 S 
ATOM     95  O   UNL A   1      52.895  28.032  30.970  1.00  0.00    -0.237 OA
ATOM     96  O   UNL A   1      52.627  25.582  31.178  1.00  0.00    -0.237 OA
ATOM     97  O   UNL A   1      52.902  26.608  28.953  1.00  0.00    -0.744 OA
ENDBRANCH  93  94
ENDBRANCH  61  86
ENDBRANCH  35  36
ENDBRANCH  28  30
ENDBRANCH  27  28
ENDBRANCH   1  27
TORSDOF 16
ENDMDL
MODEL 2
REMARK VINA RESULT:     -11.7      4.374      7.831
REMARK SMILES Nc1nc(N2CCCCC2)nc2c1[C@H](C(=O)OCCOC(=O)c1ccc(-c3c4nc(c(-c5c(F)cc(S(=O)(=O)[O-])cc5F)c5ccc([nH]5)c(-c5c(F)cc(S(=O)(=O)[O-])cc5F)c5nc(c(-c6c(F)cc(S(=O)(=O)[O-])cc6F)c6ccc3[nH]6)C=C5)C=C4)cc1)CC(=O)N2
REMARK SMILES IDX 19 1 18 2 17 3 15 4 16 5 14 6 2 7 3 8 13 9 4 10 12 11 11 12
REMARK SMILES IDX 92 13 89 14 90 15 91 17 1 18 5 21 6 22 10 23 7 24 9 25 8 26
REMARK SMILES IDX 20 27 21 28 22 29 23 30 24 31 88 32 25 33 87 34 26 35 27 36
REMARK SMILES IDX 28 37 81 38 29 39 86 40 80 41 82 42 30 43 85 44 79 45 78 46
REMARK SMILES IDX 31 48 65 49 44 50 64 51 45 52 48 53 63 54 83 55 46 56 47 57
REMARK SMILES IDX 62 59 84 60 49 61 32 62 33 63 42 64 34 65 35 66 41 67 43 68
REMARK SMILES IDX 36 69 37 70 38 71 39 72 40 73 66 74 67 75 76 76 68 77 69 78
REMARK SMILES IDX 75 79 77 80 70 81 71 82 72 83 73 84 74 85 50 86 51 87 60 88
REMARK SMILES IDX 52 89 53 90 59 91 61 92 54 93 55 94 56 95 57 96 58 97
REMARK H PARENT 92 16 1 19 1 20 82 47 48 58
REMARK Flexibility Score: inf
ROOT
ATOM      1  C   UNL A   1      33.971  32.309  28.295  1.00  0.00     0.275 C 
ENDROOT
BRANCH   1   2
ATOM      2  C   UNL A   1      34.841  33.537  28.049  1.00  0.00     0.274 C 
BRANCH   2   3
ATOM      3  O   UNL A   1      34.906  34.348  29.240  1.00  0.00    -0.462 OA
BRANCH   3   4
ATOM      4  C   UNL A   1      33.821  35.105  29.552  1.00  0.00     0.314 C 
ATOM      5  O   UNL A   1      33.269  35.890  28.791  1.00  0.00    -0.252 OA
BRANCH   4   6
ATOM      6  C   UNL A   1      33.329  34.852  30.968  1.00  0.00     0.146 C 
ATOM      7  C   UNL A   1      34.967  33.256  32.079  1.00  0.00     0.135 A 
ATOM      8  N   UNL A   1      35.926  33.004  32.973  1.00  0.00    -0.196 NA
ATOM      9  C   UNL A   1      34.441  34.513  31.911  1.00  0.00     0.052 A 
ATOM     10  C   UNL A   1      36.459  34.027  33.656  1.00  0.00     0.229 A 
ATOM     11  C   UNL A   1      35.029  35.496  32.676  1.00  0.00     0.144 A 
ATOM     12  N   UNL A   1      36.055  35.294  33.510  1.00  0.00    -0.195 NA
ATOM     13  N   UNL A   1      34.514  36.787  32.627  1.00  0.00    -0.310 N 
ATOM     14  C   UNL A   1      32.484  36.002  31.504  1.00  0.00     0.120 C 
ATOM     15  C   UNL A   1      33.334  37.134  32.038  1.00  0.00     0.226 C 
ATOM     16  H   UNL A   1      35.042  37.505  33.048  1.00  0.00     0.171 HD
ATOM     17  O   UNL A   1      32.931  38.295  32.034  1.00  0.00    -0.275 OA
BRANCH   7  18
ATOM     18  N   UNL A   1      34.504  32.160  31.374  1.00  0.00    -0.383 N 
ATOM     19  H   UNL A   1      35.067  31.747  30.680  1.00  0.00     0.158 HD
ATOM     20  H   UNL A   1      33.612  31.792  31.568  1.00  0.00     0.158 HD
ENDBRANCH   7  18
BRANCH  10  21
ATOM     21  N   UNL A   1      37.394  33.711  34.620  1.00  0.00    -0.341 N 
ATOM     22  C   UNL A   1      37.591  32.304  34.928  1.00  0.00     0.119 C 
ATOM     23  C   UNL A   1      38.599  34.526  34.541  1.00  0.00     0.119 C 
ATOM     24  C   UNL A   1      38.321  32.199  36.271  1.00  0.00     0.022 C 
ATOM     25  C   UNL A   1      39.364  34.446  35.861  1.00  0.00     0.022 C 
ATOM     26  C   UNL A   1      39.623  32.998  36.270  1.00  0.00     0.004 C 
ENDBRANCH  10  21
ENDBRANCH   4   6
ENDBRANCH   3   4
ENDBRANCH   2   3
ENDBRANCH   1   2
BRANCH   1  27
ATOM     27  O   UNL A   1      34.223  31.363  27.245  1.00  0.00    -0.458 OA
BRANCH  27  28
ATOM     28  C   UNL A   1      34.412  30.082  27.622  1.00  0.00     0.338 C 
ATOM     29  O   UNL A   1      33.596  29.168  27.591  1.00  0.00    -0.246 OA
BRANCH  28  30
ATOM     30  C   UNL A   1      35.796  29.932  28.091  1.00  0.00     0.060 A 
ATOM     31  C   UNL A   1      36.846  30.190  27.212  1.00  0.00     0.016 A 
ATOM     32  C   UNL A   1      36.055  29.458  29.376  1.00  0.00     0.016 A 
ATOM     33  C   UNL A   1      38.154  29.891  27.583  1.00  0.00     0.010 A 
ATOM     34  C   UNL A   1      37.379  29.251  29.778  1.00  0.00     0.010 A 
ATOM     35  C   UNL A   1      38.442  29.422  28.872  1.00  0.00    -0.014 A 
BRANCH  35  36
ATOM     36  C   UNL A   1      39.840  29.055  29.231  1.00  0.00     0.031 A 
ATOM     37  C   UNL A   1      40.698  30.008  30.022  1.00  0.00     0.074 A 
ATOM     38  C   UNL A   1      40.336  27.844  28.902  1.00  0.00     0.049 A 
ATOM     39  N   UNL A   1      41.945  29.878  30.403  1.00  0.00    -0.248 NA
ATOM     40  C   UNL A   1      40.077  31.275  30.437  1.00  0.00     0.031 C 
ATOM     41  C   UNL A   1      39.615  26.805  28.167  1.00  0.00     0.029 A 
ATOM     42  N   UNL A   1      41.565  27.282  29.151  1.00  0.00    -0.354 N 
ATOM     43  C   UNL A   1      42.243  31.031  31.119  1.00  0.00     0.074 A 
ATOM     44  C   UNL A   1      41.080  31.884  31.053  1.00  0.00     0.031 C 
ATOM     45  C   UNL A   1      40.402  25.724  28.046  1.00  0.00     0.029 A 
ATOM     46  C   UNL A   1      41.706  26.016  28.637  1.00  0.00     0.049 A 
ATOM     47  H   UNL A   1      42.275  27.743  29.652  1.00  0.00     0.167 HD
ATOM     48  C   UNL A   1      43.367  31.343  31.806  1.00  0.00     0.037 A 
ATOM     49  C   UNL A   1      42.772  25.191  28.605  1.00  0.00     0.037 A 
ATOM     50  C   UNL A   1      44.537  30.514  31.875  1.00  0.00     0.049 A 
ATOM     51  C   UNL A   1      44.070  25.630  29.219  1.00  0.00     0.074 A 
ATOM     52  C   UNL A   1      45.723  30.751  32.548  1.00  0.00     0.029 A 
ATOM     53  N   UNL A   1      44.674  29.292  31.238  1.00  0.00    -0.354 N 
ATOM     54  N   UNL A   1      44.332  26.723  29.895  1.00  0.00    -0.248 NA
ATOM     55  C   UNL A   1      45.227  24.741  29.042  1.00  0.00     0.031 C 
ATOM     56  C   UNL A   1      46.594  29.689  32.282  1.00  0.00     0.029 A 
ATOM     57  C   UNL A   1      45.940  28.780  31.466  1.00  0.00     0.049 A 
ATOM     58  H   UNL A   1      43.974  28.853  30.702  1.00  0.00     0.167 HD
ATOM     59  C   UNL A   1      45.681  26.652  30.224  1.00  0.00     0.074 A 
ATOM     60  C   UNL A   1      46.179  25.403  29.686  1.00  0.00     0.031 C 
ATOM     61  C   UNL A   1      46.435  27.546  30.910  1.00  0.00     0.037 A 
BRANCH  48  62
ATOM     62  C   UNL A   1      43.371  32.644  32.551  1.00  0.00     0.058 A 
ATOM     63  C   UNL A   1      43.914  33.804  31.978  1.00  0.00     0.135 A 
ATOM     64  C   UNL A   1      42.822  32.737  33.838  1.00  0.00     0.135 A 
ATOM     65  F   UNL A   1      44.469  33.759  30.757  1.00  0.00    -0.206 F 
ATOM     66  C   UNL A   1      43.928  35.012  32.664  1.00  0.00     0.059 A 
ATOM     67  C   UNL A   1      42.816  33.939  34.540  1.00  0.00     0.059 A 
ATOM     68  F   UNL A   1      42.301  31.652  34.431  1.00  0.00    -0.206 F 
ATOM     69  C   UNL A   1      43.382  35.069  33.948  1.00  0.00     0.060 A 
BRANCH  69  70
ATOM     70  S   UNL A   1      43.428  36.641  34.834  1.00  0.00     0.124 S 
ATOM     71  O   UNL A   1      43.393  36.192  36.222  1.00  0.00    -0.237 OA
ATOM     72  O   UNL A   1      44.691  37.216  34.386  1.00  0.00    -0.237 OA
ATOM     73  O   UNL A   1      42.228  37.329  34.368  1.00  0.00    -0.744 OA
ENDBRANCH  69  70
ENDBRANCH  48  62
BRANCH  49  74
ATOM     74  C   UNL A   1      42.656  23.882  27.911  1.00  0.00     0.058 A 
ATOM     75  C   UNL A   1      42.793  23.782  26.521  1.00  0.00     0.135 A 
ATOM     76  C   UNL A   1      42.460  22.698  28.641  1.00  0.00     0.135 A 
ATOM     77  F   UNL A   1      42.966  24.887  25.781  1.00  0.00    -0.206 F 
ATOM     78  C   UNL A   1      42.757  22.549  25.876  1.00  0.00     0.059 A 
ATOM     79  C   UNL A   1      42.443  21.454  28.022  1.00  0.00     0.059 A 
ATOM     80  F   UNL A   1      42.329  22.744  29.975  1.00  0.00    -0.206 F 
ATOM     81  C   UNL A   1      42.591  21.389  26.637  1.00  0.00     0.060 A 
BRANCH  81  82
ATOM     82  S   UNL A   1      42.644  19.786  25.807  1.00  0.00     0.124 S 
ATOM     83  O   UNL A   1      43.614  20.035  24.747  1.00  0.00    -0.237 OA
ATOM     84  O   UNL A   1      43.082  18.898  26.879  1.00  0.00    -0.237 OA
ATOM     85  O   UNL A   1      41.264  19.591  25.369  1.00  0.00    -0.744 OA
ENDBRANCH  81  82
ENDBRANCH  49  74
BRANCH  61  86
ATOM     86  C   UNL A   1      47.887  27.227  31.107  1.00  0.00     0.058 A 
ATOM     87  C   UNL A   1      48.310  26.414  32.168  1.00  0.00     0.135 A 
ATOM     88  C   UNL A   1      48.853  27.667  30.189  1.00  0.00     0.135 A 
ATOM     89  F   UNL A   1      47.425  25.974  33.078  1.00  0.00    -0.206 F 
ATOM     90  C   UNL A   1      49.644  26.049  32.316  1.00  0.00     0.059 A 
ATOM     91  C   UNL A   1      50.189  27.300  30.306  1.00  0.00     0.059 A 
ATOM     92  F   UNL A   1      48.497  28.441  29.152  1.00  0.00    -0.206 F 
ATOM     93  C   UNL A   1      50.576  26.493  31.376  1.00  0.00     0.060 A 
BRANCH  93  94
ATOM     94  S   UNL A   1      52.294  25.964  31.545  1.00  0.00     0.124 S 
ATOM     95  O   UNL A   1      52.779  26.096  30.174  1.00  0.00    -0.237 OA
ATOM     96  O   UNL A   1      52.828  26.929  32.502  1.00  0.00    -0.237 OA
ATOM     97  O   UNL A   1      52.180  24.595  32.041  1.00  0.00    -0.744 OA
ENDBRANCH  93  94
ENDBRANCH  61  86
ENDBRANCH  35  36
ENDBRANCH  28  30
ENDBRANCH  27  28
ENDBRANCH   1  27
TORSDOF 16
ENDMDL
MODEL 3
REMARK VINA RESULT:     -11.5      4.241     10.835
REMARK SMILES Nc1nc(N2CCCCC2)nc2c1[C@H](C(=O)OCCOC(=O)c1ccc(-c3c4nc(c(-c5c(F)cc(S(=O)(=O)[O-])cc5F)c5ccc([nH]5)c(-c5c(F)cc(S(=O)(=O)[O-])cc5F)c5nc(c(-c6c(F)cc(S(=O)(=O)[O-])cc6F)c6ccc3[nH]6)C=C5)C=C4)cc1)CC(=O)N2
REMARK SMILES IDX 19 1 18 2 17 3 15 4 16 5 14 6 2 7 3 8 13 9 4 10 12 11 11 12
REMARK SMILES IDX 92 13 89 14 90 15 91 17 1 18 5 21 6 22 10 23 7 24 9 25 8 26
REMARK SMILES IDX 20 27 21 28 22 29 23 30 24 31 88 32 25 33 87 34 26 35 27 36
REMARK SMILES IDX 28 37 81 38 29 39 86 40 80 41 82 42 30 43 85 44 79 45 78 46
REMARK SMILES IDX 31 48 65 49 44 50 64 51 45 52 48 53 63 54 83 55 46 56 47 57
REMARK SMILES IDX 62 59 84 60 49 61 32 62 33 63 42 64 34 65 35 66 41 67 43 68
REMARK SMILES IDX 36 69 37 70 38 71 39 72 40 73 66 74 67 75 76 76 68 77 69 78
REMARK SMILES IDX 75 79 77 80 70 81 71 82 72 83 73 84 74 85 50 86 51 87 60 88
REMARK SMILES IDX 52 89 53 90 59 91 61 92 54 93 55 94 56 95 57 96 58 97
REMARK H PARENT 92 16 1 19 1 20 82 47 48 58
REMARK Flexibility Score: inf
ROOT
ATOM      1  C   UNL A   1      39.022  20.977  25.814  1.00  0.00     0.275 C 
ENDROOT
BRANCH   1   2
ATOM      2  C   UNL A   1      40.140  19.941  25.780  1.00  0.00     0.274 C 
BRANCH   2   3
ATOM      3  O   UNL A   1      41.264  20.395  26.563  1.00  0.00    -0.462 OA
BRANCH   3   4
ATOM      4  C   UNL A   1      42.440  19.727  26.429  1.00  0.00     0.314 C 
ATOM      5  O   UNL A   1      42.856  18.873  27.202  1.00  0.00    -0.252 OA
BRANCH   4   6
ATOM      6  C   UNL A   1      43.196  20.136  25.175  1.00  0.00     0.146 C 
ATOM      7  C   UNL A   1      43.602  22.643  25.302  1.00  0.00     0.135 A 
ATOM      8  N   UNL A   1      44.421  23.685  25.451  1.00  0.00    -0.196 NA
ATOM      9  C   UNL A   1      44.049  21.347  25.386  1.00  0.00     0.052 A 
ATOM     10  C   UNL A   1      45.699  23.461  25.791  1.00  0.00     0.229 A 
ATOM     11  C   UNL A   1      45.381  21.213  25.710  1.00  0.00     0.144 A 
ATOM     12  N   UNL A   1      46.207  22.235  25.961  1.00  0.00    -0.195 NA
ATOM     13  N   UNL A   1      45.941  19.940  25.747  1.00  0.00    -0.310 N 
ATOM     14  C   UNL A   1      44.007  18.988  24.585  1.00  0.00     0.120 C 
ATOM     15  C   UNL A   1      45.336  18.808  25.286  1.00  0.00     0.226 C 
ATOM     16  H   UNL A   1      46.842  19.849  26.136  1.00  0.00     0.171 HD
ATOM     17  O   UNL A   1      45.888  17.711  25.343  1.00  0.00    -0.275 OA
BRANCH   7  18
ATOM     18  N   UNL A   1      42.288  22.953  25.004  1.00  0.00    -0.383 N 
ATOM     19  H   UNL A   1      41.812  23.635  25.530  1.00  0.00     0.158 HD
ATOM     20  H   UNL A   1      41.829  22.492  24.265  1.00  0.00     0.158 HD
ENDBRANCH   7  18
BRANCH  10  21
ATOM     21  N   UNL A   1      46.525  24.563  25.864  1.00  0.00    -0.341 N 
ATOM     22  C   UNL A   1      46.095  25.771  25.178  1.00  0.00     0.119 C 
ATOM     23  C   UNL A   1      47.122  24.749  27.179  1.00  0.00     0.119 C 
ATOM     24  C   UNL A   1      47.306  26.697  25.022  1.00  0.00     0.022 C 
ATOM     25  C   UNL A   1      48.333  25.674  27.071  1.00  0.00     0.022 C 
ATOM     26  C   UNL A   1      47.979  26.979  26.364  1.00  0.00     0.004 C 
ENDBRANCH  10  21
ENDBRANCH   4   6
ENDBRANCH   3   4
ENDBRANCH   2   3
ENDBRANCH   1   2
BRANCH   1  27
ATOM     27  O   UNL A   1      39.607  22.258  26.091  1.00  0.00    -0.458 OA
BRANCH  27  28
ATOM     28  C   UNL A   1      38.774  23.320  26.058  1.00  0.00     0.338 C 
ATOM     29  O   UNL A   1      37.688  23.398  25.495  1.00  0.00    -0.246 OA
BRANCH  28  30
ATOM     30  C   UNL A   1      39.380  24.413  26.830  1.00  0.00     0.060 A 
ATOM     31  C   UNL A   1      39.121  24.509  28.196  1.00  0.00     0.016 A 
ATOM     32  C   UNL A   1      40.140  25.389  26.188  1.00  0.00     0.016 A 
ATOM     33  C   UNL A   1      39.545  25.628  28.908  1.00  0.00     0.010 A 
ATOM     34  C   UNL A   1      40.646  26.463  26.929  1.00  0.00     0.010 A 
ATOM     35  C   UNL A   1      40.317  26.619  28.287  1.00  0.00    -0.014 A 
BRANCH  35  36
ATOM     36  C   UNL A   1      40.713  27.835  29.051  1.00  0.00     0.031 A 
ATOM     37  C   UNL A   1      42.087  27.937  29.661  1.00  0.00     0.074 A 
ATOM     38  C   UNL A   1      39.868  28.881  29.158  1.00  0.00     0.049 A 
ATOM     39  N   UNL A   1      42.602  28.901  30.384  1.00  0.00    -0.248 NA
ATOM     40  C   UNL A   1      43.001  26.809  29.434  1.00  0.00     0.031 C 
ATOM     41  C   UNL A   1      38.519  28.942  28.594  1.00  0.00     0.029 A 
ATOM     42  N   UNL A   1      40.024  30.099  29.775  1.00  0.00    -0.354 N 
ATOM     43  C   UNL A   1      43.902  28.503  30.672  1.00  0.00     0.074 A 
ATOM     44  C   UNL A   1      44.073  27.180  30.119  1.00  0.00     0.031 C 
ATOM     45  C   UNL A   1      37.981  30.141  28.868  1.00  0.00     0.029 A 
ATOM     46  C   UNL A   1      38.919  30.910  29.682  1.00  0.00     0.049 A 
ATOM     47  H   UNL A   1      40.851  30.365  30.238  1.00  0.00     0.167 HD
ATOM     48  C   UNL A   1      44.884  29.187  31.305  1.00  0.00     0.037 A 
ATOM     49  C   UNL A   1      38.666  32.119  30.221  1.00  0.00     0.037 A 
ATOM     50  C   UNL A   1      44.731  30.497  31.870  1.00  0.00     0.049 A 
ATOM     51  C   UNL A   1      39.706  32.787  31.074  1.00  0.00     0.074 A 
ATOM     52  C   UNL A   1      45.673  31.267  32.531  1.00  0.00     0.029 A 
ATOM     53  N   UNL A   1      43.554  31.229  31.853  1.00  0.00    -0.354 N 
ATOM     54  N   UNL A   1      40.931  32.397  31.332  1.00  0.00    -0.248 NA
ATOM     55  C   UNL A   1      39.323  34.044  31.733  1.00  0.00     0.031 C 
ATOM     56  C   UNL A   1      45.052  32.449  32.952  1.00  0.00     0.029 A 
ATOM     57  C   UNL A   1      43.732  32.425  32.529  1.00  0.00     0.049 A 
ATOM     58  H   UNL A   1      42.716  30.941  31.424  1.00  0.00     0.167 HD
ATOM     59  C   UNL A   1      41.465  33.359  32.182  1.00  0.00     0.074 A 
ATOM     60  C   UNL A   1      40.436  34.358  32.384  1.00  0.00     0.031 C 
ATOM     61  C   UNL A   1      42.698  33.404  32.744  1.00  0.00     0.037 A 
BRANCH  48  62
ATOM     62  C   UNL A   1      46.223  28.521  31.405  1.00  0.00     0.058 A 
ATOM     63  C   UNL A   1      47.174  28.653  30.381  1.00  0.00     0.135 A 
ATOM     64  C   UNL A   1      46.565  27.757  32.530  1.00  0.00     0.135 A 
ATOM     65  F   UNL A   1      46.885  29.357  29.276  1.00  0.00    -0.206 F 
ATOM     66  C   UNL A   1      48.415  28.033  30.462  1.00  0.00     0.059 A 
ATOM     67  C   UNL A   1      47.806  27.137  32.637  1.00  0.00     0.059 A 
ATOM     68  F   UNL A   1      45.684  27.594  33.529  1.00  0.00    -0.206 F 
ATOM     69  C   UNL A   1      48.721  27.272  31.592  1.00  0.00     0.060 A 
BRANCH  69  70
ATOM     70  S   UNL A   1      50.330  26.457  31.672  1.00  0.00     0.124 S 
ATOM     71  O   UNL A   1      50.278  25.598  30.493  1.00  0.00    -0.237 OA
ATOM     72  O   UNL A   1      51.255  27.582  31.596  1.00  0.00    -0.237 OA
ATOM     73  O   UNL A   1      50.295  25.763  32.955  1.00  0.00    -0.744 OA
ENDBRANCH  69  70
ENDBRANCH  48  62
BRANCH  49  74
ATOM     74  C   UNL A   1      37.335  32.745  30.005  1.00  0.00     0.058 A 
ATOM     75  C   UNL A   1      36.255  32.468  30.853  1.00  0.00     0.135 A 
ATOM     76  C   UNL A   1      37.139  33.678  28.973  1.00  0.00     0.135 A 
ATOM     77  F   UNL A   1      36.391  31.572  31.842  1.00  0.00    -0.206 F 
ATOM     78  C   UNL A   1      35.028  33.106  30.697  1.00  0.00     0.059 A 
ATOM     79  C   UNL A   1      35.931  34.345  28.811  1.00  0.00     0.059 A 
ATOM     80  F   UNL A   1      38.146  33.980  28.140  1.00  0.00    -0.206 F 
ATOM     81  C   UNL A   1      34.879  34.051  29.679  1.00  0.00     0.060 A 
BRANCH  81  82
ATOM     82  S   UNL A   1      33.318  34.948  29.543  1.00  0.00     0.124 S 
ATOM     83  O   UNL A   1      32.793  34.833  30.899  1.00  0.00    -0.237 OA
ATOM     84  O   UNL A   1      33.760  36.279  29.141  1.00  0.00    -0.237 OA
ATOM     85  O   UNL A   1      32.592  34.203  28.518  1.00  0.00    -0.744 OA
ENDBRANCH  81  82
ENDBRANCH  49  74
BRANCH  61  86
ATOM     86  C   UNL A   1      43.009  34.558  33.650  1.00  0.00     0.058 A 
ATOM     87  C   UNL A   1      42.906  34.430  35.043  1.00  0.00     0.135 A 
ATOM     88  C   UNL A   1      43.488  35.771  33.133  1.00  0.00     0.135 A 
ATOM     89  F   UNL A   1      42.445  33.291  35.585  1.00  0.00    -0.206 F 
ATOM     90  C   UNL A   1      43.265  35.469  35.895  1.00  0.00     0.059 A 
ATOM     91  C   UNL A   1      43.871  36.817  33.967  1.00  0.00     0.059 A 
ATOM     92  F   UNL A   1      43.612  35.939  31.807  1.00  0.00    -0.206 F 
ATOM     93  C   UNL A   1      43.752  36.657  35.347  1.00  0.00     0.060 A 
BRANCH  93  94
ATOM     94  S   UNL A   1      44.271  37.977  36.466  1.00  0.00     0.124 S 
ATOM     95  O   UNL A   1      44.133  39.155  35.615  1.00  0.00    -0.237 OA
ATOM     96  O   UNL A   1      43.305  37.865  37.554  1.00  0.00    -0.237 OA
ATOM     97  O   UNL A   1      45.641  37.609  36.811  1.00  0.00    -0.744 OA
ENDBRANCH  93  94
ENDBRANCH  61  86
ENDBRANCH  35  36
ENDBRANCH  28  30
ENDBRANCH  27  28
ENDBRANCH   1  27
TORSDOF 16
ENDMDL
