MODEL 1
REMARK VINA RESULT:     -12.5      0.000      0.000
REMARK SMILES Cc1ccc2[nH]c3c(=O)n(CC(=O)OCCOC(=O)c4ccc(-c5c6nc(c(-c7c(F)cc(S(=O)(=O)[O-])cc7F)c7ccc([nH]7)c(-c7c(F)cc(S(=O)(=O)[O-])cc7F)c7nc(c(-c8c(F)cc(S(=O)(=O)[O-])cc8F)c8ccc5[nH]8)C=C7)C=C6)cc4)cnc3c2c1
REMARK SMILES IDX 16 1 15 2 14 3 12 4 13 5 11 6 10 7 1 8 2 9 3 10 90 11 4 12
REMARK SMILES IDX 89 13 5 14 88 15 6 16 7 17 87 18 8 20 86 21 9 22 17 23 18 24
REMARK SMILES IDX 19 25 20 26 21 27 85 28 22 29 84 30 23 31 24 32 25 33 78 34
REMARK SMILES IDX 26 35 83 36 77 37 79 38 27 39 82 40 76 41 75 42 28 44 62 45
REMARK SMILES IDX 41 46 61 47 42 48 45 49 60 50 80 51 43 52 44 53 59 55 81 56
REMARK SMILES IDX 46 57 29 58 30 59 39 60 31 61 32 62 38 63 40 64 33 65 34 66
REMARK SMILES IDX 35 67 36 68 37 69 63 70 64 71 73 72 65 73 66 74 72 75 74 76
REMARK SMILES IDX 67 77 68 78 69 79 70 80 71 81 47 82 48 83 57 84 49 85 50 86
REMARK SMILES IDX 56 87 58 88 51 89 52 90 53 91 54 92 55 93
REMARK H PARENT 6 19 79 43 45 54
REMARK Flexibility Score: inf
ROOT
ATOM      1  C   UNL A   1      45.334  22.603  25.664  1.00  0.00     0.275 C 
ENDROOT
BRANCH   1   2
ATOM      2  C   UNL A   1      45.619  21.348  24.810  1.00  0.00     0.274 C 
BRANCH   2   3
ATOM      3  O   UNL A   1      44.382  20.733  24.364  1.00  0.00    -0.461 OA
BRANCH   3   4
ATOM      4  C   UNL A   1      44.052  19.593  25.017  1.00  0.00     0.326 C 
ATOM      5  O   UNL A   1      44.432  18.490  24.627  1.00  0.00    -0.250 OA
BRANCH   4   6
ATOM      6  C   UNL A   1      43.129  19.826  26.289  1.00  0.00     0.249 C 
BRANCH   6   7
ATOM      7  N   UNL A   1      41.763  20.328  26.141  1.00  0.00    -0.286 N 
ATOM      8  C   UNL A   1      34.219  21.309  24.638  1.00  0.00     0.044 C 
ATOM      9  C   UNL A   1      35.550  21.831  25.078  1.00  0.00    -0.050 A 
ATOM     10  C   UNL A   1      35.724  23.197  25.334  1.00  0.00     0.005 A 
ATOM     11  C   UNL A   1      36.633  20.946  25.170  1.00  0.00     0.016 A 
ATOM     12  C   UNL A   1      36.965  23.718  25.700  1.00  0.00     0.027 A 
ATOM     13  C   UNL A   1      37.891  21.446  25.524  1.00  0.00     0.026 A 
ATOM     14  C   UNL A   1      38.027  22.817  25.791  1.00  0.00     0.048 A 
ATOM     15  C   UNL A   1      39.158  20.871  25.712  1.00  0.00     0.103 A 
ATOM     16  N   UNL A   1      39.337  23.033  26.152  1.00  0.00    -0.349 N 
ATOM     17  C   UNL A   1      39.988  21.837  26.165  1.00  0.00     0.132 A 
ATOM     18  N   UNL A   1      39.559  19.539  25.596  1.00  0.00    -0.236 NA
ATOM     19  H   UNL A   1      39.738  23.907  26.365  1.00  0.00     0.167 HD
ATOM     20  C   UNL A   1      41.282  21.547  26.648  1.00  0.00     0.278 A 
ATOM     21  C   UNL A   1      40.830  19.375  25.795  1.00  0.00     0.203 A 
ATOM     22  O   UNL A   1      41.742  22.281  27.508  1.00  0.00    -0.267 OA
ENDBRANCH   6   7
ENDBRANCH   4   6
ENDBRANCH   3   4
ENDBRANCH   2   3
ENDBRANCH   1   2
BRANCH   1  23
ATOM     23  O   UNL A   1      45.299  23.830  24.836  1.00  0.00    -0.458 OA
BRANCH  23  24
ATOM     24  C   UNL A   1      45.008  24.970  25.541  1.00  0.00     0.338 C 
ATOM     25  O   UNL A   1      45.756  25.929  25.399  1.00  0.00    -0.246 OA
BRANCH  24  26
ATOM     26  C   UNL A   1      43.575  25.048  26.234  1.00  0.00     0.060 A 
ATOM     27  C   UNL A   1      42.402  25.413  25.653  1.00  0.00     0.016 A 
ATOM     28  C   UNL A   1      43.511  25.611  27.519  1.00  0.00     0.016 A 
ATOM     29  C   UNL A   1      41.541  26.525  26.359  1.00  0.00     0.010 A 
ATOM     30  C   UNL A   1      42.492  26.281  28.281  1.00  0.00     0.010 A 
ATOM     31  C   UNL A   1      41.969  27.348  27.594  1.00  0.00    -0.014 A 
BRANCH  31  32
ATOM     32  C   UNL A   1      41.298  28.662  28.667  1.00  0.00     0.031 A 
ATOM     33  C   UNL A   1      42.713  29.645  28.032  1.00  0.00     0.074 A 
ATOM     34  C   UNL A   1      40.006  28.925  29.723  1.00  0.00     0.049 A 
ATOM     35  N   UNL A   1      43.961  29.515  28.451  1.00  0.00    -0.248 NA
ATOM     36  C   UNL A   1      43.080  30.208  26.515  1.00  0.00     0.031 C 
ATOM     37  C   UNL A   1      38.491  28.277  30.316  1.00  0.00     0.029 A 
ATOM     38  N   UNL A   1      39.639  29.955  30.767  1.00  0.00    -0.354 N 
ATOM     39  C   UNL A   1      44.607  30.676  27.964  1.00  0.00     0.074 A 
ATOM     40  C   UNL A   1      44.227  30.906  26.641  1.00  0.00     0.031 C 
ATOM     41  C   UNL A   1      37.483  29.007  31.002  1.00  0.00     0.029 A 
ATOM     42  C   UNL A   1      38.209  30.322  31.186  1.00  0.00     0.049 A 
ATOM     43  H   UNL A   1      40.378  30.429  31.214  1.00  0.00     0.167 HD
ATOM     44  C   UNL A   1      44.843  31.686  28.819  1.00  0.00     0.037 A 
ATOM     45  C   UNL A   1      37.725  31.577  31.724  1.00  0.00     0.037 A 
ATOM     46  C   UNL A   1      44.641  31.151  30.124  1.00  0.00     0.049 A 
ATOM     47  C   UNL A   1      39.016  32.305  31.905  1.00  0.00     0.074 A 
ATOM     48  C   UNL A   1      45.184  30.063  30.774  1.00  0.00     0.029 A 
ATOM     49  N   UNL A   1      43.352  31.272  30.533  1.00  0.00    -0.354 N 
ATOM     50  N   UNL A   1      39.904  31.903  32.785  1.00  0.00    -0.248 NA
ATOM     51  C   UNL A   1      39.487  32.803  30.607  1.00  0.00     0.031 C 
ATOM     52  C   UNL A   1      44.153  29.514  31.573  1.00  0.00     0.029 A 
ATOM     53  C   UNL A   1      43.052  30.355  31.486  1.00  0.00     0.049 A 
ATOM     54  H   UNL A   1      42.719  31.938  30.183  1.00  0.00     0.167 HD
ATOM     55  C   UNL A   1      41.025  31.604  32.018  1.00  0.00     0.074 A 
ATOM     56  C   UNL A   1      40.715  32.257  30.653  1.00  0.00     0.031 C 
ATOM     57  C   UNL A   1      41.840  30.482  32.243  1.00  0.00     0.037 A 
BRANCH  44  58
ATOM     58  C   UNL A   1      44.775  33.147  28.510  1.00  0.00     0.058 A 
ATOM     59  C   UNL A   1      46.036  33.738  28.457  1.00  0.00     0.135 A 
ATOM     60  C   UNL A   1      43.652  34.016  28.410  1.00  0.00     0.135 A 
ATOM     61  F   UNL A   1      47.138  32.977  28.541  1.00  0.00    -0.206 F 
ATOM     62  C   UNL A   1      46.204  35.095  28.318  1.00  0.00     0.059 A 
ATOM     63  C   UNL A   1      43.800  35.393  28.231  1.00  0.00     0.059 A 
ATOM     64  F   UNL A   1      42.385  33.579  28.507  1.00  0.00    -0.206 F 
ATOM     65  C   UNL A   1      45.088  35.916  28.200  1.00  0.00     0.060 A 
BRANCH  65  66
ATOM     66  S   UNL A   1      45.398  37.673  27.996  1.00  0.00     0.124 S 
ATOM     67  O   UNL A   1      44.234  38.089  27.223  1.00  0.00    -0.237 OA
ATOM     68  O   UNL A   1      45.434  38.121  29.386  1.00  0.00    -0.237 OA
ATOM     69  O   UNL A   1      46.676  37.715  27.294  1.00  0.00    -0.744 OA
ENDBRANCH  65  66
ENDBRANCH  44  58
BRANCH  45  70
ATOM     70  C   UNL A   1      36.384  32.403  31.368  1.00  0.00     0.058 A 
ATOM     71  C   UNL A   1      35.586  33.358  32.101  1.00  0.00     0.135 A 
ATOM     72  C   UNL A   1      36.058  32.395  30.001  1.00  0.00     0.135 A 
ATOM     73  F   UNL A   1      35.675  33.470  33.439  1.00  0.00    -0.206 F 
ATOM     74  C   UNL A   1      34.626  34.241  31.480  1.00  0.00     0.059 A 
ATOM     75  C   UNL A   1      35.140  33.258  29.367  1.00  0.00     0.059 A 
ATOM     76  F   UNL A   1      36.696  31.538  29.197  1.00  0.00    -0.206 F 
ATOM     77  C   UNL A   1      34.441  34.206  30.098  1.00  0.00     0.060 A 
BRANCH  77  78
ATOM     78  S   UNL A   1      33.347  35.402  29.248  1.00  0.00     0.124 S 
ATOM     79  O   UNL A   1      32.708  36.094  30.363  1.00  0.00    -0.237 OA
ATOM     80  O   UNL A   1      34.292  36.195  28.471  1.00  0.00    -0.237 OA
ATOM     81  O   UNL A   1      32.457  34.552  28.459  1.00  0.00    -0.744 OA
ENDBRANCH  77  78
ENDBRANCH  45  70
BRANCH  57  82
ATOM     82  C   UNL A   1      41.684  29.390  33.366  1.00  0.00     0.058 A 
ATOM     83  C   UNL A   1      41.471  27.979  33.257  1.00  0.00     0.135 A 
ATOM     84  C   UNL A   1      42.083  29.779  34.642  1.00  0.00     0.135 A 
ATOM     85  F   UNL A   1      41.367  27.377  32.074  1.00  0.00    -0.206 F 
ATOM     86  C   UNL A   1      41.456  27.080  34.344  1.00  0.00     0.059 A 
ATOM     87  C   UNL A   1      42.157  28.898  35.731  1.00  0.00     0.059 A 
ATOM     88  F   UNL A   1      42.513  31.035  34.831  1.00  0.00    -0.206 F 
ATOM     89  C   UNL A   1      41.799  27.561  35.592  1.00  0.00     0.060 A 
BRANCH  89  90
ATOM     90  S   UNL A   1      41.801  26.433  37.004  1.00  0.00     0.124 S 
ATOM     91  O   UNL A   1      41.934  25.133  36.356  1.00  0.00    -0.237 OA
ATOM     92  O   UNL A   1      42.965  26.875  37.766  1.00  0.00    -0.237 OA
ATOM     93  O   UNL A   1      40.511  26.687  37.638  1.00  0.00    -0.744 OA
ENDBRANCH  89  90
ENDBRANCH  57  82
ENDBRANCH  31  32
ENDBRANCH  24  26
ENDBRANCH  23  24
ENDBRANCH   1  23
TORSDOF 15
ENDMDL
MODEL 2
REMARK VINA RESULT:     -12.1      3.849     11.574
REMARK SMILES Cc1ccc2[nH]c3c(=O)n(CC(=O)OCCOC(=O)c4ccc(-c5c6nc(c(-c7c(F)cc(S(=O)(=O)[O-])cc7F)c7ccc([nH]7)c(-c7c(F)cc(S(=O)(=O)[O-])cc7F)c7nc(c(-c8c(F)cc(S(=O)(=O)[O-])cc8F)c8ccc5[nH]8)C=C7)C=C6)cc4)cnc3c2c1
REMARK SMILES IDX 16 1 15 2 14 3 12 4 13 5 11 6 10 7 1 8 2 9 3 10 90 11 4 12
REMARK SMILES IDX 89 13 5 14 88 15 6 16 7 17 87 18 8 20 86 21 9 22 17 23 18 24
REMARK SMILES IDX 19 25 20 26 21 27 85 28 22 29 84 30 23 31 24 32 25 33 78 34
REMARK SMILES IDX 26 35 83 36 77 37 79 38 27 39 82 40 76 41 75 42 28 44 62 45
REMARK SMILES IDX 41 46 61 47 42 48 45 49 60 50 80 51 43 52 44 53 59 55 81 56
REMARK SMILES IDX 46 57 29 58 30 59 39 60 31 61 32 62 38 63 40 64 33 65 34 66
REMARK SMILES IDX 35 67 36 68 37 69 63 70 64 71 73 72 65 73 66 74 72 75 74 76
REMARK SMILES IDX 67 77 68 78 69 79 70 80 71 81 47 82 48 83 57 84 49 85 50 86
REMARK SMILES IDX 56 87 58 88 51 89 52 90 53 91 54 92 55 93
REMARK H PARENT 6 19 79 43 45 54
REMARK Flexibility Score: inf
ROOT
ATOM      1  C   UNL A   1      36.644  34.212  34.253  1.00  0.00     0.275 C 
ENDROOT
BRANCH   1   2
ATOM      2  C   UNL A   1      35.236  34.769  33.956  1.00  0.00     0.274 C 
BRANCH   2   3
ATOM      3  O   UNL A   1      35.039  34.949  32.528  1.00  0.00    -0.461 OA
BRANCH   3   4
ATOM      4  C   UNL A   1      34.718  33.816  31.857  1.00  0.00     0.326 C 
ATOM      5  O   UNL A   1      34.031  32.934  32.369  1.00  0.00    -0.250 OA
BRANCH   4   6
ATOM      6  C   UNL A   1      35.324  33.744  30.391  1.00  0.00     0.249 C 
BRANCH   6   7
ATOM      7  N   UNL A   1      34.844  32.752  29.429  1.00  0.00    -0.286 N 
ATOM      8  C   UNL A   1      30.983  28.763  24.015  1.00  0.00     0.044 C 
ATOM      9  C   UNL A   1      32.054  28.871  25.053  1.00  0.00    -0.050 A 
ATOM     10  C   UNL A   1      32.812  27.748  25.407  1.00  0.00     0.005 A 
ATOM     11  C   UNL A   1      32.246  30.094  25.711  1.00  0.00     0.016 A 
ATOM     12  C   UNL A   1      33.785  27.809  26.405  1.00  0.00     0.027 A 
ATOM     13  C   UNL A   1      33.207  30.178  26.725  1.00  0.00     0.026 A 
ATOM     14  C   UNL A   1      33.961  29.038  27.041  1.00  0.00     0.048 A 
ATOM     15  C   UNL A   1      33.658  31.208  27.565  1.00  0.00     0.103 A 
ATOM     16  N   UNL A   1      34.851  29.400  28.027  1.00  0.00    -0.349 N 
ATOM     17  C   UNL A   1      34.701  30.730  28.282  1.00  0.00     0.132 A 
ATOM     18  N   UNL A   1      33.253  32.541  27.639  1.00  0.00    -0.236 NA
ATOM     19  H   UNL A   1      35.490  28.799  28.473  1.00  0.00     0.167 HD
ATOM     20  C   UNL A   1      35.513  31.569  29.073  1.00  0.00     0.278 A 
ATOM     21  C   UNL A   1      33.858  33.202  28.578  1.00  0.00     0.203 A 
ATOM     22  O   UNL A   1      36.680  31.245  29.226  1.00  0.00    -0.267 OA
ENDBRANCH   6   7
ENDBRANCH   4   6
ENDBRANCH   3   4
ENDBRANCH   2   3
ENDBRANCH   1   2
BRANCH   1  23
ATOM     23  O   UNL A   1      36.586  33.016  35.125  1.00  0.00    -0.458 OA
BRANCH  23  24
ATOM     24  C   UNL A   1      37.510  32.053  34.814  1.00  0.00     0.338 C 
ATOM     25  O   UNL A   1      38.097  31.510  35.742  1.00  0.00    -0.246 OA
BRANCH  24  26
ATOM     26  C   UNL A   1      37.520  31.515  33.313  1.00  0.00     0.060 A 
ATOM     27  C   UNL A   1      36.879  30.418  32.832  1.00  0.00     0.016 A 
ATOM     28  C   UNL A   1      38.750  31.519  32.637  1.00  0.00     0.016 A 
ATOM     29  C   UNL A   1      37.717  29.375  32.004  1.00  0.00     0.010 A 
ATOM     30  C   UNL A   1      39.311  30.758  31.552  1.00  0.00     0.010 A 
ATOM     31  C   UNL A   1      39.248  29.409  31.798  1.00  0.00    -0.014 A 
BRANCH  31  32
ATOM     32  C   UNL A   1      40.540  28.441  30.948  1.00  0.00     0.031 A 
ATOM     33  C   UNL A   1      41.203  28.190  32.642  1.00  0.00     0.074 A 
ATOM     34  C   UNL A   1      40.962  27.953  29.387  1.00  0.00     0.049 A 
ATOM     35  N   UNL A   1      41.893  29.096  33.316  1.00  0.00    -0.248 NA
ATOM     36  C   UNL A   1      40.596  27.392  33.963  1.00  0.00     0.031 C 
ATOM     37  C   UNL A   1      40.431  27.878  27.720  1.00  0.00     0.029 A 
ATOM     38  N   UNL A   1      42.179  27.351  28.721  1.00  0.00    -0.354 N 
ATOM     39  C   UNL A   1      42.478  28.360  34.374  1.00  0.00     0.074 A 
ATOM     40  C   UNL A   1      41.531  27.499  34.929  1.00  0.00     0.031 C 
ATOM     41  C   UNL A   1      40.974  27.041  26.707  1.00  0.00     0.029 A 
ATOM     42  C   UNL A   1      42.159  26.476  27.461  1.00  0.00     0.049 A 
ATOM     43  H   UNL A   1      43.056  27.536  29.130  1.00  0.00     0.167 HD
ATOM     44  C   UNL A   1      43.775  28.020  34.278  1.00  0.00     0.037 A 
ATOM     45  C   UNL A   1      43.105  25.455  27.060  1.00  0.00     0.037 A 
ATOM     46  C   UNL A   1      44.310  28.806  33.217  1.00  0.00     0.049 A 
ATOM     47  C   UNL A   1      44.151  25.635  28.111  1.00  0.00     0.074 A 
ATOM     48  C   UNL A   1      44.330  30.166  32.989  1.00  0.00     0.029 A 
ATOM     49  N   UNL A   1      44.189  28.190  32.012  1.00  0.00    -0.354 N 
ATOM     50  N   UNL A   1      44.871  26.731  28.170  1.00  0.00    -0.248 NA
ATOM     51  C   UNL A   1      43.700  25.021  29.366  1.00  0.00     0.031 C 
ATOM     52  C   UNL A   1      44.185  30.344  31.592  1.00  0.00     0.029 A 
ATOM     53  C   UNL A   1      44.210  29.090  30.997  1.00  0.00     0.049 A 
ATOM     54  H   UNL A   1      44.098  27.218  31.892  1.00  0.00     0.167 HD
ATOM     55  C   UNL A   1      44.569  27.265  29.418  1.00  0.00     0.074 A 
ATOM     56  C   UNL A   1      43.869  26.099  30.151  1.00  0.00     0.031 C 
ATOM     57  C   UNL A   1      44.369  28.637  29.646  1.00  0.00     0.037 A 
BRANCH  44  58
ATOM     58  C   UNL A   1      44.398  26.746  34.752  1.00  0.00     0.058 A 
ATOM     59  C   UNL A   1      45.352  26.959  35.744  1.00  0.00     0.135 A 
ATOM     60  C   UNL A   1      44.268  25.418  34.258  1.00  0.00     0.135 A 
ATOM     61  F   UNL A   1      45.524  28.187  36.258  1.00  0.00    -0.206 F 
ATOM     62  C   UNL A   1      46.143  25.945  36.231  1.00  0.00     0.059 A 
ATOM     63  C   UNL A   1      45.034  24.366  34.764  1.00  0.00     0.059 A 
ATOM     64  F   UNL A   1      43.427  25.094  33.261  1.00  0.00    -0.206 F 
ATOM     65  C   UNL A   1      45.977  24.652  35.744  1.00  0.00     0.060 A 
BRANCH  65  66
ATOM     66  S   UNL A   1      47.032  23.384  36.453  1.00  0.00     0.124 S 
ATOM     67  O   UNL A   1      46.075  22.312  36.702  1.00  0.00    -0.237 OA
ATOM     68  O   UNL A   1      47.976  23.154  35.363  1.00  0.00    -0.237 OA
ATOM     69  O   UNL A   1      47.590  24.027  37.637  1.00  0.00    -0.744 OA
ENDBRANCH  65  66
ENDBRANCH  44  58
BRANCH  45  70
ATOM     70  C   UNL A   1      42.839  23.989  26.440  1.00  0.00     0.058 A 
ATOM     71  C   UNL A   1      43.585  23.148  25.532  1.00  0.00     0.135 A 
ATOM     72  C   UNL A   1      41.817  23.274  27.088  1.00  0.00     0.135 A 
ATOM     73  F   UNL A   1      44.554  23.648  24.745  1.00  0.00    -0.206 F 
ATOM     74  C   UNL A   1      43.345  21.731  25.376  1.00  0.00     0.059 A 
ATOM     75  C   UNL A   1      41.574  21.890  26.968  1.00  0.00     0.059 A 
ATOM     76  F   UNL A   1      41.021  23.929  27.940  1.00  0.00    -0.206 F 
ATOM     77  C   UNL A   1      42.356  21.105  26.134  1.00  0.00     0.060 A 
BRANCH  77  78
ATOM     78  S   UNL A   1      42.112  19.292  26.080  1.00  0.00     0.124 S 
ATOM     79  O   UNL A   1      43.031  18.881  25.024  1.00  0.00    -0.237 OA
ATOM     80  O   UNL A   1      42.480  18.885  27.431  1.00  0.00    -0.237 OA
ATOM     81  O   UNL A   1      40.694  19.146  25.754  1.00  0.00    -0.744 OA
ENDBRANCH  77  78
ENDBRANCH  45  70
BRANCH  57  82
ATOM     82  C   UNL A   1      44.461  29.808  28.599  1.00  0.00     0.058 A 
ATOM     83  C   UNL A   1      43.459  30.730  28.155  1.00  0.00     0.135 A 
ATOM     84  C   UNL A   1      45.750  30.201  28.247  1.00  0.00     0.135 A 
ATOM     85  F   UNL A   1      42.215  30.690  28.626  1.00  0.00    -0.206 F 
ATOM     86  C   UNL A   1      43.692  31.815  27.285  1.00  0.00     0.059 A 
ATOM     87  C   UNL A   1      46.026  31.321  27.449  1.00  0.00     0.059 A 
ATOM     88  F   UNL A   1      46.792  29.542  28.773  1.00  0.00    -0.206 F 
ATOM     89  C   UNL A   1      44.996  32.099  26.931  1.00  0.00     0.060 A 
BRANCH  89  90
ATOM     90  S   UNL A   1      45.329  33.489  25.826  1.00  0.00     0.124 S 
ATOM     91  O   UNL A   1      44.650  33.077  24.602  1.00  0.00    -0.237 OA
ATOM     92  O   UNL A   1      44.721  34.613  26.532  1.00  0.00    -0.237 OA
ATOM     93  O   UNL A   1      46.787  33.518  25.753  1.00  0.00    -0.744 OA
ENDBRANCH  89  90
ENDBRANCH  57  82
ENDBRANCH  31  32
ENDBRANCH  24  26
ENDBRANCH  23  24
ENDBRANCH   1  23
TORSDOF 15
ENDMDL
MODEL 3
REMARK VINA RESULT:     -11.9      1.274      2.151
REMARK SMILES Cc1ccc2[nH]c3c(=O)n(CC(=O)OCCOC(=O)c4ccc(-c5c6nc(c(-c7c(F)cc(S(=O)(=O)[O-])cc7F)c7ccc([nH]7)c(-c7c(F)cc(S(=O)(=O)[O-])cc7F)c7nc(c(-c8c(F)cc(S(=O)(=O)[O-])cc8F)c8ccc5[nH]8)C=C7)C=C6)cc4)cnc3c2c1
REMARK SMILES IDX 16 1 15 2 14 3 12 4 13 5 11 6 10 7 1 8 2 9 3 10 90 11 4 12
REMARK SMILES IDX 89 13 5 14 88 15 6 16 7 17 87 18 8 20 86 21 9 22 17 23 18 24
REMARK SMILES IDX 19 25 20 26 21 27 85 28 22 29 84 30 23 31 24 32 25 33 78 34
REMARK SMILES IDX 26 35 83 36 77 37 79 38 27 39 82 40 76 41 75 42 28 44 62 45
REMARK SMILES IDX 41 46 61 47 42 48 45 49 60 50 80 51 43 52 44 53 59 55 81 56
REMARK SMILES IDX 46 57 29 58 30 59 39 60 31 61 32 62 38 63 40 64 33 65 34 66
REMARK SMILES IDX 35 67 36 68 37 69 63 70 64 71 73 72 65 73 66 74 72 75 74 76
REMARK SMILES IDX 67 77 68 78 69 79 70 80 71 81 47 82 48 83 57 84 49 85 50 86
REMARK SMILES IDX 56 87 58 88 51 89 52 90 53 91 54 92 55 93
REMARK H PARENT 6 19 79 43 45 54
REMARK Flexibility Score: inf
ROOT
ATOM      1  C   UNL A   1      44.364  23.281  24.363  1.00  0.00     0.275 C 
ENDROOT
BRANCH   1   2
ATOM      2  C   UNL A   1      43.931  22.013  25.130  1.00  0.00     0.274 C 
BRANCH   2   3
ATOM      3  O   UNL A   1      42.619  22.190  25.726  1.00  0.00    -0.461 OA
BRANCH   3   4
ATOM      4  C   UNL A   1      42.621  22.277  27.079  1.00  0.00     0.326 C 
ATOM      5  O   UNL A   1      43.634  22.585  27.704  1.00  0.00    -0.250 OA
BRANCH   4   6
ATOM      6  C   UNL A   1      41.224  21.926  27.747  1.00  0.00     0.249 C 
BRANCH   6   7
ATOM      7  N   UNL A   1      39.968  22.223  27.059  1.00  0.00    -0.286 N 
ATOM      8  C   UNL A   1      33.572  25.487  24.130  1.00  0.00     0.044 C 
ATOM      9  C   UNL A   1      34.443  24.297  24.382  1.00  0.00    -0.050 A 
ATOM     10  C   UNL A   1      34.007  23.014  24.028  1.00  0.00     0.005 A 
ATOM     11  C   UNL A   1      35.672  24.476  25.033  1.00  0.00     0.016 A 
ATOM     12  C   UNL A   1      34.778  21.883  24.294  1.00  0.00     0.027 A 
ATOM     13  C   UNL A   1      36.458  23.355  25.322  1.00  0.00     0.026 A 
ATOM     14  C   UNL A   1      35.999  22.086  24.937  1.00  0.00     0.048 A 
ATOM     15  C   UNL A   1      37.705  23.165  25.938  1.00  0.00     0.103 A 
ATOM     16  N   UNL A   1      36.968  21.177  25.297  1.00  0.00    -0.349 N 
ATOM     17  C   UNL A   1      38.020  21.853  25.837  1.00  0.00     0.132 A 
ATOM     18  N   UNL A   1      38.587  24.103  26.475  1.00  0.00    -0.236 NA
ATOM     19  H   UNL A   1      36.910  20.202  25.183  1.00  0.00     0.167 HD
ATOM     20  C   UNL A   1      39.299  21.362  26.173  1.00  0.00     0.278 A 
ATOM     21  C   UNL A   1      39.636  23.560  27.013  1.00  0.00     0.203 A 
ATOM     22  O   UNL A   1      39.700  20.374  25.577  1.00  0.00    -0.267 OA
ENDBRANCH   6   7
ENDBRANCH   4   6
ENDBRANCH   3   4
ENDBRANCH   2   3
ENDBRANCH   1   2
BRANCH   1  23
ATOM     23  O   UNL A   1      45.331  24.087  25.143  1.00  0.00    -0.458 OA
BRANCH  23  24
ATOM     24  C   UNL A   1      44.949  25.390  25.329  1.00  0.00     0.338 C 
ATOM     25  O   UNL A   1      45.639  26.262  24.814  1.00  0.00    -0.246 OA
BRANCH  24  26
ATOM     26  C   UNL A   1      43.494  25.640  25.932  1.00  0.00     0.060 A 
ATOM     27  C   UNL A   1      42.441  26.232  25.311  1.00  0.00     0.016 A 
ATOM     28  C   UNL A   1      43.417  26.103  27.255  1.00  0.00     0.016 A 
ATOM     29  C   UNL A   1      41.706  27.407  26.056  1.00  0.00     0.010 A 
ATOM     30  C   UNL A   1      42.455  26.865  28.006  1.00  0.00     0.010 A 
ATOM     31  C   UNL A   1      42.157  28.052  27.385  1.00  0.00    -0.014 A 
BRANCH  31  32
ATOM     32  C   UNL A   1      41.612  29.367  28.526  1.00  0.00     0.031 A 
ATOM     33  C   UNL A   1      43.124  30.235  27.949  1.00  0.00     0.074 A 
ATOM     34  C   UNL A   1      40.345  29.701  29.591  1.00  0.00     0.049 A 
ATOM     35  N   UNL A   1      44.349  29.959  28.364  1.00  0.00    -0.248 NA
ATOM     36  C   UNL A   1      43.558  30.840  26.467  1.00  0.00     0.031 C 
ATOM     37  C   UNL A   1      38.767  29.178  30.145  1.00  0.00     0.029 A 
ATOM     38  N   UNL A   1      40.073  30.705  30.689  1.00  0.00    -0.354 N 
ATOM     39  C   UNL A   1      45.112  31.074  27.943  1.00  0.00     0.074 A 
ATOM     40  C   UNL A   1      44.768  31.411  26.634  1.00  0.00     0.031 C 
ATOM     41  C   UNL A   1      37.831  29.968  30.866  1.00  0.00     0.029 A 
ATOM     42  C   UNL A   1      38.685  31.191  31.123  1.00  0.00     0.049 A 
ATOM     43  H   UNL A   1      40.853  31.078  31.163  1.00  0.00     0.167 HD
ATOM     44  C   UNL A   1      45.440  32.007  28.852  1.00  0.00     0.037 A 
ATOM     45  C   UNL A   1      38.324  32.457  31.727  1.00  0.00     0.037 A 
ATOM     46  C   UNL A   1      45.176  31.425  30.126  1.00  0.00     0.049 A 
ATOM     47  C   UNL A   1      39.680  33.041  31.951  1.00  0.00     0.074 A 
ATOM     48  C   UNL A   1      45.602  30.255  30.717  1.00  0.00     0.029 A 
ATOM     49  N   UNL A   1      43.902  31.653  30.538  1.00  0.00    -0.354 N 
ATOM     50  N   UNL A   1      40.516  32.505  32.811  1.00  0.00    -0.248 NA
ATOM     51  C   UNL A   1      40.210  33.559  30.684  1.00  0.00     0.031 C 
ATOM     52  C   UNL A   1      44.514  29.770  31.483  1.00  0.00     0.029 A 
ATOM     53  C   UNL A   1      43.504  30.720  31.439  1.00  0.00     0.049 A 
ATOM     54  H   UNL A   1      43.341  32.397  30.222  1.00  0.00     0.167 HD
ATOM     55  C   UNL A   1      41.608  32.136  32.032  1.00  0.00     0.074 A 
ATOM     56  C   UNL A   1      41.376  32.890  30.704  1.00  0.00     0.031 C 
ATOM     57  C   UNL A   1      42.305  30.928  32.197  1.00  0.00     0.037 A 
BRANCH  44  58
ATOM     58  C   UNL A   1      45.522  33.482  28.624  1.00  0.00     0.058 A 
ATOM     59  C   UNL A   1      46.808  33.980  28.823  1.00  0.00     0.135 A 
ATOM     60  C   UNL A   1      44.493  34.434  28.383  1.00  0.00     0.135 A 
ATOM     61  F   UNL A   1      47.827  33.137  29.050  1.00  0.00    -0.206 F 
ATOM     62  C   UNL A   1      47.085  35.327  28.796  1.00  0.00     0.059 A 
ATOM     63  C   UNL A   1      44.758  35.804  28.314  1.00  0.00     0.059 A 
ATOM     64  F   UNL A   1      43.203  34.087  28.235  1.00  0.00    -0.206 F 
ATOM     65  C   UNL A   1      46.062  36.232  28.536  1.00  0.00     0.060 A 
BRANCH  65  66
ATOM     66  S   UNL A   1      46.516  37.969  28.493  1.00  0.00     0.124 S 
ATOM     67  O   UNL A   1      47.450  38.000  27.373  1.00  0.00    -0.237 OA
ATOM     68  O   UNL A   1      45.219  38.598  28.258  1.00  0.00    -0.237 OA
ATOM     69  O   UNL A   1      47.094  38.204  29.811  1.00  0.00    -0.744 OA
ENDBRANCH  65  66
ENDBRANCH  44  58
BRANCH  45  70
ATOM     70  C   UNL A   1      37.076  33.432  31.413  1.00  0.00     0.058 A 
ATOM     71  C   UNL A   1      36.170  33.551  30.294  1.00  0.00     0.135 A 
ATOM     72  C   UNL A   1      36.609  34.137  32.536  1.00  0.00     0.135 A 
ATOM     73  F   UNL A   1      36.463  33.023  29.092  1.00  0.00    -0.206 F 
ATOM     74  C   UNL A   1      34.908  34.251  30.359  1.00  0.00     0.059 A 
ATOM     75  C   UNL A   1      35.375  34.812  32.631  1.00  0.00     0.059 A 
ATOM     76  F   UNL A   1      37.359  34.143  33.643  1.00  0.00    -0.206 F 
ATOM     77  C   UNL A   1      34.504  34.847  31.554  1.00  0.00     0.060 A 
BRANCH  77  78
ATOM     78  S   UNL A   1      32.853  35.618  31.727  1.00  0.00     0.124 S 
ATOM     79  O   UNL A   1      32.329  35.556  30.367  1.00  0.00    -0.237 OA
ATOM     80  O   UNL A   1      32.199  34.746  32.696  1.00  0.00    -0.237 OA
ATOM     81  O   UNL A   1      33.152  36.965  32.211  1.00  0.00    -0.744 OA
ENDBRANCH  77  78
ENDBRANCH  45  70
BRANCH  57  82
ATOM     82  C   UNL A   1      42.031  29.799  33.259  1.00  0.00     0.058 A 
ATOM     83  C   UNL A   1      41.580  28.451  33.078  1.00  0.00     0.135 A 
ATOM     84  C   UNL A   1      42.557  30.026  34.528  1.00  0.00     0.135 A 
ATOM     85  F   UNL A   1      41.314  27.961  31.870  1.00  0.00    -0.206 F 
ATOM     86  C   UNL A   1      41.475  27.492  34.106  1.00  0.00     0.059 A 
ATOM     87  C   UNL A   1      42.543  29.068  35.554  1.00  0.00     0.059 A 
ATOM     88  F   UNL A   1      43.200  31.178  34.765  1.00  0.00    -0.206 F 
ATOM     89  C   UNL A   1      41.961  27.820  35.356  1.00  0.00     0.060 A 
BRANCH  89  90
ATOM     90  S   UNL A   1      41.852  26.609  36.693  1.00  0.00     0.124 S 
ATOM     91  O   UNL A   1      40.579  26.954  37.314  1.00  0.00    -0.237 OA
ATOM     92  O   UNL A   1      41.877  25.337  35.976  1.00  0.00    -0.237 OA
ATOM     93  O   UNL A   1      43.038  26.890  37.497  1.00  0.00    -0.744 OA
ENDBRANCH  89  90
ENDBRANCH  57  82
ENDBRANCH  31  32
ENDBRANCH  24  26
ENDBRANCH  23  24
ENDBRANCH   1  23
TORSDOF 15
ENDMDL
