MODEL 1
REMARK VINA RESULT:     -10.9      0.000      0.000
REMARK SMILES O=C(CCS(=O)(=O)c1ccc2[nH]c(=O)oc2c1)OCCOC(=O)c1ccc(-c2c3nc(c(-c4c(F)cc(S(=O)(=O)[O-])cc4F)c4ccc([nH]4)c(-c4c(F)cc(S(=O)(=O)[O-])cc4F)c4nc(c(-c5c(F)cc(S(=O)(=O)[O-])cc5F)c5ccc2[nH]5)C=C4)C=C3)cc1
REMARK SMILES IDX 19 1 18 2 2 3 1 4 3 5 4 6 5 7 6 8 7 9 8 10 9 11 17 12 10 13
REMARK SMILES IDX 16 14 11 15 15 16 12 17 13 18 14 20 20 21 21 22 22 23 23 24
REMARK SMILES IDX 24 25 25 26 89 27 26 28 88 29 27 30 28 31 29 32 82 33 30 34
REMARK SMILES IDX 87 35 81 36 83 37 31 38 86 39 80 40 79 41 32 43 66 44 45 45
REMARK SMILES IDX 65 46 46 47 49 48 64 49 84 50 47 51 48 52 63 54 85 55 50 56
REMARK SMILES IDX 33 57 34 58 43 59 35 60 36 61 42 62 44 63 37 64 38 65 39 66
REMARK SMILES IDX 40 67 41 68 67 69 68 70 77 71 69 72 70 73 76 74 78 75 71 76
REMARK SMILES IDX 72 77 73 78 74 79 75 80 51 81 52 82 61 83 53 84 54 85 60 86
REMARK SMILES IDX 62 87 55 88 56 89 57 90 58 91 59 92
REMARK H PARENT 12 19 83 42 49 53
REMARK Flexibility Score: inf
ROOT
ATOM      1  C   UNL A   1      33.638  34.287  28.371  1.00  0.00     0.274 C 
ENDROOT
BRANCH   1   2
ATOM      2  O   UNL A   1      32.731  34.726  29.412  1.00  0.00    -0.462 OA
BRANCH   2   3
ATOM      3  C   UNL A   1      32.905  35.734  30.287  1.00  0.00     0.306 C 
ATOM      4  O   UNL A   1      33.026  36.890  29.884  1.00  0.00    -0.252 OA
BRANCH   3   5
ATOM      5  C   UNL A   1      32.859  35.472  31.766  1.00  0.00     0.139 C 
BRANCH   5   6
ATOM      6  C   UNL A   1      34.250  35.259  32.345  1.00  0.00     0.154 C 
BRANCH   6   7
ATOM      7  S   UNL A   1      35.029  33.718  31.909  1.00  0.00     0.179 S 
ATOM      8  O   UNL A   1      33.990  32.705  31.856  1.00  0.00    -0.224 OA
ATOM      9  O   UNL A   1      35.891  33.947  30.767  1.00  0.00    -0.224 OA
BRANCH   7  10
ATOM     10  C   UNL A   1      36.115  33.290  33.252  1.00  0.00     0.071 A 
ATOM     11  C   UNL A   1      36.127  34.095  34.412  1.00  0.00     0.023 A 
ATOM     12  C   UNL A   1      36.884  32.121  33.162  1.00  0.00     0.069 A 
ATOM     13  C   UNL A   1      36.855  33.697  35.538  1.00  0.00     0.031 A 
ATOM     14  C   UNL A   1      37.580  31.751  34.290  1.00  0.00     0.157 A 
ATOM     15  C   UNL A   1      37.549  32.515  35.438  1.00  0.00     0.087 A 
ATOM     16  O   UNL A   1      38.332  30.597  34.438  1.00  0.00    -0.408 OA
ATOM     17  N   UNL A   1      38.292  31.841  36.363  1.00  0.00    -0.287 N 
ATOM     18  C   UNL A   1      38.755  30.689  35.772  1.00  0.00     0.417 A 
ATOM     19  H   UNL A   1      38.466  32.128  37.288  1.00  0.00     0.173 HD
ATOM     20  O   UNL A   1      39.452  29.850  36.324  1.00  0.00    -0.224 OA
ENDBRANCH   7  10
ENDBRANCH   6   7
ENDBRANCH   5   6
ENDBRANCH   3   5
ENDBRANCH   2   3
ENDBRANCH   1   2
BRANCH   1  21
ATOM     21  C   UNL A   1      33.357  32.838  27.990  1.00  0.00     0.275 C 
BRANCH  21  22
ATOM     22  O   UNL A   1      34.332  31.998  28.619  1.00  0.00    -0.458 OA
BRANCH  22  23
ATOM     23  C   UNL A   1      34.392  30.725  28.153  1.00  0.00     0.338 C 
ATOM     24  O   UNL A   1      33.540  30.139  27.517  1.00  0.00    -0.246 OA
BRANCH  23  25
ATOM     25  C   UNL A   1      35.761  30.216  28.380  1.00  0.00     0.060 A 
ATOM     26  C   UNL A   1      36.101  29.778  29.667  1.00  0.00     0.016 A 
ATOM     27  C   UNL A   1      36.690  30.140  27.337  1.00  0.00     0.016 A 
ATOM     28  C   UNL A   1      37.380  29.286  29.919  1.00  0.00     0.010 A 
ATOM     29  C   UNL A   1      37.967  29.644  27.590  1.00  0.00     0.010 A 
ATOM     30  C   UNL A   1      38.324  29.237  28.885  1.00  0.00    -0.014 A 
BRANCH  30  31
ATOM     31  C   UNL A   1      39.734  28.879  29.150  1.00  0.00     0.031 A 
ATOM     32  C   UNL A   1      40.673  29.962  29.601  1.00  0.00     0.074 A 
ATOM     33  C   UNL A   1      40.178  27.633  28.907  1.00  0.00     0.049 A 
ATOM     34  N   UNL A   1      41.970  29.922  29.745  1.00  0.00    -0.248 NA
ATOM     35  C   UNL A   1      40.069  31.268  29.917  1.00  0.00     0.031 C 
ATOM     36  C   UNL A   1      39.349  26.512  28.463  1.00  0.00     0.029 A 
ATOM     37  N   UNL A   1      41.446  27.113  28.960  1.00  0.00    -0.354 N 
ATOM     38  C   UNL A   1      42.342  31.200  30.144  1.00  0.00     0.074 A 
ATOM     39  C   UNL A   1      41.137  31.996  30.209  1.00  0.00     0.031 C 
ATOM     40  C   UNL A   1      40.138  25.445  28.247  1.00  0.00     0.029 A 
ATOM     41  C   UNL A   1      41.527  25.818  28.504  1.00  0.00     0.049 A 
ATOM     42  H   UNL A   1      42.223  27.618  29.291  1.00  0.00     0.167 HD
ATOM     43  C   UNL A   1      43.580  31.661  30.431  1.00  0.00     0.037 A 
ATOM     44  C   UNL A   1      42.607  25.042  28.281  1.00  0.00     0.037 A 
ATOM     45  C   UNL A   1      44.767  30.850  30.381  1.00  0.00     0.049 A 
ATOM     46  C   UNL A   1      43.979  25.595  28.573  1.00  0.00     0.074 A 
ATOM     47  C   UNL A   1      46.059  31.198  30.732  1.00  0.00     0.029 A 
ATOM     48  N   UNL A   1      44.811  29.538  29.936  1.00  0.00    -0.354 N 
ATOM     49  N   UNL A   1      44.311  26.778  29.033  1.00  0.00    -0.248 NA
ATOM     50  C   UNL A   1      45.125  24.710  28.313  1.00  0.00     0.031 C 
ATOM     51  C   UNL A   1      46.893  30.113  30.446  1.00  0.00     0.029 A 
ATOM     52  C   UNL A   1      46.113  29.074  29.964  1.00  0.00     0.049 A 
ATOM     53  H   UNL A   1      44.030  29.014  29.643  1.00  0.00     0.167 HD
ATOM     54  C   UNL A   1      45.698  26.773  29.133  1.00  0.00     0.074 A 
ATOM     55  C   UNL A   1      46.144  25.464  28.705  1.00  0.00     0.031 C 
ATOM     56  C   UNL A   1      46.532  27.762  29.541  1.00  0.00     0.037 A 
BRANCH  43  57
ATOM     57  C   UNL A   1      43.729  33.105  30.812  1.00  0.00     0.058 A 
ATOM     58  C   UNL A   1      43.719  33.520  32.152  1.00  0.00     0.135 A 
ATOM     59  C   UNL A   1      43.968  34.074  29.824  1.00  0.00     0.135 A 
ATOM     60  F   UNL A   1      43.474  32.637  33.132  1.00  0.00    -0.206 F 
ATOM     61  C   UNL A   1      43.942  34.848  32.500  1.00  0.00     0.059 A 
ATOM     62  C   UNL A   1      44.215  35.403  30.150  1.00  0.00     0.059 A 
ATOM     63  F   UNL A   1      43.977  33.727  28.527  1.00  0.00    -0.206 F 
ATOM     64  C   UNL A   1      44.198  35.781  31.492  1.00  0.00     0.060 A 
BRANCH  64  65
ATOM     65  S   UNL A   1      44.538  37.489  31.966  1.00  0.00     0.124 S 
ATOM     66  O   UNL A   1      45.979  37.448  32.188  1.00  0.00    -0.237 OA
ATOM     67  O   UNL A   1      44.099  38.231  30.789  1.00  0.00    -0.237 OA
ATOM     68  O   UNL A   1      43.724  37.679  33.163  1.00  0.00    -0.744 OA
ENDBRANCH  64  65
ENDBRANCH  43  57
BRANCH  44  69
ATOM     69  C   UNL A   1      42.448  23.677  27.710  1.00  0.00     0.058 A 
ATOM     70  C   UNL A   1      42.359  22.549  28.539  1.00  0.00     0.135 A 
ATOM     71  C   UNL A   1      42.420  23.471  26.322  1.00  0.00     0.135 A 
ATOM     72  F   UNL A   1      42.389  22.694  29.872  1.00  0.00    -0.206 F 
ATOM     73  C   UNL A   1      42.278  21.264  28.013  1.00  0.00     0.059 A 
ATOM     74  C   UNL A   1      42.314  22.197  25.773  1.00  0.00     0.059 A 
ATOM     75  F   UNL A   1      42.488  24.518  25.484  1.00  0.00    -0.206 F 
ATOM     76  C   UNL A   1      42.261  21.098  26.628  1.00  0.00     0.060 A 
BRANCH  76  77
ATOM     77  S   UNL A   1      42.143  19.426  25.954  1.00  0.00     0.124 S 
ATOM     78  O   UNL A   1      42.660  18.628  27.061  1.00  0.00    -0.237 OA
ATOM     79  O   UNL A   1      40.714  19.301  25.690  1.00  0.00    -0.237 OA
ATOM     80  O   UNL A   1      42.990  19.485  24.767  1.00  0.00    -0.744 OA
ENDBRANCH  76  77
ENDBRANCH  44  69
BRANCH  56  81
ATOM     81  C   UNL A   1      48.005  27.469  29.561  1.00  0.00     0.058 A 
ATOM     82  C   UNL A   1      48.831  27.789  28.473  1.00  0.00     0.135 A 
ATOM     83  C   UNL A   1      48.610  26.941  30.714  1.00  0.00     0.135 A 
ATOM     84  F   UNL A   1      48.300  28.287  27.346  1.00  0.00    -0.206 F 
ATOM     85  C   UNL A   1      50.206  27.587  28.523  1.00  0.00     0.059 A 
ATOM     86  C   UNL A   1      49.986  26.756  30.796  1.00  0.00     0.059 A 
ATOM     87  F   UNL A   1      47.864  26.629  31.786  1.00  0.00    -0.206 F 
ATOM     88  C   UNL A   1      50.775  27.077  29.692  1.00  0.00     0.060 A 
BRANCH  88  89
ATOM     89  S   UNL A   1      52.568  26.878  29.765  1.00  0.00     0.124 S 
ATOM     90  O   UNL A   1      53.000  28.229  30.105  1.00  0.00    -0.237 OA
ATOM     91  O   UNL A   1      52.730  25.876  30.814  1.00  0.00    -0.237 OA
ATOM     92  O   UNL A   1      52.914  26.428  28.419  1.00  0.00    -0.744 OA
ENDBRANCH  88  89
ENDBRANCH  56  81
ENDBRANCH  30  31
ENDBRANCH  23  25
ENDBRANCH  22  23
ENDBRANCH  21  22
ENDBRANCH   1  21
TORSDOF 17
ENDMDL
MODEL 2
REMARK VINA RESULT:     -10.6      4.158      6.824
REMARK SMILES O=C(CCS(=O)(=O)c1ccc2[nH]c(=O)oc2c1)OCCOC(=O)c1ccc(-c2c3nc(c(-c4c(F)cc(S(=O)(=O)[O-])cc4F)c4ccc([nH]4)c(-c4c(F)cc(S(=O)(=O)[O-])cc4F)c4nc(c(-c5c(F)cc(S(=O)(=O)[O-])cc5F)c5ccc2[nH]5)C=C4)C=C3)cc1
REMARK SMILES IDX 19 1 18 2 2 3 1 4 3 5 4 6 5 7 6 8 7 9 8 10 9 11 17 12 10 13
REMARK SMILES IDX 16 14 11 15 15 16 12 17 13 18 14 20 20 21 21 22 22 23 23 24
REMARK SMILES IDX 24 25 25 26 89 27 26 28 88 29 27 30 28 31 29 32 82 33 30 34
REMARK SMILES IDX 87 35 81 36 83 37 31 38 86 39 80 40 79 41 32 43 66 44 45 45
REMARK SMILES IDX 65 46 46 47 49 48 64 49 84 50 47 51 48 52 63 54 85 55 50 56
REMARK SMILES IDX 33 57 34 58 43 59 35 60 36 61 42 62 44 63 37 64 38 65 39 66
REMARK SMILES IDX 40 67 41 68 67 69 68 70 77 71 69 72 70 73 76 74 78 75 71 76
REMARK SMILES IDX 72 77 73 78 74 79 75 80 51 81 52 82 61 83 53 84 54 85 60 86
REMARK SMILES IDX 62 87 55 88 56 89 57 90 58 91 59 92
REMARK H PARENT 12 19 83 42 49 53
REMARK Flexibility Score: inf
ROOT
ATOM      1  C   UNL A   1      33.390  30.497  27.257  1.00  0.00     0.274 C 
ENDROOT
BRANCH   1   2
ATOM      2  O   UNL A   1      33.337  29.093  27.610  1.00  0.00    -0.462 OA
BRANCH   2   3
ATOM      3  C   UNL A   1      32.404  28.188  27.259  1.00  0.00     0.306 C 
ATOM      4  O   UNL A   1      31.480  27.922  28.026  1.00  0.00    -0.252 OA
BRANCH   3   5
ATOM      5  C   UNL A   1      32.429  27.564  25.893  1.00  0.00     0.139 C 
BRANCH   5   6
ATOM      6  C   UNL A   1      31.708  26.224  25.872  1.00  0.00     0.154 C 
BRANCH   6   7
ATOM      7  S   UNL A   1      31.294  25.607  24.254  1.00  0.00     0.179 S 
ATOM      8  O   UNL A   1      32.488  25.700  23.433  1.00  0.00    -0.224 OA
ATOM      9  O   UNL A   1      30.605  24.341  24.408  1.00  0.00    -0.224 OA
BRANCH   7  10
ATOM     10  C   UNL A   1      30.093  26.726  23.566  1.00  0.00     0.071 A 
ATOM     11  C   UNL A   1      28.738  26.599  23.943  1.00  0.00     0.023 A 
ATOM     12  C   UNL A   1      30.526  27.757  22.719  1.00  0.00     0.069 A 
ATOM     13  C   UNL A   1      27.802  27.556  23.537  1.00  0.00     0.031 A 
ATOM     14  C   UNL A   1      29.584  28.688  22.348  1.00  0.00     0.157 A 
ATOM     15  C   UNL A   1      28.272  28.588  22.759  1.00  0.00     0.087 A 
ATOM     16  O   UNL A   1      29.819  29.821  21.586  1.00  0.00    -0.408 OA
ATOM     17  N   UNL A   1      27.633  29.687  22.262  1.00  0.00    -0.287 N 
ATOM     18  C   UNL A   1      28.557  30.432  21.567  1.00  0.00     0.417 A 
ATOM     19  H   UNL A   1      26.681  29.907  22.379  1.00  0.00     0.173 HD
ATOM     20  O   UNL A   1      28.320  31.486  20.997  1.00  0.00    -0.224 OA
ENDBRANCH   7  10
ENDBRANCH   6   7
ENDBRANCH   5   6
ENDBRANCH   3   5
ENDBRANCH   2   3
ENDBRANCH   1   2
BRANCH   1  21
ATOM     21  C   UNL A   1      34.684  31.129  27.757  1.00  0.00     0.275 C 
BRANCH  21  22
ATOM     22  O   UNL A   1      35.497  30.107  28.347  1.00  0.00    -0.458 OA
BRANCH  22  23
ATOM     23  C   UNL A   1      36.164  30.470  29.472  1.00  0.00     0.338 C 
ATOM     24  O   UNL A   1      35.680  30.853  30.517  1.00  0.00    -0.246 OA
BRANCH  23  25
ATOM     25  C   UNL A   1      37.593  30.139  29.287  1.00  0.00     0.060 A 
ATOM     26  C   UNL A   1      38.056  29.903  27.986  1.00  0.00     0.016 A 
ATOM     27  C   UNL A   1      38.474  30.089  30.373  1.00  0.00     0.016 A 
ATOM     28  C   UNL A   1      39.398  29.594  27.771  1.00  0.00     0.010 A 
ATOM     29  C   UNL A   1      39.815  29.784  30.156  1.00  0.00     0.010 A 
ATOM     30  C   UNL A   1      40.278  29.513  28.858  1.00  0.00    -0.014 A 
BRANCH  30  31
ATOM     31  C   UNL A   1      41.664  29.028  28.689  1.00  0.00     0.031 A 
ATOM     32  C   UNL A   1      42.777  30.037  28.683  1.00  0.00     0.074 A 
ATOM     33  C   UNL A   1      41.907  27.726  28.460  1.00  0.00     0.049 A 
ATOM     34  N   UNL A   1      44.041  29.870  28.400  1.00  0.00    -0.248 NA
ATOM     35  C   UNL A   1      42.413  31.423  29.026  1.00  0.00     0.031 C 
ATOM     36  C   UNL A   1      40.897  26.668  28.443  1.00  0.00     0.029 A 
ATOM     37  N   UNL A   1      43.078  27.078  28.157  1.00  0.00    -0.354 N 
ATOM     38  C   UNL A   1      44.619  31.129  28.506  1.00  0.00     0.074 A 
ATOM     39  C   UNL A   1      43.568  32.053  28.868  1.00  0.00     0.031 C 
ATOM     40  C   UNL A   1      41.486  25.507  28.105  1.00  0.00     0.029 A 
ATOM     41  C   UNL A   1      42.905  25.748  27.852  1.00  0.00     0.049 A 
ATOM     42  H   UNL A   1      43.956  27.522  28.157  1.00  0.00     0.167 HD
ATOM     43  C   UNL A   1      45.912  31.476  28.320  1.00  0.00     0.037 A 
ATOM     44  C   UNL A   1      43.787  24.844  27.380  1.00  0.00     0.037 A 
ATOM     45  C   UNL A   1      46.950  30.540  27.980  1.00  0.00     0.049 A 
ATOM     46  C   UNL A   1      45.215  25.268  27.144  1.00  0.00     0.074 A 
ATOM     47  C   UNL A   1      48.308  30.775  27.849  1.00  0.00     0.029 A 
ATOM     48  N   UNL A   1      46.745  29.198  27.699  1.00  0.00    -0.354 N 
ATOM     49  N   UNL A   1      45.768  26.442  27.331  1.00  0.00    -0.248 NA
ATOM     50  C   UNL A   1      46.139  24.246  26.629  1.00  0.00     0.031 C 
ATOM     51  C   UNL A   1      48.915  29.586  27.434  1.00  0.00     0.029 A 
ATOM     52  C   UNL A   1      47.943  28.599  27.355  1.00  0.00     0.049 A 
ATOM     53  H   UNL A   1      45.874  28.739  27.739  1.00  0.00     0.167 HD
ATOM     54  C   UNL A   1      47.105  26.296  26.975  1.00  0.00     0.074 A 
ATOM     55  C   UNL A   1      47.283  24.915  26.578  1.00  0.00     0.031 C 
ATOM     56  C   UNL A   1      48.098  27.219  26.972  1.00  0.00     0.037 A 
BRANCH  43  57
ATOM     57  C   UNL A   1      46.287  32.922  28.463  1.00  0.00     0.058 A 
ATOM     58  C   UNL A   1      46.734  33.452  29.682  1.00  0.00     0.135 A 
ATOM     59  C   UNL A   1      46.277  33.767  27.341  1.00  0.00     0.135 A 
ATOM     60  F   UNL A   1      46.743  32.691  30.788  1.00  0.00    -0.206 F 
ATOM     61  C   UNL A   1      47.159  34.773  29.785  1.00  0.00     0.059 A 
ATOM     62  C   UNL A   1      46.717  35.084  27.417  1.00  0.00     0.059 A 
ATOM     63  F   UNL A   1      45.847  33.309  26.155  1.00  0.00    -0.206 F 
ATOM     64  C   UNL A   1      47.155  35.578  28.645  1.00  0.00     0.060 A 
BRANCH  64  65
ATOM     65  S   UNL A   1      47.760  37.273  28.786  1.00  0.00     0.124 S 
ATOM     66  O   UNL A   1      46.562  38.039  28.458  1.00  0.00    -0.237 OA
ATOM     67  O   UNL A   1      48.190  37.334  30.179  1.00  0.00    -0.237 OA
ATOM     68  O   UNL A   1      48.833  37.334  27.798  1.00  0.00    -0.744 OA
ENDBRANCH  64  65
ENDBRANCH  43  57
BRANCH  44  69
ATOM     69  C   UNL A   1      43.346  23.461  27.053  1.00  0.00     0.058 A 
ATOM     70  C   UNL A   1      43.188  22.493  28.056  1.00  0.00     0.135 A 
ATOM     71  C   UNL A   1      43.108  23.071  25.725  1.00  0.00     0.135 A 
ATOM     72  F   UNL A   1      43.411  22.815  29.338  1.00  0.00    -0.206 F 
ATOM     73  C   UNL A   1      42.841  21.180  27.752  1.00  0.00     0.059 A 
ATOM     74  C   UNL A   1      42.735  21.771  25.400  1.00  0.00     0.059 A 
ATOM     75  F   UNL A   1      43.231  23.963  24.729  1.00  0.00    -0.206 F 
ATOM     76  C   UNL A   1      42.621  20.828  26.420  1.00  0.00     0.060 A 
BRANCH  76  77
ATOM     77  S   UNL A   1      42.158  19.125  26.036  1.00  0.00     0.124 S 
ATOM     78  O   UNL A   1      42.997  18.849  24.875  1.00  0.00    -0.237 OA
ATOM     79  O   UNL A   1      42.519  18.424  27.264  1.00  0.00    -0.237 OA
ATOM     80  O   UNL A   1      40.726  19.219  25.775  1.00  0.00    -0.744 OA
ENDBRANCH  76  77
ENDBRANCH  44  69
BRANCH  56  81
ATOM     81  C   UNL A   1      49.467  26.772  26.546  1.00  0.00     0.058 A 
ATOM     82  C   UNL A   1      50.349  26.155  27.446  1.00  0.00     0.135 A 
ATOM     83  C   UNL A   1      49.868  26.886  25.205  1.00  0.00     0.135 A 
ATOM     84  F   UNL A   1      50.016  26.030  28.740  1.00  0.00    -0.206 F 
ATOM     85  C   UNL A   1      51.586  25.673  27.033  1.00  0.00     0.059 A 
ATOM     86  C   UNL A   1      51.089  26.387  24.763  1.00  0.00     0.059 A 
ATOM     87  F   UNL A   1      49.055  27.459  24.303  1.00  0.00    -0.206 F 
ATOM     88  C   UNL A   1      51.944  25.787  25.687  1.00  0.00     0.060 A 
BRANCH  88  89
ATOM     89  S   UNL A   1      53.526  25.103  25.153  1.00  0.00     0.124 S 
ATOM     90  O   UNL A   1      54.452  25.743  26.082  1.00  0.00    -0.237 OA
ATOM     91  O   UNL A   1      53.328  23.669  25.343  1.00  0.00    -0.237 OA
ATOM     92  O   UNL A   1      53.632  25.536  23.763  1.00  0.00    -0.744 OA
ENDBRANCH  88  89
ENDBRANCH  56  81
ENDBRANCH  30  31
ENDBRANCH  23  25
ENDBRANCH  22  23
ENDBRANCH  21  22
ENDBRANCH   1  21
TORSDOF 17
ENDMDL
MODEL 3
REMARK VINA RESULT:     -10.5      5.947     12.955
REMARK SMILES O=C(CCS(=O)(=O)c1ccc2[nH]c(=O)oc2c1)OCCOC(=O)c1ccc(-c2c3nc(c(-c4c(F)cc(S(=O)(=O)[O-])cc4F)c4ccc([nH]4)c(-c4c(F)cc(S(=O)(=O)[O-])cc4F)c4nc(c(-c5c(F)cc(S(=O)(=O)[O-])cc5F)c5ccc2[nH]5)C=C4)C=C3)cc1
REMARK SMILES IDX 19 1 18 2 2 3 1 4 3 5 4 6 5 7 6 8 7 9 8 10 9 11 17 12 10 13
REMARK SMILES IDX 16 14 11 15 15 16 12 17 13 18 14 20 20 21 21 22 22 23 23 24
REMARK SMILES IDX 24 25 25 26 89 27 26 28 88 29 27 30 28 31 29 32 82 33 30 34
REMARK SMILES IDX 87 35 81 36 83 37 31 38 86 39 80 40 79 41 32 43 66 44 45 45
REMARK SMILES IDX 65 46 46 47 49 48 64 49 84 50 47 51 48 52 63 54 85 55 50 56
REMARK SMILES IDX 33 57 34 58 43 59 35 60 36 61 42 62 44 63 37 64 38 65 39 66
REMARK SMILES IDX 40 67 41 68 67 69 68 70 77 71 69 72 70 73 76 74 78 75 71 76
REMARK SMILES IDX 72 77 73 78 74 79 75 80 51 81 52 82 61 83 53 84 54 85 60 86
REMARK SMILES IDX 62 87 55 88 56 89 57 90 58 91 59 92
REMARK H PARENT 12 19 83 42 49 53
REMARK Flexibility Score: inf
ROOT
ATOM      1  C   UNL A   1      37.366  23.663  24.787  1.00  0.00     0.274 C 
ENDROOT
BRANCH   1   2
ATOM      2  O   UNL A   1      37.045  22.314  24.368  1.00  0.00    -0.462 OA
BRANCH   2   3
ATOM      3  C   UNL A   1      35.855  21.688  24.439  1.00  0.00     0.306 C 
ATOM      4  O   UNL A   1      35.758  20.604  25.013  1.00  0.00    -0.252 OA
BRANCH   3   5
ATOM      5  C   UNL A   1      34.617  22.349  23.903  1.00  0.00     0.139 C 
BRANCH   5   6
ATOM      6  C   UNL A   1      33.552  22.509  24.978  1.00  0.00     0.154 C 
BRANCH   6   7
ATOM      7  S   UNL A   1      31.960  21.820  24.580  1.00  0.00     0.179 S 
ATOM      8  O   UNL A   1      31.136  21.910  25.773  1.00  0.00    -0.224 OA
ATOM      9  O   UNL A   1      31.508  22.398  23.330  1.00  0.00    -0.224 OA
BRANCH   7  10
ATOM     10  C   UNL A   1      32.214  20.090  24.245  1.00  0.00     0.071 A 
ATOM     11  C   UNL A   1      32.159  19.633  22.910  1.00  0.00     0.023 A 
ATOM     12  C   UNL A   1      32.535  19.229  25.304  1.00  0.00     0.069 A 
ATOM     13  C   UNL A   1      32.504  18.312  22.604  1.00  0.00     0.031 A 
ATOM     14  C   UNL A   1      32.881  17.940  24.968  1.00  0.00     0.157 A 
ATOM     15  C   UNL A   1      32.874  17.510  23.658  1.00  0.00     0.087 A 
ATOM     16  O   UNL A   1      33.306  16.959  25.849  1.00  0.00    -0.408 OA
ATOM     17  N   UNL A   1      33.313  16.219  23.680  1.00  0.00    -0.287 N 
ATOM     18  C   UNL A   1      33.581  15.887  24.987  1.00  0.00     0.417 A 
ATOM     19  H   UNL A   1      33.419  15.629  22.899  1.00  0.00     0.173 HD
ATOM     20  O   UNL A   1      33.997  14.802  25.363  1.00  0.00    -0.224 OA
ENDBRANCH   7  10
ENDBRANCH   6   7
ENDBRANCH   5   6
ENDBRANCH   3   5
ENDBRANCH   2   3
ENDBRANCH   1   2
BRANCH   1  21
ATOM     21  C   UNL A   1      38.107  23.650  26.119  1.00  0.00     0.275 C 
BRANCH  21  22
ATOM     22  O   UNL A   1      38.974  24.790  26.176  1.00  0.00    -0.458 OA
BRANCH  22  23
ATOM     23  C   UNL A   1      40.146  24.598  26.833  1.00  0.00     0.338 C 
ATOM     24  O   UNL A   1      41.027  23.816  26.543  1.00  0.00    -0.246 OA
BRANCH  23  25
ATOM     25  C   UNL A   1      40.269  25.646  27.870  1.00  0.00     0.060 A 
ATOM     26  C   UNL A   1      39.276  25.723  28.855  1.00  0.00     0.016 A 
ATOM     27  C   UNL A   1      41.359  26.522  27.892  1.00  0.00     0.016 A 
ATOM     28  C   UNL A   1      39.359  26.693  29.852  1.00  0.00     0.010 A 
ATOM     29  C   UNL A   1      41.443  27.488  28.891  1.00  0.00     0.010 A 
ATOM     30  C   UNL A   1      40.433  27.592  29.861  1.00  0.00    -0.014 A 
BRANCH  30  31
ATOM     31  C   UNL A   1      40.470  28.734  30.800  1.00  0.00     0.031 A 
ATOM     32  C   UNL A   1      41.388  28.653  31.987  1.00  0.00     0.074 A 
ATOM     33  C   UNL A   1      39.638  29.778  30.637  1.00  0.00     0.049 A 
ATOM     34  N   UNL A   1      41.478  29.451  33.016  1.00  0.00    -0.248 NA
ATOM     35  C   UNL A   1      42.316  27.509  32.026  1.00  0.00     0.031 C 
ATOM     36  C   UNL A   1      38.708  29.950  29.521  1.00  0.00     0.029 A 
ATOM     37  N   UNL A   1      39.413  30.870  31.435  1.00  0.00    -0.354 N 
ATOM     38  C   UNL A   1      42.453  28.896  33.836  1.00  0.00     0.074 A 
ATOM     39  C   UNL A   1      42.917  27.688  33.193  1.00  0.00     0.031 C 
ATOM     40  C   UNL A   1      37.982  31.064  29.725  1.00  0.00     0.029 A 
ATOM     41  C   UNL A   1      38.375  31.661  31.001  1.00  0.00     0.049 A 
ATOM     42  H   UNL A   1      39.942  31.068  32.240  1.00  0.00     0.167 HD
ATOM     43  C   UNL A   1      42.917  29.360  35.018  1.00  0.00     0.037 A 
ATOM     44  C   UNL A   1      37.785  32.720  31.590  1.00  0.00     0.037 A 
ATOM     45  C   UNL A   1      42.458  30.576  35.636  1.00  0.00     0.049 A 
ATOM     46  C   UNL A   1      38.297  33.193  32.928  1.00  0.00     0.074 A 
ATOM     47  C   UNL A   1      42.922  31.178  36.792  1.00  0.00     0.029 A 
ATOM     48  N   UNL A   1      41.422  31.364  35.159  1.00  0.00    -0.354 N 
ATOM     49  N   UNL A   1      39.278  32.711  33.653  1.00  0.00    -0.248 NA
ATOM     50  C   UNL A   1      37.620  34.352  33.530  1.00  0.00     0.031 C 
ATOM     51  C   UNL A   1      42.127  32.300  37.044  1.00  0.00     0.029 A 
ATOM     52  C   UNL A   1      41.202  32.424  36.019  1.00  0.00     0.049 A 
ATOM     53  H   UNL A   1      40.918  31.193  34.331  1.00  0.00     0.167 HD
ATOM     54  C   UNL A   1      39.347  33.515  34.785  1.00  0.00     0.074 A 
ATOM     55  C   UNL A   1      38.322  34.528  34.642  1.00  0.00     0.031 C 
ATOM     56  C   UNL A   1      40.181  33.426  35.851  1.00  0.00     0.037 A 
BRANCH  43  57
ATOM     57  C   UNL A   1      43.960  28.555  35.737  1.00  0.00     0.058 A 
ATOM     58  C   UNL A   1      43.617  27.516  36.612  1.00  0.00     0.135 A 
ATOM     59  C   UNL A   1      45.323  28.776  35.478  1.00  0.00     0.135 A 
ATOM     60  F   UNL A   1      42.329  27.278  36.908  1.00  0.00    -0.206 F 
ATOM     61  C   UNL A   1      44.590  26.720  37.209  1.00  0.00     0.059 A 
ATOM     62  C   UNL A   1      46.312  27.980  36.047  1.00  0.00     0.059 A 
ATOM     63  F   UNL A   1      45.702  29.767  34.655  1.00  0.00    -0.206 F 
ATOM     64  C   UNL A   1      45.934  26.955  36.913  1.00  0.00     0.060 A 
BRANCH  64  65
ATOM     65  S   UNL A   1      47.180  25.878  37.654  1.00  0.00     0.124 S 
ATOM     66  O   UNL A   1      47.855  26.798  38.564  1.00  0.00    -0.237 OA
ATOM     67  O   UNL A   1      46.363  24.848  38.286  1.00  0.00    -0.237 OA
ATOM     68  O   UNL A   1      47.970  25.435  36.510  1.00  0.00    -0.744 OA
ENDBRANCH  64  65
ENDBRANCH  43  57
BRANCH  44  69
ATOM     69  C   UNL A   1      36.615  33.383  30.952  1.00  0.00     0.058 A 
ATOM     70  C   UNL A   1      36.763  34.155  29.790  1.00  0.00     0.135 A 
ATOM     71  C   UNL A   1      35.332  33.287  31.513  1.00  0.00     0.135 A 
ATOM     72  F   UNL A   1      37.970  34.284  29.220  1.00  0.00    -0.206 F 
ATOM     73  C   UNL A   1      35.688  34.833  29.224  1.00  0.00     0.059 A 
ATOM     74  C   UNL A   1      34.237  33.934  30.951  1.00  0.00     0.059 A 
ATOM     75  F   UNL A   1      35.134  32.549  32.617  1.00  0.00    -0.206 F 
ATOM     76  C   UNL A   1      34.429  34.720  29.816  1.00  0.00     0.060 A 
BRANCH  76  77
ATOM     77  S   UNL A   1      33.036  35.593  29.068  1.00  0.00     0.124 S 
ATOM     78  O   UNL A   1      32.476  34.562  28.202  1.00  0.00    -0.237 OA
ATOM     79  O   UNL A   1      32.236  35.951  30.233  1.00  0.00    -0.237 OA
ATOM     80  O   UNL A   1      33.674  36.715  28.385  1.00  0.00    -0.744 OA
ENDBRANCH  76  77
ENDBRANCH  44  69
BRANCH  56  81
ATOM     81  C   UNL A   1      40.037  34.453  36.938  1.00  0.00     0.058 A 
ATOM     82  C   UNL A   1      40.717  35.679  36.882  1.00  0.00     0.135 A 
ATOM     83  C   UNL A   1      39.147  34.242  38.003  1.00  0.00     0.135 A 
ATOM     84  F   UNL A   1      41.586  35.924  35.889  1.00  0.00    -0.206 F 
ATOM     85  C   UNL A   1      40.526  36.659  37.850  1.00  0.00     0.059 A 
ATOM     86  C   UNL A   1      38.919  35.218  38.968  1.00  0.00     0.059 A 
ATOM     87  F   UNL A   1      38.464  33.089  38.096  1.00  0.00    -0.206 F 
ATOM     88  C   UNL A   1      39.618  36.421  38.885  1.00  0.00     0.060 A 
BRANCH  88  89
ATOM     89  S   UNL A   1      39.334  37.726  40.100  1.00  0.00     0.124 S 
ATOM     90  O   UNL A   1      40.597  38.455  40.049  1.00  0.00    -0.237 OA
ATOM     91  O   UNL A   1      38.177  38.423  39.547  1.00  0.00    -0.237 OA
ATOM     92  O   UNL A   1      39.083  36.990  41.336  1.00  0.00    -0.744 OA
ENDBRANCH  88  89
ENDBRANCH  56  81
ENDBRANCH  30  31
ENDBRANCH  23  25
ENDBRANCH  22  23
ENDBRANCH  21  22
ENDBRANCH   1  21
TORSDOF 17
ENDMDL
