MODEL 1
REMARK VINA RESULT:     -11.7      0.000      0.000
REMARK SMILES C[C@H](C(=O)OCCOC(=O)c1ccc(-c2c3nc(c(-c4c(F)cc(S(=O)(=O)[O-])cc4F)c4ccc([nH]4)c(-c4c(F)cc(S(=O)(=O)[O-])cc4F)c4nc(c(-c5c(F)cc(S(=O)(=O)[O-])cc5F)c5ccc2[nH]5)C=C4)C=C3)cc1)c1cccc(C(=O)c2ccccc2)c1
REMARK SMILES IDX 6 1 5 2 3 3 4 4 2 5 1 6 77 7 78 8 90 9 79 10 81 11 80 12
REMARK SMILES IDX 82 13 83 14 84 15 85 16 89 17 86 18 88 19 87 20 7 21 8 22
REMARK SMILES IDX 9 23 10 24 11 25 12 26 76 27 13 28 75 29 14 30 15 31 16 32
REMARK SMILES IDX 69 33 17 34 74 35 68 36 70 37 18 38 73 39 67 40 66 41 19 43
REMARK SMILES IDX 53 44 32 45 52 46 33 47 36 48 51 49 71 50 34 51 35 52 50 54
REMARK SMILES IDX 72 55 37 56 20 57 21 58 30 59 22 60 23 61 29 62 31 63 24 64
REMARK SMILES IDX 25 65 26 66 27 67 28 68 54 69 55 70 64 71 56 72 57 73 63 74
REMARK SMILES IDX 65 75 58 76 59 77 60 78 61 79 62 80 38 81 39 82 48 83 40 84
REMARK SMILES IDX 41 85 47 86 49 87 42 88 43 89 44 90 45 91 46 92
REMARK H PARENT 70 42 36 53
REMARK Flexibility Score: inf
ROOT
ATOM      1  C   UNL A   1      37.960  22.092  25.212  1.00  0.00     0.274 C 
ENDROOT
BRANCH   1   2
ATOM      2  O   UNL A   1      37.527  23.391  24.758  1.00  0.00    -0.462 OA
BRANCH   2   3
ATOM      3  C   UNL A   1      36.546  23.419  23.811  1.00  0.00     0.313 C 
ATOM      4  O   UNL A   1      36.727  23.221  22.616  1.00  0.00    -0.252 OA
BRANCH   3   5
ATOM      5  C   UNL A   1      35.197  23.833  24.397  1.00  0.00     0.126 C 
ATOM      6  C   UNL A   1      34.298  24.520  23.370  1.00  0.00     0.025 C 
BRANCH   5   7
ATOM      7  C   UNL A   1      34.464  22.691  25.086  1.00  0.00    -0.033 A 
ATOM      8  C   UNL A   1      34.218  22.744  26.465  1.00  0.00     0.004 A 
ATOM      9  C   UNL A   1      33.990  21.582  24.370  1.00  0.00     0.016 A 
ATOM     10  C   UNL A   1      33.523  21.713  27.104  1.00  0.00     0.001 A 
ATOM     11  C   UNL A   1      33.339  20.521  25.010  1.00  0.00     0.023 A 
ATOM     12  C   UNL A   1      33.085  20.602  26.380  1.00  0.00     0.012 A 
BRANCH  11  13
ATOM     13  C   UNL A   1      32.882  19.333  24.235  1.00  0.00     0.193 C 
ATOM     14  O   UNL A   1      32.209  19.472  23.218  1.00  0.00    -0.289 OA
BRANCH  13  15
ATOM     15  C   UNL A   1      33.269  17.964  24.661  1.00  0.00     0.022 A 
ATOM     16  C   UNL A   1      32.305  17.157  25.270  1.00  0.00     0.012 A 
ATOM     17  C   UNL A   1      34.558  17.468  24.423  1.00  0.00     0.012 A 
ATOM     18  C   UNL A   1      32.619  15.839  25.608  1.00  0.00     0.001 A 
ATOM     19  C   UNL A   1      34.865  16.149  24.763  1.00  0.00     0.001 A 
ATOM     20  C   UNL A   1      33.894  15.335  25.349  1.00  0.00     0.000 A 
ENDBRANCH  13  15
ENDBRANCH  11  13
ENDBRANCH   5   7
ENDBRANCH   3   5
ENDBRANCH   2   3
ENDBRANCH   1   2
BRANCH   1  21
ATOM     21  C   UNL A   1      39.090  22.262  26.219  1.00  0.00     0.275 C 
BRANCH  21  22
ATOM     22  O   UNL A   1      39.276  23.668  26.444  1.00  0.00    -0.458 OA
BRANCH  22  23
ATOM     23  C   UNL A   1      40.530  24.044  26.779  1.00  0.00     0.338 C 
ATOM     24  O   UNL A   1      41.577  23.517  26.447  1.00  0.00    -0.246 OA
BRANCH  23  25
ATOM     25  C   UNL A   1      40.463  25.257  27.612  1.00  0.00     0.060 A 
ATOM     26  C   UNL A   1      41.489  26.205  27.557  1.00  0.00     0.016 A 
ATOM     27  C   UNL A   1      39.427  25.391  28.534  1.00  0.00     0.016 A 
ATOM     28  C   UNL A   1      41.527  27.241  28.485  1.00  0.00     0.010 A 
ATOM     29  C   UNL A   1      39.416  26.489  29.396  1.00  0.00     0.010 A 
ATOM     30  C   UNL A   1      40.481  27.408  29.404  1.00  0.00    -0.014 A 
BRANCH  30  31
ATOM     31  C   UNL A   1      40.501  28.517  30.394  1.00  0.00     0.031 A 
ATOM     32  C   UNL A   1      41.514  28.510  31.509  1.00  0.00     0.074 A 
ATOM     33  C   UNL A   1      39.602  29.519  30.315  1.00  0.00     0.049 A 
ATOM     34  N   UNL A   1      41.546  29.227  32.602  1.00  0.00    -0.248 NA
ATOM     35  C   UNL A   1      42.626  27.553  31.386  1.00  0.00     0.031 C 
ATOM     36  C   UNL A   1      38.593  29.677  29.265  1.00  0.00     0.029 A 
ATOM     37  N   UNL A   1      39.391  30.596  31.138  1.00  0.00    -0.354 N 
ATOM     38  C   UNL A   1      42.633  28.759  33.331  1.00  0.00     0.074 A 
ATOM     39  C   UNL A   1      43.246  27.707  32.548  1.00  0.00     0.031 C 
ATOM     40  C   UNL A   1      37.893  30.799  29.489  1.00  0.00     0.029 A 
ATOM     41  C   UNL A   1      38.340  31.392  30.743  1.00  0.00     0.049 A 
ATOM     42  H   UNL A   1      39.937  30.782  31.936  1.00  0.00     0.167 HD
ATOM     43  C   UNL A   1      43.069  29.164  34.547  1.00  0.00     0.037 A 
ATOM     44  C   UNL A   1      37.767  32.451  31.346  1.00  0.00     0.037 A 
ATOM     45  C   UNL A   1      42.493  30.258  35.287  1.00  0.00     0.049 A 
ATOM     46  C   UNL A   1      38.272  32.890  32.689  1.00  0.00     0.074 A 
ATOM     47  C   UNL A   1      42.870  30.758  36.520  1.00  0.00     0.029 A 
ATOM     48  N   UNL A   1      41.431  31.034  34.847  1.00  0.00    -0.354 N 
ATOM     49  N   UNL A   1      39.248  32.385  33.405  1.00  0.00    -0.248 NA
ATOM     50  C   UNL A   1      37.582  34.023  33.319  1.00  0.00     0.031 C 
ATOM     51  C   UNL A   1      42.024  31.829  36.835  1.00  0.00     0.029 A 
ATOM     52  C   UNL A   1      41.139  32.011  35.784  1.00  0.00     0.049 A 
ATOM     53  H   UNL A   1      40.956  30.910  33.994  1.00  0.00     0.167 HD
ATOM     54  C   UNL A   1      39.290  33.137  34.571  1.00  0.00     0.074 A 
ATOM     55  C   UNL A   1      38.254  34.145  34.456  1.00  0.00     0.031 C 
ATOM     56  C   UNL A   1      40.103  33.001  35.647  1.00  0.00     0.037 A 
BRANCH  43  57
ATOM     57  C   UNL A   1      44.201  28.399  35.173  1.00  0.00     0.058 A 
ATOM     58  C   UNL A   1      45.541  28.774  34.997  1.00  0.00     0.135 A 
ATOM     59  C   UNL A   1      43.931  27.287  35.987  1.00  0.00     0.135 A 
ATOM     60  F   UNL A   1      45.854  29.817  34.213  1.00  0.00    -0.206 F 
ATOM     61  C   UNL A   1      46.577  28.059  35.591  1.00  0.00     0.059 A 
ATOM     62  C   UNL A   1      44.951  26.570  36.606  1.00  0.00     0.059 A 
ATOM     63  F   UNL A   1      42.666  26.885  36.184  1.00  0.00    -0.206 F 
ATOM     64  C   UNL A   1      46.272  26.955  36.390  1.00  0.00     0.060 A 
BRANCH  64  65
ATOM     65  S   UNL A   1      47.622  26.036  37.160  1.00  0.00     0.124 S 
ATOM     66  O   UNL A   1      46.962  24.778  37.494  1.00  0.00    -0.237 OA
ATOM     67  O   UNL A   1      48.610  25.965  36.087  1.00  0.00    -0.237 OA
ATOM     68  O   UNL A   1      47.996  26.871  38.296  1.00  0.00    -0.744 OA
ENDBRANCH  64  65
ENDBRANCH  43  57
BRANCH  44  69
ATOM     69  C   UNL A   1      36.620  33.135  30.695  1.00  0.00     0.058 A 
ATOM     70  C   UNL A   1      35.306  32.892  31.117  1.00  0.00     0.135 A 
ATOM     71  C   UNL A   1      36.818  34.074  29.671  1.00  0.00     0.135 A 
ATOM     72  F   UNL A   1      35.068  31.995  32.087  1.00  0.00    -0.206 F 
ATOM     73  C   UNL A   1      34.225  33.560  30.551  1.00  0.00     0.059 A 
ATOM     74  C   UNL A   1      35.756  34.771  29.105  1.00  0.00     0.059 A 
ATOM     75  F   UNL A   1      38.059  34.350  29.242  1.00  0.00    -0.206 F 
ATOM     76  C   UNL A   1      34.462  34.503  29.548  1.00  0.00     0.060 A 
BRANCH  76  77
ATOM     77  S   UNL A   1      33.068  35.431  28.872  1.00  0.00     0.124 S 
ATOM     78  O   UNL A   1      33.745  36.550  28.229  1.00  0.00    -0.237 OA
ATOM     79  O   UNL A   1      32.450  34.458  27.975  1.00  0.00    -0.237 OA
ATOM     80  O   UNL A   1      32.284  35.759  30.058  1.00  0.00    -0.744 OA
ENDBRANCH  76  77
ENDBRANCH  44  69
BRANCH  56  81
ATOM     81  C   UNL A   1      39.913  33.976  36.770  1.00  0.00     0.058 A 
ATOM     82  C   UNL A   1      40.463  35.265  36.717  1.00  0.00     0.135 A 
ATOM     83  C   UNL A   1      39.150  33.628  37.895  1.00  0.00     0.135 A 
ATOM     84  F   UNL A   1      41.207  35.639  35.664  1.00  0.00    -0.206 F 
ATOM     85  C   UNL A   1      40.277  36.173  37.754  1.00  0.00     0.059 A 
ATOM     86  C   UNL A   1      38.936  34.525  38.934  1.00  0.00     0.059 A 
ATOM     87  F   UNL A   1      38.599  32.406  37.985  1.00  0.00    -0.206 F 
ATOM     88  C   UNL A   1      39.516  35.793  38.860  1.00  0.00     0.060 A 
BRANCH  88  89
ATOM     89  S   UNL A   1      39.259  36.984  40.192  1.00  0.00     0.124 S 
ATOM     90  O   UNL A   1      40.619  37.163  40.690  1.00  0.00    -0.237 OA
ATOM     91  O   UNL A   1      38.685  38.127  39.489  1.00  0.00    -0.237 OA
ATOM     92  O   UNL A   1      38.345  36.289  41.094  1.00  0.00    -0.744 OA
ENDBRANCH  88  89
ENDBRANCH  56  81
ENDBRANCH  30  31
ENDBRANCH  23  25
ENDBRANCH  22  23
ENDBRANCH  21  22
ENDBRANCH   1  21
TORSDOF 17
ENDMDL
MODEL 2
REMARK VINA RESULT:     -11.4      2.899      9.422
REMARK SMILES C[C@H](C(=O)OCCOC(=O)c1ccc(-c2c3nc(c(-c4c(F)cc(S(=O)(=O)[O-])cc4F)c4ccc([nH]4)c(-c4c(F)cc(S(=O)(=O)[O-])cc4F)c4nc(c(-c5c(F)cc(S(=O)(=O)[O-])cc5F)c5ccc2[nH]5)C=C4)C=C3)cc1)c1cccc(C(=O)c2ccccc2)c1
REMARK SMILES IDX 6 1 5 2 3 3 4 4 2 5 1 6 77 7 78 8 90 9 79 10 81 11 80 12
REMARK SMILES IDX 82 13 83 14 84 15 85 16 89 17 86 18 88 19 87 20 7 21 8 22
REMARK SMILES IDX 9 23 10 24 11 25 12 26 76 27 13 28 75 29 14 30 15 31 16 32
REMARK SMILES IDX 69 33 17 34 74 35 68 36 70 37 18 38 73 39 67 40 66 41 19 43
REMARK SMILES IDX 53 44 32 45 52 46 33 47 36 48 51 49 71 50 34 51 35 52 50 54
REMARK SMILES IDX 72 55 37 56 20 57 21 58 30 59 22 60 23 61 29 62 31 63 24 64
REMARK SMILES IDX 25 65 26 66 27 67 28 68 54 69 55 70 64 71 56 72 57 73 63 74
REMARK SMILES IDX 65 75 58 76 59 77 60 78 61 79 62 80 38 81 39 82 48 83 40 84
REMARK SMILES IDX 41 85 47 86 49 87 42 88 43 89 44 90 45 91 46 92
REMARK H PARENT 70 42 36 53
REMARK Flexibility Score: inf
ROOT
ATOM      1  C   UNL A   1      46.059  24.124  26.167  1.00  0.00     0.274 C 
ENDROOT
BRANCH   1   2
ATOM      2  O   UNL A   1      45.969  22.720  25.846  1.00  0.00    -0.462 OA
BRANCH   2   3
ATOM      3  C   UNL A   1      45.428  22.398  24.637  1.00  0.00     0.313 C 
ATOM      4  O   UNL A   1      45.103  23.211  23.780  1.00  0.00    -0.252 OA
BRANCH   3   5
ATOM      5  C   UNL A   1      45.170  20.896  24.508  1.00  0.00     0.126 C 
ATOM      6  C   UNL A   1      46.408  20.060  24.829  1.00  0.00     0.025 C 
BRANCH   5   7
ATOM      7  C   UNL A   1      43.968  20.422  25.310  1.00  0.00    -0.033 A 
ATOM      8  C   UNL A   1      43.684  19.053  25.409  1.00  0.00     0.004 A 
ATOM      9  C   UNL A   1      43.136  21.322  25.993  1.00  0.00     0.016 A 
ATOM     10  C   UNL A   1      42.598  18.603  26.164  1.00  0.00     0.001 A 
ATOM     11  C   UNL A   1      42.015  20.885  26.709  1.00  0.00     0.023 A 
ATOM     12  C   UNL A   1      41.763  19.516  26.812  1.00  0.00     0.012 A 
BRANCH  11  13
ATOM     13  C   UNL A   1      41.121  21.863  27.391  1.00  0.00     0.193 C 
ATOM     14  O   UNL A   1      41.409  22.303  28.500  1.00  0.00    -0.289 OA
BRANCH  13  15
ATOM     15  C   UNL A   1      39.890  22.349  26.719  1.00  0.00     0.022 A 
ATOM     16  C   UNL A   1      39.148  21.449  25.950  1.00  0.00     0.012 A 
ATOM     17  C   UNL A   1      39.449  23.670  26.882  1.00  0.00     0.012 A 
ATOM     18  C   UNL A   1      37.945  21.858  25.373  1.00  0.00     0.001 A 
ATOM     19  C   UNL A   1      38.243  24.072  26.303  1.00  0.00     0.001 A 
ATOM     20  C   UNL A   1      37.491  23.166  25.556  1.00  0.00     0.000 A 
ENDBRANCH  13  15
ENDBRANCH  11  13
ENDBRANCH   5   7
ENDBRANCH   3   5
ENDBRANCH   2   3
ENDBRANCH   1   2
BRANCH   1  21
ATOM     21  C   UNL A   1      45.160  24.426  27.358  1.00  0.00     0.275 C 
BRANCH  21  22
ATOM     22  O   UNL A   1      43.797  24.390  26.906  1.00  0.00    -0.458 OA
BRANCH  22  23
ATOM     23  C   UNL A   1      43.325  25.545  26.386  1.00  0.00     0.338 C 
ATOM     24  O   UNL A   1      43.299  25.876  25.214  1.00  0.00    -0.246 OA
BRANCH  23  25
ATOM     25  C   UNL A   1      42.785  26.377  27.475  1.00  0.00     0.060 A 
ATOM     26  C   UNL A   1      43.280  27.668  27.683  1.00  0.00     0.016 A 
ATOM     27  C   UNL A   1      41.863  25.824  28.361  1.00  0.00     0.016 A 
ATOM     28  C   UNL A   1      42.919  28.373  28.827  1.00  0.00     0.010 A 
ATOM     29  C   UNL A   1      41.427  26.575  29.453  1.00  0.00     0.010 A 
ATOM     30  C   UNL A   1      41.973  27.844  29.717  1.00  0.00    -0.014 A 
BRANCH  30  31
ATOM     31  C   UNL A   1      41.568  28.590  30.938  1.00  0.00     0.031 A 
ATOM     32  C   UNL A   1      40.358  29.486  30.903  1.00  0.00     0.074 A 
ATOM     33  C   UNL A   1      42.291  28.487  32.072  1.00  0.00     0.049 A 
ATOM     34  N   UNL A   1      39.982  30.402  31.756  1.00  0.00    -0.248 NA
ATOM     35  C   UNL A   1      39.465  29.347  29.741  1.00  0.00     0.031 C 
ATOM     36  C   UNL A   1      43.459  27.625  32.261  1.00  0.00     0.029 A 
ATOM     37  N   UNL A   1      42.149  29.120  33.282  1.00  0.00    -0.354 N 
ATOM     38  C   UNL A   1      38.855  30.999  31.202  1.00  0.00     0.074 A 
ATOM     39  C   UNL A   1      38.598  30.328  29.946  1.00  0.00     0.031 C 
ATOM     40  C   UNL A   1      43.907  27.758  33.519  1.00  0.00     0.029 A 
ATOM     41  C   UNL A   1      43.117  28.778  34.197  1.00  0.00     0.049 A 
ATOM     42  H   UNL A   1      41.425  29.757  33.476  1.00  0.00     0.167 HD
ATOM     43  C   UNL A   1      38.114  32.020  31.694  1.00  0.00     0.037 A 
ATOM     44  C   UNL A   1      43.373  29.265  35.426  1.00  0.00     0.037 A 
ATOM     45  C   UNL A   1      38.339  32.633  32.978  1.00  0.00     0.049 A 
ATOM     46  C   UNL A   1      42.533  30.390  35.956  1.00  0.00     0.074 A 
ATOM     47  C   UNL A   1      37.636  33.664  33.576  1.00  0.00     0.029 A 
ATOM     48  N   UNL A   1      39.331  32.254  33.870  1.00  0.00    -0.354 N 
ATOM     49  N   UNL A   1      41.522  31.001  35.386  1.00  0.00    -0.248 NA
ATOM     50  C   UNL A   1      42.885  30.911  37.284  1.00  0.00     0.031 C 
ATOM     51  C   UNL A   1      38.214  33.920  34.826  1.00  0.00     0.029 A 
ATOM     52  C   UNL A   1      39.259  33.030  35.015  1.00  0.00     0.049 A 
ATOM     53  H   UNL A   1      39.989  31.538  33.713  1.00  0.00     0.167 HD
ATOM     54  C   UNL A   1      41.117  31.980  36.283  1.00  0.00     0.074 A 
ATOM     55  C   UNL A   1      41.978  31.866  37.444  1.00  0.00     0.031 C 
ATOM     56  C   UNL A   1      40.128  32.898  36.155  1.00  0.00     0.037 A 
BRANCH  43  57
ATOM     57  C   UNL A   1      37.014  32.564  30.828  1.00  0.00     0.058 A 
ATOM     58  C   UNL A   1      37.250  33.539  29.848  1.00  0.00     0.135 A 
ATOM     59  C   UNL A   1      35.705  32.075  30.966  1.00  0.00     0.135 A 
ATOM     60  F   UNL A   1      38.479  34.053  29.689  1.00  0.00    -0.206 F 
ATOM     61  C   UNL A   1      36.221  34.027  29.048  1.00  0.00     0.059 A 
ATOM     62  C   UNL A   1      34.664  32.534  30.164  1.00  0.00     0.059 A 
ATOM     63  F   UNL A   1      35.425  31.144  31.892  1.00  0.00    -0.206 F 
ATOM     64  C   UNL A   1      34.930  33.521  29.217  1.00  0.00     0.060 A 
BRANCH  64  65
ATOM     65  S   UNL A   1      33.601  34.157  28.172  1.00  0.00     0.124 S 
ATOM     66  O   UNL A   1      34.350  34.945  27.198  1.00  0.00    -0.237 OA
ATOM     67  O   UNL A   1      32.989  32.935  27.659  1.00  0.00    -0.237 OA
ATOM     68  O   UNL A   1      32.777  34.923  29.101  1.00  0.00    -0.744 OA
ENDBRANCH  64  65
ENDBRANCH  43  57
BRANCH  44  69
ATOM     69  C   UNL A   1      44.506  28.715  36.213  1.00  0.00     0.058 A 
ATOM     70  C   UNL A   1      44.324  27.614  37.061  1.00  0.00     0.135 A 
ATOM     71  C   UNL A   1      45.799  29.250  36.099  1.00  0.00     0.135 A 
ATOM     72  F   UNL A   1      43.104  27.076  37.207  1.00  0.00    -0.206 F 
ATOM     73  C   UNL A   1      45.386  27.057  37.767  1.00  0.00     0.059 A 
ATOM     74  C   UNL A   1      46.879  28.697  36.778  1.00  0.00     0.059 A 
ATOM     75  F   UNL A   1      46.026  30.296  35.290  1.00  0.00    -0.206 F 
ATOM     76  C   UNL A   1      46.662  27.604  37.614  1.00  0.00     0.060 A 
BRANCH  76  77
ATOM     77  S   UNL A   1      48.053  26.829  38.466  1.00  0.00     0.124 S 
ATOM     78  O   UNL A   1      49.144  27.081  37.533  1.00  0.00    -0.237 OA
ATOM     79  O   UNL A   1      48.104  27.571  39.722  1.00  0.00    -0.237 OA
ATOM     80  O   UNL A   1      47.631  25.437  38.589  1.00  0.00    -0.744 OA
ENDBRANCH  76  77
ENDBRANCH  44  69
BRANCH  56  81
ATOM     81  C   UNL A   1      39.919  33.835  37.307  1.00  0.00     0.058 A 
ATOM     82  C   UNL A   1      40.548  35.088  37.351  1.00  0.00     0.135 A 
ATOM     83  C   UNL A   1      39.057  33.490  38.359  1.00  0.00     0.135 A 
ATOM     84  F   UNL A   1      41.387  35.457  36.370  1.00  0.00    -0.206 F 
ATOM     85  C   UNL A   1      40.345  35.962  38.413  1.00  0.00     0.059 A 
ATOM     86  C   UNL A   1      38.825  34.355  39.422  1.00  0.00     0.059 A 
ATOM     87  F   UNL A   1      38.427  32.304  38.355  1.00  0.00    -0.206 F 
ATOM     88  C   UNL A   1      39.485  35.585  39.446  1.00  0.00     0.060 A 
BRANCH  88  89
ATOM     89  S   UNL A   1      39.207  36.733  40.811  1.00  0.00     0.124 S 
ATOM     90  O   UNL A   1      38.278  35.978  41.644  1.00  0.00    -0.237 OA
ATOM     91  O   UNL A   1      40.550  36.908  41.357  1.00  0.00    -0.237 OA
ATOM     92  O   UNL A   1      38.648  37.911  40.153  1.00  0.00    -0.744 OA
ENDBRANCH  88  89
ENDBRANCH  56  81
ENDBRANCH  30  31
ENDBRANCH  23  25
ENDBRANCH  22  23
ENDBRANCH  21  22
ENDBRANCH   1  21
TORSDOF 17
ENDMDL
MODEL 3
REMARK VINA RESULT:     -11.4      6.703     14.025
REMARK SMILES C[C@H](C(=O)OCCOC(=O)c1ccc(-c2c3nc(c(-c4c(F)cc(S(=O)(=O)[O-])cc4F)c4ccc([nH]4)c(-c4c(F)cc(S(=O)(=O)[O-])cc4F)c4nc(c(-c5c(F)cc(S(=O)(=O)[O-])cc5F)c5ccc2[nH]5)C=C4)C=C3)cc1)c1cccc(C(=O)c2ccccc2)c1
REMARK SMILES IDX 6 1 5 2 3 3 4 4 2 5 1 6 77 7 78 8 90 9 79 10 81 11 80 12
REMARK SMILES IDX 82 13 83 14 84 15 85 16 89 17 86 18 88 19 87 20 7 21 8 22
REMARK SMILES IDX 9 23 10 24 11 25 12 26 76 27 13 28 75 29 14 30 15 31 16 32
REMARK SMILES IDX 69 33 17 34 74 35 68 36 70 37 18 38 73 39 67 40 66 41 19 43
REMARK SMILES IDX 53 44 32 45 52 46 33 47 36 48 51 49 71 50 34 51 35 52 50 54
REMARK SMILES IDX 72 55 37 56 20 57 21 58 30 59 22 60 23 61 29 62 31 63 24 64
REMARK SMILES IDX 25 65 26 66 27 67 28 68 54 69 55 70 64 71 56 72 57 73 63 74
REMARK SMILES IDX 65 75 58 76 59 77 60 78 61 79 62 80 38 81 39 82 48 83 40 84
REMARK SMILES IDX 41 85 47 86 49 87 42 88 43 89 44 90 45 91 46 92
REMARK H PARENT 70 42 36 53
REMARK Flexibility Score: inf
ROOT
ATOM      1  C   UNL A   1      34.449  33.286  29.594  1.00  0.00     0.274 C 
ENDROOT
BRANCH   1   2
ATOM      2  O   UNL A   1      34.972  34.019  30.721  1.00  0.00    -0.462 OA
BRANCH   2   3
ATOM      3  C   UNL A   1      34.789  33.467  31.954  1.00  0.00     0.313 C 
ATOM      4  O   UNL A   1      33.870  32.713  32.250  1.00  0.00    -0.252 OA
BRANCH   3   5
ATOM      5  C   UNL A   1      35.809  33.983  32.969  1.00  0.00     0.126 C 
ATOM      6  C   UNL A   1      35.235  34.072  34.383  1.00  0.00     0.025 C 
BRANCH   5   7
ATOM      7  C   UNL A   1      37.115  33.202  32.959  1.00  0.00    -0.033 A 
ATOM      8  C   UNL A   1      37.100  31.804  33.055  1.00  0.00     0.004 A 
ATOM      9  C   UNL A   1      38.355  33.844  32.822  1.00  0.00     0.016 A 
ATOM     10  C   UNL A   1      38.291  31.075  33.021  1.00  0.00     0.001 A 
ATOM     11  C   UNL A   1      39.557  33.126  32.839  1.00  0.00     0.023 A 
ATOM     12  C   UNL A   1      39.519  31.733  32.915  1.00  0.00     0.012 A 
BRANCH  11  13
ATOM     13  C   UNL A   1      40.865  33.833  32.735  1.00  0.00     0.193 C 
ATOM     14  O   UNL A   1      41.588  33.955  33.719  1.00  0.00    -0.289 OA
BRANCH  13  15
ATOM     15  C   UNL A   1      41.329  34.366  31.429  1.00  0.00     0.022 A 
ATOM     16  C   UNL A   1      42.673  34.723  31.293  1.00  0.00     0.012 A 
ATOM     17  C   UNL A   1      40.456  34.473  30.338  1.00  0.00     0.012 A 
ATOM     18  C   UNL A   1      43.154  35.151  30.055  1.00  0.00     0.001 A 
ATOM     19  C   UNL A   1      40.943  34.901  29.102  1.00  0.00     0.001 A 
ATOM     20  C   UNL A   1      42.291  35.234  28.960  1.00  0.00     0.000 A 
ENDBRANCH  13  15
ENDBRANCH  11  13
ENDBRANCH   5   7
ENDBRANCH   3   5
ENDBRANCH   2   3
ENDBRANCH   1   2
BRANCH   1  21
ATOM     21  C   UNL A   1      35.576  32.492  28.946  1.00  0.00     0.275 C 
BRANCH  21  22
ATOM     22  O   UNL A   1      35.709  31.251  29.656  1.00  0.00    -0.458 OA
BRANCH  22  23
ATOM     23  C   UNL A   1      35.912  30.158  28.888  1.00  0.00     0.338 C 
ATOM     24  O   UNL A   1      35.070  29.475  28.331  1.00  0.00    -0.246 OA
BRANCH  23  25
ATOM     25  C   UNL A   1      37.360  29.909  28.777  1.00  0.00     0.060 A 
ATOM     26  C   UNL A   1      37.976  29.898  27.523  1.00  0.00     0.016 A 
ATOM     27  C   UNL A   1      38.081  29.571  29.920  1.00  0.00     0.016 A 
ATOM     28  C   UNL A   1      39.293  29.464  27.400  1.00  0.00     0.010 A 
ATOM     29  C   UNL A   1      39.430  29.235  29.805  1.00  0.00     0.010 A 
ATOM     30  C   UNL A   1      40.043  29.146  28.542  1.00  0.00    -0.014 A 
BRANCH  30  31
ATOM     31  C   UNL A   1      41.455  28.692  28.429  1.00  0.00     0.031 A 
ATOM     32  C   UNL A   1      42.577  29.681  28.606  1.00  0.00     0.074 A 
ATOM     33  C   UNL A   1      41.737  27.404  28.146  1.00  0.00     0.049 A 
ATOM     34  N   UNL A   1      43.844  29.556  28.307  1.00  0.00    -0.248 NA
ATOM     35  C   UNL A   1      42.221  30.990  29.176  1.00  0.00     0.031 C 
ATOM     36  C   UNL A   1      40.753  26.331  27.992  1.00  0.00     0.029 A 
ATOM     37  N   UNL A   1      42.941  26.780  27.934  1.00  0.00    -0.354 N 
ATOM     38  C   UNL A   1      44.422  30.791  28.580  1.00  0.00     0.074 A 
ATOM     39  C   UNL A   1      43.370  31.646  29.087  1.00  0.00     0.031 C 
ATOM     40  C   UNL A   1      41.392  25.178  27.742  1.00  0.00     0.029 A 
ATOM     41  C   UNL A   1      42.820  25.444  27.629  1.00  0.00     0.049 A 
ATOM     42  H   UNL A   1      43.807  27.242  27.993  1.00  0.00     0.167 HD
ATOM     43  C   UNL A   1      45.709  31.174  28.411  1.00  0.00     0.037 A 
ATOM     44  C   UNL A   1      43.747  24.543  27.252  1.00  0.00     0.037 A 
ATOM     45  C   UNL A   1      46.761  30.294  27.971  1.00  0.00     0.049 A 
ATOM     46  C   UNL A   1      45.171  24.987  27.080  1.00  0.00     0.074 A 
ATOM     47  C   UNL A   1      48.101  30.580  27.782  1.00  0.00     0.029 A 
ATOM     48  N   UNL A   1      46.592  28.950  27.674  1.00  0.00    -0.354 N 
ATOM     49  N   UNL A   1      45.688  26.178  27.262  1.00  0.00    -0.248 NA
ATOM     50  C   UNL A   1      46.131  23.973  26.625  1.00  0.00     0.031 C 
ATOM     51  C   UNL A   1      48.742  29.410  27.354  1.00  0.00     0.029 A 
ATOM     52  C   UNL A   1      47.803  28.392  27.303  1.00  0.00     0.049 A 
ATOM     53  H   UNL A   1      45.737  28.464  27.721  1.00  0.00     0.167 HD
ATOM     54  C   UNL A   1      47.034  26.059  26.943  1.00  0.00     0.074 A 
ATOM     55  C   UNL A   1      47.256  24.674  26.577  1.00  0.00     0.031 C 
ATOM     56  C   UNL A   1      47.998  27.012  26.942  1.00  0.00     0.037 A 
BRANCH  43  57
ATOM     57  C   UNL A   1      46.047  32.616  28.666  1.00  0.00     0.058 A 
ATOM     58  C   UNL A   1      46.448  33.076  29.929  1.00  0.00     0.135 A 
ATOM     59  C   UNL A   1      45.993  33.546  27.615  1.00  0.00     0.135 A 
ATOM     60  F   UNL A   1      46.495  32.232  30.971  1.00  0.00    -0.206 F 
ATOM     61  C   UNL A   1      46.765  34.413  30.147  1.00  0.00     0.059 A 
ATOM     62  C   UNL A   1      46.325  34.885  27.806  1.00  0.00     0.059 A 
ATOM     63  F   UNL A   1      45.612  33.158  26.388  1.00  0.00    -0.206 F 
ATOM     64  C   UNL A   1      46.696  35.311  29.079  1.00  0.00     0.060 A 
BRANCH  64  65
ATOM     65  S   UNL A   1      47.113  37.044  29.369  1.00  0.00     0.124 S 
ATOM     66  O   UNL A   1      47.870  36.956  30.614  1.00  0.00    -0.237 OA
ATOM     67  O   UNL A   1      47.888  37.387  28.181  1.00  0.00    -0.237 OA
ATOM     68  O   UNL A   1      45.810  37.693  29.471  1.00  0.00    -0.744 OA
ENDBRANCH  64  65
ENDBRANCH  43  57
BRANCH  44  69
ATOM     69  C   UNL A   1      43.340  23.143  26.969  1.00  0.00     0.058 A 
ATOM     70  C   UNL A   1      43.299  22.659  25.655  1.00  0.00     0.135 A 
ATOM     71  C   UNL A   1      43.026  22.252  28.007  1.00  0.00     0.135 A 
ATOM     72  F   UNL A   1      43.582  23.477  24.630  1.00  0.00    -0.206 F 
ATOM     73  C   UNL A   1      42.966  21.337  25.377  1.00  0.00     0.059 A 
ATOM     74  C   UNL A   1      42.712  20.921  27.757  1.00  0.00     0.059 A 
ATOM     75  F   UNL A   1      43.063  22.666  29.284  1.00  0.00    -0.206 F 
ATOM     76  C   UNL A   1      42.679  20.474  26.437  1.00  0.00     0.060 A 
BRANCH  76  77
ATOM     77  S   UNL A   1      42.329  18.738  26.082  1.00  0.00     0.124 S 
ATOM     78  O   UNL A   1      40.925  18.796  25.695  1.00  0.00    -0.237 OA
ATOM     79  O   UNL A   1      43.275  18.441  25.009  1.00  0.00    -0.237 OA
ATOM     80  O   UNL A   1      42.612  18.077  27.352  1.00  0.00    -0.744 OA
ENDBRANCH  76  77
ENDBRANCH  44  69
BRANCH  56  81
ATOM     81  C   UNL A   1      49.379  26.579  26.550  1.00  0.00     0.058 A 
ATOM     82  C   UNL A   1      50.254  25.999  27.480  1.00  0.00     0.135 A 
ATOM     83  C   UNL A   1      49.820  26.717  25.225  1.00  0.00     0.135 A 
ATOM     84  F   UNL A   1      49.877  25.854  28.761  1.00  0.00    -0.206 F 
ATOM     85  C   UNL A   1      51.530  25.587  27.114  1.00  0.00     0.059 A 
ATOM     86  C   UNL A   1      51.086  26.297  24.832  1.00  0.00     0.059 A 
ATOM     87  F   UNL A   1      49.014  27.261  24.298  1.00  0.00    -0.206 F 
ATOM     88  C   UNL A   1      51.939  25.744  25.789  1.00  0.00     0.060 A 
BRANCH  88  89
ATOM     89  S   UNL A   1      53.589  25.187  25.314  1.00  0.00     0.124 S 
ATOM     90  O   UNL A   1      53.433  23.737  25.361  1.00  0.00    -0.237 OA
ATOM     91  O   UNL A   1      53.747  25.764  23.983  1.00  0.00    -0.237 OA
ATOM     92  O   UNL A   1      54.448  25.762  26.345  1.00  0.00    -0.744 OA
ENDBRANCH  88  89
ENDBRANCH  56  81
ENDBRANCH  30  31
ENDBRANCH  23  25
ENDBRANCH  22  23
ENDBRANCH  21  22
ENDBRANCH   1  21
TORSDOF 17
ENDMDL
