MODEL 1
REMARK VINA RESULT:     -11.2      0.000      0.000
REMARK SMILES O=C(OCCOC(=O)c1ccc(Cn2cc(Br)cc([N+](=O)[O-])c2=O)nc1)c1ccc(-c2c3nc(c(-c4c(F)cc(S(=O)(=O)[O-])cc4F)c4ccc([nH]4)c(-c4c(F)cc(S(=O)(=O)[O-])cc4F)c4nc(c(-c5c(F)cc(S(=O)(=O)[O-])cc5F)c5ccc2[nH]5)C=C4)C=C3)cc1
REMARK SMILES IDX 4 1 3 2 2 3 1 4 27 5 28 6 92 7 29 8 91 9 30 10 31 11 32 12
REMARK SMILES IDX 85 13 33 14 90 15 84 16 86 17 34 18 89 19 83 20 82 21 35 23
REMARK SMILES IDX 69 24 48 25 68 26 49 27 52 28 67 29 87 30 50 31 51 32 66 34
REMARK SMILES IDX 88 35 53 36 36 37 37 38 46 39 38 40 39 41 45 42 47 43 40 44
REMARK SMILES IDX 41 45 42 46 43 47 44 48 70 49 71 50 80 51 72 52 73 53 79 54
REMARK SMILES IDX 81 55 74 56 75 57 76 58 77 59 78 60 54 61 55 62 64 63 56 64
REMARK SMILES IDX 57 65 63 66 65 67 58 68 59 69 60 70 61 71 62 72 5 73 6 74
REMARK SMILES IDX 7 75 8 76 9 77 10 78 26 79 11 80 25 81 12 82 13 83 14 84
REMARK SMILES IDX 15 85 23 86 16 87 19 88 24 89 17 90 18 91 20 92 21 93 22 94
REMARK H PARENT 86 22 52 33
REMARK Flexibility Score: inf
ROOT
ATOM      1  C   UNL A   1      32.218  29.819  27.089  1.00  0.00     0.275 C 
ENDROOT
BRANCH   1   2
ATOM      2  O   UNL A   1      33.637  29.669  27.252  1.00  0.00    -0.458 OA
BRANCH   2   3
ATOM      3  C   UNL A   1      34.374  30.495  28.042  1.00  0.00     0.338 C 
ATOM      4  O   UNL A   1      34.033  31.651  28.254  1.00  0.00    -0.246 OA
BRANCH   3   5
ATOM      5  C   UNL A   1      35.757  30.059  28.367  1.00  0.00     0.060 A 
ATOM      6  C   UNL A   1      36.697  30.089  27.331  1.00  0.00     0.016 A 
ATOM      7  C   UNL A   1      36.171  29.689  29.650  1.00  0.00     0.016 A 
ATOM      8  C   UNL A   1      38.008  29.658  27.554  1.00  0.00     0.010 A 
ATOM      9  C   UNL A   1      37.479  29.249  29.873  1.00  0.00     0.010 A 
ATOM     10  C   UNL A   1      38.403  29.212  28.824  1.00  0.00    -0.014 A 
BRANCH  10  11
ATOM     11  C   UNL A   1      39.823  28.895  29.094  1.00  0.00     0.031 A 
ATOM     12  C   UNL A   1      40.395  27.530  28.870  1.00  0.00     0.074 A 
ATOM     13  C   UNL A   1      40.598  29.879  29.585  1.00  0.00     0.049 A 
ATOM     14  N   UNL A   1      41.652  27.177  28.799  1.00  0.00    -0.248 NA
ATOM     15  C   UNL A   1      39.454  26.419  28.676  1.00  0.00     0.031 C 
ATOM     16  C   UNL A   1      40.132  31.228  29.909  1.00  0.00     0.029 A 
ATOM     17  N   UNL A   1      41.926  29.891  29.915  1.00  0.00    -0.354 N 
ATOM     18  C   UNL A   1      41.655  25.833  28.454  1.00  0.00     0.074 A 
ATOM     19  C   UNL A   1      40.273  25.411  28.390  1.00  0.00     0.031 C 
ATOM     20  C   UNL A   1      41.156  31.935  30.410  1.00  0.00     0.029 A 
ATOM     21  C   UNL A   1      42.344  31.088  30.441  1.00  0.00     0.049 A 
ATOM     22  H   UNL A   1      42.522  29.117  29.789  1.00  0.00     0.167 HD
ATOM     23  C   UNL A   1      42.723  25.041  28.203  1.00  0.00     0.037 A 
ATOM     24  C   UNL A   1      43.553  31.459  30.900  1.00  0.00     0.037 A 
ATOM     25  C   UNL A   1      44.086  25.438  28.444  1.00  0.00     0.049 A 
ATOM     26  C   UNL A   1      44.701  30.500  30.783  1.00  0.00     0.074 A 
ATOM     27  C   UNL A   1      45.247  24.721  28.210  1.00  0.00     0.029 A 
ATOM     28  N   UNL A   1      44.465  26.624  29.053  1.00  0.00    -0.354 N 
ATOM     29  N   UNL A   1      44.714  29.302  30.249  1.00  0.00    -0.248 NA
ATOM     30  C   UNL A   1      45.995  30.941  31.316  1.00  0.00     0.031 C 
ATOM     31  C   UNL A   1      46.318  25.440  28.752  1.00  0.00     0.029 A 
ATOM     32  C   UNL A   1      45.832  26.630  29.271  1.00  0.00     0.049 A 
ATOM     33  H   UNL A   1      43.853  27.356  29.296  1.00  0.00     0.167 HD
ATOM     34  C   UNL A   1      46.025  28.855  30.357  1.00  0.00     0.074 A 
ATOM     35  C   UNL A   1      46.773  29.910  31.010  1.00  0.00     0.031 C 
ATOM     36  C   UNL A   1      46.559  27.682  29.939  1.00  0.00     0.037 A 
BRANCH  23  37
ATOM     37  C   UNL A   1      42.485  23.675  27.627  1.00  0.00     0.058 A 
ATOM     38  C   UNL A   1      42.511  23.477  26.236  1.00  0.00     0.135 A 
ATOM     39  C   UNL A   1      42.388  22.544  28.451  1.00  0.00     0.135 A 
ATOM     40  F   UNL A   1      42.583  24.529  25.404  1.00  0.00    -0.206 F 
ATOM     41  C   UNL A   1      42.473  22.201  25.685  1.00  0.00     0.059 A 
ATOM     42  C   UNL A   1      42.355  21.256  27.920  1.00  0.00     0.059 A 
ATOM     43  F   UNL A   1      42.349  22.682  29.785  1.00  0.00    -0.206 F 
ATOM     44  C   UNL A   1      42.407  21.096  26.535  1.00  0.00     0.060 A 
BRANCH  44  45
ATOM     45  S   UNL A   1      42.414  19.448  25.795  1.00  0.00     0.124 S 
ATOM     46  O   UNL A   1      43.384  19.619  24.717  1.00  0.00    -0.237 OA
ATOM     47  O   UNL A   1      42.848  18.614  26.910  1.00  0.00    -0.237 OA
ATOM     48  O   UNL A   1      41.031  19.259  25.369  1.00  0.00    -0.744 OA
ENDBRANCH  44  45
ENDBRANCH  23  37
BRANCH  24  49
ATOM     49  C   UNL A   1      43.715  32.812  31.487  1.00  0.00     0.058 A 
ATOM     50  C   UNL A   1      43.978  33.924  30.679  1.00  0.00     0.135 A 
ATOM     51  C   UNL A   1      43.532  33.023  32.863  1.00  0.00     0.135 A 
ATOM     52  F   UNL A   1      44.157  33.767  29.359  1.00  0.00    -0.206 F 
ATOM     53  C   UNL A   1      44.056  35.206  31.214  1.00  0.00     0.059 A 
ATOM     54  C   UNL A   1      43.586  34.296  33.419  1.00  0.00     0.059 A 
ATOM     55  F   UNL A   1      43.257  31.989  33.673  1.00  0.00    -0.206 F 
ATOM     56  C   UNL A   1      43.853  35.381  32.586  1.00  0.00     0.060 A 
BRANCH  56  57
ATOM     57  S   UNL A   1      43.894  37.056  33.261  1.00  0.00     0.124 S 
ATOM     58  O   UNL A   1      45.152  37.043  33.996  1.00  0.00    -0.237 OA
ATOM     59  O   UNL A   1      43.866  37.874  32.053  1.00  0.00    -0.237 OA
ATOM     60  O   UNL A   1      42.685  37.116  34.077  1.00  0.00    -0.744 OA
ENDBRANCH  56  57
ENDBRANCH  24  49
BRANCH  36  61
ATOM     61  C   UNL A   1      48.023  27.461  30.177  1.00  0.00     0.058 A 
ATOM     62  C   UNL A   1      48.988  27.954  29.288  1.00  0.00     0.135 A 
ATOM     63  C   UNL A   1      48.467  26.839  31.355  1.00  0.00     0.135 A 
ATOM     64  F   UNL A   1      48.613  28.549  28.144  1.00  0.00    -0.206 F 
ATOM     65  C   UNL A   1      50.347  27.841  29.559  1.00  0.00     0.059 A 
ATOM     66  C   UNL A   1      49.821  26.734  31.657  1.00  0.00     0.059 A 
ATOM     67  F   UNL A   1      47.580  26.357  32.240  1.00  0.00    -0.206 F 
ATOM     68  C   UNL A   1      50.753  27.239  30.752  1.00  0.00     0.060 A 
BRANCH  68  69
ATOM     69  S   UNL A   1      52.517  27.174  31.129  1.00  0.00     0.124 S 
ATOM     70  O   UNL A   1      53.022  26.354  30.032  1.00  0.00    -0.237 OA
ATOM     71  O   UNL A   1      52.895  28.584  31.091  1.00  0.00    -0.237 OA
ATOM     72  O   UNL A   1      52.559  26.554  32.449  1.00  0.00    -0.744 OA
ENDBRANCH  68  69
ENDBRANCH  36  61
ENDBRANCH  10  11
ENDBRANCH   3   5
ENDBRANCH   2   3
ENDBRANCH   1   2
BRANCH   1  73
ATOM     73  C   UNL A   1      31.793  30.093  25.644  1.00  0.00     0.275 C 
BRANCH  73  74
ATOM     74  O   UNL A   1      31.417  28.906  24.928  1.00  0.00    -0.458 OA
BRANCH  74  75
ATOM     75  C   UNL A   1      32.461  28.233  24.369  1.00  0.00     0.339 C 
ATOM     76  O   UNL A   1      33.298  28.678  23.612  1.00  0.00    -0.246 OA
BRANCH  75  77
ATOM     77  C   UNL A   1      32.515  26.878  24.933  1.00  0.00     0.078 A 
ATOM     78  C   UNL A   1      31.387  26.165  25.332  1.00  0.00     0.019 A 
ATOM     79  C   UNL A   1      33.757  26.302  25.115  1.00  0.00     0.127 A 
ATOM     80  C   UNL A   1      31.550  24.928  25.961  1.00  0.00     0.026 A 
ATOM     81  N   UNL A   1      33.938  25.117  25.741  1.00  0.00    -0.258 NA
ATOM     82  C   UNL A   1      32.838  24.454  26.192  1.00  0.00     0.060 A 
BRANCH  82  83
ATOM     83  C   UNL A   1      33.075  23.166  26.967  1.00  0.00     0.181 C 
BRANCH  83  84
ATOM     84  N   UNL A   1      33.597  22.140  26.067  1.00  0.00    -0.303 N 
ATOM     85  C   UNL A   1      34.968  22.045  25.871  1.00  0.00     0.105 A 
ATOM     86  C   UNL A   1      32.689  21.201  25.547  1.00  0.00     0.329 A 
ATOM     87  C   UNL A   1      35.514  20.996  25.238  1.00  0.00     0.041 A 
ATOM     88  C   UNL A   1      33.336  19.980  25.010  1.00  0.00     0.335 A 
ATOM     89  O   UNL A   1      31.476  21.378  25.505  1.00  0.00    -0.261 OA
ATOM     90  Br  UNL A   1      37.345  20.849  24.942  1.00  0.00    -0.049 Br
ATOM     91  C   UNL A   1      34.666  19.892  24.843  1.00  0.00     0.109 A 
BRANCH  88  92
ATOM     92  N   UNL A   1      32.538  18.816  24.715  1.00  0.00     0.068 N 
ATOM     93  O   UNL A   1      32.310  18.012  25.626  1.00  0.00    -0.258 OA
ATOM     94  O   UNL A   1      32.190  18.649  23.534  1.00  0.00    -0.258 OA
ENDBRANCH  88  92
ENDBRANCH  83  84
ENDBRANCH  82  83
ENDBRANCH  75  77
ENDBRANCH  74  75
ENDBRANCH  73  74
ENDBRANCH   1  73
TORSDOF 17
ENDMDL
MODEL 2
REMARK VINA RESULT:     -11.1      3.667      9.291
REMARK SMILES O=C(OCCOC(=O)c1ccc(Cn2cc(Br)cc([N+](=O)[O-])c2=O)nc1)c1ccc(-c2c3nc(c(-c4c(F)cc(S(=O)(=O)[O-])cc4F)c4ccc([nH]4)c(-c4c(F)cc(S(=O)(=O)[O-])cc4F)c4nc(c(-c5c(F)cc(S(=O)(=O)[O-])cc5F)c5ccc2[nH]5)C=C4)C=C3)cc1
REMARK SMILES IDX 4 1 3 2 2 3 1 4 27 5 28 6 92 7 29 8 91 9 30 10 31 11 32 12
REMARK SMILES IDX 85 13 33 14 90 15 84 16 86 17 34 18 89 19 83 20 82 21 35 23
REMARK SMILES IDX 69 24 48 25 68 26 49 27 52 28 67 29 87 30 50 31 51 32 66 34
REMARK SMILES IDX 88 35 53 36 36 37 37 38 46 39 38 40 39 41 45 42 47 43 40 44
REMARK SMILES IDX 41 45 42 46 43 47 44 48 70 49 71 50 80 51 72 52 73 53 79 54
REMARK SMILES IDX 81 55 74 56 75 57 76 58 77 59 78 60 54 61 55 62 64 63 56 64
REMARK SMILES IDX 57 65 63 66 65 67 58 68 59 69 60 70 61 71 62 72 5 73 6 74
REMARK SMILES IDX 7 75 8 76 9 77 10 78 26 79 11 80 25 81 12 82 13 83 14 84
REMARK SMILES IDX 15 85 23 86 16 87 19 88 24 89 17 90 18 91 20 92 21 93 22 94
REMARK H PARENT 86 22 52 33
REMARK Flexibility Score: inf
ROOT
ATOM      1  C   UNL A   1      35.015  32.653  31.041  1.00  0.00     0.275 C 
ENDROOT
BRANCH   1   2
ATOM      2  O   UNL A   1      36.356  32.146  30.946  1.00  0.00    -0.458 OA
BRANCH   2   3
ATOM      3  C   UNL A   1      36.658  30.836  31.141  1.00  0.00     0.338 C 
ATOM      4  O   UNL A   1      35.990  30.128  31.884  1.00  0.00    -0.246 OA
BRANCH   3   5
ATOM      5  C   UNL A   1      37.998  30.379  30.690  1.00  0.00     0.060 A 
ATOM      6  C   UNL A   1      38.227  30.333  29.310  1.00  0.00     0.016 A 
ATOM      7  C   UNL A   1      39.042  30.060  31.564  1.00  0.00     0.016 A 
ATOM      8  C   UNL A   1      39.451  29.878  28.813  1.00  0.00     0.010 A 
ATOM      9  C   UNL A   1      40.263  29.595  31.068  1.00  0.00     0.010 A 
ATOM     10  C   UNL A   1      40.472  29.483  29.689  1.00  0.00    -0.014 A 
BRANCH  10  11
ATOM     11  C   UNL A   1      41.813  29.141  29.166  1.00  0.00     0.031 A 
ATOM     12  C   UNL A   1      42.901  30.159  29.023  1.00  0.00     0.074 A 
ATOM     13  C   UNL A   1      42.027  27.868  28.787  1.00  0.00     0.049 A 
ATOM     14  N   UNL A   1      44.181  29.962  28.847  1.00  0.00    -0.248 NA
ATOM     15  C   UNL A   1      42.526  31.577  29.113  1.00  0.00     0.031 C 
ATOM     16  C   UNL A   1      41.020  26.806  28.815  1.00  0.00     0.029 A 
ATOM     17  N   UNL A   1      43.146  27.260  28.286  1.00  0.00    -0.354 N 
ATOM     18  C   UNL A   1      44.775  31.214  28.904  1.00  0.00     0.074 A 
ATOM     19  C   UNL A   1      43.710  32.179  29.069  1.00  0.00     0.031 C 
ATOM     20  C   UNL A   1      41.562  25.678  28.333  1.00  0.00     0.029 A 
ATOM     21  C   UNL A   1      42.950  25.940  27.965  1.00  0.00     0.049 A 
ATOM     22  H   UNL A   1      44.007  27.724  28.167  1.00  0.00     0.167 HD
ATOM     23  C   UNL A   1      46.093  31.515  28.837  1.00  0.00     0.037 A 
ATOM     24  C   UNL A   1      43.796  25.041  27.430  1.00  0.00     0.037 A 
ATOM     25  C   UNL A   1      47.114  30.557  28.497  1.00  0.00     0.049 A 
ATOM     26  C   UNL A   1      45.222  25.440  27.188  1.00  0.00     0.074 A 
ATOM     27  C   UNL A   1      48.482  30.749  28.417  1.00  0.00     0.029 A 
ATOM     28  N   UNL A   1      46.869  29.252  28.099  1.00  0.00    -0.354 N 
ATOM     29  N   UNL A   1      45.808  26.583  27.457  1.00  0.00    -0.248 NA
ATOM     30  C   UNL A   1      46.103  24.434  26.584  1.00  0.00     0.031 C 
ATOM     31  C   UNL A   1      49.054  29.584  27.891  1.00  0.00     0.029 A 
ATOM     32  C   UNL A   1      48.049  28.648  27.700  1.00  0.00     0.049 A 
ATOM     33  H   UNL A   1      45.985  28.817  28.099  1.00  0.00     0.167 HD
ATOM     34  C   UNL A   1      47.136  26.424  27.080  1.00  0.00     0.074 A 
ATOM     35  C   UNL A   1      47.264  25.077  26.562  1.00  0.00     0.031 C 
ATOM     36  C   UNL A   1      48.156  27.312  27.170  1.00  0.00     0.037 A 
BRANCH  23  37
ATOM     37  C   UNL A   1      46.528  32.918  29.147  1.00  0.00     0.058 A 
ATOM     38  C   UNL A   1      46.824  33.294  30.467  1.00  0.00     0.135 A 
ATOM     39  C   UNL A   1      46.799  33.839  28.124  1.00  0.00     0.135 A 
ATOM     40  F   UNL A   1      46.564  32.455  31.484  1.00  0.00    -0.206 F 
ATOM     41  C   UNL A   1      47.397  34.527  30.759  1.00  0.00     0.059 A 
ATOM     42  C   UNL A   1      47.379  35.077  28.393  1.00  0.00     0.059 A 
ATOM     43  F   UNL A   1      46.524  33.530  26.847  1.00  0.00    -0.206 F 
ATOM     44  C   UNL A   1      47.682  35.407  29.714  1.00  0.00     0.060 A 
BRANCH  44  45
ATOM     45  S   UNL A   1      48.476  36.980  30.115  1.00  0.00     0.124 S 
ATOM     46  O   UNL A   1      49.563  36.541  30.984  1.00  0.00    -0.237 OA
ATOM     47  O   UNL A   1      48.874  37.465  28.798  1.00  0.00    -0.237 OA
ATOM     48  O   UNL A   1      47.417  37.739  30.771  1.00  0.00    -0.744 OA
ENDBRANCH  44  45
ENDBRANCH  23  37
BRANCH  24  49
ATOM     49  C   UNL A   1      43.296  23.680  27.118  1.00  0.00     0.058 A 
ATOM     50  C   UNL A   1      43.051  23.285  25.797  1.00  0.00     0.135 A 
ATOM     51  C   UNL A   1      43.129  22.727  28.134  1.00  0.00     0.135 A 
ATOM     52  F   UNL A   1      43.201  24.164  24.795  1.00  0.00    -0.206 F 
ATOM     53  C   UNL A   1      42.655  21.987  25.491  1.00  0.00     0.059 A 
ATOM     54  C   UNL A   1      42.753  21.418  27.852  1.00  0.00     0.059 A 
ATOM     55  F   UNL A   1      43.373  23.055  29.413  1.00  0.00    -0.206 F 
ATOM     56  C   UNL A   1      42.514  21.059  26.527  1.00  0.00     0.060 A 
BRANCH  56  57
ATOM     57  S   UNL A   1      42.061  19.361  26.114  1.00  0.00     0.124 S 
ATOM     58  O   UNL A   1      42.932  19.096  24.976  1.00  0.00    -0.237 OA
ATOM     59  O   UNL A   1      42.383  18.649  27.347  1.00  0.00    -0.237 OA
ATOM     60  O   UNL A   1      40.636  19.461  25.810  1.00  0.00    -0.744 OA
ENDBRANCH  56  57
ENDBRANCH  24  49
BRANCH  36  61
ATOM     61  C   UNL A   1      49.507  26.868  26.691  1.00  0.00     0.058 A 
ATOM     62  C   UNL A   1      50.398  26.202  27.544  1.00  0.00     0.135 A 
ATOM     63  C   UNL A   1      49.871  27.022  25.345  1.00  0.00     0.135 A 
ATOM     64  F   UNL A   1      50.099  26.039  28.843  1.00  0.00    -0.206 F 
ATOM     65  C   UNL A   1      51.607  25.699  27.077  1.00  0.00     0.059 A 
ATOM     66  C   UNL A   1      51.065  26.507  24.850  1.00  0.00     0.059 A 
ATOM     67  F   UNL A   1      49.047  27.646  24.488  1.00  0.00    -0.206 F 
ATOM     68  C   UNL A   1      51.926  25.847  25.725  1.00  0.00     0.060 A 
BRANCH  68  69
ATOM     69  S   UNL A   1      53.460  25.116  25.116  1.00  0.00     0.124 S 
ATOM     70  O   UNL A   1      53.444  25.524  23.715  1.00  0.00    -0.237 OA
ATOM     71  O   UNL A   1      54.467  25.762  25.952  1.00  0.00    -0.237 OA
ATOM     72  O   UNL A   1      53.275  23.688  25.356  1.00  0.00    -0.744 OA
ENDBRANCH  68  69
ENDBRANCH  36  61
ENDBRANCH  10  11
ENDBRANCH   3   5
ENDBRANCH   2   3
ENDBRANCH   1   2
BRANCH   1  73
ATOM     73  C   UNL A   1      34.674  33.691  29.968  1.00  0.00     0.275 C 
BRANCH  73  74
ATOM     74  O   UNL A   1      33.938  33.145  28.863  1.00  0.00    -0.458 OA
BRANCH  74  75
ATOM     75  C   UNL A   1      34.706  32.518  27.930  1.00  0.00     0.339 C 
ATOM     76  O   UNL A   1      35.819  32.833  27.565  1.00  0.00    -0.246 OA
BRANCH  75  77
ATOM     77  C   UNL A   1      34.032  31.284  27.504  1.00  0.00     0.078 A 
ATOM     78  C   UNL A   1      32.685  31.224  27.158  1.00  0.00     0.019 A 
ATOM     79  C   UNL A   1      34.769  30.115  27.491  1.00  0.00     0.127 A 
ATOM     80  C   UNL A   1      32.109  29.982  26.874  1.00  0.00     0.026 A 
ATOM     81  N   UNL A   1      34.226  28.902  27.241  1.00  0.00    -0.258 NA
ATOM     82  C   UNL A   1      32.894  28.837  26.970  1.00  0.00     0.060 A 
BRANCH  82  83
ATOM     83  C   UNL A   1      32.293  27.452  26.778  1.00  0.00     0.181 C 
BRANCH  83  84
ATOM     84  N   UNL A   1      31.914  27.271  25.378  1.00  0.00    -0.303 N 
ATOM     85  C   UNL A   1      30.609  27.539  24.990  1.00  0.00     0.105 A 
ATOM     86  C   UNL A   1      32.933  26.966  24.458  1.00  0.00     0.329 A 
ATOM     87  C   UNL A   1      30.263  27.603  23.695  1.00  0.00     0.041 A 
ATOM     88  C   UNL A   1      32.555  27.215  23.047  1.00  0.00     0.335 A 
ATOM     89  O   UNL A   1      34.023  26.504  24.778  1.00  0.00    -0.261 OA
ATOM     90  Br  UNL A   1      28.518  27.940  23.143  1.00  0.00    -0.049 Br
ATOM     91  C   UNL A   1      31.292  27.493  22.685  1.00  0.00     0.109 A 
BRANCH  88  92
ATOM     92  N   UNL A   1      33.571  27.231  22.024  1.00  0.00     0.068 N 
ATOM     93  O   UNL A   1      33.636  26.273  21.245  1.00  0.00    -0.258 OA
ATOM     94  O   UNL A   1      34.377  28.176  22.036  1.00  0.00    -0.258 OA
ENDBRANCH  88  92
ENDBRANCH  83  84
ENDBRANCH  82  83
ENDBRANCH  75  77
ENDBRANCH  74  75
ENDBRANCH  73  74
ENDBRANCH   1  73
TORSDOF 17
ENDMDL
MODEL 3
REMARK VINA RESULT:     -11.1      4.966     10.568
REMARK SMILES O=C(OCCOC(=O)c1ccc(Cn2cc(Br)cc([N+](=O)[O-])c2=O)nc1)c1ccc(-c2c3nc(c(-c4c(F)cc(S(=O)(=O)[O-])cc4F)c4ccc([nH]4)c(-c4c(F)cc(S(=O)(=O)[O-])cc4F)c4nc(c(-c5c(F)cc(S(=O)(=O)[O-])cc5F)c5ccc2[nH]5)C=C4)C=C3)cc1
REMARK SMILES IDX 4 1 3 2 2 3 1 4 27 5 28 6 92 7 29 8 91 9 30 10 31 11 32 12
REMARK SMILES IDX 85 13 33 14 90 15 84 16 86 17 34 18 89 19 83 20 82 21 35 23
REMARK SMILES IDX 69 24 48 25 68 26 49 27 52 28 67 29 87 30 50 31 51 32 66 34
REMARK SMILES IDX 88 35 53 36 36 37 37 38 46 39 38 40 39 41 45 42 47 43 40 44
REMARK SMILES IDX 41 45 42 46 43 47 44 48 70 49 71 50 80 51 72 52 73 53 79 54
REMARK SMILES IDX 81 55 74 56 75 57 76 58 77 59 78 60 54 61 55 62 64 63 56 64
REMARK SMILES IDX 57 65 63 66 65 67 58 68 59 69 60 70 61 71 62 72 5 73 6 74
REMARK SMILES IDX 7 75 8 76 9 77 10 78 26 79 11 80 25 81 12 82 13 83 14 84
REMARK SMILES IDX 15 85 23 86 16 87 19 88 24 89 17 90 18 91 20 92 21 93 22 94
REMARK H PARENT 86 22 52 33
REMARK Flexibility Score: inf
ROOT
ATOM      1  C   UNL A   1      40.658  22.415  26.279  1.00  0.00     0.275 C 
ENDROOT
BRANCH   1   2
ATOM      2  O   UNL A   1      40.151  23.741  26.501  1.00  0.00    -0.458 OA
BRANCH   2   3
ATOM      3  C   UNL A   1      40.944  24.844  26.459  1.00  0.00     0.338 C 
ATOM      4  O   UNL A   1      41.889  24.924  25.685  1.00  0.00    -0.246 OA
BRANCH   3   5
ATOM      5  C   UNL A   1      40.832  25.799  27.591  1.00  0.00     0.060 A 
ATOM      6  C   UNL A   1      41.863  26.733  27.746  1.00  0.00     0.016 A 
ATOM      7  C   UNL A   1      39.733  25.850  28.455  1.00  0.00     0.016 A 
ATOM      8  C   UNL A   1      41.841  27.637  28.811  1.00  0.00     0.010 A 
ATOM      9  C   UNL A   1      39.715  26.748  29.526  1.00  0.00     0.010 A 
ATOM     10  C   UNL A   1      40.777  27.637  29.723  1.00  0.00    -0.014 A 
BRANCH  10  11
ATOM     11  C   UNL A   1      40.684  28.687  30.762  1.00  0.00     0.031 A 
ATOM     12  C   UNL A   1      39.773  29.868  30.628  1.00  0.00     0.074 A 
ATOM     13  C   UNL A   1      41.478  28.568  31.841  1.00  0.00     0.049 A 
ATOM     14  N   UNL A   1      39.386  30.705  31.553  1.00  0.00    -0.248 NA
ATOM     15  C   UNL A   1      39.199  30.140  29.303  1.00  0.00     0.031 C 
ATOM     16  C   UNL A   1      42.455  27.497  32.046  1.00  0.00     0.029 A 
ATOM     17  N   UNL A   1      41.603  29.358  32.951  1.00  0.00    -0.354 N 
ATOM     18  C   UNL A   1      38.451  31.537  30.954  1.00  0.00     0.074 A 
ATOM     19  C   UNL A   1      38.371  31.147  29.563  1.00  0.00     0.031 C 
ATOM     20  C   UNL A   1      43.096  27.708  33.205  1.00  0.00     0.029 A 
ATOM     21  C   UNL A   1      42.574  28.925  33.820  1.00  0.00     0.049 A 
ATOM     22  H   UNL A   1      41.054  30.159  33.110  1.00  0.00     0.167 HD
ATOM     23  C   UNL A   1      37.723  32.522  31.528  1.00  0.00     0.037 A 
ATOM     24  C   UNL A   1      42.996  29.453  34.983  1.00  0.00     0.037 A 
ATOM     25  C   UNL A   1      37.948  33.004  32.867  1.00  0.00     0.049 A 
ATOM     26  C   UNL A   1      42.297  30.663  35.528  1.00  0.00     0.074 A 
ATOM     27  C   UNL A   1      37.259  33.986  33.556  1.00  0.00     0.029 A 
ATOM     28  N   UNL A   1      38.991  32.598  33.686  1.00  0.00    -0.354 N 
ATOM     29  N   UNL A   1      41.265  31.303  35.033  1.00  0.00    -0.248 NA
ATOM     30  C   UNL A   1      42.806  31.216  36.789  1.00  0.00     0.031 C 
ATOM     31  C   UNL A   1      37.936  34.231  34.757  1.00  0.00     0.029 A 
ATOM     32  C   UNL A   1      39.011  33.360  34.841  1.00  0.00     0.049 A 
ATOM     33  H   UNL A   1      39.625  31.874  33.477  1.00  0.00     0.167 HD
ATOM     34  C   UNL A   1      40.982  32.320  35.936  1.00  0.00     0.074 A 
ATOM     35  C   UNL A   1      41.954  32.210  37.005  1.00  0.00     0.031 C 
ATOM     36  C   UNL A   1      39.997  33.249  35.888  1.00  0.00     0.037 A 
BRANCH  23  37
ATOM     37  C   UNL A   1      36.607  33.144  30.741  1.00  0.00     0.058 A 
ATOM     38  C   UNL A   1      35.270  32.824  31.030  1.00  0.00     0.135 A 
ATOM     39  C   UNL A   1      36.853  34.168  29.813  1.00  0.00     0.135 A 
ATOM     40  F   UNL A   1      34.983  31.839  31.896  1.00  0.00    -0.206 F 
ATOM     41  C   UNL A   1      34.216  33.515  30.442  1.00  0.00     0.059 A 
ATOM     42  C   UNL A   1      35.811  34.877  29.217  1.00  0.00     0.059 A 
ATOM     43  F   UNL A   1      38.113  34.503  29.497  1.00  0.00    -0.206 F 
ATOM     44  C   UNL A   1      34.497  34.548  29.546  1.00  0.00     0.060 A 
BRANCH  44  45
ATOM     45  S   UNL A   1      33.110  35.465  28.839  1.00  0.00     0.124 S 
ATOM     46  O   UNL A   1      32.437  34.424  28.068  1.00  0.00    -0.237 OA
ATOM     47  O   UNL A   1      32.407  35.924  30.033  1.00  0.00    -0.237 OA
ATOM     48  O   UNL A   1      33.758  36.508  28.051  1.00  0.00    -0.744 OA
ENDBRANCH  44  45
ENDBRANCH  23  37
BRANCH  24  49
ATOM     49  C   UNL A   1      44.125  28.808  35.697  1.00  0.00     0.058 A 
ATOM     50  C   UNL A   1      45.446  29.224  35.488  1.00  0.00     0.135 A 
ATOM     51  C   UNL A   1      43.891  27.814  36.660  1.00  0.00     0.135 A 
ATOM     52  F   UNL A   1      45.714  30.172  34.578  1.00  0.00    -0.206 F 
ATOM     53  C   UNL A   1      46.501  28.675  36.210  1.00  0.00     0.059 A 
ATOM     54  C   UNL A   1      44.926  27.265  37.408  1.00  0.00     0.059 A 
ATOM     55  F   UNL A   1      42.639  27.400  36.909  1.00  0.00    -0.206 F 
ATOM     56  C   UNL A   1      46.229  27.699  37.172  1.00  0.00     0.060 A 
BRANCH  56  57
ATOM     57  S   UNL A   1      47.597  27.039  38.148  1.00  0.00     0.124 S 
ATOM     58  O   UNL A   1      47.167  27.353  39.504  1.00  0.00    -0.237 OA
ATOM     59  O   UNL A   1      47.582  25.626  37.782  1.00  0.00    -0.237 OA
ATOM     60  O   UNL A   1      48.749  27.792  37.659  1.00  0.00    -0.744 OA
ENDBRANCH  56  57
ENDBRANCH  24  49
BRANCH  36  61
ATOM     61  C   UNL A   1      39.916  34.235  37.016  1.00  0.00     0.058 A 
ATOM     62  C   UNL A   1      40.483  35.513  36.908  1.00  0.00     0.135 A 
ATOM     63  C   UNL A   1      39.180  33.934  38.173  1.00  0.00     0.135 A 
ATOM     64  F   UNL A   1      41.203  35.844  35.825  1.00  0.00    -0.206 F 
ATOM     65  C   UNL A   1      40.320  36.463  37.909  1.00  0.00     0.059 A 
ATOM     66  C   UNL A   1      38.985  34.876  39.177  1.00  0.00     0.059 A 
ATOM     67  F   UNL A   1      38.612  32.726  38.318  1.00  0.00    -0.206 F 
ATOM     68  C   UNL A   1      39.560  36.138  39.035  1.00  0.00     0.060 A 
BRANCH  68  69
ATOM     69  S   UNL A   1      39.288  37.409  40.289  1.00  0.00     0.124 S 
ATOM     70  O   UNL A   1      38.633  36.645  41.345  1.00  0.00    -0.237 OA
ATOM     71  O   UNL A   1      40.647  37.855  40.580  1.00  0.00    -0.237 OA
ATOM     72  O   UNL A   1      38.446  38.386  39.604  1.00  0.00    -0.744 OA
ENDBRANCH  68  69
ENDBRANCH  36  61
ENDBRANCH  10  11
ENDBRANCH   3   5
ENDBRANCH   2   3
ENDBRANCH   1   2
BRANCH   1  73
ATOM     73  C   UNL A   1      39.561  21.357  26.130  1.00  0.00     0.275 C 
BRANCH  73  74
ATOM     74  O   UNL A   1      38.321  21.891  25.643  1.00  0.00    -0.458 OA
BRANCH  74  75
ATOM     75  C   UNL A   1      37.531  20.985  25.003  1.00  0.00     0.339 C 
ATOM     76  O   UNL A   1      37.656  19.778  24.998  1.00  0.00    -0.246 OA
BRANCH  75  77
ATOM     77  C   UNL A   1      36.386  21.685  24.405  1.00  0.00     0.078 A 
ATOM     78  C   UNL A   1      35.060  21.402  24.722  1.00  0.00     0.019 A 
ATOM     79  C   UNL A   1      36.644  22.643  23.444  1.00  0.00     0.127 A 
ATOM     80  C   UNL A   1      34.039  22.044  24.018  1.00  0.00     0.026 A 
ATOM     81  N   UNL A   1      35.671  23.260  22.735  1.00  0.00    -0.258 NA
ATOM     82  C   UNL A   1      34.377  22.932  23.000  1.00  0.00     0.060 A 
BRANCH  82  83
ATOM     83  C   UNL A   1      33.307  23.576  22.130  1.00  0.00     0.181 C 
BRANCH  83  84
ATOM     84  N   UNL A   1      32.694  24.691  22.850  1.00  0.00    -0.303 N 
ATOM     85  C   UNL A   1      31.796  24.423  23.874  1.00  0.00     0.105 A 
ATOM     86  C   UNL A   1      33.153  25.988  22.562  1.00  0.00     0.329 A 
ATOM     87  C   UNL A   1      31.376  25.387  24.706  1.00  0.00     0.041 A 
ATOM     88  C   UNL A   1      32.806  26.987  23.600  1.00  0.00     0.335 A 
ATOM     89  O   UNL A   1      33.756  26.285  21.536  1.00  0.00    -0.261 OA
ATOM     90  Br  UNL A   1      30.157  25.065  26.074  1.00  0.00    -0.049 Br
ATOM     91  C   UNL A   1      31.950  26.711  24.598  1.00  0.00     0.109 A 
BRANCH  88  92
ATOM     92  N   UNL A   1      33.446  28.279  23.597  1.00  0.00     0.068 N 
ATOM     93  O   UNL A   1      33.016  29.146  22.827  1.00  0.00    -0.258 OA
ATOM     94  O   UNL A   1      34.449  28.419  24.317  1.00  0.00    -0.258 OA
ENDBRANCH  88  92
ENDBRANCH  83  84
ENDBRANCH  82  83
ENDBRANCH  75  77
ENDBRANCH  74  75
ENDBRANCH  73  74
ENDBRANCH   1  73
TORSDOF 17
ENDMDL
