MODEL 1
REMARK VINA RESULT:     -12.6      0.000      0.000
REMARK SMILES O=C1NC(=S)S/C1=C\c1ccc(OCc2cn(-c3ccc(C(=O)OCCOC(=O)c4ccc(-c5c6nc(c(-c7c(F)cc(S(=O)(=O)[O-])cc7F)c7ccc([nH]7)c(-c7c(F)cc(S(=O)(=O)[O-])cc7F)c7nc(c(-c8c(F)cc(S(=O)(=O)[O-])cc8F)c8ccc5[nH]8)C=C7)C=C6)cc4)cc3)nn2)cc1
REMARK SMILES IDX 25 1 24 2 22 3 23 4 21 5 18 6 19 7 97 8 20 9 96 10 17 11
REMARK SMILES IDX 15 12 16 13 99 14 98 15 14 16 13 17 12 18 9 19 10 20 101 21
REMARK SMILES IDX 11 22 100 23 8 24 1 25 2 26 3 27 7 28 4 29 6 31 5 32 26 33
REMARK SMILES IDX 27 34 28 35 29 36 30 37 31 38 95 39 32 40 94 41 33 42 34 43
REMARK SMILES IDX 35 44 88 45 36 46 93 47 87 48 89 49 37 50 92 51 86 52 85 53
REMARK SMILES IDX 38 55 72 56 51 57 71 58 52 59 55 60 70 61 90 62 53 63 54 64
REMARK SMILES IDX 69 66 91 67 56 68 39 69 40 70 49 71 41 72 42 73 48 74 50 75
REMARK SMILES IDX 43 76 44 77 45 78 46 79 47 80 73 81 74 82 83 83 75 84 76 85
REMARK SMILES IDX 82 86 84 87 77 88 78 89 79 90 80 91 81 92 57 93 58 94 67 95
REMARK SMILES IDX 59 96 60 97 66 98 68 99 61 100 62 101 63 102 64 103 65 104
REMARK H PARENT 3 30 89 54 55 65
REMARK Flexibility Score: inf
ROOT
ATOM      1  C   UNL A   1      43.483  18.604  26.470  1.00  0.00     0.275 C 
ENDROOT
BRANCH   1   2
ATOM      2  O   UNL A   1      42.108  18.901  26.754  1.00  0.00    -0.458 OA
BRANCH   2   3
ATOM      3  C   UNL A   1      41.835  20.213  26.958  1.00  0.00     0.338 C 
ATOM      4  O   UNL A   1      42.583  21.045  27.456  1.00  0.00    -0.246 OA
BRANCH   3   5
ATOM      5  C   UNL A   1      40.502  20.551  26.414  1.00  0.00     0.060 A 
ATOM      6  C   UNL A   1      37.927  21.226  25.581  1.00  0.00     0.066 A 
ATOM      7  C   UNL A   1      38.751  22.202  26.163  1.00  0.00     0.029 A 
ATOM      8  C   UNL A   1      38.421  19.938  25.341  1.00  0.00     0.029 A 
ATOM      9  C   UNL A   1      40.025  21.855  26.604  1.00  0.00     0.018 A 
ATOM     10  C   UNL A   1      39.718  19.608  25.740  1.00  0.00     0.018 A 
BRANCH   6  11
ATOM     11  N   UNL A   1      36.577  21.544  25.316  1.00  0.00    -0.220 N 
ATOM     12  C   UNL A   1      34.450  21.455  24.827  1.00  0.00     0.120 A 
ATOM     13  C   UNL A   1      35.645  20.797  24.626  1.00  0.00     0.144 A 
ATOM     14  N   UNL A   1      34.687  22.564  25.592  1.00  0.00    -0.131 NA
ATOM     15  N   UNL A   1      35.972  22.607  25.888  1.00  0.00    -0.062 NA
BRANCH  12  16
ATOM     16  C   UNL A   1      33.053  21.074  24.464  1.00  0.00     0.289 C 
BRANCH  16  17
ATOM     17  O   UNL A   1      32.593  21.544  23.187  1.00  0.00    -0.487 OA
BRANCH  17  18
ATOM     18  C   UNL A   1      32.345  22.883  23.044  1.00  0.00     0.119 A 
ATOM     19  C   UNL A   1      31.464  25.515  22.607  1.00  0.00    -0.024 A 
ATOM     20  C   UNL A   1      30.686  24.631  23.359  1.00  0.00     0.012 A 
ATOM     21  C   UNL A   1      32.722  25.103  22.160  1.00  0.00     0.012 A 
ATOM     22  C   UNL A   1      31.127  23.319  23.572  1.00  0.00     0.047 A 
ATOM     23  C   UNL A   1      33.170  23.803  22.400  1.00  0.00     0.047 A 
BRANCH  19  24
ATOM     24  C   UNL A   1      30.968  26.849  22.264  1.00  0.00     0.029 C 
ATOM     25  O   UNL A   1      29.862  29.468  21.656  1.00  0.00    -0.268 OA
ATOM     26  C   UNL A   1      30.458  29.235  22.696  1.00  0.00     0.263 C 
ATOM     27  N   UNL A   1      30.657  30.131  23.709  1.00  0.00    -0.307 N 
ATOM     28  C   UNL A   1      31.051  27.921  23.065  1.00  0.00     0.080 C 
ATOM     29  C   UNL A   1      31.322  29.706  24.820  1.00  0.00     0.145 C 
ATOM     30  H   UNL A   1      30.329  31.056  23.638  1.00  0.00     0.171 HD
ATOM     31  S   UNL A   1      31.788  28.033  24.623  1.00  0.00    -0.055 SA
ATOM     32  S   UNL A   1      31.609  30.656  26.139  1.00  0.00    -0.052 S 
ENDBRANCH  19  24
ENDBRANCH  17  18
ENDBRANCH  16  17
ENDBRANCH  12  16
ENDBRANCH   6  11
ENDBRANCH   3   5
ENDBRANCH   2   3
ENDBRANCH   1   2
BRANCH   1  33
ATOM     33  C   UNL A   1      43.741  18.583  24.970  1.00  0.00     0.275 C 
BRANCH  33  34
ATOM     34  O   UNL A   1      43.730  19.892  24.401  1.00  0.00    -0.458 OA
BRANCH  34  35
ATOM     35  C   UNL A   1      44.957  20.441  24.241  1.00  0.00     0.338 C 
ATOM     36  O   UNL A   1      45.981  19.873  23.900  1.00  0.00    -0.246 OA
BRANCH  35  37
ATOM     37  C   UNL A   1      44.951  21.795  24.802  1.00  0.00     0.060 A 
ATOM     38  C   UNL A   1      45.861  22.093  25.822  1.00  0.00     0.016 A 
ATOM     39  C   UNL A   1      43.880  22.646  24.497  1.00  0.00     0.016 A 
ATOM     40  C   UNL A   1      45.625  23.202  26.613  1.00  0.00     0.010 A 
ATOM     41  C   UNL A   1      43.632  23.732  25.301  1.00  0.00     0.010 A 
ATOM     42  C   UNL A   1      44.480  23.974  26.380  1.00  0.00    -0.014 A 
BRANCH  42  43
ATOM     43  C   UNL A   1      44.282  25.182  27.160  1.00  0.00     0.031 A 
ATOM     44  C   UNL A   1      45.356  26.177  26.914  1.00  0.00     0.074 A 
ATOM     45  C   UNL A   1      43.159  25.426  27.867  1.00  0.00     0.049 A 
ATOM     46  N   UNL A   1      46.263  26.578  27.740  1.00  0.00    -0.248 NA
ATOM     47  C   UNL A   1      45.579  26.621  25.525  1.00  0.00     0.031 C 
ATOM     48  C   UNL A   1      41.935  24.621  27.903  1.00  0.00     0.029 A 
ATOM     49  N   UNL A   1      42.826  26.509  28.620  1.00  0.00    -0.354 N 
ATOM     50  C   UNL A   1      47.000  27.529  27.040  1.00  0.00     0.074 A 
ATOM     51  C   UNL A   1      46.702  27.328  25.650  1.00  0.00     0.031 C 
ATOM     52  C   UNL A   1      40.932  25.356  28.438  1.00  0.00     0.029 A 
ATOM     53  C   UNL A   1      41.465  26.632  28.889  1.00  0.00     0.049 A 
ATOM     54  H   UNL A   1      43.494  27.154  28.949  1.00  0.00     0.167 HD
ATOM     55  C   UNL A   1      47.541  28.597  27.687  1.00  0.00     0.037 A 
ATOM     56  C   UNL A   1      40.828  27.731  29.376  1.00  0.00     0.037 A 
ATOM     57  C   UNL A   1      47.619  28.348  29.105  1.00  0.00     0.049 A 
ATOM     58  C   UNL A   1      41.867  28.601  29.990  1.00  0.00     0.074 A 
ATOM     59  C   UNL A   1      48.210  27.376  29.891  1.00  0.00     0.029 A 
ATOM     60  N   UNL A   1      46.684  28.962  29.902  1.00  0.00    -0.354 N 
ATOM     61  N   UNL A   1      42.534  28.289  31.067  1.00  0.00    -0.248 NA
ATOM     62  C   UNL A   1      42.490  29.608  29.143  1.00  0.00     0.031 C 
ATOM     63  C   UNL A   1      47.291  27.148  30.954  1.00  0.00     0.029 A 
ATOM     64  C   UNL A   1      46.230  28.044  30.811  1.00  0.00     0.049 A 
ATOM     65  H   UNL A   1      46.389  29.899  29.831  1.00  0.00     0.167 HD
ATOM     66  C   UNL A   1      43.833  28.705  30.809  1.00  0.00     0.074 A 
ATOM     67  C   UNL A   1      43.725  29.589  29.650  1.00  0.00     0.031 C 
ATOM     68  C   UNL A   1      44.898  28.063  31.373  1.00  0.00     0.037 A 
BRANCH  55  69
ATOM     69  C   UNL A   1      47.583  29.998  27.112  1.00  0.00     0.058 A 
ATOM     70  C   UNL A   1      48.787  30.727  27.194  1.00  0.00     0.135 A 
ATOM     71  C   UNL A   1      46.442  30.756  26.759  1.00  0.00     0.135 A 
ATOM     72  F   UNL A   1      49.937  30.116  27.523  1.00  0.00    -0.206 F 
ATOM     73  C   UNL A   1      48.838  32.112  27.030  1.00  0.00     0.059 A 
ATOM     74  C   UNL A   1      46.481  32.127  26.536  1.00  0.00     0.059 A 
ATOM     75  F   UNL A   1      45.212  30.236  26.703  1.00  0.00    -0.206 F 
ATOM     76  C   UNL A   1      47.673  32.803  26.715  1.00  0.00     0.060 A 
BRANCH  76  77
ATOM     77  S   UNL A   1      47.715  34.596  26.581  1.00  0.00     0.124 S 
ATOM     78  O   UNL A   1      47.671  34.779  25.135  1.00  0.00    -0.237 OA
ATOM     79  O   UNL A   1      46.512  34.979  27.313  1.00  0.00    -0.237 OA
ATOM     80  O   UNL A   1      48.975  34.951  27.226  1.00  0.00    -0.744 OA
ENDBRANCH  76  77
ENDBRANCH  55  69
BRANCH  56  81
ATOM     81  C   UNL A   1      39.463  28.247  29.060  1.00  0.00     0.058 A 
ATOM     82  C   UNL A   1      38.464  28.320  30.051  1.00  0.00     0.135 A 
ATOM     83  C   UNL A   1      39.196  28.949  27.868  1.00  0.00     0.135 A 
ATOM     84  F   UNL A   1      38.633  27.697  31.228  1.00  0.00    -0.206 F 
ATOM     85  C   UNL A   1      37.305  29.093  29.896  1.00  0.00     0.059 A 
ATOM     86  C   UNL A   1      38.043  29.715  27.685  1.00  0.00     0.059 A 
ATOM     87  F   UNL A   1      40.093  28.994  26.874  1.00  0.00    -0.206 F 
ATOM     88  C   UNL A   1      37.115  29.807  28.714  1.00  0.00     0.060 A 
BRANCH  88  89
ATOM     89  S   UNL A   1      35.722  30.956  28.577  1.00  0.00     0.124 S 
ATOM     90  O   UNL A   1      36.301  32.042  27.795  1.00  0.00    -0.237 OA
ATOM     91  O   UNL A   1      34.718  30.145  27.898  1.00  0.00    -0.237 OA
ATOM     92  O   UNL A   1      35.416  31.284  29.967  1.00  0.00    -0.744 OA
ENDBRANCH  88  89
ENDBRANCH  56  81
BRANCH  68  93
ATOM     93  C   UNL A   1      44.651  27.164  32.555  1.00  0.00     0.058 A 
ATOM     94  C   UNL A   1      44.301  25.805  32.488  1.00  0.00     0.135 A 
ATOM     95  C   UNL A   1      44.915  27.696  33.827  1.00  0.00     0.135 A 
ATOM     96  F   UNL A   1      44.134  25.190  31.308  1.00  0.00    -0.206 F 
ATOM     97  C   UNL A   1      44.170  25.024  33.641  1.00  0.00     0.059 A 
ATOM     98  C   UNL A   1      44.827  26.931  34.983  1.00  0.00     0.059 A 
ATOM     99  F   UNL A   1      45.310  28.974  33.955  1.00  0.00    -0.206 F 
ATOM    100  C   UNL A   1      44.433  25.600  34.886  1.00  0.00     0.060 A 
BRANCH 100 101
ATOM    101  S   UNL A   1      44.302  24.591  36.378  1.00  0.00     0.124 S 
ATOM    102  O   UNL A   1      45.537  24.921  37.080  1.00  0.00    -0.237 OA
ATOM    103  O   UNL A   1      43.073  25.085  36.991  1.00  0.00    -0.237 OA
ATOM    104  O   UNL A   1      44.225  23.226  35.862  1.00  0.00    -0.744 OA
ENDBRANCH 100 101
ENDBRANCH  68  93
ENDBRANCH  42  43
ENDBRANCH  35  37
ENDBRANCH  34  35
ENDBRANCH  33  34
ENDBRANCH   1  33
TORSDOF 19
ENDMDL
MODEL 2
REMARK VINA RESULT:     -12.5      1.387      1.902
REMARK SMILES O=C1NC(=S)S/C1=C\c1ccc(OCc2cn(-c3ccc(C(=O)OCCOC(=O)c4ccc(-c5c6nc(c(-c7c(F)cc(S(=O)(=O)[O-])cc7F)c7ccc([nH]7)c(-c7c(F)cc(S(=O)(=O)[O-])cc7F)c7nc(c(-c8c(F)cc(S(=O)(=O)[O-])cc8F)c8ccc5[nH]8)C=C7)C=C6)cc4)cc3)nn2)cc1
REMARK SMILES IDX 25 1 24 2 22 3 23 4 21 5 18 6 19 7 97 8 20 9 96 10 17 11
REMARK SMILES IDX 15 12 16 13 99 14 98 15 14 16 13 17 12 18 9 19 10 20 101 21
REMARK SMILES IDX 11 22 100 23 8 24 1 25 2 26 3 27 7 28 4 29 6 31 5 32 26 33
REMARK SMILES IDX 27 34 28 35 29 36 30 37 31 38 95 39 32 40 94 41 33 42 34 43
REMARK SMILES IDX 35 44 88 45 36 46 93 47 87 48 89 49 37 50 92 51 86 52 85 53
REMARK SMILES IDX 38 55 72 56 51 57 71 58 52 59 55 60 70 61 90 62 53 63 54 64
REMARK SMILES IDX 69 66 91 67 56 68 39 69 40 70 49 71 41 72 42 73 48 74 50 75
REMARK SMILES IDX 43 76 44 77 45 78 46 79 47 80 73 81 74 82 83 83 75 84 76 85
REMARK SMILES IDX 82 86 84 87 77 88 78 89 79 90 80 91 81 92 57 93 58 94 67 95
REMARK SMILES IDX 59 96 60 97 66 98 68 99 61 100 62 101 63 102 64 103 65 104
REMARK H PARENT 3 30 89 54 55 65
REMARK Flexibility Score: inf
ROOT
ATOM      1  C   UNL A   1      42.592  18.437  26.122  1.00  0.00     0.275 C 
ENDROOT
BRANCH   1   2
ATOM      2  O   UNL A   1      41.479  19.201  25.636  1.00  0.00    -0.458 OA
BRANCH   2   3
ATOM      3  C   UNL A   1      40.915  20.035  26.545  1.00  0.00     0.338 C 
ATOM      4  O   UNL A   1      41.385  20.357  27.628  1.00  0.00    -0.246 OA
BRANCH   3   5
ATOM      5  C   UNL A   1      39.651  20.592  26.016  1.00  0.00     0.060 A 
ATOM      6  C   UNL A   1      37.216  21.688  25.213  1.00  0.00     0.066 A 
ATOM      7  C   UNL A   1      38.193  22.511  25.795  1.00  0.00     0.029 A 
ATOM      8  C   UNL A   1      37.489  20.339  24.958  1.00  0.00     0.029 A 
ATOM      9  C   UNL A   1      39.397  21.954  26.221  1.00  0.00     0.018 A 
ATOM     10  C   UNL A   1      38.718  19.796  25.342  1.00  0.00     0.018 A 
BRANCH   6  11
ATOM     11  N   UNL A   1      35.934  22.227  24.964  1.00  0.00    -0.220 N 
ATOM     12  C   UNL A   1      34.006  22.752  24.080  1.00  0.00     0.120 A 
ATOM     13  C   UNL A   1      35.289  22.366  23.752  1.00  0.00     0.144 A 
ATOM     14  N   UNL A   1      33.918  22.854  25.442  1.00  0.00    -0.131 NA
ATOM     15  N   UNL A   1      35.083  22.530  25.967  1.00  0.00    -0.062 NA
BRANCH  12  16
ATOM     16  C   UNL A   1      32.792  22.922  23.230  1.00  0.00     0.289 C 
BRANCH  16  17
ATOM     17  O   UNL A   1      32.833  24.016  22.300  1.00  0.00    -0.487 OA
BRANCH  17  18
ATOM     18  C   UNL A   1      32.229  25.191  22.659  1.00  0.00     0.119 A 
ATOM     19  C   UNL A   1      31.345  27.692  23.583  1.00  0.00    -0.024 A 
ATOM     20  C   UNL A   1      32.541  27.592  22.868  1.00  0.00     0.012 A 
ATOM     21  C   UNL A   1      30.553  26.553  23.748  1.00  0.00     0.012 A 
ATOM     22  C   UNL A   1      32.979  26.343  22.411  1.00  0.00     0.047 A 
ATOM     23  C   UNL A   1      30.981  25.315  23.266  1.00  0.00     0.047 A 
BRANCH  19  24
ATOM     24  C   UNL A   1      30.930  28.963  24.180  1.00  0.00     0.029 C 
ATOM     25  O   UNL A   1      30.218  31.550  25.300  1.00  0.00    -0.268 OA
ATOM     26  C   UNL A   1      29.870  31.202  24.182  1.00  0.00     0.263 C 
ATOM     27  N   UNL A   1      29.147  31.965  23.308  1.00  0.00    -0.307 N 
ATOM     28  C   UNL A   1      30.195  29.893  23.554  1.00  0.00     0.080 C 
ATOM     29  C   UNL A   1      28.859  31.440  22.084  1.00  0.00     0.145 C 
ATOM     30  H   UNL A   1      28.843  32.868  23.556  1.00  0.00     0.171 HD
ATOM     31  S   UNL A   1      29.516  29.825  21.967  1.00  0.00    -0.055 SA
ATOM     32  S   UNL A   1      28.028  32.250  20.909  1.00  0.00    -0.052 S 
ENDBRANCH  19  24
ENDBRANCH  17  18
ENDBRANCH  16  17
ENDBRANCH  12  16
ENDBRANCH   6  11
ENDBRANCH   3   5
ENDBRANCH   2   3
ENDBRANCH   1   2
BRANCH   1  33
ATOM     33  C   UNL A   1      43.897  18.911  25.497  1.00  0.00     0.275 C 
BRANCH  33  34
ATOM     34  O   UNL A   1      43.703  20.021  24.619  1.00  0.00    -0.458 OA
BRANCH  34  35
ATOM     35  C   UNL A   1      44.681  20.955  24.676  1.00  0.00     0.338 C 
ATOM     36  O   UNL A   1      45.821  20.857  24.256  1.00  0.00    -0.246 OA
BRANCH  35  37
ATOM     37  C   UNL A   1      44.256  22.035  25.570  1.00  0.00     0.060 A 
ATOM     38  C   UNL A   1      43.166  22.823  25.187  1.00  0.00     0.016 A 
ATOM     39  C   UNL A   1      45.102  22.409  26.624  1.00  0.00     0.016 A 
ATOM     40  C   UNL A   1      42.991  24.051  25.797  1.00  0.00     0.010 A 
ATOM     41  C   UNL A   1      44.943  23.642  27.210  1.00  0.00     0.010 A 
ATOM     42  C   UNL A   1      43.918  24.471  26.759  1.00  0.00    -0.014 A 
BRANCH  42  43
ATOM     43  C   UNL A   1      43.684  25.724  27.454  1.00  0.00     0.031 A 
ATOM     44  C   UNL A   1      44.746  26.720  27.164  1.00  0.00     0.074 A 
ATOM     45  C   UNL A   1      42.543  25.993  28.121  1.00  0.00     0.049 A 
ATOM     46  N   UNL A   1      45.629  27.190  27.980  1.00  0.00    -0.248 NA
ATOM     47  C   UNL A   1      44.992  27.075  25.754  1.00  0.00     0.031 C 
ATOM     48  C   UNL A   1      41.332  25.170  28.186  1.00  0.00     0.029 A 
ATOM     49  N   UNL A   1      42.177  27.117  28.794  1.00  0.00    -0.354 N 
ATOM     50  C   UNL A   1      46.365  28.107  27.234  1.00  0.00     0.074 A 
ATOM     51  C   UNL A   1      46.099  27.810  25.854  1.00  0.00     0.031 C 
ATOM     52  C   UNL A   1      40.306  25.921  28.651  1.00  0.00     0.029 A 
ATOM     53  C   UNL A   1      40.808  27.233  29.027  1.00  0.00     0.049 A 
ATOM     54  H   UNL A   1      42.826  27.795  29.094  1.00  0.00     0.167 HD
ATOM     55  C   UNL A   1      46.875  29.224  27.819  1.00  0.00     0.037 A 
ATOM     56  C   UNL A   1      40.143  28.350  29.429  1.00  0.00     0.037 A 
ATOM     57  C   UNL A   1      46.926  29.070  29.252  1.00  0.00     0.049 A 
ATOM     58  C   UNL A   1      41.154  29.277  30.004  1.00  0.00     0.074 A 
ATOM     59  C   UNL A   1      47.518  28.163  30.112  1.00  0.00     0.029 A 
ATOM     60  N   UNL A   1      45.965  29.718  29.988  1.00  0.00    -0.354 N 
ATOM     61  N   UNL A   1      41.803  29.049  31.113  1.00  0.00    -0.248 NA
ATOM     62  C   UNL A   1      41.778  30.237  29.106  1.00  0.00     0.031 C 
ATOM     63  C   UNL A   1      46.580  27.988  31.170  1.00  0.00     0.029 A 
ATOM     64  C   UNL A   1      45.508  28.853  30.946  1.00  0.00     0.049 A 
ATOM     65  H   UNL A   1      45.656  30.643  29.850  1.00  0.00     0.167 HD
ATOM     66  C   UNL A   1      43.100  29.470  30.854  1.00  0.00     0.074 A 
ATOM     67  C   UNL A   1      43.002  30.274  29.637  1.00  0.00     0.031 C 
ATOM     68  C   UNL A   1      44.164  28.886  31.479  1.00  0.00     0.037 A 
BRANCH  55  69
ATOM     69  C   UNL A   1      46.905  30.585  27.154  1.00  0.00     0.058 A 
ATOM     70  C   UNL A   1      48.115  31.309  27.150  1.00  0.00     0.135 A 
ATOM     71  C   UNL A   1      45.757  31.327  26.790  1.00  0.00     0.135 A 
ATOM     72  F   UNL A   1      49.272  30.711  27.481  1.00  0.00    -0.206 F 
ATOM     73  C   UNL A   1      48.168  32.679  26.895  1.00  0.00     0.059 A 
ATOM     74  C   UNL A   1      45.797  32.680  26.478  1.00  0.00     0.059 A 
ATOM     75  F   UNL A   1      44.523  30.814  26.808  1.00  0.00    -0.206 F 
ATOM     76  C   UNL A   1      46.998  33.358  26.575  1.00  0.00     0.060 A 
BRANCH  76  77
ATOM     77  S   UNL A   1      47.044  35.138  26.324  1.00  0.00     0.124 S 
ATOM     78  O   UNL A   1      47.228  35.618  27.688  1.00  0.00    -0.237 OA
ATOM     79  O   UNL A   1      48.189  35.285  25.432  1.00  0.00    -0.237 OA
ATOM     80  O   UNL A   1      45.746  35.426  25.720  1.00  0.00    -0.744 OA
ENDBRANCH  76  77
ENDBRANCH  55  69
BRANCH  56  81
ATOM     81  C   UNL A   1      38.776  28.820  29.052  1.00  0.00     0.058 A 
ATOM     82  C   UNL A   1      37.772  28.995  30.025  1.00  0.00     0.135 A 
ATOM     83  C   UNL A   1      38.510  29.384  27.789  1.00  0.00     0.135 A 
ATOM     84  F   UNL A   1      37.939  28.506  31.264  1.00  0.00    -0.206 F 
ATOM     85  C   UNL A   1      36.609  29.738  29.781  1.00  0.00     0.059 A 
ATOM     86  C   UNL A   1      37.355  30.119  27.519  1.00  0.00     0.059 A 
ATOM     87  F   UNL A   1      39.412  29.326  26.799  1.00  0.00    -0.206 F 
ATOM     88  C   UNL A   1      36.421  30.318  28.528  1.00  0.00     0.060 A 
BRANCH  88  89
ATOM     89  S   UNL A   1      35.022  31.435  28.259  1.00  0.00     0.124 S 
ATOM     90  O   UNL A   1      34.626  31.760  29.625  1.00  0.00    -0.237 OA
ATOM     91  O   UNL A   1      35.632  32.519  27.497  1.00  0.00    -0.237 OA
ATOM     92  O   UNL A   1      34.072  30.613  27.513  1.00  0.00    -0.744 OA
ENDBRANCH  88  89
ENDBRANCH  56  81
BRANCH  68  93
ATOM     93  C   UNL A   1      43.908  28.062  32.713  1.00  0.00     0.058 A 
ATOM     94  C   UNL A   1      43.733  26.668  32.743  1.00  0.00     0.135 A 
ATOM     95  C   UNL A   1      43.972  28.725  33.949  1.00  0.00     0.135 A 
ATOM     96  F   UNL A   1      43.765  25.942  31.615  1.00  0.00    -0.206 F 
ATOM     97  C   UNL A   1      43.579  25.974  33.947  1.00  0.00     0.059 A 
ATOM     98  C   UNL A   1      43.858  28.052  35.158  1.00  0.00     0.059 A 
ATOM     99  F   UNL A   1      44.194  30.051  33.991  1.00  0.00    -0.206 F 
ATOM    100  C   UNL A   1      43.642  26.678  35.151  1.00  0.00     0.060 A 
BRANCH 100 101
ATOM    101  S   UNL A   1      43.480  25.786  36.712  1.00  0.00     0.124 S 
ATOM    102  O   UNL A   1      42.529  24.734  36.367  1.00  0.00    -0.237 OA
ATOM    103  O   UNL A   1      44.847  25.345  36.972  1.00  0.00    -0.237 OA
ATOM    104  O   UNL A   1      42.976  26.801  37.635  1.00  0.00    -0.744 OA
ENDBRANCH 100 101
ENDBRANCH  68  93
ENDBRANCH  42  43
ENDBRANCH  35  37
ENDBRANCH  34  35
ENDBRANCH  33  34
ENDBRANCH   1  33
TORSDOF 19
ENDMDL
MODEL 3
REMARK VINA RESULT:     -12.3      2.350      3.892
REMARK SMILES O=C1NC(=S)S/C1=C\c1ccc(OCc2cn(-c3ccc(C(=O)OCCOC(=O)c4ccc(-c5c6nc(c(-c7c(F)cc(S(=O)(=O)[O-])cc7F)c7ccc([nH]7)c(-c7c(F)cc(S(=O)(=O)[O-])cc7F)c7nc(c(-c8c(F)cc(S(=O)(=O)[O-])cc8F)c8ccc5[nH]8)C=C7)C=C6)cc4)cc3)nn2)cc1
REMARK SMILES IDX 25 1 24 2 22 3 23 4 21 5 18 6 19 7 97 8 20 9 96 10 17 11
REMARK SMILES IDX 15 12 16 13 99 14 98 15 14 16 13 17 12 18 9 19 10 20 101 21
REMARK SMILES IDX 11 22 100 23 8 24 1 25 2 26 3 27 7 28 4 29 6 31 5 32 26 33
REMARK SMILES IDX 27 34 28 35 29 36 30 37 31 38 95 39 32 40 94 41 33 42 34 43
REMARK SMILES IDX 35 44 88 45 36 46 93 47 87 48 89 49 37 50 92 51 86 52 85 53
REMARK SMILES IDX 38 55 72 56 51 57 71 58 52 59 55 60 70 61 90 62 53 63 54 64
REMARK SMILES IDX 69 66 91 67 56 68 39 69 40 70 49 71 41 72 42 73 48 74 50 75
REMARK SMILES IDX 43 76 44 77 45 78 46 79 47 80 73 81 74 82 83 83 75 84 76 85
REMARK SMILES IDX 82 86 84 87 77 88 78 89 79 90 80 91 81 92 57 93 58 94 67 95
REMARK SMILES IDX 59 96 60 97 66 98 68 99 61 100 62 101 63 102 64 103 65 104
REMARK H PARENT 3 30 89 54 55 65
REMARK Flexibility Score: inf
ROOT
ATOM      1  C   UNL A   1      43.717  18.624  25.326  1.00  0.00     0.275 C 
ENDROOT
BRANCH   1   2
ATOM      2  O   UNL A   1      42.479  19.349  25.293  1.00  0.00    -0.458 OA
BRANCH   2   3
ATOM      3  C   UNL A   1      41.883  19.522  26.499  1.00  0.00     0.338 C 
ATOM      4  O   UNL A   1      42.299  19.128  27.580  1.00  0.00    -0.246 OA
BRANCH   3   5
ATOM      5  C   UNL A   1      40.663  20.346  26.355  1.00  0.00     0.060 A 
ATOM      6  C   UNL A   1      38.389  21.889  25.880  1.00  0.00     0.066 A 
ATOM      7  C   UNL A   1      38.423  20.550  25.462  1.00  0.00     0.029 A 
ATOM      8  C   UNL A   1      39.457  22.429  26.607  1.00  0.00     0.029 A 
ATOM      9  C   UNL A   1      39.571  19.791  25.675  1.00  0.00     0.018 A 
ATOM     10  C   UNL A   1      40.587  21.648  26.862  1.00  0.00     0.018 A 
BRANCH   6  11
ATOM     11  N   UNL A   1      37.299  22.697  25.488  1.00  0.00    -0.220 N 
ATOM     12  C   UNL A   1      35.643  24.121  25.442  1.00  0.00     0.120 A 
ATOM     13  C   UNL A   1      36.347  23.293  26.290  1.00  0.00     0.144 A 
ATOM     14  N   UNL A   1      36.156  23.991  24.180  1.00  0.00    -0.131 NA
ATOM     15  N   UNL A   1      37.159  23.135  24.218  1.00  0.00    -0.062 NA
BRANCH  12  16
ATOM     16  C   UNL A   1      34.586  25.136  25.725  1.00  0.00     0.289 C 
BRANCH  16  17
ATOM     17  O   UNL A   1      33.547  25.244  24.739  1.00  0.00    -0.487 OA
BRANCH  17  18
ATOM     18  C   UNL A   1      33.095  24.094  24.152  1.00  0.00     0.119 A 
ATOM     19  C   UNL A   1      32.382  21.535  23.236  1.00  0.00    -0.024 A 
ATOM     20  C   UNL A   1      32.193  21.877  24.577  1.00  0.00     0.012 A 
ATOM     21  C   UNL A   1      32.838  22.508  22.343  1.00  0.00     0.012 A 
ATOM     22  C   UNL A   1      32.552  23.152  25.030  1.00  0.00     0.047 A 
ATOM     23  C   UNL A   1      33.168  23.787  22.794  1.00  0.00     0.047 A 
BRANCH  19  24
ATOM     24  C   UNL A   1      32.134  20.170  22.766  1.00  0.00     0.029 C 
ATOM     25  O   UNL A   1      31.760  17.473  21.748  1.00  0.00    -0.268 OA
ATOM     26  C   UNL A   1      32.500  17.721  22.687  1.00  0.00     0.263 C 
ATOM     27  N   UNL A   1      33.263  16.804  23.355  1.00  0.00    -0.307 N 
ATOM     28  C   UNL A   1      32.731  19.075  23.258  1.00  0.00     0.080 C 
ATOM     29  C   UNL A   1      34.059  17.246  24.368  1.00  0.00     0.145 C 
ATOM     30  H   UNL A   1      33.237  15.851  23.110  1.00  0.00     0.171 HD
ATOM     31  S   UNL A   1      33.858  18.972  24.564  1.00  0.00    -0.055 SA
ATOM     32  S   UNL A   1      35.062  16.270  25.243  1.00  0.00    -0.052 S 
ENDBRANCH  19  24
ENDBRANCH  17  18
ENDBRANCH  16  17
ENDBRANCH  12  16
ENDBRANCH   6  11
ENDBRANCH   3   5
ENDBRANCH   2   3
ENDBRANCH   1   2
BRANCH   1  33
ATOM     33  C   UNL A   1      44.857  19.462  24.765  1.00  0.00     0.275 C 
BRANCH  33  34
ATOM     34  O   UNL A   1      44.940  20.746  25.385  1.00  0.00    -0.458 OA
BRANCH  34  35
ATOM     35  C   UNL A   1      44.436  21.759  24.643  1.00  0.00     0.338 C 
ATOM     36  O   UNL A   1      44.574  21.935  23.444  1.00  0.00    -0.246 OA
BRANCH  35  37
ATOM     37  C   UNL A   1      43.906  22.790  25.540  1.00  0.00     0.060 A 
ATOM     38  C   UNL A   1      43.168  23.838  24.981  1.00  0.00     0.016 A 
ATOM     39  C   UNL A   1      44.374  22.839  26.860  1.00  0.00     0.016 A 
ATOM     40  C   UNL A   1      42.994  24.992  25.722  1.00  0.00     0.010 A 
ATOM     41  C   UNL A   1      44.223  23.997  27.586  1.00  0.00     0.010 A 
ATOM     42  C   UNL A   1      43.576  25.079  26.993  1.00  0.00    -0.014 A 
BRANCH  42  43
ATOM     43  C   UNL A   1      43.320  26.259  27.799  1.00  0.00     0.031 A 
ATOM     44  C   UNL A   1      44.400  27.267  27.653  1.00  0.00     0.074 A 
ATOM     45  C   UNL A   1      42.154  26.474  28.441  1.00  0.00     0.049 A 
ATOM     46  N   UNL A   1      45.251  27.645  28.547  1.00  0.00    -0.248 NA
ATOM     47  C   UNL A   1      44.708  27.758  26.296  1.00  0.00     0.031 C 
ATOM     48  C   UNL A   1      40.935  25.662  28.374  1.00  0.00     0.029 A 
ATOM     49  N   UNL A   1      41.767  27.530  29.207  1.00  0.00    -0.354 N 
ATOM     50  C   UNL A   1      46.024  28.623  27.927  1.00  0.00     0.074 A 
ATOM     51  C   UNL A   1      45.815  28.467  26.516  1.00  0.00     0.031 C 
ATOM     52  C   UNL A   1      39.896  26.374  28.868  1.00  0.00     0.029 A 
ATOM     53  C   UNL A   1      40.390  27.637  29.393  1.00  0.00     0.049 A 
ATOM     54  H   UNL A   1      42.407  28.167  29.598  1.00  0.00     0.167 HD
ATOM     55  C   UNL A   1      46.516  29.671  28.642  1.00  0.00     0.037 A 
ATOM     56  C   UNL A   1      39.716  28.716  29.875  1.00  0.00     0.037 A 
ATOM     57  C   UNL A   1      46.506  29.376  30.053  1.00  0.00     0.049 A 
ATOM     58  C   UNL A   1      40.708  29.570  30.581  1.00  0.00     0.074 A 
ATOM     59  C   UNL A   1      47.054  28.382  30.842  1.00  0.00     0.029 A 
ATOM     60  N   UNL A   1      45.518  29.958  30.809  1.00  0.00    -0.354 N 
ATOM     61  N   UNL A   1      41.308  29.226  31.687  1.00  0.00    -0.248 NA
ATOM     62  C   UNL A   1      41.376  30.608  29.809  1.00  0.00     0.031 C 
ATOM     63  C   UNL A   1      46.071  28.114  31.838  1.00  0.00     0.029 A 
ATOM     64  C   UNL A   1      45.015  29.008  31.657  1.00  0.00     0.049 A 
ATOM     65  H   UNL A   1      45.222  30.896  30.751  1.00  0.00     0.167 HD
ATOM     66  C   UNL A   1      42.618  29.657  31.526  1.00  0.00     0.074 A 
ATOM     67  C   UNL A   1      42.576  30.578  30.392  1.00  0.00     0.031 C 
ATOM     68  C   UNL A   1      43.650  29.002  32.134  1.00  0.00     0.037 A 
BRANCH  55  69
ATOM     69  C   UNL A   1      46.584  31.091  28.116  1.00  0.00     0.058 A 
ATOM     70  C   UNL A   1      45.412  31.676  27.594  1.00  0.00     0.135 A 
ATOM     71  C   UNL A   1      47.783  31.786  27.831  1.00  0.00     0.135 A 
ATOM     72  F   UNL A   1      44.213  31.106  27.798  1.00  0.00    -0.206 F 
ATOM     73  C   UNL A   1      45.438  32.807  26.779  1.00  0.00     0.059 A 
ATOM     74  C   UNL A   1      47.825  32.945  27.067  1.00  0.00     0.059 A 
ATOM     75  F   UNL A   1      48.988  31.334  28.191  1.00  0.00    -0.206 F 
ATOM     76  C   UNL A   1      46.654  33.425  26.510  1.00  0.00     0.060 A 
BRANCH  76  77
ATOM     77  S   UNL A   1      46.706  34.835  25.395  1.00  0.00     0.124 S 
ATOM     78  O   UNL A   1      48.059  34.733  24.861  1.00  0.00    -0.237 OA
ATOM     79  O   UNL A   1      45.624  34.523  24.467  1.00  0.00    -0.237 OA
ATOM     80  O   UNL A   1      46.459  35.971  26.279  1.00  0.00    -0.744 OA
ENDBRANCH  76  77
ENDBRANCH  55  69
BRANCH  56  81
ATOM     81  C   UNL A   1      38.370  29.235  29.490  1.00  0.00     0.058 A 
ATOM     82  C   UNL A   1      37.428  29.614  30.468  1.00  0.00     0.135 A 
ATOM     83  C   UNL A   1      38.085  29.647  28.173  1.00  0.00     0.135 A 
ATOM     84  F   UNL A   1      37.619  29.281  31.755  1.00  0.00    -0.206 F 
ATOM     85  C   UNL A   1      36.311  30.405  30.170  1.00  0.00     0.059 A 
ATOM     86  C   UNL A   1      36.972  30.426  27.850  1.00  0.00     0.059 A 
ATOM     87  F   UNL A   1      38.932  29.389  27.167  1.00  0.00    -0.206 F 
ATOM     88  C   UNL A   1      36.104  30.827  28.858  1.00  0.00     0.060 A 
BRANCH  88  89
ATOM     89  S   UNL A   1      34.778  32.003  28.494  1.00  0.00     0.124 S 
ATOM     90  O   UNL A   1      35.449  32.957  27.619  1.00  0.00    -0.237 OA
ATOM     91  O   UNL A   1      33.775  31.154  27.861  1.00  0.00    -0.237 OA
ATOM     92  O   UNL A   1      34.411  32.518  29.811  1.00  0.00    -0.744 OA
ENDBRANCH  88  89
ENDBRANCH  56  81
BRANCH  68  93
ATOM     93  C   UNL A   1      43.336  28.063  33.269  1.00  0.00     0.058 A 
ATOM     94  C   UNL A   1      43.318  26.660  33.186  1.00  0.00     0.135 A 
ATOM     95  C   UNL A   1      43.170  28.633  34.541  1.00  0.00     0.135 A 
ATOM     96  F   UNL A   1      43.573  26.031  32.029  1.00  0.00    -0.206 F 
ATOM     97  C   UNL A   1      43.094  25.863  34.313  1.00  0.00     0.059 A 
ATOM     98  C   UNL A   1      42.982  27.860  35.680  1.00  0.00     0.059 A 
ATOM     99  F   UNL A   1      43.234  29.966  34.696  1.00  0.00    -0.206 F 
ATOM    100  C   UNL A   1      42.925  26.475  35.557  1.00  0.00     0.060 A 
BRANCH 100 101
ATOM    101  S   UNL A   1      42.671  25.453  37.024  1.00  0.00     0.124 S 
ATOM    102  O   UNL A   1      41.344  24.896  36.782  1.00  0.00    -0.237 OA
ATOM    103  O   UNL A   1      43.779  24.506  36.950  1.00  0.00    -0.237 OA
ATOM    104  O   UNL A   1      42.752  26.410  38.125  1.00  0.00    -0.744 OA
ENDBRANCH 100 101
ENDBRANCH  68  93
ENDBRANCH  42  43
ENDBRANCH  35  37
ENDBRANCH  34  35
ENDBRANCH  33  34
ENDBRANCH   1  33
TORSDOF 19
ENDMDL
