MODEL 1
REMARK VINA RESULT:     -11.0      0.000      0.000
REMARK SMILES CC(C)c1nc(C(=O)OCCOC(=O)c2ccc(-c3c4nc(c(-c5c(F)cc(S(=O)(=O)[O-])cc5F)c5ccc([nH]5)c(-c5c(F)cc(S(=O)(=O)[O-])cc5F)c5nc(c(-c6c(F)cc(S(=O)(=O)[O-])cc6F)c6ccc3[nH]6)C=C5)C=C4)cc2)nn1-c1ccccc1F
REMARK SMILES IDX 11 1 10 2 9 3 7 4 8 5 6 6 4 7 5 8 82 9 81 10 2 11 1 12 3 13
REMARK SMILES IDX 83 14 84 15 88 16 85 17 87 18 89 19 86 20 12 21 13 22 14 23
REMARK SMILES IDX 15 24 16 25 80 26 17 27 79 28 18 29 19 30 20 31 73 32 21 33
REMARK SMILES IDX 78 34 72 35 74 36 22 37 77 38 71 39 70 40 23 42 57 43 36 44
REMARK SMILES IDX 56 45 37 46 40 47 55 48 75 49 38 50 39 51 54 53 76 54 41 55
REMARK SMILES IDX 24 56 25 57 34 58 26 59 27 60 33 61 35 62 28 63 29 64 30 65
REMARK SMILES IDX 31 66 32 67 58 68 59 69 68 70 60 71 61 72 67 73 69 74 62 75
REMARK SMILES IDX 63 76 64 77 65 78 66 79 42 80 43 81 52 82 44 83 45 84 51 85
REMARK SMILES IDX 53 86 46 87 47 88 48 89 49 90 50 91
REMARK H PARENT 74 41 40 52
REMARK Flexibility Score: inf
ROOT
ATOM      1  C   UNL A   1      41.315  20.651  26.652  1.00  0.00     0.275 C 
ENDROOT
BRANCH   1   2
ATOM      2  C   UNL A   1      42.579  19.983  26.137  1.00  0.00     0.275 C 
BRANCH   2   3
ATOM      3  O   UNL A   1      43.231  20.790  25.148  1.00  0.00    -0.456 OA
BRANCH   3   4
ATOM      4  C   UNL A   1      44.567  21.051  25.325  1.00  0.00     0.378 C 
ATOM      5  O   UNL A   1      45.461  20.237  25.090  1.00  0.00    -0.242 OA
BRANCH   4   6
ATOM      6  C   UNL A   1      44.798  22.424  25.808  1.00  0.00     0.260 A 
ATOM      7  C   UNL A   1      44.616  24.544  26.076  1.00  0.00     0.136 A 
ATOM      8  N   UNL A   1      44.138  23.545  25.348  1.00  0.00    -0.205 NA
ATOM      9  N   UNL A   1      45.528  24.018  26.983  1.00  0.00    -0.214 N 
ATOM     10  N   UNL A   1      45.740  22.711  26.717  1.00  0.00    -0.138 NA
BRANCH   7  11
ATOM     11  C   UNL A   1      44.341  25.990  25.740  1.00  0.00     0.051 C 
ATOM     12  C   UNL A   1      45.520  26.667  25.047  1.00  0.00     0.016 C 
ATOM     13  C   UNL A   1      43.023  26.274  25.027  1.00  0.00     0.016 C 
ENDBRANCH   7  11
BRANCH   9  14
ATOM     14  C   UNL A   1      46.354  24.622  27.947  1.00  0.00     0.102 A 
ATOM     15  C   UNL A   1      45.791  24.944  29.193  1.00  0.00     0.031 A 
ATOM     16  C   UNL A   1      47.677  24.943  27.683  1.00  0.00     0.148 A 
ATOM     17  C   UNL A   1      46.583  25.512  30.188  1.00  0.00     0.002 A 
ATOM     18  C   UNL A   1      48.464  25.534  28.669  1.00  0.00     0.041 A 
ATOM     19  F   UNL A   1      48.213  24.740  26.475  1.00  0.00    -0.205 F 
ATOM     20  C   UNL A   1      47.921  25.802  29.928  1.00  0.00     0.003 A 
ENDBRANCH   9  14
ENDBRANCH   4   6
ENDBRANCH   3   4
ENDBRANCH   2   3
ENDBRANCH   1   2
BRANCH   1  21
ATOM     21  O   UNL A   1      41.184  21.969  26.127  1.00  0.00    -0.458 OA
BRANCH  21  22
ATOM     22  C   UNL A   1      40.116  22.670  26.572  1.00  0.00     0.338 C 
ATOM     23  O   UNL A   1      38.948  22.322  26.541  1.00  0.00    -0.246 OA
BRANCH  22  24
ATOM     24  C   UNL A   1      40.560  24.028  26.906  1.00  0.00     0.060 A 
ATOM     25  C   UNL A   1      41.617  24.161  27.809  1.00  0.00     0.016 A 
ATOM     26  C   UNL A   1      39.770  25.126  26.529  1.00  0.00     0.016 A 
ATOM     27  C   UNL A   1      41.779  25.368  28.458  1.00  0.00     0.010 A 
ATOM     28  C   UNL A   1      39.927  26.325  27.183  1.00  0.00     0.010 A 
ATOM     29  C   UNL A   1      40.881  26.410  28.190  1.00  0.00    -0.014 A 
BRANCH  29  30
ATOM     30  C   UNL A   1      41.032  27.650  28.920  1.00  0.00     0.031 A 
ATOM     31  C   UNL A   1      42.118  28.506  28.386  1.00  0.00     0.074 A 
ATOM     32  C   UNL A   1      40.190  28.030  29.900  1.00  0.00     0.049 A 
ATOM     33  N   UNL A   1      43.247  28.787  28.944  1.00  0.00    -0.248 NA
ATOM     34  C   UNL A   1      42.012  28.949  26.987  1.00  0.00     0.031 C 
ATOM     35  C   UNL A   1      38.923  27.418  30.310  1.00  0.00     0.029 A 
ATOM     36  N   UNL A   1      40.262  29.130  30.692  1.00  0.00    -0.354 N 
ATOM     37  C   UNL A   1      43.905  29.631  28.055  1.00  0.00     0.074 A 
ATOM     38  C   UNL A   1      43.195  29.537  26.807  1.00  0.00     0.031 C 
ATOM     39  C   UNL A   1      38.247  28.282  31.104  1.00  0.00     0.029 A 
ATOM     40  C   UNL A   1      39.091  29.435  31.372  1.00  0.00     0.049 A 
ATOM     41  H   UNL A   1      41.082  29.669  30.778  1.00  0.00     0.167 HD
ATOM     42  C   UNL A   1      44.835  30.524  28.489  1.00  0.00     0.037 A 
ATOM     43  C   UNL A   1      38.833  30.590  32.040  1.00  0.00     0.037 A 
ATOM     44  C   UNL A   1      45.306  30.183  29.807  1.00  0.00     0.049 A 
ATOM     45  C   UNL A   1      40.152  31.214  32.341  1.00  0.00     0.074 A 
ATOM     46  C   UNL A   1      45.950  29.087  30.348  1.00  0.00     0.029 A 
ATOM     47  N   UNL A   1      44.777  30.873  30.872  1.00  0.00    -0.354 N 
ATOM     48  N   UNL A   1      41.038  30.688  33.148  1.00  0.00    -0.248 NA
ATOM     49  C   UNL A   1      40.681  32.168  31.376  1.00  0.00     0.031 C 
ATOM     50  C   UNL A   1      45.362  28.913  31.634  1.00  0.00     0.029 A 
ATOM     51  C   UNL A   1      44.449  29.951  31.833  1.00  0.00     0.049 A 
ATOM     52  H   UNL A   1      44.656  31.848  30.934  1.00  0.00     0.167 HD
ATOM     53  C   UNL A   1      42.262  30.913  32.531  1.00  0.00     0.074 A 
ATOM     54  C   UNL A   1      41.983  31.889  31.478  1.00  0.00     0.031 C 
ATOM     55  C   UNL A   1      43.329  30.088  32.740  1.00  0.00     0.037 A 
BRANCH  42  56
ATOM     56  C   UNL A   1      45.033  31.892  27.888  1.00  0.00     0.058 A 
ATOM     57  C   UNL A   1      46.251  32.192  27.247  1.00  0.00     0.135 A 
ATOM     58  C   UNL A   1      44.201  33.000  28.165  1.00  0.00     0.135 A 
ATOM     59  F   UNL A   1      47.122  31.217  26.941  1.00  0.00    -0.206 F 
ATOM     60  C   UNL A   1      46.648  33.501  26.976  1.00  0.00     0.059 A 
ATOM     61  C   UNL A   1      44.552  34.306  27.854  1.00  0.00     0.059 A 
ATOM     62  F   UNL A   1      43.053  32.886  28.844  1.00  0.00    -0.206 F 
ATOM     63  C   UNL A   1      45.796  34.552  27.301  1.00  0.00     0.060 A 
BRANCH  63  64
ATOM     64  S   UNL A   1      46.351  36.248  27.060  1.00  0.00     0.124 S 
ATOM     65  O   UNL A   1      47.232  36.103  25.907  1.00  0.00    -0.237 OA
ATOM     66  O   UNL A   1      45.091  36.946  26.820  1.00  0.00    -0.237 OA
ATOM     67  O   UNL A   1      47.008  36.569  28.323  1.00  0.00    -0.744 OA
ENDBRANCH  63  64
ENDBRANCH  42  56
BRANCH  43  68
ATOM     68  C   UNL A   1      37.560  31.363  32.057  1.00  0.00     0.058 A 
ATOM     69  C   UNL A   1      36.974  31.785  33.264  1.00  0.00     0.135 A 
ATOM     70  C   UNL A   1      37.044  31.951  30.883  1.00  0.00     0.135 A 
ATOM     71  F   UNL A   1      37.416  31.299  34.434  1.00  0.00    -0.206 F 
ATOM     72  C   UNL A   1      35.969  32.762  33.309  1.00  0.00     0.059 A 
ATOM     73  C   UNL A   1      36.040  32.919  30.902  1.00  0.00     0.059 A 
ATOM     74  F   UNL A   1      37.567  31.667  29.680  1.00  0.00    -0.206 F 
ATOM     75  C   UNL A   1      35.522  33.338  32.120  1.00  0.00     0.060 A 
BRANCH  75  76
ATOM     76  S   UNL A   1      34.350  34.716  32.180  1.00  0.00     0.124 S 
ATOM     77  O   UNL A   1      34.096  34.958  30.763  1.00  0.00    -0.237 OA
ATOM     78  O   UNL A   1      33.241  34.148  32.938  1.00  0.00    -0.237 OA
ATOM     79  O   UNL A   1      35.096  35.768  32.866  1.00  0.00    -0.744 OA
ENDBRANCH  75  76
ENDBRANCH  43  68
BRANCH  55  80
ATOM     80  C   UNL A   1      43.263  29.084  33.862  1.00  0.00     0.058 A 
ATOM     81  C   UNL A   1      43.532  29.377  35.212  1.00  0.00     0.135 A 
ATOM     82  C   UNL A   1      42.700  27.832  33.578  1.00  0.00     0.135 A 
ATOM     83  F   UNL A   1      43.987  30.584  35.578  1.00  0.00    -0.206 F 
ATOM     84  C   UNL A   1      43.260  28.458  36.230  1.00  0.00     0.059 A 
ATOM     85  C   UNL A   1      42.395  26.913  34.578  1.00  0.00     0.059 A 
ATOM     86  F   UNL A   1      42.371  27.515  32.315  1.00  0.00    -0.206 F 
ATOM     87  C   UNL A   1      42.680  27.232  35.903  1.00  0.00     0.060 A 
BRANCH  87  88
ATOM     88  S   UNL A   1      42.217  26.089  37.224  1.00  0.00     0.124 S 
ATOM     89  O   UNL A   1      43.204  26.394  38.254  1.00  0.00    -0.237 OA
ATOM     90  O   UNL A   1      40.845  26.486  37.524  1.00  0.00    -0.237 OA
ATOM     91  O   UNL A   1      42.353  24.774  36.602  1.00  0.00    -0.744 OA
ENDBRANCH  87  88
ENDBRANCH  55  80
ENDBRANCH  29  30
ENDBRANCH  22  24
ENDBRANCH  21  22
ENDBRANCH   1  21
TORSDOF 16
ENDMDL
MODEL 2
REMARK VINA RESULT:     -10.6      2.781     11.301
REMARK SMILES CC(C)c1nc(C(=O)OCCOC(=O)c2ccc(-c3c4nc(c(-c5c(F)cc(S(=O)(=O)[O-])cc5F)c5ccc([nH]5)c(-c5c(F)cc(S(=O)(=O)[O-])cc5F)c5nc(c(-c6c(F)cc(S(=O)(=O)[O-])cc6F)c6ccc3[nH]6)C=C5)C=C4)cc2)nn1-c1ccccc1F
REMARK SMILES IDX 11 1 10 2 9 3 7 4 8 5 6 6 4 7 5 8 82 9 81 10 2 11 1 12 3 13
REMARK SMILES IDX 83 14 84 15 88 16 85 17 87 18 89 19 86 20 12 21 13 22 14 23
REMARK SMILES IDX 15 24 16 25 80 26 17 27 79 28 18 29 19 30 20 31 73 32 21 33
REMARK SMILES IDX 78 34 72 35 74 36 22 37 77 38 71 39 70 40 23 42 57 43 36 44
REMARK SMILES IDX 56 45 37 46 40 47 55 48 75 49 38 50 39 51 54 53 76 54 41 55
REMARK SMILES IDX 24 56 25 57 34 58 26 59 27 60 33 61 35 62 28 63 29 64 30 65
REMARK SMILES IDX 31 66 32 67 58 68 59 69 68 70 60 71 61 72 67 73 69 74 62 75
REMARK SMILES IDX 63 76 64 77 65 78 66 79 42 80 43 81 52 82 44 83 45 84 51 85
REMARK SMILES IDX 53 86 46 87 47 88 48 89 49 90 50 91
REMARK H PARENT 74 41 40 52
REMARK Flexibility Score: inf
ROOT
ATOM      1  C   UNL A   1      34.004  33.679  28.672  1.00  0.00     0.275 C 
ENDROOT
BRANCH   1   2
ATOM      2  C   UNL A   1      33.705  34.728  29.731  1.00  0.00     0.275 C 
BRANCH   2   3
ATOM      3  O   UNL A   1      33.798  34.179  31.051  1.00  0.00    -0.456 OA
BRANCH   3   4
ATOM      4  C   UNL A   1      34.545  34.872  31.972  1.00  0.00     0.378 C 
ATOM      5  O   UNL A   1      34.189  35.935  32.483  1.00  0.00    -0.242 OA
BRANCH   4   6
ATOM      6  C   UNL A   1      35.805  34.177  32.289  1.00  0.00     0.260 A 
ATOM      7  C   UNL A   1      37.208  32.635  32.792  1.00  0.00     0.136 A 
ATOM      8  N   UNL A   1      35.908  32.848  32.643  1.00  0.00    -0.205 NA
ATOM      9  N   UNL A   1      37.875  33.818  32.496  1.00  0.00    -0.214 N 
ATOM     10  N   UNL A   1      36.983  34.816  32.316  1.00  0.00    -0.138 NA
BRANCH   7  11
ATOM     11  C   UNL A   1      37.753  31.371  33.413  1.00  0.00     0.051 C 
ATOM     12  C   UNL A   1      37.844  31.455  34.933  1.00  0.00     0.016 C 
ATOM     13  C   UNL A   1      37.109  30.067  32.952  1.00  0.00     0.016 C 
ENDBRANCH   7  11
BRANCH   9  14
ATOM     14  C   UNL A   1      39.236  34.168  32.536  1.00  0.00     0.102 A 
ATOM     15  C   UNL A   1      39.976  34.084  31.346  1.00  0.00     0.031 A 
ATOM     16  C   UNL A   1      39.863  34.545  33.715  1.00  0.00     0.148 A 
ATOM     17  C   UNL A   1      41.319  34.455  31.334  1.00  0.00     0.002 A 
ATOM     18  C   UNL A   1      41.212  34.893  33.710  1.00  0.00     0.041 A 
ATOM     19  F   UNL A   1      39.209  34.540  34.881  1.00  0.00    -0.205 F 
ATOM     20  C   UNL A   1      41.936  34.865  32.515  1.00  0.00     0.003 A 
ENDBRANCH   9  14
ENDBRANCH   4   6
ENDBRANCH   3   4
ENDBRANCH   2   3
ENDBRANCH   1   2
BRANCH   1  21
ATOM     21  O   UNL A   1      34.613  32.529  29.252  1.00  0.00    -0.458 OA
BRANCH  21  22
ATOM     22  C   UNL A   1      35.077  31.611  28.374  1.00  0.00     0.338 C 
ATOM     23  O   UNL A   1      34.537  31.246  27.344  1.00  0.00    -0.246 OA
BRANCH  22  24
ATOM     24  C   UNL A   1      36.244  30.949  28.969  1.00  0.00     0.060 A 
ATOM     25  C   UNL A   1      37.269  31.761  29.461  1.00  0.00     0.016 A 
ATOM     26  C   UNL A   1      36.417  29.566  28.797  1.00  0.00     0.016 A 
ATOM     27  C   UNL A   1      38.522  31.208  29.629  1.00  0.00     0.010 A 
ATOM     28  C   UNL A   1      37.669  29.019  28.957  1.00  0.00     0.010 A 
ATOM     29  C   UNL A   1      38.720  29.860  29.300  1.00  0.00    -0.014 A 
BRANCH  29  30
ATOM     30  C   UNL A   1      40.053  29.312  29.430  1.00  0.00     0.031 A 
ATOM     31  C   UNL A   1      40.429  29.037  30.837  1.00  0.00     0.074 A 
ATOM     32  C   UNL A   1      40.813  28.977  28.370  1.00  0.00     0.049 A 
ATOM     33  N   UNL A   1      41.308  29.652  31.553  1.00  0.00    -0.248 NA
ATOM     34  C   UNL A   1      39.598  28.085  31.592  1.00  0.00     0.031 C 
ATOM     35  C   UNL A   1      40.441  28.924  26.953  1.00  0.00     0.029 A 
ATOM     36  N   UNL A   1      42.090  28.516  28.362  1.00  0.00    -0.354 N 
ATOM     37  C   UNL A   1      41.298  29.014  32.789  1.00  0.00     0.074 A 
ATOM     38  C   UNL A   1      40.111  28.203  32.817  1.00  0.00     0.031 C 
ATOM     39  C   UNL A   1      41.390  28.242  26.268  1.00  0.00     0.029 A 
ATOM     40  C   UNL A   1      42.493  27.940  27.164  1.00  0.00     0.049 A 
ATOM     41  H   UNL A   1      42.684  28.585  29.144  1.00  0.00     0.167 HD
ATOM     42  C   UNL A   1      42.396  29.019  33.593  1.00  0.00     0.037 A 
ATOM     43  C   UNL A   1      43.624  27.214  26.969  1.00  0.00     0.037 A 
ATOM     44  C   UNL A   1      43.319  30.055  33.205  1.00  0.00     0.049 A 
ATOM     45  C   UNL A   1      44.559  27.572  28.073  1.00  0.00     0.074 A 
ATOM     46  C   UNL A   1      43.243  31.433  33.120  1.00  0.00     0.029 A 
ATOM     47  N   UNL A   1      44.408  29.691  32.449  1.00  0.00    -0.354 N 
ATOM     48  N   UNL A   1      45.086  28.759  28.222  1.00  0.00    -0.248 NA
ATOM     49  C   UNL A   1      44.524  26.752  29.277  1.00  0.00     0.031 C 
ATOM     50  C   UNL A   1      43.972  31.769  31.943  1.00  0.00     0.029 A 
ATOM     51  C   UNL A   1      44.510  30.591  31.419  1.00  0.00     0.049 A 
ATOM     52  H   UNL A   1      45.003  28.925  32.616  1.00  0.00     0.167 HD
ATOM     53  C   UNL A   1      45.060  28.993  29.591  1.00  0.00     0.074 A 
ATOM     54  C   UNL A   1      44.766  27.694  30.193  1.00  0.00     0.031 C 
ATOM     55  C   UNL A   1      44.999  30.259  30.098  1.00  0.00     0.037 A 
BRANCH  42  56
ATOM     56  C   UNL A   1      42.801  27.863  34.471  1.00  0.00     0.058 A 
ATOM     57  C   UNL A   1      42.925  28.064  35.860  1.00  0.00     0.135 A 
ATOM     58  C   UNL A   1      43.347  26.656  33.979  1.00  0.00     0.135 A 
ATOM     59  F   UNL A   1      42.446  29.179  36.435  1.00  0.00    -0.206 F 
ATOM     60  C   UNL A   1      43.611  27.173  36.684  1.00  0.00     0.059 A 
ATOM     61  C   UNL A   1      43.986  25.729  34.791  1.00  0.00     0.059 A 
ATOM     62  F   UNL A   1      43.383  26.361  32.674  1.00  0.00    -0.206 F 
ATOM     63  C   UNL A   1      44.153  26.016  36.134  1.00  0.00     0.060 A 
BRANCH  63  64
ATOM     64  S   UNL A   1      45.137  24.920  37.169  1.00  0.00     0.124 S 
ATOM     65  O   UNL A   1      44.540  25.147  38.480  1.00  0.00    -0.237 OA
ATOM     66  O   UNL A   1      44.877  23.618  36.562  1.00  0.00    -0.237 OA
ATOM     67  O   UNL A   1      46.496  25.425  36.996  1.00  0.00    -0.744 OA
ENDBRANCH  63  64
ENDBRANCH  42  56
BRANCH  43  68
ATOM     68  C   UNL A   1      43.774  25.967  26.166  1.00  0.00     0.058 A 
ATOM     69  C   UNL A   1      44.920  25.732  25.385  1.00  0.00     0.135 A 
ATOM     70  C   UNL A   1      42.930  24.856  26.373  1.00  0.00     0.135 A 
ATOM     71  F   UNL A   1      45.794  26.723  25.156  1.00  0.00    -0.206 F 
ATOM     72  C   UNL A   1      45.234  24.463  24.878  1.00  0.00     0.059 A 
ATOM     73  C   UNL A   1      43.217  23.587  25.872  1.00  0.00     0.059 A 
ATOM     74  F   UNL A   1      41.840  24.951  27.150  1.00  0.00    -0.206 F 
ATOM     75  C   UNL A   1      44.383  23.390  25.144  1.00  0.00     0.060 A 
BRANCH  75  76
ATOM     76  S   UNL A   1      44.864  21.720  24.638  1.00  0.00     0.124 S 
ATOM     77  O   UNL A   1      44.065  20.892  25.534  1.00  0.00    -0.237 OA
ATOM     78  O   UNL A   1      44.475  21.697  23.232  1.00  0.00    -0.237 OA
ATOM     79  O   UNL A   1      46.303  21.692  24.883  1.00  0.00    -0.744 OA
ENDBRANCH  75  76
ENDBRANCH  43  68
BRANCH  55  80
ATOM     80  C   UNL A   1      45.242  31.425  29.174  1.00  0.00     0.058 A 
ATOM     81  C   UNL A   1      46.512  31.939  28.855  1.00  0.00     0.135 A 
ATOM     82  C   UNL A   1      44.154  31.894  28.424  1.00  0.00     0.135 A 
ATOM     83  F   UNL A   1      47.615  31.479  29.462  1.00  0.00    -0.206 F 
ATOM     84  C   UNL A   1      46.686  32.887  27.841  1.00  0.00     0.059 A 
ATOM     85  C   UNL A   1      44.307  32.815  27.392  1.00  0.00     0.059 A 
ATOM     86  F   UNL A   1      42.924  31.400  28.644  1.00  0.00    -0.206 F 
ATOM     87  C   UNL A   1      45.578  33.310  27.107  1.00  0.00     0.060 A 
BRANCH  87  88
ATOM     88  S   UNL A   1      45.813  34.442  25.719  1.00  0.00     0.124 S 
ATOM     89  O   UNL A   1      45.357  35.711  26.276  1.00  0.00    -0.237 OA
ATOM     90  O   UNL A   1      47.246  34.340  25.463  1.00  0.00    -0.237 OA
ATOM     91  O   UNL A   1      44.961  33.881  24.672  1.00  0.00    -0.744 OA
ENDBRANCH  87  88
ENDBRANCH  55  80
ENDBRANCH  29  30
ENDBRANCH  22  24
ENDBRANCH  21  22
ENDBRANCH   1  21
TORSDOF 16
ENDMDL
MODEL 3
REMARK VINA RESULT:     -10.5      3.665      5.986
REMARK SMILES CC(C)c1nc(C(=O)OCCOC(=O)c2ccc(-c3c4nc(c(-c5c(F)cc(S(=O)(=O)[O-])cc5F)c5ccc([nH]5)c(-c5c(F)cc(S(=O)(=O)[O-])cc5F)c5nc(c(-c6c(F)cc(S(=O)(=O)[O-])cc6F)c6ccc3[nH]6)C=C5)C=C4)cc2)nn1-c1ccccc1F
REMARK SMILES IDX 11 1 10 2 9 3 7 4 8 5 6 6 4 7 5 8 82 9 81 10 2 11 1 12 3 13
REMARK SMILES IDX 83 14 84 15 88 16 85 17 87 18 89 19 86 20 12 21 13 22 14 23
REMARK SMILES IDX 15 24 16 25 80 26 17 27 79 28 18 29 19 30 20 31 73 32 21 33
REMARK SMILES IDX 78 34 72 35 74 36 22 37 77 38 71 39 70 40 23 42 57 43 36 44
REMARK SMILES IDX 56 45 37 46 40 47 55 48 75 49 38 50 39 51 54 53 76 54 41 55
REMARK SMILES IDX 24 56 25 57 34 58 26 59 27 60 33 61 35 62 28 63 29 64 30 65
REMARK SMILES IDX 31 66 32 67 58 68 59 69 68 70 60 71 61 72 67 73 69 74 62 75
REMARK SMILES IDX 63 76 64 77 65 78 66 79 42 80 43 81 52 82 44 83 45 84 51 85
REMARK SMILES IDX 53 86 46 87 47 88 48 89 49 90 50 91
REMARK H PARENT 74 41 40 52
REMARK Flexibility Score: inf
ROOT
ATOM      1  C   UNL A   1      38.413  21.244  25.431  1.00  0.00     0.275 C 
ENDROOT
BRANCH   1   2
ATOM      2  C   UNL A   1      36.940  21.190  25.061  1.00  0.00     0.275 C 
BRANCH   2   3
ATOM      3  O   UNL A   1      36.266  22.403  25.420  1.00  0.00    -0.456 OA
BRANCH   3   4
ATOM      4  C   UNL A   1      35.040  22.288  26.029  1.00  0.00     0.378 C 
ATOM      5  O   UNL A   1      34.772  21.433  26.873  1.00  0.00    -0.242 OA
BRANCH   4   6
ATOM      6  C   UNL A   1      34.099  23.323  25.565  1.00  0.00     0.260 A 
ATOM      7  C   UNL A   1      32.286  24.409  25.202  1.00  0.00     0.136 A 
ATOM      8  N   UNL A   1      32.729  23.269  25.714  1.00  0.00    -0.205 NA
ATOM      9  N   UNL A   1      33.386  25.149  24.784  1.00  0.00    -0.214 N 
ATOM     10  N   UNL A   1      34.507  24.404  24.887  1.00  0.00    -0.138 NA
BRANCH   7  11
ATOM     11  C   UNL A   1      30.820  24.661  24.941  1.00  0.00     0.051 C 
ATOM     12  C   UNL A   1      30.292  25.883  25.688  1.00  0.00     0.016 C 
ATOM     13  C   UNL A   1      30.391  24.660  23.477  1.00  0.00     0.016 C 
ENDBRANCH   7  11
BRANCH   9  14
ATOM     14  C   UNL A   1      33.493  26.392  24.136  1.00  0.00     0.102 A 
ATOM     15  C   UNL A   1      33.538  27.550  24.929  1.00  0.00     0.031 A 
ATOM     16  C   UNL A   1      33.511  26.501  22.753  1.00  0.00     0.148 A 
ATOM     17  C   UNL A   1      33.680  28.799  24.330  1.00  0.00     0.002 A 
ATOM     18  C   UNL A   1      33.628  27.752  22.151  1.00  0.00     0.041 A 
ATOM     19  F   UNL A   1      33.371  25.426  21.970  1.00  0.00    -0.205 F 
ATOM     20  C   UNL A   1      33.731  28.900  22.941  1.00  0.00     0.003 A 
ENDBRANCH   9  14
ENDBRANCH   4   6
ENDBRANCH   3   4
ENDBRANCH   2   3
ENDBRANCH   1   2
BRANCH   1  21
ATOM     21  O   UNL A   1      38.726  22.463  26.100  1.00  0.00    -0.458 OA
BRANCH  21  22
ATOM     22  C   UNL A   1      39.874  22.456  26.814  1.00  0.00     0.338 C 
ATOM     23  O   UNL A   1      40.410  21.489  27.328  1.00  0.00    -0.246 OA
BRANCH  22  24
ATOM     24  C   UNL A   1      40.271  23.846  27.068  1.00  0.00     0.060 A 
ATOM     25  C   UNL A   1      41.456  24.062  27.776  1.00  0.00     0.016 A 
ATOM     26  C   UNL A   1      39.353  24.881  26.833  1.00  0.00     0.016 A 
ATOM     27  C   UNL A   1      41.641  25.285  28.387  1.00  0.00     0.010 A 
ATOM     28  C   UNL A   1      39.535  26.096  27.451  1.00  0.00     0.010 A 
ATOM     29  C   UNL A   1      40.639  26.259  28.279  1.00  0.00    -0.014 A 
BRANCH  29  30
ATOM     30  C   UNL A   1      40.826  27.515  28.973  1.00  0.00     0.031 A 
ATOM     31  C   UNL A   1      41.921  28.333  28.401  1.00  0.00     0.074 A 
ATOM     32  C   UNL A   1      40.005  27.939  29.953  1.00  0.00     0.049 A 
ATOM     33  N   UNL A   1      43.063  28.607  28.936  1.00  0.00    -0.248 NA
ATOM     34  C   UNL A   1      41.804  28.741  26.992  1.00  0.00     0.031 C 
ATOM     35  C   UNL A   1      38.731  27.364  30.397  1.00  0.00     0.029 A 
ATOM     36  N   UNL A   1      40.110  29.058  30.714  1.00  0.00    -0.354 N 
ATOM     37  C   UNL A   1      43.725  29.413  28.015  1.00  0.00     0.074 A 
ATOM     38  C   UNL A   1      42.996  29.300  26.780  1.00  0.00     0.031 C 
ATOM     39  C   UNL A   1      38.084  28.263  31.176  1.00  0.00     0.029 A 
ATOM     40  C   UNL A   1      38.954  29.405  31.400  1.00  0.00     0.049 A 
ATOM     41  H   UNL A   1      40.941  29.582  30.774  1.00  0.00     0.167 HD
ATOM     42  C   UNL A   1      44.679  30.297  28.413  1.00  0.00     0.037 A 
ATOM     43  C   UNL A   1      38.730  30.582  32.041  1.00  0.00     0.037 A 
ATOM     44  C   UNL A   1      45.162  29.983  29.733  1.00  0.00     0.049 A 
ATOM     45  C   UNL A   1      40.065  31.187  32.307  1.00  0.00     0.074 A 
ATOM     46  C   UNL A   1      45.791  28.888  30.295  1.00  0.00     0.029 A 
ATOM     47  N   UNL A   1      44.661  30.712  30.786  1.00  0.00    -0.354 N 
ATOM     48  N   UNL A   1      40.951  30.665  33.115  1.00  0.00    -0.248 NA
ATOM     49  C   UNL A   1      40.600  32.104  31.309  1.00  0.00     0.031 C 
ATOM     50  C   UNL A   1      45.218  28.762  31.593  1.00  0.00     0.029 A 
ATOM     51  C   UNL A   1      44.329  29.823  31.776  1.00  0.00     0.049 A 
ATOM     52  H   UNL A   1      44.561  31.690  30.822  1.00  0.00     0.167 HD
ATOM     53  C   UNL A   1      42.171  30.849  32.477  1.00  0.00     0.074 A 
ATOM     54  C   UNL A   1      41.897  31.801  31.401  1.00  0.00     0.031 C 
ATOM     55  C   UNL A   1      43.224  30.008  32.693  1.00  0.00     0.037 A 
BRANCH  42  56
ATOM     56  C   UNL A   1      44.896  31.644  27.772  1.00  0.00     0.058 A 
ATOM     57  C   UNL A   1      46.102  31.895  27.087  1.00  0.00     0.135 A 
ATOM     58  C   UNL A   1      44.103  32.782  28.046  1.00  0.00     0.135 A 
ATOM     59  F   UNL A   1      46.936  30.888  26.780  1.00  0.00    -0.206 F 
ATOM     60  C   UNL A   1      46.526  33.185  26.772  1.00  0.00     0.059 A 
ATOM     61  C   UNL A   1      44.481  34.070  27.692  1.00  0.00     0.059 A 
ATOM     62  F   UNL A   1      42.974  32.717  28.761  1.00  0.00    -0.206 F 
ATOM     63  C   UNL A   1      45.714  34.267  27.096  1.00  0.00     0.060 A 
BRANCH  63  64
ATOM     64  S   UNL A   1      46.307  35.940  26.796  1.00  0.00     0.124 S 
ATOM     65  O   UNL A   1      47.242  36.119  27.901  1.00  0.00    -0.237 OA
ATOM     66  O   UNL A   1      46.901  35.816  25.468  1.00  0.00    -0.237 OA
ATOM     67  O   UNL A   1      45.090  36.745  26.859  1.00  0.00    -0.744 OA
ENDBRANCH  63  64
ENDBRANCH  42  56
BRANCH  43  68
ATOM     68  C   UNL A   1      37.472  31.382  32.053  1.00  0.00     0.058 A 
ATOM     69  C   UNL A   1      36.904  31.835  33.257  1.00  0.00     0.135 A 
ATOM     70  C   UNL A   1      36.961  31.961  30.873  1.00  0.00     0.135 A 
ATOM     71  F   UNL A   1      37.344  31.358  34.432  1.00  0.00    -0.206 F 
ATOM     72  C   UNL A   1      35.920  32.833  33.293  1.00  0.00     0.059 A 
ATOM     73  C   UNL A   1      35.977  32.950  30.883  1.00  0.00     0.059 A 
ATOM     74  F   UNL A   1      37.469  31.647  29.672  1.00  0.00    -0.206 F 
ATOM     75  C   UNL A   1      35.476  33.399  32.098  1.00  0.00     0.060 A 
BRANCH  75  76
ATOM     76  S   UNL A   1      34.332  34.801  32.143  1.00  0.00     0.124 S 
ATOM     77  O   UNL A   1      34.128  35.070  30.723  1.00  0.00    -0.237 OA
ATOM     78  O   UNL A   1      33.188  34.247  32.858  1.00  0.00    -0.237 OA
ATOM     79  O   UNL A   1      35.079  35.826  32.868  1.00  0.00    -0.744 OA
ENDBRANCH  75  76
ENDBRANCH  43  68
BRANCH  55  80
ATOM     80  C   UNL A   1      43.153  29.036  33.843  1.00  0.00     0.058 A 
ATOM     81  C   UNL A   1      43.430  29.364  35.183  1.00  0.00     0.135 A 
ATOM     82  C   UNL A   1      42.579  27.781  33.596  1.00  0.00     0.135 A 
ATOM     83  F   UNL A   1      43.897  30.576  35.515  1.00  0.00    -0.206 F 
ATOM     84  C   UNL A   1      43.154  28.476  36.228  1.00  0.00     0.059 A 
ATOM     85  C   UNL A   1      42.269  26.893  34.622  1.00  0.00     0.059 A 
ATOM     86  F   UNL A   1      42.241  27.432  32.343  1.00  0.00    -0.206 F 
ATOM     87  C   UNL A   1      42.562  27.246  35.937  1.00  0.00     0.060 A 
BRANCH  87  88
ATOM     88  S   UNL A   1      42.094  26.145  37.291  1.00  0.00     0.124 S 
ATOM     89  O   UNL A   1      42.144  24.834  36.654  1.00  0.00    -0.237 OA
ATOM     90  O   UNL A   1      43.129  26.406  38.287  1.00  0.00    -0.237 OA
ATOM     91  O   UNL A   1      40.757  26.606  37.661  1.00  0.00    -0.744 OA
ENDBRANCH  87  88
ENDBRANCH  55  80
ENDBRANCH  29  30
ENDBRANCH  22  24
ENDBRANCH  21  22
ENDBRANCH   1  21
TORSDOF 16
ENDMDL
