MODEL 1
REMARK VINA RESULT:     -11.2      0.000      0.000
REMARK SMILES CC(C)(C)OC(=O)N1CCC[C@H]1C(=O)N[C@@H](Cc1ccccc1)C(=O)OCCOC(=O)c1ccc(-c2c3nc(c(-c4c(F)cc(S(=O)(=O)[O-])cc4F)c4ccc([nH]4)c(-c4c(F)cc(S(=O)(=O)[O-])cc4F)c4nc(c(-c5c(F)cc(S(=O)(=O)[O-])cc5F)c5ccc2[nH]5)C=C4)C=C3)cc1
REMARK SMILES IDX 27 1 26 2 24 3 25 4 16 5 15 6 13 7 14 8 12 10 8 11 9 12
REMARK SMILES IDX 10 13 11 14 6 15 7 16 5 17 2 18 1 19 3 20 4 21 17 22 18 23
REMARK SMILES IDX 19 24 23 25 20 26 22 27 21 28 28 29 29 30 30 31 31 32 32 33
REMARK SMILES IDX 33 34 97 35 34 36 96 37 35 38 36 39 37 40 90 41 38 42 95 43
REMARK SMILES IDX 89 44 91 45 39 46 94 47 88 48 87 49 40 51 74 52 53 53 73 54
REMARK SMILES IDX 54 55 57 56 72 57 92 58 55 59 56 60 71 62 93 63 58 64 41 65
REMARK SMILES IDX 42 66 51 67 43 68 44 69 50 70 52 71 45 72 46 73 47 74 48 75
REMARK SMILES IDX 49 76 75 77 76 78 85 79 77 80 78 81 84 82 86 83 79 84 80 85
REMARK SMILES IDX 81 86 82 87 83 88 59 89 60 90 69 91 61 92 62 93 68 94 70 95
REMARK SMILES IDX 63 96 64 97 65 98 66 99 67 100
REMARK H PARENT 15 9 91 50 57 61
REMARK Flexibility Score: inf
ROOT
ATOM      1  C   UNL A   1      32.787  30.125  26.996  1.00  0.00     0.274 C 
ENDROOT
BRANCH   1   2
ATOM      2  O   UNL A   1      33.043  28.710  26.991  1.00  0.00    -0.461 OA
BRANCH   2   3
ATOM      3  C   UNL A   1      31.949  27.929  27.200  1.00  0.00     0.329 C 
ATOM      4  O   UNL A   1      31.070  28.166  28.024  1.00  0.00    -0.250 OA
BRANCH   3   5
ATOM      5  C   UNL A   1      31.956  26.649  26.362  1.00  0.00     0.196 C 
BRANCH   5   6
ATOM      6  N   UNL A   1      31.623  25.414  27.073  1.00  0.00    -0.341 N 
ATOM      7  C   UNL A   1      31.554  24.125  26.643  1.00  0.00     0.243 C 
ATOM      8  O   UNL A   1      30.833  23.377  27.319  1.00  0.00    -0.273 OA
ATOM      9  H   UNL A   1      31.414  25.537  28.026  1.00  0.00     0.164 HD
BRANCH   7  10
ATOM     10  C   UNL A   1      32.351  23.529  25.441  1.00  0.00     0.178 C 
ATOM     11  N   UNL A   1      33.603  22.821  25.651  1.00  0.00    -0.296 N 
ATOM     12  C   UNL A   1      33.392  21.398  25.659  1.00  0.00     0.124 C 
ATOM     13  C   UNL A   1      32.213  21.163  24.746  1.00  0.00     0.024 C 
ATOM     14  C   UNL A   1      31.435  22.476  24.771  1.00  0.00     0.037 C 
BRANCH  11  15
ATOM     15  C   UNL A   1      34.817  23.454  25.801  1.00  0.00     0.410 C 
ATOM     16  O   UNL A   1      34.932  24.670  25.773  1.00  0.00    -0.224 OA
BRANCH  15  17
ATOM     17  O   UNL A   1      35.814  22.582  26.107  1.00  0.00    -0.444 OA
BRANCH  17  18
ATOM     18  C   UNL A   1      36.934  22.294  25.215  1.00  0.00     0.106 C 
ATOM     19  C   UNL A   1      38.159  22.933  25.884  1.00  0.00     0.056 C 
ATOM     20  C   UNL A   1      36.711  22.991  23.869  1.00  0.00     0.056 C 
ATOM     21  C   UNL A   1      37.208  20.800  25.013  1.00  0.00     0.056 C 
ENDBRANCH  17  18
ENDBRANCH  15  17
ENDBRANCH  11  15
ENDBRANCH   7  10
ENDBRANCH   5   6
BRANCH   5  22
ATOM     22  C   UNL A   1      31.024  26.847  25.148  1.00  0.00     0.072 C 
BRANCH  22  23
ATOM     23  C   UNL A   1      31.715  26.714  23.809  1.00  0.00    -0.045 A 
ATOM     24  C   UNL A   1      31.098  26.008  22.765  1.00  0.00     0.004 A 
ATOM     25  C   UNL A   1      32.988  27.257  23.608  1.00  0.00     0.004 A 
ATOM     26  C   UNL A   1      31.758  25.814  21.555  1.00  0.00     0.000 A 
ATOM     27  C   UNL A   1      33.641  27.076  22.389  1.00  0.00     0.000 A 
ATOM     28  C   UNL A   1      33.032  26.347  21.367  1.00  0.00     0.000 A 
ENDBRANCH  22  23
ENDBRANCH   5  22
ENDBRANCH   3   5
ENDBRANCH   2   3
ENDBRANCH   1   2
BRANCH   1  29
ATOM     29  C   UNL A   1      34.013  30.907  27.458  1.00  0.00     0.275 C 
BRANCH  29  30
ATOM     30  O   UNL A   1      34.581  30.329  28.648  1.00  0.00    -0.458 OA
BRANCH  30  31
ATOM     31  C   UNL A   1      35.729  30.911  29.062  1.00  0.00     0.338 C 
ATOM     32  O   UNL A   1      35.858  32.028  29.539  1.00  0.00    -0.246 OA
BRANCH  31  33
ATOM     33  C   UNL A   1      36.881  30.010  28.896  1.00  0.00     0.060 A 
ATOM     34  C   UNL A   1      37.496  29.463  30.016  1.00  0.00     0.016 A 
ATOM     35  C   UNL A   1      37.504  29.931  27.649  1.00  0.00     0.016 A 
ATOM     36  C   UNL A   1      38.807  28.988  29.901  1.00  0.00     0.010 A 
ATOM     37  C   UNL A   1      38.772  29.348  27.529  1.00  0.00     0.010 A 
ATOM     38  C   UNL A   1      39.486  28.939  28.667  1.00  0.00    -0.014 A 
BRANCH  38  39
ATOM     39  C   UNL A   1      40.935  28.538  28.580  1.00  0.00     0.031 A 
ATOM     40  C   UNL A   1      42.054  29.537  28.834  1.00  0.00     0.074 A 
ATOM     41  C   UNL A   1      41.287  27.264  28.304  1.00  0.00     0.049 A 
ATOM     42  N   UNL A   1      43.341  29.419  28.603  1.00  0.00    -0.248 NA
ATOM     43  C   UNL A   1      41.681  30.837  29.413  1.00  0.00     0.031 C 
ATOM     44  C   UNL A   1      40.358  26.159  28.071  1.00  0.00     0.029 A 
ATOM     45  N   UNL A   1      42.527  26.678  28.178  1.00  0.00    -0.354 N 
ATOM     46  C   UNL A   1      43.914  30.648  28.930  1.00  0.00     0.074 A 
ATOM     47  C   UNL A   1      42.835  31.494  29.395  1.00  0.00     0.031 C 
ATOM     48  C   UNL A   1      41.049  25.025  27.904  1.00  0.00     0.029 A 
ATOM     49  C   UNL A   1      42.471  25.341  27.862  1.00  0.00     0.049 A 
ATOM     50  H   UNL A   1      43.371  27.170  28.302  1.00  0.00     0.167 HD
ATOM     51  C   UNL A   1      45.210  31.040  28.843  1.00  0.00     0.037 A 
ATOM     52  C   UNL A   1      43.427  24.465  27.494  1.00  0.00     0.037 A 
ATOM     53  C   UNL A   1      46.302  30.180  28.452  1.00  0.00     0.049 A 
ATOM     54  C   UNL A   1      44.847  24.921  27.363  1.00  0.00     0.074 A 
ATOM     55  C   UNL A   1      47.654  30.482  28.382  1.00  0.00     0.029 A 
ATOM     56  N   UNL A   1      46.177  28.851  28.078  1.00  0.00    -0.354 N 
ATOM     57  N   UNL A   1      45.352  26.108  27.590  1.00  0.00    -0.248 NA
ATOM     58  C   UNL A   1      45.820  23.927  26.891  1.00  0.00     0.031 C 
ATOM     59  C   UNL A   1      48.337  29.352  27.917  1.00  0.00     0.029 A 
ATOM     60  C   UNL A   1      47.420  28.329  27.747  1.00  0.00     0.049 A 
ATOM     61  H   UNL A   1      45.329  28.350  28.050  1.00  0.00     0.167 HD
ATOM     62  C   UNL A   1      46.701  26.010  27.275  1.00  0.00     0.074 A 
ATOM     63  C   UNL A   1      46.939  24.639  26.870  1.00  0.00     0.031 C 
ATOM     64  C   UNL A   1      47.653  26.975  27.312  1.00  0.00     0.037 A 
BRANCH  51  65
ATOM     65  C   UNL A   1      45.536  32.487  29.120  1.00  0.00     0.058 A 
ATOM     66  C   UNL A   1      45.793  32.972  30.411  1.00  0.00     0.135 A 
ATOM     67  C   UNL A   1      45.655  33.392  28.050  1.00  0.00     0.135 A 
ATOM     68  F   UNL A   1      45.686  32.157  31.473  1.00  0.00    -0.206 F 
ATOM     69  C   UNL A   1      46.131  34.306  30.633  1.00  0.00     0.059 A 
ATOM     70  C   UNL A   1      46.016  34.722  28.246  1.00  0.00     0.059 A 
ATOM     71  F   UNL A   1      45.428  32.982  26.792  1.00  0.00    -0.206 F 
ATOM     72  C   UNL A   1      46.237  35.174  29.544  1.00  0.00     0.060 A 
BRANCH  72  73
ATOM     73  S   UNL A   1      46.675  36.901  29.846  1.00  0.00     0.124 S 
ATOM     74  O   UNL A   1      46.769  37.418  28.485  1.00  0.00    -0.237 OA
ATOM     75  O   UNL A   1      45.540  37.380  30.629  1.00  0.00    -0.237 OA
ATOM     76  O   UNL A   1      47.938  36.811  30.571  1.00  0.00    -0.744 OA
ENDBRANCH  72  73
ENDBRANCH  51  65
BRANCH  52  77
ATOM     77  C   UNL A   1      43.021  23.083  27.130  1.00  0.00     0.058 A 
ATOM     78  C   UNL A   1      43.023  22.651  25.798  1.00  0.00     0.135 A 
ATOM     79  C   UNL A   1      42.736  22.136  28.130  1.00  0.00     0.135 A 
ATOM     80  F   UNL A   1      43.266  23.523  24.808  1.00  0.00    -0.206 F 
ATOM     81  C   UNL A   1      42.797  21.318  25.471  1.00  0.00     0.059 A 
ATOM     82  C   UNL A   1      42.541  20.795  27.830  1.00  0.00     0.059 A 
ATOM     83  F   UNL A   1      42.733  22.504  29.421  1.00  0.00    -0.206 F 
ATOM     84  C   UNL A   1      42.581  20.394  26.496  1.00  0.00     0.060 A 
BRANCH  84  85
ATOM     85  S   UNL A   1      42.459  18.640  26.080  1.00  0.00     0.124 S 
ATOM     86  O   UNL A   1      43.437  18.525  25.005  1.00  0.00    -0.237 OA
ATOM     87  O   UNL A   1      42.816  17.997  27.341  1.00  0.00    -0.237 OA
ATOM     88  O   UNL A   1      41.061  18.489  25.686  1.00  0.00    -0.744 OA
ENDBRANCH  84  85
ENDBRANCH  52  77
BRANCH  64  89
ATOM     89  C   UNL A   1      49.043  26.579  26.903  1.00  0.00     0.058 A 
ATOM     90  C   UNL A   1      49.982  26.126  27.844  1.00  0.00     0.135 A 
ATOM     91  C   UNL A   1      49.445  26.654  25.560  1.00  0.00     0.135 A 
ATOM     92  F   UNL A   1      49.652  26.045  29.142  1.00  0.00    -0.206 F 
ATOM     93  C   UNL A   1      51.281  25.795  27.472  1.00  0.00     0.059 A 
ATOM     94  C   UNL A   1      50.732  26.306  25.163  1.00  0.00     0.059 A 
ATOM     95  F   UNL A   1      48.583  27.073  24.619  1.00  0.00    -0.206 F 
ATOM     96  C   UNL A   1      51.649  25.895  26.129  1.00  0.00     0.060 A 
BRANCH  96  97
ATOM     97  S   UNL A   1      53.341  25.475  25.658  1.00  0.00     0.124 S 
ATOM     98  O   UNL A   1      53.441  26.097  24.342  1.00  0.00    -0.237 OA
ATOM     99  O   UNL A   1      54.127  26.102  26.717  1.00  0.00    -0.237 OA
ATOM    100  O   UNL A   1      53.343  24.015  25.666  1.00  0.00    -0.744 OA
ENDBRANCH  96  97
ENDBRANCH  64  89
ENDBRANCH  38  39
ENDBRANCH  31  33
ENDBRANCH  30  31
ENDBRANCH  29  30
ENDBRANCH   1  29
TORSDOF 21
ENDMDL
MODEL 2
REMARK VINA RESULT:     -10.8      5.170     10.824
REMARK SMILES CC(C)(C)OC(=O)N1CCC[C@H]1C(=O)N[C@@H](Cc1ccccc1)C(=O)OCCOC(=O)c1ccc(-c2c3nc(c(-c4c(F)cc(S(=O)(=O)[O-])cc4F)c4ccc([nH]4)c(-c4c(F)cc(S(=O)(=O)[O-])cc4F)c4nc(c(-c5c(F)cc(S(=O)(=O)[O-])cc5F)c5ccc2[nH]5)C=C4)C=C3)cc1
REMARK SMILES IDX 27 1 26 2 24 3 25 4 16 5 15 6 13 7 14 8 12 10 8 11 9 12
REMARK SMILES IDX 10 13 11 14 6 15 7 16 5 17 2 18 1 19 3 20 4 21 17 22 18 23
REMARK SMILES IDX 19 24 23 25 20 26 22 27 21 28 28 29 29 30 30 31 31 32 32 33
REMARK SMILES IDX 33 34 97 35 34 36 96 37 35 38 36 39 37 40 90 41 38 42 95 43
REMARK SMILES IDX 89 44 91 45 39 46 94 47 88 48 87 49 40 51 74 52 53 53 73 54
REMARK SMILES IDX 54 55 57 56 72 57 92 58 55 59 56 60 71 62 93 63 58 64 41 65
REMARK SMILES IDX 42 66 51 67 43 68 44 69 50 70 52 71 45 72 46 73 47 74 48 75
REMARK SMILES IDX 49 76 75 77 76 78 85 79 77 80 78 81 84 82 86 83 79 84 80 85
REMARK SMILES IDX 81 86 82 87 83 88 59 89 60 90 69 91 61 92 62 93 68 94 70 95
REMARK SMILES IDX 63 96 64 97 65 98 66 99 67 100
REMARK H PARENT 15 9 91 50 57 61
REMARK Flexibility Score: inf
ROOT
ATOM      1  C   UNL A   1      37.133  20.632  25.163  1.00  0.00     0.274 C 
ENDROOT
BRANCH   1   2
ATOM      2  O   UNL A   1      36.220  21.701  24.861  1.00  0.00    -0.461 OA
BRANCH   2   3
ATOM      3  C   UNL A   1      35.141  21.783  25.686  1.00  0.00     0.329 C 
ATOM      4  O   UNL A   1      35.149  21.482  26.877  1.00  0.00    -0.250 OA
BRANCH   3   5
ATOM      5  C   UNL A   1      33.862  22.205  24.961  1.00  0.00     0.196 C 
BRANCH   5   6
ATOM      6  N   UNL A   1      34.006  22.543  23.545  1.00  0.00    -0.341 N 
ATOM      7  C   UNL A   1      33.305  23.398  22.753  1.00  0.00     0.243 C 
ATOM      8  O   UNL A   1      33.347  23.155  21.539  1.00  0.00    -0.273 OA
ATOM      9  H   UNL A   1      34.737  22.070  23.086  1.00  0.00     0.164 HD
BRANCH   7  10
ATOM     10  C   UNL A   1      32.536  24.664  23.248  1.00  0.00     0.178 C 
ATOM     11  N   UNL A   1      33.247  25.789  23.832  1.00  0.00    -0.296 N 
ATOM     12  C   UNL A   1      33.455  26.827  22.856  1.00  0.00     0.124 C 
ATOM     13  C   UNL A   1      32.286  26.723  21.907  1.00  0.00     0.024 C 
ATOM     14  C   UNL A   1      31.827  25.271  22.012  1.00  0.00     0.037 C 
BRANCH  11  15
ATOM     15  C   UNL A   1      33.641  25.837  25.151  1.00  0.00     0.410 C 
ATOM     16  O   UNL A   1      34.765  25.524  25.512  1.00  0.00    -0.224 OA
BRANCH  15  17
ATOM     17  O   UNL A   1      32.688  26.386  25.949  1.00  0.00    -0.444 OA
BRANCH  17  18
ATOM     18  C   UNL A   1      32.634  27.809  26.276  1.00  0.00     0.106 C 
ATOM     19  C   UNL A   1      31.902  27.887  27.624  1.00  0.00     0.056 C 
ATOM     20  C   UNL A   1      31.788  28.544  25.233  1.00  0.00     0.056 C 
ATOM     21  C   UNL A   1      34.008  28.471  26.424  1.00  0.00     0.056 C 
ENDBRANCH  17  18
ENDBRANCH  15  17
ENDBRANCH  11  15
ENDBRANCH   7  10
ENDBRANCH   5   6
BRANCH   5  22
ATOM     22  C   UNL A   1      32.798  21.103  25.153  1.00  0.00     0.072 C 
BRANCH  22  23
ATOM     23  C   UNL A   1      33.058  19.846  24.353  1.00  0.00    -0.045 A 
ATOM     24  C   UNL A   1      32.348  19.607  23.166  1.00  0.00     0.004 A 
ATOM     25  C   UNL A   1      33.978  18.893  24.802  1.00  0.00     0.004 A 
ATOM     26  C   UNL A   1      32.524  18.418  22.463  1.00  0.00     0.000 A 
ATOM     27  C   UNL A   1      34.165  17.710  24.088  1.00  0.00     0.000 A 
ATOM     28  C   UNL A   1      33.432  17.467  22.926  1.00  0.00     0.000 A 
ENDBRANCH  22  23
ENDBRANCH   5  22
ENDBRANCH   3   5
ENDBRANCH   2   3
ENDBRANCH   1   2
BRANCH   1  29
ATOM     29  C   UNL A   1      38.558  21.152  25.324  1.00  0.00     0.275 C 
BRANCH  29  30
ATOM     30  O   UNL A   1      38.584  22.370  26.091  1.00  0.00    -0.458 OA
BRANCH  30  31
ATOM     31  C   UNL A   1      39.820  22.880  26.294  1.00  0.00     0.338 C 
ATOM     32  O   UNL A   1      40.888  22.329  26.075  1.00  0.00    -0.246 OA
BRANCH  31  33
ATOM     33  C   UNL A   1      39.759  24.256  26.813  1.00  0.00     0.060 A 
ATOM     34  C   UNL A   1      40.793  25.143  26.538  1.00  0.00     0.016 A 
ATOM     35  C   UNL A   1      38.810  24.569  27.787  1.00  0.00     0.016 A 
ATOM     36  C   UNL A   1      40.957  26.262  27.361  1.00  0.00     0.010 A 
ATOM     37  C   UNL A   1      38.924  25.753  28.528  1.00  0.00     0.010 A 
ATOM     38  C   UNL A   1      40.046  26.584  28.388  1.00  0.00    -0.014 A 
BRANCH  38  39
ATOM     39  C   UNL A   1      40.302  27.722  29.340  1.00  0.00     0.031 A 
ATOM     40  C   UNL A   1      41.509  27.729  30.266  1.00  0.00     0.074 A 
ATOM     41  C   UNL A   1      39.480  28.793  29.378  1.00  0.00     0.049 A 
ATOM     42  N   UNL A   1      41.771  28.517  31.283  1.00  0.00    -0.248 NA
ATOM     43  C   UNL A   1      42.551  26.719  30.027  1.00  0.00     0.031 C 
ATOM     44  C   UNL A   1      38.298  28.985  28.539  1.00  0.00     0.029 A 
ATOM     45  N   UNL A   1      39.517  29.931  30.152  1.00  0.00    -0.354 N 
ATOM     46  C   UNL A   1      42.956  28.049  31.849  1.00  0.00     0.074 A 
ATOM     47  C   UNL A   1      43.375  26.918  31.049  1.00  0.00     0.031 C 
ATOM     48  C   UNL A   1      37.767  30.188  28.788  1.00  0.00     0.029 A 
ATOM     49  C   UNL A   1      38.473  30.792  29.909  1.00  0.00     0.049 A 
ATOM     50  H   UNL A   1      40.223  30.110  30.814  1.00  0.00     0.167 HD
ATOM     51  C   UNL A   1      43.628  28.508  32.935  1.00  0.00     0.037 A 
ATOM     52  C   UNL A   1      38.057  31.902  30.553  1.00  0.00     0.037 A 
ATOM     53  C   UNL A   1      43.258  29.681  33.693  1.00  0.00     0.049 A 
ATOM     54  C   UNL A   1      38.784  32.375  31.773  1.00  0.00     0.074 A 
ATOM     55  C   UNL A   1      43.910  30.245  34.779  1.00  0.00     0.029 A 
ATOM     56  N   UNL A   1      42.151  30.477  33.442  1.00  0.00    -0.354 N 
ATOM     57  N   UNL A   1      39.848  31.867  32.343  1.00  0.00    -0.248 NA
ATOM     58  C   UNL A   1      38.231  33.550  32.458  1.00  0.00     0.031 C 
ATOM     59  C   UNL A   1      43.169  31.350  35.215  1.00  0.00     0.029 A 
ATOM     60  C   UNL A   1      42.084  31.507  34.369  1.00  0.00     0.049 A 
ATOM     61  H   UNL A   1      41.506  30.332  32.711  1.00  0.00     0.167 HD
ATOM     62  C   UNL A   1      40.087  32.651  33.464  1.00  0.00     0.074 A 
ATOM     63  C   UNL A   1      39.073  33.687  33.475  1.00  0.00     0.031 C 
ATOM     64  C   UNL A   1      41.057  32.517  34.402  1.00  0.00     0.037 A 
BRANCH  51  65
ATOM     65  C   UNL A   1      44.815  27.716  33.426  1.00  0.00     0.058 A 
ATOM     66  C   UNL A   1      44.692  26.646  34.326  1.00  0.00     0.135 A 
ATOM     67  C   UNL A   1      46.098  28.001  32.926  1.00  0.00     0.135 A 
ATOM     68  F   UNL A   1      43.494  26.333  34.843  1.00  0.00    -0.206 F 
ATOM     69  C   UNL A   1      45.801  25.905  34.731  1.00  0.00     0.059 A 
ATOM     70  C   UNL A   1      47.215  27.258  33.297  1.00  0.00     0.059 A 
ATOM     71  F   UNL A   1      46.274  29.009  32.056  1.00  0.00    -0.206 F 
ATOM     72  C   UNL A   1      47.059  26.221  34.213  1.00  0.00     0.060 A 
BRANCH  72  73
ATOM     73  S   UNL A   1      48.489  25.254  34.747  1.00  0.00     0.124 S 
ATOM     74  O   UNL A   1      49.592  26.116  34.335  1.00  0.00    -0.237 OA
ATOM     75  O   UNL A   1      48.274  25.145  36.187  1.00  0.00    -0.237 OA
ATOM     76  O   UNL A   1      48.355  24.007  34.000  1.00  0.00    -0.744 OA
ENDBRANCH  72  73
ENDBRANCH  51  65
BRANCH  52  77
ATOM     77  C   UNL A   1      36.818  32.572  30.081  1.00  0.00     0.058 A 
ATOM     78  C   UNL A   1      35.586  32.347  30.708  1.00  0.00     0.135 A 
ATOM     79  C   UNL A   1      36.874  33.542  29.065  1.00  0.00     0.135 A 
ATOM     80  F   UNL A   1      35.479  31.416  31.667  1.00  0.00    -0.206 F 
ATOM     81  C   UNL A   1      34.458  33.090  30.372  1.00  0.00     0.059 A 
ATOM     82  C   UNL A   1      35.771  34.318  28.736  1.00  0.00     0.059 A 
ATOM     83  F   UNL A   1      38.036  33.798  28.444  1.00  0.00    -0.206 F 
ATOM     84  C   UNL A   1      34.568  34.090  29.402  1.00  0.00     0.060 A 
BRANCH  84  85
ATOM     85  S   UNL A   1      33.149  35.165  29.093  1.00  0.00     0.124 S 
ATOM     86  O   UNL A   1      32.426  34.410  28.077  1.00  0.00    -0.237 OA
ATOM     87  O   UNL A   1      32.520  35.235  30.408  1.00  0.00    -0.237 OA
ATOM     88  O   UNL A   1      33.768  36.408  28.640  1.00  0.00    -0.744 OA
ENDBRANCH  84  85
ENDBRANCH  52  77
BRANCH  64  89
ATOM     89  C   UNL A   1      41.067  33.519  35.521  1.00  0.00     0.058 A 
ATOM     90  C   UNL A   1      40.516  33.218  36.778  1.00  0.00     0.135 A 
ATOM     91  C   UNL A   1      41.628  34.793  35.340  1.00  0.00     0.135 A 
ATOM     92  F   UNL A   1      39.958  32.017  37.001  1.00  0.00    -0.206 F 
ATOM     93  C   UNL A   1      40.490  34.157  37.804  1.00  0.00     0.059 A 
ATOM     94  C   UNL A   1      41.633  35.739  36.359  1.00  0.00     0.059 A 
ATOM     95  F   UNL A   1      42.174  35.128  34.160  1.00  0.00    -0.206 F 
ATOM     96  C   UNL A   1      41.045  35.419  37.582  1.00  0.00     0.060 A 
BRANCH  96  97
ATOM     97  S   UNL A   1      40.996  36.635  38.916  1.00  0.00     0.124 S 
ATOM     98  O   UNL A   1      40.795  35.782  40.082  1.00  0.00    -0.237 OA
ATOM     99  O   UNL A   1      42.306  37.269  38.812  1.00  0.00    -0.237 OA
ATOM    100  O   UNL A   1      39.865  37.486  38.557  1.00  0.00    -0.744 OA
ENDBRANCH  96  97
ENDBRANCH  64  89
ENDBRANCH  38  39
ENDBRANCH  31  33
ENDBRANCH  30  31
ENDBRANCH  29  30
ENDBRANCH   1  29
TORSDOF 21
ENDMDL
MODEL 3
REMARK VINA RESULT:     -10.8      1.476      2.041
REMARK SMILES CC(C)(C)OC(=O)N1CCC[C@H]1C(=O)N[C@@H](Cc1ccccc1)C(=O)OCCOC(=O)c1ccc(-c2c3nc(c(-c4c(F)cc(S(=O)(=O)[O-])cc4F)c4ccc([nH]4)c(-c4c(F)cc(S(=O)(=O)[O-])cc4F)c4nc(c(-c5c(F)cc(S(=O)(=O)[O-])cc5F)c5ccc2[nH]5)C=C4)C=C3)cc1
REMARK SMILES IDX 27 1 26 2 24 3 25 4 16 5 15 6 13 7 14 8 12 10 8 11 9 12
REMARK SMILES IDX 10 13 11 14 6 15 7 16 5 17 2 18 1 19 3 20 4 21 17 22 18 23
REMARK SMILES IDX 19 24 23 25 20 26 22 27 21 28 28 29 29 30 30 31 31 32 32 33
REMARK SMILES IDX 33 34 97 35 34 36 96 37 35 38 36 39 37 40 90 41 38 42 95 43
REMARK SMILES IDX 89 44 91 45 39 46 94 47 88 48 87 49 40 51 74 52 53 53 73 54
REMARK SMILES IDX 54 55 57 56 72 57 92 58 55 59 56 60 71 62 93 63 58 64 41 65
REMARK SMILES IDX 42 66 51 67 43 68 44 69 50 70 52 71 45 72 46 73 47 74 48 75
REMARK SMILES IDX 49 76 75 77 76 78 85 79 77 80 78 81 84 82 86 83 79 84 80 85
REMARK SMILES IDX 81 86 82 87 83 88 59 89 60 90 69 91 61 92 62 93 68 94 70 95
REMARK SMILES IDX 63 96 64 97 65 98 66 99 67 100
REMARK H PARENT 15 9 91 50 57 61
REMARK Flexibility Score: inf
ROOT
ATOM      1  C   UNL A   1      33.370  28.287  26.923  1.00  0.00     0.274 C 
ENDROOT
BRANCH   1   2
ATOM      2  O   UNL A   1      32.564  27.689  25.894  1.00  0.00    -0.461 OA
BRANCH   2   3
ATOM      3  C   UNL A   1      33.236  27.364  24.757  1.00  0.00     0.329 C 
ATOM      4  O   UNL A   1      33.984  28.124  24.146  1.00  0.00    -0.250 OA
BRANCH   3   5
ATOM      5  C   UNL A   1      32.901  25.964  24.239  1.00  0.00     0.196 C 
BRANCH   5   6
ATOM      6  N   UNL A   1      32.198  25.084  25.173  1.00  0.00    -0.341 N 
ATOM      7  C   UNL A   1      32.047  23.732  25.189  1.00  0.00     0.243 C 
ATOM      8  O   UNL A   1      31.062  23.314  25.813  1.00  0.00    -0.273 OA
ATOM      9  H   UNL A   1      31.758  25.552  25.919  1.00  0.00     0.164 HD
BRANCH   7  10
ATOM     10  C   UNL A   1      33.039  22.705  24.558  1.00  0.00     0.178 C 
ATOM     11  N   UNL A   1      33.549  21.585  25.332  1.00  0.00    -0.296 N 
ATOM     12  C   UNL A   1      32.803  20.386  25.050  1.00  0.00     0.124 C 
ATOM     13  C   UNL A   1      32.341  20.530  23.620  1.00  0.00     0.024 C 
ATOM     14  C   UNL A   1      32.300  22.035  23.374  1.00  0.00     0.037 C 
BRANCH  11  15
ATOM     15  C   UNL A   1      34.615  21.683  26.198  1.00  0.00     0.410 C 
ATOM     16  O   UNL A   1      34.472  21.870  27.397  1.00  0.00    -0.224 OA
BRANCH  15  17
ATOM     17  O   UNL A   1      35.798  21.419  25.584  1.00  0.00    -0.444 OA
BRANCH  17  18
ATOM     18  C   UNL A   1      36.753  22.454  25.199  1.00  0.00     0.106 C 
ATOM     19  C   UNL A   1      36.749  22.458  23.663  1.00  0.00     0.056 C 
ATOM     20  C   UNL A   1      38.157  22.060  25.668  1.00  0.00     0.056 C 
ATOM     21  C   UNL A   1      36.391  23.858  25.695  1.00  0.00     0.056 C 
ENDBRANCH  17  18
ENDBRANCH  15  17
ENDBRANCH  11  15
ENDBRANCH   7  10
ENDBRANCH   5   6
BRANCH   5  22
ATOM     22  C   UNL A   1      32.111  26.100  22.920  1.00  0.00     0.072 C 
BRANCH  22  23
ATOM     23  C   UNL A   1      30.833  26.899  23.043  1.00  0.00    -0.045 A 
ATOM     24  C   UNL A   1      29.721  26.353  23.703  1.00  0.00     0.004 A 
ATOM     25  C   UNL A   1      30.731  28.172  22.472  1.00  0.00     0.004 A 
ATOM     26  C   UNL A   1      28.517  27.049  23.754  1.00  0.00     0.000 A 
ATOM     27  C   UNL A   1      29.528  28.874  22.539  1.00  0.00     0.000 A 
ATOM     28  C   UNL A   1      28.420  28.311  23.170  1.00  0.00     0.000 A 
ENDBRANCH  22  23
ENDBRANCH   5  22
ENDBRANCH   3   5
ENDBRANCH   2   3
ENDBRANCH   1   2
BRANCH   1  29
ATOM     29  C   UNL A   1      33.282  29.809  26.878  1.00  0.00     0.275 C 
BRANCH  29  30
ATOM     30  O   UNL A   1      33.528  30.384  28.176  1.00  0.00    -0.458 OA
BRANCH  30  31
ATOM     31  C   UNL A   1      34.663  31.113  28.260  1.00  0.00     0.338 C 
ATOM     32  O   UNL A   1      34.754  32.331  28.288  1.00  0.00    -0.246 OA
BRANCH  31  33
ATOM     33  C   UNL A   1      35.853  30.252  28.345  1.00  0.00     0.060 A 
ATOM     34  C   UNL A   1      36.333  29.859  29.588  1.00  0.00     0.016 A 
ATOM     35  C   UNL A   1      36.636  30.067  27.203  1.00  0.00     0.016 A 
ATOM     36  C   UNL A   1      37.662  29.433  29.694  1.00  0.00     0.010 A 
ATOM     37  C   UNL A   1      37.926  29.532  27.312  1.00  0.00     0.010 A 
ATOM     38  C   UNL A   1      38.497  29.282  28.570  1.00  0.00    -0.014 A 
BRANCH  38  39
ATOM     39  C   UNL A   1      39.957  28.939  28.713  1.00  0.00     0.031 A 
ATOM     40  C   UNL A   1      40.971  29.963  29.200  1.00  0.00     0.074 A 
ATOM     41  C   UNL A   1      40.407  27.695  28.442  1.00  0.00     0.049 A 
ATOM     42  N   UNL A   1      42.282  29.905  29.186  1.00  0.00    -0.248 NA
ATOM     43  C   UNL A   1      40.448  31.216  29.766  1.00  0.00     0.031 C 
ATOM     44  C   UNL A   1      39.582  26.571  28.004  1.00  0.00     0.029 A 
ATOM     45  N   UNL A   1      41.676  27.163  28.503  1.00  0.00    -0.354 N 
ATOM     46  C   UNL A   1      42.736  31.135  29.662  1.00  0.00     0.074 A 
ATOM     47  C   UNL A   1      41.558  31.915  29.975  1.00  0.00     0.031 C 
ATOM     48  C   UNL A   1      40.341  25.474  27.905  1.00  0.00     0.029 A 
ATOM     49  C   UNL A   1      41.734  25.843  28.121  1.00  0.00     0.049 A 
ATOM     50  H   UNL A   1      42.464  27.677  28.791  1.00  0.00     0.167 HD
ATOM     51  C   UNL A   1      44.010  31.578  29.815  1.00  0.00     0.037 A 
ATOM     52  C   UNL A   1      42.777  25.023  27.881  1.00  0.00     0.037 A 
ATOM     53  C   UNL A   1      45.190  30.780  29.577  1.00  0.00     0.049 A 
ATOM     54  C   UNL A   1      44.177  25.537  28.015  1.00  0.00     0.074 A 
ATOM     55  C   UNL A   1      46.518  31.136  29.752  1.00  0.00     0.029 A 
ATOM     56  N   UNL A   1      45.189  29.469  29.126  1.00  0.00    -0.354 N 
ATOM     57  N   UNL A   1      44.583  26.728  28.379  1.00  0.00    -0.248 NA
ATOM     58  C   UNL A   1      45.259  24.606  27.671  1.00  0.00     0.031 C 
ATOM     59  C   UNL A   1      47.320  30.058  29.360  1.00  0.00     0.029 A 
ATOM     60  C   UNL A   1      46.492  29.012  28.988  1.00  0.00     0.049 A 
ATOM     61  H   UNL A   1      44.382  28.940  28.932  1.00  0.00     0.167 HD
ATOM     62  C   UNL A   1      45.969  26.696  28.294  1.00  0.00     0.074 A 
ATOM     63  C   UNL A   1      46.333  25.358  27.873  1.00  0.00     0.031 C 
ATOM     64  C   UNL A   1      46.856  27.693  28.537  1.00  0.00     0.037 A 
BRANCH  51  65
ATOM     65  C   UNL A   1      44.219  33.019  30.210  1.00  0.00     0.058 A 
ATOM     66  C   UNL A   1      44.422  33.419  31.540  1.00  0.00     0.135 A 
ATOM     67  C   UNL A   1      44.280  34.013  29.216  1.00  0.00     0.135 A 
ATOM     68  F   UNL A   1      44.367  32.517  32.532  1.00  0.00    -0.206 F 
ATOM     69  C   UNL A   1      44.652  34.753  31.871  1.00  0.00     0.059 A 
ATOM     70  C   UNL A   1      44.534  35.347  29.522  1.00  0.00     0.059 A 
ATOM     71  F   UNL A   1      44.100  33.687  27.926  1.00  0.00    -0.206 F 
ATOM     72  C   UNL A   1      44.704  35.710  30.855  1.00  0.00     0.060 A 
BRANCH  72  73
ATOM     73  S   UNL A   1      45.002  37.436  31.298  1.00  0.00     0.124 S 
ATOM     74  O   UNL A   1      46.182  37.742  30.496  1.00  0.00    -0.237 OA
ATOM     75  O   UNL A   1      43.764  38.087  30.878  1.00  0.00    -0.237 OA
ATOM     76  O   UNL A   1      45.220  37.385  32.740  1.00  0.00    -0.744 OA
ENDBRANCH  72  73
ENDBRANCH  51  65
BRANCH  52  77
ATOM     77  C   UNL A   1      42.501  23.649  27.389  1.00  0.00     0.058 A 
ATOM     78  C   UNL A   1      42.530  23.344  26.023  1.00  0.00     0.135 A 
ATOM     79  C   UNL A   1      42.318  22.590  28.298  1.00  0.00     0.135 A 
ATOM     80  F   UNL A   1      42.679  24.324  25.119  1.00  0.00    -0.206 F 
ATOM     81  C   UNL A   1      42.429  22.032  25.573  1.00  0.00     0.059 A 
ATOM     82  C   UNL A   1      42.249  21.270  27.874  1.00  0.00     0.059 A 
ATOM     83  F   UNL A   1      42.294  22.834  29.617  1.00  0.00    -0.206 F 
ATOM     84  C   UNL A   1      42.313  21.000  26.508  1.00  0.00     0.060 A 
BRANCH  84  85
ATOM     85  S   UNL A   1      42.355  19.289  25.930  1.00  0.00     0.124 S 
ATOM     86  O   UNL A   1      42.888  18.599  27.097  1.00  0.00    -0.237 OA
ATOM     87  O   UNL A   1      40.952  19.033  25.619  1.00  0.00    -0.237 OA
ATOM     88  O   UNL A   1      43.240  19.353  24.770  1.00  0.00    -0.744 OA
ENDBRANCH  84  85
ENDBRANCH  52  77
BRANCH  64  89
ATOM     89  C   UNL A   1      48.311  27.370  28.353  1.00  0.00     0.058 A 
ATOM     90  C   UNL A   1      49.050  26.721  29.357  1.00  0.00     0.135 A 
ATOM     91  C   UNL A   1      48.978  27.713  27.166  1.00  0.00     0.135 A 
ATOM     92  F   UNL A   1      48.463  26.381  30.515  1.00  0.00    -0.206 F 
ATOM     93  C   UNL A   1      50.407  26.456  29.203  1.00  0.00     0.059 A 
ATOM     94  C   UNL A   1      50.329  27.436  26.983  1.00  0.00     0.059 A 
ATOM     95  F   UNL A   1      48.316  28.327  26.173  1.00  0.00    -0.206 F 
ATOM     96  C   UNL A   1      51.040  26.824  28.014  1.00  0.00     0.060 A 
BRANCH  96  97
ATOM     97  S   UNL A   1      52.804  26.486  27.829  1.00  0.00     0.124 S 
ATOM     98  O   UNL A   1      53.228  26.374  29.221  1.00  0.00    -0.237 OA
ATOM     99  O   UNL A   1      52.808  25.244  27.063  1.00  0.00    -0.237 OA
ATOM    100  O   UNL A   1      53.301  27.658  27.113  1.00  0.00    -0.744 OA
ENDBRANCH  96  97
ENDBRANCH  64  89
ENDBRANCH  38  39
ENDBRANCH  31  33
ENDBRANCH  30  31
ENDBRANCH  29  30
ENDBRANCH   1  29
TORSDOF 21
ENDMDL
