MODEL 1
REMARK VINA RESULT:     -11.7      0.000      0.000
REMARK SMILES O=C(C[C@H](C(=O)OCCOC(=O)c1ccc(-c2c3nc(c(-c4c(F)cc(S(=O)(=O)[O-])cc4F)c4ccc([nH]4)c(-c4c(F)cc(S(=O)(=O)[O-])cc4F)c4nc(c(-c5c(F)cc(S(=O)(=O)[O-])cc5F)c5ccc2[nH]5)C=C4)C=C3)cc1)c1ccccc1)Nc1ccc(Cl)cc1Cl
REMARK SMILES IDX 8 1 7 2 5 3 6 4 4 5 3 6 2 7 1 8 85 9 86 11 87 12 92 13 88 14
REMARK SMILES IDX 91 15 93 16 89 17 90 18 79 19 80 20 84 21 81 22 83 23 82 24
REMARK SMILES IDX 9 25 10 26 11 27 12 28 13 29 14 30 78 31 15 32 77 33 16 34
REMARK SMILES IDX 17 35 18 36 71 37 19 38 76 39 70 40 72 41 20 42 75 43 69 44
REMARK SMILES IDX 68 45 21 47 55 48 34 49 54 50 35 51 38 52 53 53 73 54 36 55
REMARK SMILES IDX 37 56 52 58 74 59 39 60 22 61 23 62 32 63 24 64 25 65 31 66
REMARK SMILES IDX 33 67 26 68 27 69 28 70 29 71 30 72 56 73 57 74 66 75 58 76
REMARK SMILES IDX 59 77 65 78 67 79 60 80 61 81 62 82 63 83 64 84 40 85 41 86
REMARK SMILES IDX 50 87 42 88 43 89 49 90 51 91 44 92 45 93 46 94 47 95 48 96
REMARK H PARENT 85 10 72 46 38 57
REMARK Flexibility Score: inf
ROOT
ATOM      1  C   UNL A   1      32.671  29.841  25.520  1.00  0.00     0.274 C 
ENDROOT
BRANCH   1   2
ATOM      2  O   UNL A   1      31.621  28.908  25.188  1.00  0.00    -0.462 OA
BRANCH   2   3
ATOM      3  C   UNL A   1      31.981  27.932  24.304  1.00  0.00     0.314 C 
ATOM      4  O   UNL A   1      33.140  27.699  23.994  1.00  0.00    -0.252 OA
BRANCH   3   5
ATOM      5  C   UNL A   1      30.765  27.291  23.639  1.00  0.00     0.138 C 
BRANCH   5   6
ATOM      6  C   UNL A   1      30.029  26.286  24.550  1.00  0.00     0.120 C 
BRANCH   6   7
ATOM      7  C   UNL A   1      30.861  25.126  25.077  1.00  0.00     0.225 C 
ATOM      8  O   UNL A   1      30.915  24.910  26.283  1.00  0.00    -0.275 OA
ATOM      9  N   UNL A   1      31.534  24.418  24.096  1.00  0.00    -0.325 N 
ATOM     10  H   UNL A   1      31.395  24.691  23.160  1.00  0.00     0.169 HD
BRANCH   9  11
ATOM     11  C   UNL A   1      32.409  23.330  24.337  1.00  0.00     0.060 A 
ATOM     12  C   UNL A   1      31.856  22.058  24.116  1.00  0.00     0.029 A 
ATOM     13  C   UNL A   1      33.742  23.418  24.780  1.00  0.00     0.066 A 
ATOM     14  C   UNL A   1      32.633  20.905  24.252  1.00  0.00     0.023 A 
ATOM     15  C   UNL A   1      34.522  22.260  24.905  1.00  0.00     0.043 A 
ATOM     16  Cl  UNL A   1      34.440  24.865  25.423  1.00  0.00    -0.082 Cl
ATOM     17  C   UNL A   1      33.967  21.013  24.631  1.00  0.00     0.042 A 
ATOM     18  Cl  UNL A   1      34.918  19.590  24.807  1.00  0.00    -0.084 Cl
ENDBRANCH   9  11
ENDBRANCH   6   7
ENDBRANCH   5   6
BRANCH   5  19
ATOM     19  C   UNL A   1      29.789  28.298  23.042  1.00  0.00    -0.033 A 
ATOM     20  C   UNL A   1      30.223  29.328  22.192  1.00  0.00     0.004 A 
ATOM     21  C   UNL A   1      28.425  28.236  23.362  1.00  0.00     0.004 A 
ATOM     22  C   UNL A   1      29.326  30.263  21.675  1.00  0.00     0.000 A 
ATOM     23  C   UNL A   1      27.527  29.179  22.851  1.00  0.00     0.000 A 
ATOM     24  C   UNL A   1      27.978  30.191  22.007  1.00  0.00     0.000 A 
ENDBRANCH   5  19
ENDBRANCH   3   5
ENDBRANCH   2   3
ENDBRANCH   1   2
BRANCH   1  25
ATOM     25  C   UNL A   1      32.571  30.345  26.958  1.00  0.00     0.275 C 
BRANCH  25  26
ATOM     26  O   UNL A   1      33.617  29.788  27.769  1.00  0.00    -0.458 OA
BRANCH  26  27
ATOM     27  C   UNL A   1      34.485  30.685  28.290  1.00  0.00     0.338 C 
ATOM     28  O   UNL A   1      34.262  31.849  28.568  1.00  0.00    -0.246 OA
BRANCH  27  29
ATOM     29  C   UNL A   1      35.813  30.072  28.455  1.00  0.00     0.060 A 
ATOM     30  C   UNL A   1      36.242  29.625  29.705  1.00  0.00     0.016 A 
ATOM     31  C   UNL A   1      36.694  30.086  27.373  1.00  0.00     0.016 A 
ATOM     32  C   UNL A   1      37.580  29.285  29.901  1.00  0.00     0.010 A 
ATOM     33  C   UNL A   1      38.011  29.661  27.551  1.00  0.00     0.010 A 
ATOM     34  C   UNL A   1      38.481  29.297  28.826  1.00  0.00    -0.014 A 
BRANCH  34  35
ATOM     35  C   UNL A   1      39.918  28.964  29.018  1.00  0.00     0.031 A 
ATOM     36  C   UNL A   1      40.882  30.026  29.484  1.00  0.00     0.074 A 
ATOM     37  C   UNL A   1      40.373  27.725  28.740  1.00  0.00     0.049 A 
ATOM     38  N   UNL A   1      42.189  30.009  29.499  1.00  0.00    -0.248 NA
ATOM     39  C   UNL A   1      40.295  31.283  29.982  1.00  0.00     0.031 C 
ATOM     40  C   UNL A   1      39.549  26.594  28.314  1.00  0.00     0.029 A 
ATOM     41  N   UNL A   1      41.648  27.217  28.762  1.00  0.00    -0.354 N 
ATOM     42  C   UNL A   1      42.583  31.265  29.948  1.00  0.00     0.074 A 
ATOM     43  C   UNL A   1      41.375  32.018  30.207  1.00  0.00     0.031 C 
ATOM     44  C   UNL A   1      40.335  25.524  28.119  1.00  0.00     0.029 A 
ATOM     45  C   UNL A   1      41.725  25.911  28.338  1.00  0.00     0.049 A 
ATOM     46  H   UNL A   1      42.432  27.737  29.053  1.00  0.00     0.167 HD
ATOM     47  C   UNL A   1      43.837  31.745  30.121  1.00  0.00     0.037 A 
ATOM     48  C   UNL A   1      42.794  25.126  28.105  1.00  0.00     0.037 A 
ATOM     49  C   UNL A   1      45.035  30.969  29.929  1.00  0.00     0.049 A 
ATOM     50  C   UNL A   1      44.175  25.682  28.301  1.00  0.00     0.074 A 
ATOM     51  C   UNL A   1      46.350  31.353  30.130  1.00  0.00     0.029 A 
ATOM     52  N   UNL A   1      45.063  29.649  29.506  1.00  0.00    -0.354 N 
ATOM     53  N   UNL A   1      44.531  26.881  28.697  1.00  0.00    -0.248 NA
ATOM     54  C   UNL A   1      45.301  24.787  28.001  1.00  0.00     0.031 C 
ATOM     55  C   UNL A   1      47.176  30.271  29.804  1.00  0.00     0.029 A 
ATOM     56  C   UNL A   1      46.372  29.207  29.427  1.00  0.00     0.049 A 
ATOM     57  H   UNL A   1      44.269  29.106  29.294  1.00  0.00     0.167 HD
ATOM     58  C   UNL A   1      45.921  26.880  28.700  1.00  0.00     0.074 A 
ATOM     59  C   UNL A   1      46.341  25.560  28.281  1.00  0.00     0.031 C 
ATOM     60  C   UNL A   1      46.771  27.886  29.016  1.00  0.00     0.037 A 
BRANCH  47  61
ATOM     61  C   UNL A   1      43.992  33.185  30.515  1.00  0.00     0.058 A 
ATOM     62  C   UNL A   1      43.985  34.219  29.568  1.00  0.00     0.135 A 
ATOM     63  C   UNL A   1      44.081  33.536  31.872  1.00  0.00     0.135 A 
ATOM     64  F   UNL A   1      43.918  33.936  28.258  1.00  0.00    -0.206 F 
ATOM     65  C   UNL A   1      44.069  35.554  29.953  1.00  0.00     0.059 A 
ATOM     66  C   UNL A   1      44.149  34.864  32.280  1.00  0.00     0.059 A 
ATOM     67  F   UNL A   1      44.094  32.582  32.817  1.00  0.00    -0.206 F 
ATOM     68  C   UNL A   1      44.152  35.867  31.312  1.00  0.00     0.060 A 
BRANCH  68  69
ATOM     69  S   UNL A   1      44.233  37.603  31.803  1.00  0.00     0.124 S 
ATOM     70  O   UNL A   1      43.720  38.267  30.609  1.00  0.00    -0.237 OA
ATOM     71  O   UNL A   1      43.361  37.643  32.973  1.00  0.00    -0.237 OA
ATOM     72  O   UNL A   1      45.652  37.812  32.078  1.00  0.00    -0.744 OA
ENDBRANCH  68  69
ENDBRANCH  47  61
BRANCH  48  73
ATOM     73  C   UNL A   1      42.598  23.742  27.602  1.00  0.00     0.058 A 
ATOM     74  C   UNL A   1      42.544  23.473  26.228  1.00  0.00     0.135 A 
ATOM     75  C   UNL A   1      42.464  22.662  28.490  1.00  0.00     0.135 A 
ATOM     76  F   UNL A   1      42.657  24.475  25.344  1.00  0.00    -0.206 F 
ATOM     77  C   UNL A   1      42.351  22.182  25.747  1.00  0.00     0.059 A 
ATOM     78  C   UNL A   1      42.292  21.360  28.033  1.00  0.00     0.059 A 
ATOM     79  F   UNL A   1      42.520  22.869  29.814  1.00  0.00    -0.206 F 
ATOM     80  C   UNL A   1      42.224  21.132  26.659  1.00  0.00     0.060 A 
BRANCH  80  81
ATOM     81  S   UNL A   1      42.010  19.449  26.038  1.00  0.00     0.124 S 
ATOM     82  O   UNL A   1      40.585  19.431  25.731  1.00  0.00    -0.237 OA
ATOM     83  O   UNL A   1      42.910  19.418  24.889  1.00  0.00    -0.237 OA
ATOM     84  O   UNL A   1      42.424  18.624  27.169  1.00  0.00    -0.744 OA
ENDBRANCH  80  81
ENDBRANCH  48  73
BRANCH  60  85
ATOM     85  C   UNL A   1      48.239  27.589  28.944  1.00  0.00     0.058 A 
ATOM     86  C   UNL A   1      48.983  27.865  27.788  1.00  0.00     0.135 A 
ATOM     87  C   UNL A   1      48.916  27.070  30.058  1.00  0.00     0.135 A 
ATOM     88  F   UNL A   1      48.376  28.356  26.695  1.00  0.00    -0.206 F 
ATOM     89  C   UNL A   1      50.351  27.621  27.732  1.00  0.00     0.059 A 
ATOM     90  C   UNL A   1      50.286  26.833  30.030  1.00  0.00     0.059 A 
ATOM     91  F   UNL A   1      48.247  26.797  31.189  1.00  0.00    -0.206 F 
ATOM     92  C   UNL A   1      50.993  27.104  28.859  1.00  0.00     0.060 A 
BRANCH  92  93
ATOM     93  S   UNL A   1      52.777  26.825  28.795  1.00  0.00     0.124 S 
ATOM     94  O   UNL A   1      53.023  26.208  30.093  1.00  0.00    -0.237 OA
ATOM     95  O   UNL A   1      52.921  25.947  27.638  1.00  0.00    -0.237 OA
ATOM     96  O   UNL A   1      53.321  28.169  28.624  1.00  0.00    -0.744 OA
ENDBRANCH  92  93
ENDBRANCH  60  85
ENDBRANCH  34  35
ENDBRANCH  27  29
ENDBRANCH  26  27
ENDBRANCH  25  26
ENDBRANCH   1  25
TORSDOF 18
ENDMDL
MODEL 2
REMARK VINA RESULT:     -11.5      0.957      2.128
REMARK SMILES O=C(C[C@H](C(=O)OCCOC(=O)c1ccc(-c2c3nc(c(-c4c(F)cc(S(=O)(=O)[O-])cc4F)c4ccc([nH]4)c(-c4c(F)cc(S(=O)(=O)[O-])cc4F)c4nc(c(-c5c(F)cc(S(=O)(=O)[O-])cc5F)c5ccc2[nH]5)C=C4)C=C3)cc1)c1ccccc1)Nc1ccc(Cl)cc1Cl
REMARK SMILES IDX 8 1 7 2 5 3 6 4 4 5 3 6 2 7 1 8 85 9 86 11 87 12 92 13 88 14
REMARK SMILES IDX 91 15 93 16 89 17 90 18 79 19 80 20 84 21 81 22 83 23 82 24
REMARK SMILES IDX 9 25 10 26 11 27 12 28 13 29 14 30 78 31 15 32 77 33 16 34
REMARK SMILES IDX 17 35 18 36 71 37 19 38 76 39 70 40 72 41 20 42 75 43 69 44
REMARK SMILES IDX 68 45 21 47 55 48 34 49 54 50 35 51 38 52 53 53 73 54 36 55
REMARK SMILES IDX 37 56 52 58 74 59 39 60 22 61 23 62 32 63 24 64 25 65 31 66
REMARK SMILES IDX 33 67 26 68 27 69 28 70 29 71 30 72 56 73 57 74 66 75 58 76
REMARK SMILES IDX 59 77 65 78 67 79 60 80 61 81 62 82 63 83 64 84 40 85 41 86
REMARK SMILES IDX 50 87 42 88 43 89 49 90 51 91 44 92 45 93 46 94 47 95 48 96
REMARK H PARENT 85 10 72 46 38 57
REMARK Flexibility Score: inf
ROOT
ATOM      1  C   UNL A   1      32.130  27.093  26.571  1.00  0.00     0.274 C 
ENDROOT
BRANCH   1   2
ATOM      2  O   UNL A   1      30.775  26.672  26.833  1.00  0.00    -0.462 OA
BRANCH   2   3
ATOM      3  C   UNL A   1      30.344  25.622  26.074  1.00  0.00     0.314 C 
ATOM      4  O   UNL A   1      29.923  24.577  26.549  1.00  0.00    -0.252 OA
BRANCH   3   5
ATOM      5  C   UNL A   1      30.608  25.849  24.588  1.00  0.00     0.138 C 
BRANCH   5   6
ATOM      6  C   UNL A   1      30.587  24.547  23.758  1.00  0.00     0.120 C 
BRANCH   6   7
ATOM      7  C   UNL A   1      31.920  23.828  23.606  1.00  0.00     0.225 C 
ATOM      8  O   UNL A   1      32.482  23.804  22.516  1.00  0.00    -0.275 OA
ATOM      9  N   UNL A   1      32.369  23.215  24.763  1.00  0.00    -0.325 N 
ATOM     10  H   UNL A   1      31.823  23.321  25.576  1.00  0.00     0.169 HD
BRANCH   9  11
ATOM     11  C   UNL A   1      33.554  22.445  24.865  1.00  0.00     0.060 A 
ATOM     12  C   UNL A   1      33.367  21.053  24.831  1.00  0.00     0.029 A 
ATOM     13  C   UNL A   1      34.861  22.947  25.008  1.00  0.00     0.066 A 
ATOM     14  C   UNL A   1      34.460  20.183  24.855  1.00  0.00     0.023 A 
ATOM     15  C   UNL A   1      35.955  22.070  25.020  1.00  0.00     0.043 A 
ATOM     16  Cl  UNL A   1      35.213  24.592  25.414  1.00  0.00    -0.082 Cl
ATOM     17  C   UNL A   1      35.750  20.696  24.933  1.00  0.00     0.042 A 
ATOM     18  Cl  UNL A   1      37.092  19.620  24.972  1.00  0.00    -0.084 Cl
ENDBRANCH   9  11
ENDBRANCH   6   7
ENDBRANCH   5   6
BRANCH   5  19
ATOM     19  C   UNL A   1      29.710  26.907  23.958  1.00  0.00    -0.033 A 
ATOM     20  C   UNL A   1      30.239  28.076  23.387  1.00  0.00     0.004 A 
ATOM     21  C   UNL A   1      28.317  26.749  23.967  1.00  0.00     0.004 A 
ATOM     22  C   UNL A   1      29.408  29.053  22.840  1.00  0.00     0.000 A 
ATOM     23  C   UNL A   1      27.482  27.734  23.427  1.00  0.00     0.000 A 
ATOM     24  C   UNL A   1      28.028  28.883  22.863  1.00  0.00     0.000 A 
ENDBRANCH   5  19
ENDBRANCH   3   5
ENDBRANCH   2   3
ENDBRANCH   1   2
BRANCH   1  25
ATOM     25  C   UNL A   1      32.464  28.432  27.223  1.00  0.00     0.275 C 
BRANCH  25  26
ATOM     26  O   UNL A   1      33.884  28.647  27.252  1.00  0.00    -0.458 OA
BRANCH  26  27
ATOM     27  C   UNL A   1      34.276  29.858  27.704  1.00  0.00     0.338 C 
ATOM     28  O   UNL A   1      33.601  30.869  27.785  1.00  0.00    -0.246 OA
BRANCH  27  29
ATOM     29  C   UNL A   1      35.702  29.829  28.071  1.00  0.00     0.060 A 
ATOM     30  C   UNL A   1      36.688  30.084  27.119  1.00  0.00     0.016 A 
ATOM     31  C   UNL A   1      36.054  29.394  29.349  1.00  0.00     0.016 A 
ATOM     32  C   UNL A   1      38.024  29.808  27.409  1.00  0.00     0.010 A 
ATOM     33  C   UNL A   1      37.400  29.202  29.665  1.00  0.00     0.010 A 
ATOM     34  C   UNL A   1      38.397  29.365  28.687  1.00  0.00    -0.014 A 
BRANCH  34  35
ATOM     35  C   UNL A   1      39.811  29.038  29.010  1.00  0.00     0.031 A 
ATOM     36  C   UNL A   1      40.715  30.097  29.590  1.00  0.00     0.074 A 
ATOM     37  C   UNL A   1      40.303  27.810  28.751  1.00  0.00     0.049 A 
ATOM     38  N   UNL A   1      42.015  30.090  29.732  1.00  0.00    -0.248 NA
ATOM     39  C   UNL A   1      40.070  31.337  30.057  1.00  0.00     0.031 C 
ATOM     40  C   UNL A   1      39.535  26.682  28.222  1.00  0.00     0.029 A 
ATOM     41  N   UNL A   1      41.575  27.311  28.884  1.00  0.00    -0.354 N 
ATOM     42  C   UNL A   1      42.351  31.338  30.245  1.00  0.00     0.074 A 
ATOM     43  C   UNL A   1      41.116  32.076  30.402  1.00  0.00     0.031 C 
ATOM     44  C   UNL A   1      40.347  25.622  28.081  1.00  0.00     0.029 A 
ATOM     45  C   UNL A   1      41.705  26.015  28.442  1.00  0.00     0.049 A 
ATOM     46  H   UNL A   1      42.322  27.830  29.262  1.00  0.00     0.167 HD
ATOM     47  C   UNL A   1      43.578  31.823  30.548  1.00  0.00     0.037 A 
ATOM     48  C   UNL A   1      42.799  25.244  28.296  1.00  0.00     0.037 A 
ATOM     49  C   UNL A   1      44.796  31.061  30.457  1.00  0.00     0.049 A 
ATOM     50  C   UNL A   1      44.149  25.806  28.638  1.00  0.00     0.074 A 
ATOM     51  C   UNL A   1      46.082  31.450  30.792  1.00  0.00     0.029 A 
ATOM     52  N   UNL A   1      44.878  29.752  30.010  1.00  0.00    -0.354 N 
ATOM     53  N   UNL A   1      44.453  26.998  29.092  1.00  0.00    -0.248 NA
ATOM     54  C   UNL A   1      45.308  24.926  28.429  1.00  0.00     0.031 C 
ATOM     55  C   UNL A   1      46.946  30.382  30.525  1.00  0.00     0.029 A 
ATOM     56  C   UNL A   1      46.193  29.321  30.049  1.00  0.00     0.049 A 
ATOM     57  H   UNL A   1      44.114  29.207  29.710  1.00  0.00     0.167 HD
ATOM     58  C   UNL A   1      45.837  27.008  29.230  1.00  0.00     0.074 A 
ATOM     59  C   UNL A   1      46.309  25.701  28.825  1.00  0.00     0.031 C 
ATOM     60  C   UNL A   1      46.642  28.013  29.649  1.00  0.00     0.037 A 
BRANCH  47  61
ATOM     61  C   UNL A   1      43.679  33.255  30.987  1.00  0.00     0.058 A 
ATOM     62  C   UNL A   1      43.620  33.624  32.339  1.00  0.00     0.135 A 
ATOM     63  C   UNL A   1      43.908  34.266  30.039  1.00  0.00     0.135 A 
ATOM     64  F   UNL A   1      43.388  32.699  33.282  1.00  0.00    -0.206 F 
ATOM     65  C   UNL A   1      43.776  34.949  32.735  1.00  0.00     0.059 A 
ATOM     66  C   UNL A   1      44.083  35.594  30.414  1.00  0.00     0.059 A 
ATOM     67  F   UNL A   1      43.970  33.964  28.731  1.00  0.00    -0.206 F 
ATOM     68  C   UNL A   1      44.007  35.927  31.765  1.00  0.00     0.060 A 
BRANCH  68  69
ATOM     69  S   UNL A   1      44.235  37.640  32.292  1.00  0.00     0.124 S 
ATOM     70  O   UNL A   1      45.659  37.659  32.608  1.00  0.00    -0.237 OA
ATOM     71  O   UNL A   1      43.841  38.392  31.104  1.00  0.00    -0.237 OA
ATOM     72  O   UNL A   1      43.335  37.766  33.434  1.00  0.00    -0.744 OA
ENDBRANCH  68  69
ENDBRANCH  47  61
BRANCH  48  73
ATOM     73  C   UNL A   1      42.666  23.870  27.747  1.00  0.00     0.058 A 
ATOM     74  C   UNL A   1      42.544  22.762  28.596  1.00  0.00     0.135 A 
ATOM     75  C   UNL A   1      42.656  23.642  26.362  1.00  0.00     0.135 A 
ATOM     76  F   UNL A   1      42.559  22.931  29.926  1.00  0.00    -0.206 F 
ATOM     77  C   UNL A   1      42.429  21.470  28.092  1.00  0.00     0.059 A 
ATOM     78  C   UNL A   1      42.521  22.364  25.834  1.00  0.00     0.059 A 
ATOM     79  F   UNL A   1      42.760  24.673  25.509  1.00  0.00    -0.206 F 
ATOM     80  C   UNL A   1      42.421  21.281  26.709  1.00  0.00     0.060 A 
BRANCH  80  81
ATOM     81  S   UNL A   1      42.235  19.610  26.050  1.00  0.00     0.124 S 
ATOM     82  O   UNL A   1      42.642  18.800  27.192  1.00  0.00    -0.237 OA
ATOM     83  O   UNL A   1      40.817  19.560  25.707  1.00  0.00    -0.237 OA
ATOM     84  O   UNL A   1      43.147  19.599  24.910  1.00  0.00    -0.744 OA
ENDBRANCH  80  81
ENDBRANCH  48  73
BRANCH  60  85
ATOM     85  C   UNL A   1      48.113  27.729  29.713  1.00  0.00     0.058 A 
ATOM     86  C   UNL A   1      48.730  27.345  30.912  1.00  0.00     0.135 A 
ATOM     87  C   UNL A   1      48.903  27.796  28.555  1.00  0.00     0.135 A 
ATOM     88  F   UNL A   1      48.016  27.274  32.047  1.00  0.00    -0.206 F 
ATOM     89  C   UNL A   1      50.088  27.049  30.966  1.00  0.00     0.059 A 
ATOM     90  C   UNL A   1      50.259  27.490  28.582  1.00  0.00     0.059 A 
ATOM     91  F   UNL A   1      48.355  28.153  27.383  1.00  0.00    -0.206 F 
ATOM     92  C   UNL A   1      50.844  27.125  29.795  1.00  0.00     0.060 A 
BRANCH  92  93
ATOM     93  S   UNL A   1      52.599  26.703  29.860  1.00  0.00     0.124 S 
ATOM     94  O   UNL A   1      52.608  25.639  30.858  1.00  0.00    -0.237 OA
ATOM     95  O   UNL A   1      52.879  26.289  28.489  1.00  0.00    -0.237 OA
ATOM     96  O   UNL A   1      53.230  27.954  30.269  1.00  0.00    -0.744 OA
ENDBRANCH  92  93
ENDBRANCH  60  85
ENDBRANCH  34  35
ENDBRANCH  27  29
ENDBRANCH  26  27
ENDBRANCH  25  26
ENDBRANCH   1  25
TORSDOF 18
ENDMDL
MODEL 3
REMARK VINA RESULT:     -11.4      2.029      2.573
REMARK SMILES O=C(C[C@H](C(=O)OCCOC(=O)c1ccc(-c2c3nc(c(-c4c(F)cc(S(=O)(=O)[O-])cc4F)c4ccc([nH]4)c(-c4c(F)cc(S(=O)(=O)[O-])cc4F)c4nc(c(-c5c(F)cc(S(=O)(=O)[O-])cc5F)c5ccc2[nH]5)C=C4)C=C3)cc1)c1ccccc1)Nc1ccc(Cl)cc1Cl
REMARK SMILES IDX 8 1 7 2 5 3 6 4 4 5 3 6 2 7 1 8 85 9 86 11 87 12 92 13 88 14
REMARK SMILES IDX 91 15 93 16 89 17 90 18 79 19 80 20 84 21 81 22 83 23 82 24
REMARK SMILES IDX 9 25 10 26 11 27 12 28 13 29 14 30 78 31 15 32 77 33 16 34
REMARK SMILES IDX 17 35 18 36 71 37 19 38 76 39 70 40 72 41 20 42 75 43 69 44
REMARK SMILES IDX 68 45 21 47 55 48 34 49 54 50 35 51 38 52 53 53 73 54 36 55
REMARK SMILES IDX 37 56 52 58 74 59 39 60 22 61 23 62 32 63 24 64 25 65 31 66
REMARK SMILES IDX 33 67 26 68 27 69 28 70 29 71 30 72 56 73 57 74 66 75 58 76
REMARK SMILES IDX 59 77 65 78 67 79 60 80 61 81 62 82 63 83 64 84 40 85 41 86
REMARK SMILES IDX 50 87 42 88 43 89 49 90 51 91 44 92 45 93 46 94 47 95 48 96
REMARK H PARENT 85 10 72 46 38 57
REMARK Flexibility Score: inf
ROOT
ATOM      1  C   UNL A   1      33.781  29.000  26.714  1.00  0.00     0.274 C 
ENDROOT
BRANCH   1   2
ATOM      2  O   UNL A   1      33.307  27.648  26.541  1.00  0.00    -0.462 OA
BRANCH   2   3
ATOM      3  C   UNL A   1      31.964  27.484  26.727  1.00  0.00     0.314 C 
ATOM      4  O   UNL A   1      31.379  27.823  27.746  1.00  0.00    -0.252 OA
BRANCH   3   5
ATOM      5  C   UNL A   1      31.326  26.686  25.592  1.00  0.00     0.138 C 
BRANCH   5   6
ATOM      6  C   UNL A   1      30.458  25.509  26.086  1.00  0.00     0.120 C 
BRANCH   6   7
ATOM      7  C   UNL A   1      31.174  24.179  26.267  1.00  0.00     0.225 C 
ATOM      8  O   UNL A   1      31.127  23.600  27.347  1.00  0.00    -0.275 OA
ATOM      9  N   UNL A   1      31.869  23.752  25.148  1.00  0.00    -0.325 N 
ATOM     10  H   UNL A   1      31.815  24.309  24.338  1.00  0.00     0.169 HD
BRANCH   9  11
ATOM     11  C   UNL A   1      32.653  22.573  25.082  1.00  0.00     0.060 A 
ATOM     12  C   UNL A   1      31.929  21.382  24.908  1.00  0.00     0.029 A 
ATOM     13  C   UNL A   1      34.055  22.501  25.188  1.00  0.00     0.066 A 
ATOM     14  C   UNL A   1      32.587  20.158  24.760  1.00  0.00     0.023 A 
ATOM     15  C   UNL A   1      34.711  21.272  25.027  1.00  0.00     0.043 A 
ATOM     16  Cl  UNL A   1      35.039  23.810  25.747  1.00  0.00    -0.082 Cl
ATOM     17  C   UNL A   1      33.975  20.112  24.804  1.00  0.00     0.042 A 
ATOM     18  Cl  UNL A   1      34.781  18.601  24.631  1.00  0.00    -0.084 Cl
ENDBRANCH   9  11
ENDBRANCH   6   7
ENDBRANCH   5   6
BRANCH   5  19
ATOM     19  C   UNL A   1      30.559  27.543  24.593  1.00  0.00    -0.033 A 
ATOM     20  C   UNL A   1      30.988  28.836  24.251  1.00  0.00     0.004 A 
ATOM     21  C   UNL A   1      29.375  27.066  24.013  1.00  0.00     0.004 A 
ATOM     22  C   UNL A   1      30.263  29.626  23.358  1.00  0.00     0.000 A 
ATOM     23  C   UNL A   1      28.643  27.861  23.125  1.00  0.00     0.000 A 
ATOM     24  C   UNL A   1      29.088  29.139  22.797  1.00  0.00     0.000 A 
ENDBRANCH   5  19
ENDBRANCH   3   5
ENDBRANCH   2   3
ENDBRANCH   1   2
BRANCH   1  25
ATOM     25  C   UNL A   1      34.883  29.103  27.765  1.00  0.00     0.275 C 
BRANCH  25  26
ATOM     26  O   UNL A   1      35.400  30.442  27.834  1.00  0.00    -0.458 OA
BRANCH  26  27
ATOM     27  C   UNL A   1      36.175  30.707  28.909  1.00  0.00     0.338 C 
ATOM     28  O   UNL A   1      35.908  31.434  29.849  1.00  0.00    -0.246 OA
BRANCH  27  29
ATOM     29  C   UNL A   1      37.468  30.013  28.790  1.00  0.00     0.060 A 
ATOM     30  C   UNL A   1      38.203  29.675  29.927  1.00  0.00     0.016 A 
ATOM     31  C   UNL A   1      38.016  29.835  27.520  1.00  0.00     0.016 A 
ATOM     32  C   UNL A   1      39.526  29.253  29.800  1.00  0.00     0.010 A 
ATOM     33  C   UNL A   1      39.310  29.328  27.392  1.00  0.00     0.010 A 
ATOM     34  C   UNL A   1      40.095  29.072  28.531  1.00  0.00    -0.014 A 
BRANCH  34  35
ATOM     35  C   UNL A   1      41.512  28.649  28.373  1.00  0.00     0.031 A 
ATOM     36  C   UNL A   1      42.616  29.674  28.435  1.00  0.00     0.074 A 
ATOM     37  C   UNL A   1      41.814  27.356  28.136  1.00  0.00     0.049 A 
ATOM     38  N   UNL A   1      43.876  29.555  28.104  1.00  0.00    -0.248 NA
ATOM     39  C   UNL A   1      42.249  31.017  28.917  1.00  0.00     0.031 C 
ATOM     40  C   UNL A   1      40.851  26.255  28.083  1.00  0.00     0.029 A 
ATOM     41  N   UNL A   1      43.021  26.753  27.879  1.00  0.00    -0.354 N 
ATOM     42  C   UNL A   1      44.437  30.816  28.278  1.00  0.00     0.074 A 
ATOM     43  C   UNL A   1      43.384  31.685  28.756  1.00  0.00     0.031 C 
ATOM     44  C   UNL A   1      41.503  25.112  27.816  1.00  0.00     0.029 A 
ATOM     45  C   UNL A   1      42.916  25.409  27.611  1.00  0.00     0.049 A 
ATOM     46  H   UNL A   1      43.879  27.237  27.886  1.00  0.00     0.167 HD
ATOM     47  C   UNL A   1      45.712  31.210  28.052  1.00  0.00     0.037 A 
ATOM     48  C   UNL A   1      43.842  24.522  27.198  1.00  0.00     0.037 A 
ATOM     49  C   UNL A   1      46.774  30.327  27.644  1.00  0.00     0.049 A 
ATOM     50  C   UNL A   1      45.249  24.985  26.952  1.00  0.00     0.074 A 
ATOM     51  C   UNL A   1      48.111  30.624  27.440  1.00  0.00     0.029 A 
ATOM     52  N   UNL A   1      46.622  28.973  27.391  1.00  0.00    -0.354 N 
ATOM     53  N   UNL A   1      45.757  26.186  27.092  1.00  0.00    -0.248 NA
ATOM     54  C   UNL A   1      46.207  23.977  26.473  1.00  0.00     0.031 C 
ATOM     55  C   UNL A   1      48.763  29.453  27.040  1.00  0.00     0.029 A 
ATOM     56  C   UNL A   1      47.837  28.422  27.021  1.00  0.00     0.049 A 
ATOM     57  H   UNL A   1      45.775  28.475  27.464  1.00  0.00     0.167 HD
ATOM     58  C   UNL A   1      47.093  26.076  26.725  1.00  0.00     0.074 A 
ATOM     59  C   UNL A   1      47.319  24.691  26.372  1.00  0.00     0.031 C 
ATOM     60  C   UNL A   1      48.044  27.039  26.681  1.00  0.00     0.037 A 
BRANCH  47  61
ATOM     61  C   UNL A   1      46.038  32.666  28.215  1.00  0.00     0.058 A 
ATOM     62  C   UNL A   1      45.844  33.592  27.179  1.00  0.00     0.135 A 
ATOM     63  C   UNL A   1      46.488  33.152  29.454  1.00  0.00     0.135 A 
ATOM     64  F   UNL A   1      45.431  33.177  25.971  1.00  0.00    -0.206 F 
ATOM     65  C   UNL A   1      46.094  34.948  27.363  1.00  0.00     0.059 A 
ATOM     66  C   UNL A   1      46.728  34.506  29.665  1.00  0.00     0.059 A 
ATOM     67  F   UNL A   1      46.692  32.306  30.477  1.00  0.00    -0.206 F 
ATOM     68  C   UNL A   1      46.536  35.396  28.610  1.00  0.00     0.060 A 
BRANCH  68  69
ATOM     69  S   UNL A   1      46.831  37.162  28.847  1.00  0.00     0.124 S 
ATOM     70  O   UNL A   1      46.623  37.301  30.285  1.00  0.00    -0.237 OA
ATOM     71  O   UNL A   1      48.209  37.318  28.390  1.00  0.00    -0.237 OA
ATOM     72  O   UNL A   1      45.821  37.791  28.002  1.00  0.00    -0.744 OA
ENDBRANCH  68  69
ENDBRANCH  47  61
BRANCH  48  73
ATOM     73  C   UNL A   1      43.450  23.113  26.936  1.00  0.00     0.058 A 
ATOM     74  C   UNL A   1      43.384  22.613  25.629  1.00  0.00     0.135 A 
ATOM     75  C   UNL A   1      43.137  22.241  27.991  1.00  0.00     0.135 A 
ATOM     76  F   UNL A   1      43.665  23.413  24.589  1.00  0.00    -0.206 F 
ATOM     77  C   UNL A   1      43.009  21.298  25.372  1.00  0.00     0.059 A 
ATOM     78  C   UNL A   1      42.781  20.918  27.761  1.00  0.00     0.059 A 
ATOM     79  F   UNL A   1      43.197  22.672  29.260  1.00  0.00    -0.206 F 
ATOM     80  C   UNL A   1      42.706  20.458  26.445  1.00  0.00     0.060 A 
BRANCH  80  81
ATOM     81  S   UNL A   1      42.255  18.741  26.119  1.00  0.00     0.124 S 
ATOM     82  O   UNL A   1      43.121  18.422  24.989  1.00  0.00    -0.237 OA
ATOM     83  O   UNL A   1      42.582  18.081  27.379  1.00  0.00    -0.237 OA
ATOM     84  O   UNL A   1      40.828  18.825  25.818  1.00  0.00    -0.744 OA
ENDBRANCH  80  81
ENDBRANCH  48  73
BRANCH  60  85
ATOM     85  C   UNL A   1      49.421  26.622  26.258  1.00  0.00     0.058 A 
ATOM     86  C   UNL A   1      49.831  26.711  24.920  1.00  0.00     0.135 A 
ATOM     87  C   UNL A   1      50.353  26.174  27.207  1.00  0.00     0.135 A 
ATOM     88  F   UNL A   1      48.972  27.127  23.976  1.00  0.00    -0.206 F 
ATOM     89  C   UNL A   1      51.119  26.356  24.532  1.00  0.00     0.059 A 
ATOM     90  C   UNL A   1      51.650  25.829  26.844  1.00  0.00     0.059 A 
ATOM     91  F   UNL A   1      50.008  26.079  28.500  1.00  0.00    -0.206 F 
ATOM     92  C   UNL A   1      52.021  25.915  25.502  1.00  0.00     0.060 A 
BRANCH  92  93
ATOM     93  S   UNL A   1      53.704  25.492  25.000  1.00  0.00     0.124 S 
ATOM     94  O   UNL A   1      54.494  26.177  26.018  1.00  0.00    -0.237 OA
ATOM     95  O   UNL A   1      53.702  24.034  25.076  1.00  0.00    -0.237 OA
ATOM     96  O   UNL A   1      53.801  26.042  23.652  1.00  0.00    -0.744 OA
ENDBRANCH  92  93
ENDBRANCH  60  85
ENDBRANCH  34  35
ENDBRANCH  27  29
ENDBRANCH  26  27
ENDBRANCH  25  26
ENDBRANCH   1  25
TORSDOF 18
ENDMDL
