MODEL 1
REMARK VINA RESULT:     -10.7      0.000      0.000
REMARK SMILES CC[N@@H+]1CCO[C@@H](c2ncc(C(=O)OCCOC(=O)c3ccc(-c4c5nc(c(-c6c(F)cc(S(=O)(=O)[O-])cc6F)c6ccc([nH]6)c(-c6c(F)cc(S(=O)(=O)[O-])cc6F)c6nc(c(-c7c(F)cc(S(=O)(=O)[O-])cc7F)c7ccc4[nH]7)C=C6)C=C5)cc3)s2)C1
REMARK SMILES IDX 16 1 15 2 14 3 12 4 13 5 11 6 8 7 9 8 86 9 10 10 7 11 3 12
REMARK SMILES IDX 4 13 87 14 5 16 6 17 2 18 1 19 17 20 18 21 19 22 20 23 21 24
REMARK SMILES IDX 85 25 22 26 84 27 23 28 24 29 25 30 78 31 26 32 83 33 77 34
REMARK SMILES IDX 79 35 27 36 82 37 76 38 75 39 28 41 62 42 41 43 61 44 42 45
REMARK SMILES IDX 45 46 60 47 80 48 43 49 44 50 59 52 81 53 46 54 29 55 30 56
REMARK SMILES IDX 39 57 31 58 32 59 38 60 40 61 33 62 34 63 35 64 36 65 37 66
REMARK SMILES IDX 63 67 64 68 73 69 65 70 66 71 72 72 74 73 67 74 68 75 69 76
REMARK SMILES IDX 70 77 71 78 47 79 48 80 57 81 49 82 50 83 56 84 58 85 51 86
REMARK SMILES IDX 52 87 53 88 54 89 55 90
REMARK H PARENT 3 15 79 40 45 51
REMARK Flexibility Score: inf
ROOT
ATOM      1  C   UNL A   1      40.392  22.267  26.976  1.00  0.00     0.275 C 
ENDROOT
BRANCH   1   2
ATOM      2  C   UNL A   1      39.586  21.279  26.129  1.00  0.00     0.275 C 
BRANCH   2   3
ATOM      3  O   UNL A   1      38.316  21.851  25.764  1.00  0.00    -0.458 OA
BRANCH   3   4
ATOM      4  C   UNL A   1      37.470  21.054  25.043  1.00  0.00     0.350 C 
ATOM      5  O   UNL A   1      37.760  19.943  24.630  1.00  0.00    -0.245 OA
BRANCH   4   6
ATOM      6  C   UNL A   1      36.184  21.700  24.929  1.00  0.00     0.132 A 
ATOM      7  C   UNL A   1      34.409  23.241  24.340  1.00  0.00     0.128 A 
ATOM      8  N   UNL A   1      33.904  22.040  24.551  1.00  0.00    -0.246 NA
ATOM      9  S   UNL A   1      36.067  23.407  24.777  1.00  0.00    -0.109 S 
ATOM     10  C   UNL A   1      34.919  21.155  24.856  1.00  0.00     0.139 A 
BRANCH   7  11
ATOM     11  C   UNL A   1      33.615  24.379  23.753  1.00  0.00     0.232 C 
ATOM     12  N   UNL A   1      33.184  26.860  23.847  1.00  0.00    -0.331 N 
ATOM     13  C   UNL A   1      33.282  26.830  22.363  1.00  0.00     0.291 C 
ATOM     14  C   UNL A   1      34.002  25.735  24.367  1.00  0.00     0.302 C 
ATOM     15  H   UNL A   1      33.553  27.727  24.236  1.00  0.00     0.348 HD
ATOM     16  C   UNL A   1      33.009  25.445  21.732  1.00  0.00     0.222 C 
ATOM     17  O   UNL A   1      33.805  24.407  22.325  1.00  0.00    -0.359 OA
BRANCH  12  18
ATOM     18  C   UNL A   1      31.774  26.828  24.274  1.00  0.00     0.258 C 
ATOM     19  C   UNL A   1      31.151  28.204  24.493  1.00  0.00     0.071 C 
ENDBRANCH  12  18
ENDBRANCH   7  11
ENDBRANCH   4   6
ENDBRANCH   3   4
ENDBRANCH   2   3
ENDBRANCH   1   2
BRANCH   1  20
ATOM     20  O   UNL A   1      39.982  23.626  26.730  1.00  0.00    -0.458 OA
BRANCH  20  21
ATOM     21  C   UNL A   1      40.987  24.525  26.606  1.00  0.00     0.338 C 
ATOM     22  O   UNL A   1      41.833  24.566  25.729  1.00  0.00    -0.246 OA
BRANCH  21  23
ATOM     23  C   UNL A   1      40.839  25.566  27.635  1.00  0.00     0.060 A 
ATOM     24  C   UNL A   1      41.842  26.528  27.737  1.00  0.00     0.016 A 
ATOM     25  C   UNL A   1      39.767  25.570  28.530  1.00  0.00     0.016 A 
ATOM     26  C   UNL A   1      41.781  27.511  28.720  1.00  0.00     0.010 A 
ATOM     27  C   UNL A   1      39.701  26.564  29.516  1.00  0.00     0.010 A 
ATOM     28  C   UNL A   1      40.707  27.542  29.618  1.00  0.00    -0.014 A 
BRANCH  28  29
ATOM     29  C   UNL A   1      40.651  28.597  30.662  1.00  0.00     0.031 A 
ATOM     30  C   UNL A   1      41.624  28.585  31.806  1.00  0.00     0.074 A 
ATOM     31  C   UNL A   1      39.737  29.581  30.567  1.00  0.00     0.049 A 
ATOM     32  N   UNL A   1      41.680  29.369  32.852  1.00  0.00    -0.248 NA
ATOM     33  C   UNL A   1      42.674  27.556  31.768  1.00  0.00     0.031 C 
ATOM     34  C   UNL A   1      38.768  29.730  29.480  1.00  0.00     0.029 A 
ATOM     35  N   UNL A   1      39.472  30.644  31.396  1.00  0.00    -0.354 N 
ATOM     36  C   UNL A   1      42.754  28.917  33.610  1.00  0.00     0.074 A 
ATOM     37  C   UNL A   1      43.315  27.781  32.908  1.00  0.00     0.031 C 
ATOM     38  C   UNL A   1      38.021  30.822  29.703  1.00  0.00     0.029 A 
ATOM     39  C   UNL A   1      38.420  31.421  30.974  1.00  0.00     0.049 A 
ATOM     40  H   UNL A   1      39.987  30.831  32.214  1.00  0.00     0.167 HD
ATOM     41  C   UNL A   1      43.226  29.408  34.782  1.00  0.00     0.037 A 
ATOM     42  C   UNL A   1      37.820  32.476  31.560  1.00  0.00     0.037 A 
ATOM     43  C   UNL A   1      42.674  30.549  35.465  1.00  0.00     0.049 A 
ATOM     44  C   UNL A   1      38.319  32.958  32.894  1.00  0.00     0.074 A 
ATOM     45  C   UNL A   1      43.101  31.137  36.644  1.00  0.00     0.029 A 
ATOM     46  N   UNL A   1      41.571  31.274  35.036  1.00  0.00    -0.354 N 
ATOM     47  N   UNL A   1      39.329  32.516  33.603  1.00  0.00    -0.248 NA
ATOM     48  C   UNL A   1      37.585  34.069  33.516  1.00  0.00     0.031 C 
ATOM     49  C   UNL A   1      42.231  32.191  36.949  1.00  0.00     0.029 A 
ATOM     50  C   UNL A   1      41.285  32.284  35.940  1.00  0.00     0.049 A 
ATOM     51  H   UNL A   1      41.065  31.096  34.210  1.00  0.00     0.167 HD
ATOM     52  C   UNL A   1      39.353  33.293  34.755  1.00  0.00     0.074 A 
ATOM     53  C   UNL A   1      38.270  34.249  34.638  1.00  0.00     0.031 C 
ATOM     54  C   UNL A   1      40.192  33.217  35.818  1.00  0.00     0.037 A 
BRANCH  41  55
ATOM     55  C   UNL A   1      44.384  28.690  35.417  1.00  0.00     0.058 A 
ATOM     56  C   UNL A   1      45.715  29.024  35.126  1.00  0.00     0.135 A 
ATOM     57  C   UNL A   1      44.156  27.667  36.352  1.00  0.00     0.135 A 
ATOM     58  F   UNL A   1      45.990  29.985  34.228  1.00  0.00    -0.206 F 
ATOM     59  C   UNL A   1      46.780  28.351  35.717  1.00  0.00     0.059 A 
ATOM     60  C   UNL A   1      45.205  26.994  36.972  1.00  0.00     0.059 A 
ATOM     61  F   UNL A   1      42.902  27.307  36.668  1.00  0.00    -0.206 F 
ATOM     62  C   UNL A   1      46.515  27.333  36.634  1.00  0.00     0.060 A 
BRANCH  62  63
ATOM     63  S   UNL A   1      47.905  26.460  37.385  1.00  0.00     0.124 S 
ATOM     64  O   UNL A   1      47.521  26.460  38.793  1.00  0.00    -0.237 OA
ATOM     65  O   UNL A   1      47.861  25.164  36.716  1.00  0.00    -0.237 OA
ATOM     66  O   UNL A   1      49.054  27.296  37.049  1.00  0.00    -0.744 OA
ENDBRANCH  62  63
ENDBRANCH  41  55
BRANCH  42  67
ATOM     67  C   UNL A   1      36.653  33.119  30.902  1.00  0.00     0.058 A 
ATOM     68  C   UNL A   1      35.351  32.928  31.384  1.00  0.00     0.135 A 
ATOM     69  C   UNL A   1      36.822  33.959  29.789  1.00  0.00     0.135 A 
ATOM     70  F   UNL A   1      35.137  32.123  32.436  1.00  0.00    -0.206 F 
ATOM     71  C   UNL A   1      34.256  33.548  30.790  1.00  0.00     0.059 A 
ATOM     72  C   UNL A   1      35.747  34.608  29.192  1.00  0.00     0.059 A 
ATOM     73  F   UNL A   1      38.050  34.179  29.293  1.00  0.00    -0.206 F 
ATOM     74  C   UNL A   1      34.465  34.391  29.695  1.00  0.00     0.060 A 
BRANCH  74  75
ATOM     75  S   UNL A   1      33.049  35.245  28.971  1.00  0.00     0.124 S 
ATOM     76  O   UNL A   1      32.215  35.478  30.144  1.00  0.00    -0.237 OA
ATOM     77  O   UNL A   1      33.668  36.429  28.383  1.00  0.00    -0.237 OA
ATOM     78  O   UNL A   1      32.531  34.277  28.009  1.00  0.00    -0.744 OA
ENDBRANCH  74  75
ENDBRANCH  42  67
BRANCH  54  79
ATOM     79  C   UNL A   1      39.970  34.191  36.941  1.00  0.00     0.058 A 
ATOM     80  C   UNL A   1      40.511  35.485  36.901  1.00  0.00     0.135 A 
ATOM     81  C   UNL A   1      39.171  33.846  38.042  1.00  0.00     0.135 A 
ATOM     82  F   UNL A   1      41.290  35.861  35.873  1.00  0.00    -0.206 F 
ATOM     83  C   UNL A   1      40.281  36.401  37.923  1.00  0.00     0.059 A 
ATOM     84  C   UNL A   1      38.909  34.753  39.065  1.00  0.00     0.059 A 
ATOM     85  F   UNL A   1      38.624  32.623  38.124  1.00  0.00    -0.206 F 
ATOM     86  C   UNL A   1      39.478  36.025  39.001  1.00  0.00     0.060 A 
BRANCH  86  87
ATOM     87  S   UNL A   1      39.155  37.233  40.304  1.00  0.00     0.124 S 
ATOM     88  O   UNL A   1      38.337  38.214  39.599  1.00  0.00    -0.237 OA
ATOM     89  O   UNL A   1      38.461  36.434  41.309  1.00  0.00    -0.237 OA
ATOM     90  O   UNL A   1      40.490  37.685  40.686  1.00  0.00    -0.744 OA
ENDBRANCH  86  87
ENDBRANCH  54  79
ENDBRANCH  28  29
ENDBRANCH  21  23
ENDBRANCH  20  21
ENDBRANCH   1  20
TORSDOF 16
ENDMDL
MODEL 2
REMARK VINA RESULT:     -10.6      4.786     12.151
REMARK SMILES CC[N@@H+]1CCO[C@@H](c2ncc(C(=O)OCCOC(=O)c3ccc(-c4c5nc(c(-c6c(F)cc(S(=O)(=O)[O-])cc6F)c6ccc([nH]6)c(-c6c(F)cc(S(=O)(=O)[O-])cc6F)c6nc(c(-c7c(F)cc(S(=O)(=O)[O-])cc7F)c7ccc4[nH]7)C=C6)C=C5)cc3)s2)C1
REMARK SMILES IDX 16 1 15 2 14 3 12 4 13 5 11 6 8 7 9 8 86 9 10 10 7 11 3 12
REMARK SMILES IDX 4 13 87 14 5 16 6 17 2 18 1 19 17 20 18 21 19 22 20 23 21 24
REMARK SMILES IDX 85 25 22 26 84 27 23 28 24 29 25 30 78 31 26 32 83 33 77 34
REMARK SMILES IDX 79 35 27 36 82 37 76 38 75 39 28 41 62 42 41 43 61 44 42 45
REMARK SMILES IDX 45 46 60 47 80 48 43 49 44 50 59 52 81 53 46 54 29 55 30 56
REMARK SMILES IDX 39 57 31 58 32 59 38 60 40 61 33 62 34 63 35 64 36 65 37 66
REMARK SMILES IDX 63 67 64 68 73 69 65 70 66 71 72 72 74 73 67 74 68 75 69 76
REMARK SMILES IDX 70 77 71 78 47 79 48 80 57 81 49 82 50 83 56 84 58 85 51 86
REMARK SMILES IDX 52 87 53 88 54 89 55 90
REMARK H PARENT 3 15 79 40 45 51
REMARK Flexibility Score: inf
ROOT
ATOM      1  C   UNL A   1      33.300  32.379  27.495  1.00  0.00     0.275 C 
ENDROOT
BRANCH   1   2
ATOM      2  C   UNL A   1      33.020  33.788  28.026  1.00  0.00     0.275 C 
BRANCH   2   3
ATOM      3  O   UNL A   1      33.864  34.074  29.157  1.00  0.00    -0.458 OA
BRANCH   3   4
ATOM      4  C   UNL A   1      33.422  35.037  30.022  1.00  0.00     0.350 C 
ATOM      5  O   UNL A   1      32.489  35.790  29.793  1.00  0.00    -0.245 OA
BRANCH   4   6
ATOM      6  C   UNL A   1      34.173  34.958  31.252  1.00  0.00     0.132 A 
ATOM      7  C   UNL A   1      35.885  34.460  32.894  1.00  0.00     0.128 A 
ATOM      8  N   UNL A   1      35.260  35.575  33.226  1.00  0.00    -0.246 NA
ATOM      9  S   UNL A   1      35.160  33.593  31.593  1.00  0.00    -0.109 S 
ATOM     10  C   UNL A   1      34.306  35.874  32.274  1.00  0.00     0.139 A 
BRANCH   7  11
ATOM     11  C   UNL A   1      37.137  33.980  33.580  1.00  0.00     0.232 C 
ATOM     12  N   UNL A   1      39.097  32.403  33.433  1.00  0.00    -0.331 N 
ATOM     13  C   UNL A   1      39.934  33.569  33.825  1.00  0.00     0.291 C 
ATOM     14  C   UNL A   1      37.894  32.935  32.744  1.00  0.00     0.302 C 
ATOM     15  H   UNL A   1      39.586  31.784  32.787  1.00  0.00     0.348 HD
ATOM     16  C   UNL A   1      39.166  34.687  34.568  1.00  0.00     0.222 C 
ATOM     17  O   UNL A   1      37.991  35.108  33.858  1.00  0.00    -0.359 OA
BRANCH  12  18
ATOM     18  C   UNL A   1      38.798  31.562  34.605  1.00  0.00     0.258 C 
ATOM     19  C   UNL A   1      40.026  31.157  35.418  1.00  0.00     0.071 C 
ENDBRANCH  12  18
ENDBRANCH   7  11
ENDBRANCH   4   6
ENDBRANCH   3   4
ENDBRANCH   2   3
ENDBRANCH   1   2
BRANCH   1  20
ATOM     20  O   UNL A   1      34.136  31.634  28.401  1.00  0.00    -0.458 OA
BRANCH  20  21
ATOM     21  C   UNL A   1      34.322  30.330  28.082  1.00  0.00     0.338 C 
ATOM     22  O   UNL A   1      33.500  29.563  27.611  1.00  0.00    -0.246 OA
BRANCH  21  23
ATOM     23  C   UNL A   1      35.740  29.984  28.266  1.00  0.00     0.060 A 
ATOM     24  C   UNL A   1      36.154  29.589  29.537  1.00  0.00     0.016 A 
ATOM     25  C   UNL A   1      36.667  30.099  27.228  1.00  0.00     0.016 A 
ATOM     26  C   UNL A   1      37.491  29.292  29.784  1.00  0.00     0.010 A 
ATOM     27  C   UNL A   1      38.013  29.793  27.474  1.00  0.00     0.010 A 
ATOM     28  C   UNL A   1      38.434  29.386  28.753  1.00  0.00    -0.014 A 
BRANCH  28  29
ATOM     29  C   UNL A   1      39.858  29.065  29.027  1.00  0.00     0.031 A 
ATOM     30  C   UNL A   1      40.766  30.096  29.636  1.00  0.00     0.074 A 
ATOM     31  C   UNL A   1      40.330  27.834  28.750  1.00  0.00     0.049 A 
ATOM     32  N   UNL A   1      42.051  30.030  29.872  1.00  0.00    -0.248 NA
ATOM     33  C   UNL A   1      40.146  31.370  30.031  1.00  0.00     0.031 C 
ATOM     34  C   UNL A   1      39.537  26.732  28.201  1.00  0.00     0.029 A 
ATOM     35  N   UNL A   1      41.588  27.302  28.890  1.00  0.00    -0.354 N 
ATOM     36  C   UNL A   1      42.401  31.257  30.422  1.00  0.00     0.074 A 
ATOM     37  C   UNL A   1      41.192  32.054  30.474  1.00  0.00     0.031 C 
ATOM     38  C   UNL A   1      40.324  25.653  28.060  1.00  0.00     0.029 A 
ATOM     39  C   UNL A   1      41.687  26.001  28.455  1.00  0.00     0.049 A 
ATOM     40  H   UNL A   1      42.346  27.803  29.267  1.00  0.00     0.167 HD
ATOM     41  C   UNL A   1      43.618  31.677  30.845  1.00  0.00     0.037 A 
ATOM     42  C   UNL A   1      42.758  25.191  28.352  1.00  0.00     0.037 A 
ATOM     43  C   UNL A   1      44.812  30.872  30.807  1.00  0.00     0.049 A 
ATOM     44  C   UNL A   1      44.110  25.704  28.763  1.00  0.00     0.074 A 
ATOM     45  C   UNL A   1      46.087  31.200  31.238  1.00  0.00     0.029 A 
ATOM     46  N   UNL A   1      44.883  29.581  30.305  1.00  0.00    -0.354 N 
ATOM     47  N   UNL A   1      44.428  26.869  29.273  1.00  0.00    -0.248 NA
ATOM     48  C   UNL A   1      45.252  24.800  28.567  1.00  0.00     0.031 C 
ATOM     49  C   UNL A   1      46.936  30.124  30.957  1.00  0.00     0.029 A 
ATOM     50  C   UNL A   1      46.184  29.109  30.387  1.00  0.00     0.049 A 
ATOM     51  H   UNL A   1      44.121  29.074  29.941  1.00  0.00     0.167 HD
ATOM     52  C   UNL A   1      45.805  26.840  29.459  1.00  0.00     0.074 A 
ATOM     53  C   UNL A   1      46.257  25.532  29.028  1.00  0.00     0.031 C 
ATOM     54  C   UNL A   1      46.621  27.811  29.938  1.00  0.00     0.037 A 
BRANCH  41  55
ATOM     55  C   UNL A   1      43.726  33.085  31.360  1.00  0.00     0.058 A 
ATOM     56  C   UNL A   1      43.603  33.388  32.724  1.00  0.00     0.135 A 
ATOM     57  C   UNL A   1      43.981  34.145  30.474  1.00  0.00     0.135 A 
ATOM     58  F   UNL A   1      43.345  32.415  33.613  1.00  0.00    -0.206 F 
ATOM     59  C   UNL A   1      43.700  34.696  33.190  1.00  0.00     0.059 A 
ATOM     60  C   UNL A   1      44.103  35.458  30.920  1.00  0.00     0.059 A 
ATOM     61  F   UNL A   1      44.107  33.910  29.158  1.00  0.00    -0.206 F 
ATOM     62  C   UNL A   1      43.945  35.725  32.279  1.00  0.00     0.060 A 
BRANCH  62  63
ATOM     63  S   UNL A   1      44.058  37.419  32.895  1.00  0.00     0.124 S 
ATOM     64  O   UNL A   1      43.922  38.185  31.660  1.00  0.00    -0.237 OA
ATOM     65  O   UNL A   1      42.928  37.495  33.815  1.00  0.00    -0.237 OA
ATOM     66  O   UNL A   1      45.376  37.466  33.521  1.00  0.00    -0.744 OA
ENDBRANCH  62  63
ENDBRANCH  41  55
BRANCH  42  67
ATOM     67  C   UNL A   1      42.595  23.822  27.797  1.00  0.00     0.058 A 
ATOM     68  C   UNL A   1      42.496  22.705  28.639  1.00  0.00     0.135 A 
ATOM     69  C   UNL A   1      42.510  23.607  26.412  1.00  0.00     0.135 A 
ATOM     70  F   UNL A   1      42.587  22.857  29.969  1.00  0.00    -0.206 F 
ATOM     71  C   UNL A   1      42.317  21.423  28.129  1.00  0.00     0.059 A 
ATOM     72  C   UNL A   1      42.308  22.339  25.880  1.00  0.00     0.059 A 
ATOM     73  F   UNL A   1      42.593  24.645  25.565  1.00  0.00    -0.206 F 
ATOM     74  C   UNL A   1      42.219  21.251  26.746  1.00  0.00     0.060 A 
BRANCH  74  75
ATOM     75  S   UNL A   1      41.918  19.594  26.094  1.00  0.00     0.124 S 
ATOM     76  O   UNL A   1      42.771  19.584  24.912  1.00  0.00    -0.237 OA
ATOM     77  O   UNL A   1      42.350  18.743  27.199  1.00  0.00    -0.237 OA
ATOM     78  O   UNL A   1      40.481  19.591  25.837  1.00  0.00    -0.744 OA
ENDBRANCH  74  75
ENDBRANCH  42  67
BRANCH  54  79
ATOM     79  C   UNL A   1      48.090  27.497  30.015  1.00  0.00     0.058 A 
ATOM     80  C   UNL A   1      48.973  27.887  28.997  1.00  0.00     0.135 A 
ATOM     81  C   UNL A   1      48.626  26.845  31.136  1.00  0.00     0.135 A 
ATOM     82  F   UNL A   1      48.508  28.507  27.900  1.00  0.00    -0.206 F 
ATOM     83  C   UNL A   1      50.337  27.628  29.080  1.00  0.00     0.059 A 
ATOM     84  C   UNL A   1      49.990  26.594  31.250  1.00  0.00     0.059 A 
ATOM     85  F   UNL A   1      47.824  26.458  32.141  1.00  0.00    -0.206 F 
ATOM     86  C   UNL A   1      50.836  26.981  30.211  1.00  0.00     0.060 A 
BRANCH  86  87
ATOM     87  S   UNL A   1      52.614  26.682  30.325  1.00  0.00     0.124 S 
ATOM     88  O   UNL A   1      52.678  25.703  31.404  1.00  0.00    -0.237 OA
ATOM     89  O   UNL A   1      52.934  26.180  28.992  1.00  0.00    -0.237 OA
ATOM     90  O   UNL A   1      53.159  28.000  30.638  1.00  0.00    -0.744 OA
ENDBRANCH  86  87
ENDBRANCH  54  79
ENDBRANCH  28  29
ENDBRANCH  21  23
ENDBRANCH  20  21
ENDBRANCH   1  20
TORSDOF 16
ENDMDL
MODEL 3
REMARK VINA RESULT:     -10.6      6.785     12.256
REMARK SMILES CC[N@@H+]1CCO[C@@H](c2ncc(C(=O)OCCOC(=O)c3ccc(-c4c5nc(c(-c6c(F)cc(S(=O)(=O)[O-])cc6F)c6ccc([nH]6)c(-c6c(F)cc(S(=O)(=O)[O-])cc6F)c6nc(c(-c7c(F)cc(S(=O)(=O)[O-])cc7F)c7ccc4[nH]7)C=C6)C=C5)cc3)s2)C1
REMARK SMILES IDX 16 1 15 2 14 3 12 4 13 5 11 6 8 7 9 8 86 9 10 10 7 11 3 12
REMARK SMILES IDX 4 13 87 14 5 16 6 17 2 18 1 19 17 20 18 21 19 22 20 23 21 24
REMARK SMILES IDX 85 25 22 26 84 27 23 28 24 29 25 30 78 31 26 32 83 33 77 34
REMARK SMILES IDX 79 35 27 36 82 37 76 38 75 39 28 41 62 42 41 43 61 44 42 45
REMARK SMILES IDX 45 46 60 47 80 48 43 49 44 50 59 52 81 53 46 54 29 55 30 56
REMARK SMILES IDX 39 57 31 58 32 59 38 60 40 61 33 62 34 63 35 64 36 65 37 66
REMARK SMILES IDX 63 67 64 68 73 69 65 70 66 71 72 72 74 73 67 74 68 75 69 76
REMARK SMILES IDX 70 77 71 78 47 79 48 80 57 81 49 82 50 83 56 84 58 85 51 86
REMARK SMILES IDX 52 87 53 88 54 89 55 90
REMARK H PARENT 3 15 79 40 45 51
REMARK Flexibility Score: inf
ROOT
ATOM      1  C   UNL A   1      34.130  29.937  27.286  1.00  0.00     0.275 C 
ENDROOT
BRANCH   1   2
ATOM      2  C   UNL A   1      33.731  29.034  26.116  1.00  0.00     0.275 C 
BRANCH   2   3
ATOM      3  O   UNL A   1      32.310  28.805  26.120  1.00  0.00    -0.458 OA
BRANCH   3   4
ATOM      4  C   UNL A   1      31.865  27.734  26.845  1.00  0.00     0.350 C 
ATOM      5  O   UNL A   1      31.423  27.809  27.980  1.00  0.00    -0.245 OA
BRANCH   4   6
ATOM      6  C   UNL A   1      31.927  26.544  26.030  1.00  0.00     0.132 A 
ATOM      7  C   UNL A   1      32.444  24.323  25.206  1.00  0.00     0.128 A 
ATOM      8  N   UNL A   1      31.276  24.716  24.728  1.00  0.00    -0.246 NA
ATOM      9  S   UNL A   1      33.330  25.552  26.027  1.00  0.00    -0.109 S 
ATOM     10  C   UNL A   1      30.969  25.967  25.223  1.00  0.00     0.139 A 
BRANCH   7  11
ATOM     11  C   UNL A   1      32.963  22.917  25.063  1.00  0.00     0.232 C 
ATOM     12  N   UNL A   1      34.329  21.100  26.150  1.00  0.00    -0.331 N 
ATOM     13  C   UNL A   1      33.213  20.186  25.790  1.00  0.00     0.291 C 
ATOM     14  C   UNL A   1      33.755  22.461  26.300  1.00  0.00     0.302 C 
ATOM     15  H   UNL A   1      34.765  20.840  27.035  1.00  0.00     0.348 HD
ATOM     16  C   UNL A   1      32.331  20.682  24.620  1.00  0.00     0.222 C 
ATOM     17  O   UNL A   1      31.859  22.023  24.822  1.00  0.00    -0.359 OA
BRANCH  12  18
ATOM     18  C   UNL A   1      35.414  21.009  25.157  1.00  0.00     0.258 C 
ATOM     19  C   UNL A   1      36.606  21.920  25.443  1.00  0.00     0.071 C 
ENDBRANCH  12  18
ENDBRANCH   7  11
ENDBRANCH   4   6
ENDBRANCH   3   4
ENDBRANCH   2   3
ENDBRANCH   1   2
BRANCH   1  20
ATOM     20  O   UNL A   1      35.174  29.338  28.078  1.00  0.00    -0.458 OA
BRANCH  20  21
ATOM     21  C   UNL A   1      35.902  30.200  28.828  1.00  0.00     0.338 C 
ATOM     22  O   UNL A   1      35.479  31.069  29.570  1.00  0.00    -0.246 OA
BRANCH  21  23
ATOM     23  C   UNL A   1      37.327  29.848  28.725  1.00  0.00     0.060 A 
ATOM     24  C   UNL A   1      37.881  29.743  27.450  1.00  0.00     0.016 A 
ATOM     25  C   UNL A   1      38.100  29.565  29.853  1.00  0.00     0.016 A 
ATOM     26  C   UNL A   1      39.211  29.369  27.286  1.00  0.00     0.010 A 
ATOM     27  C   UNL A   1      39.442  29.195  29.689  1.00  0.00     0.010 A 
ATOM     28  C   UNL A   1      40.008  29.095  28.405  1.00  0.00    -0.014 A 
BRANCH  28  29
ATOM     29  C   UNL A   1      41.427  28.699  28.219  1.00  0.00     0.031 A 
ATOM     30  C   UNL A   1      42.522  29.722  28.330  1.00  0.00     0.074 A 
ATOM     31  C   UNL A   1      41.733  27.411  27.972  1.00  0.00     0.049 A 
ATOM     32  N   UNL A   1      43.806  29.585  28.120  1.00  0.00    -0.248 NA
ATOM     33  C   UNL A   1      42.119  31.079  28.732  1.00  0.00     0.031 C 
ATOM     34  C   UNL A   1      40.765  26.316  27.887  1.00  0.00     0.029 A 
ATOM     35  N   UNL A   1      42.944  26.803  27.748  1.00  0.00    -0.354 N 
ATOM     36  C   UNL A   1      44.364  30.839  28.340  1.00  0.00     0.074 A 
ATOM     37  C   UNL A   1      43.275  31.728  28.690  1.00  0.00     0.031 C 
ATOM     38  C   UNL A   1      41.419  25.170  27.638  1.00  0.00     0.029 A 
ATOM     39  C   UNL A   1      42.844  25.456  27.491  1.00  0.00     0.049 A 
ATOM     40  H   UNL A   1      43.802  27.286  27.769  1.00  0.00     0.167 HD
ATOM     41  C   UNL A   1      45.665  31.210  28.260  1.00  0.00     0.037 A 
ATOM     42  C   UNL A   1      43.786  24.558  27.143  1.00  0.00     0.037 A 
ATOM     43  C   UNL A   1      46.745  30.316  27.929  1.00  0.00     0.049 A 
ATOM     44  C   UNL A   1      45.212  25.010  26.992  1.00  0.00     0.074 A 
ATOM     45  C   UNL A   1      48.099  30.593  27.849  1.00  0.00     0.029 A 
ATOM     46  N   UNL A   1      46.595  28.972  27.618  1.00  0.00    -0.354 N 
ATOM     47  N   UNL A   1      45.724  26.200  27.195  1.00  0.00    -0.248 NA
ATOM     48  C   UNL A   1      46.185  24.003  26.546  1.00  0.00     0.031 C 
ATOM     49  C   UNL A   1      48.763  29.428  27.448  1.00  0.00     0.029 A 
ATOM     50  C   UNL A   1      47.828  28.414  27.317  1.00  0.00     0.049 A 
ATOM     51  H   UNL A   1      45.739  28.486  27.612  1.00  0.00     0.167 HD
ATOM     52  C   UNL A   1      47.078  26.086  26.902  1.00  0.00     0.074 A 
ATOM     53  C   UNL A   1      47.310  24.704  26.529  1.00  0.00     0.031 C 
ATOM     54  C   UNL A   1      48.040  27.041  26.931  1.00  0.00     0.037 A 
BRANCH  41  55
ATOM     55  C   UNL A   1      45.989  32.657  28.504  1.00  0.00     0.058 A 
ATOM     56  C   UNL A   1      46.318  33.139  29.780  1.00  0.00     0.135 A 
ATOM     57  C   UNL A   1      45.994  33.572  27.438  1.00  0.00     0.135 A 
ATOM     58  F   UNL A   1      46.316  32.310  30.837  1.00  0.00    -0.206 F 
ATOM     59  C   UNL A   1      46.613  34.481  29.996  1.00  0.00     0.059 A 
ATOM     60  C   UNL A   1      46.307  34.915  27.627  1.00  0.00     0.059 A 
ATOM     61  F   UNL A   1      45.686  33.164  26.197  1.00  0.00    -0.206 F 
ATOM     62  C   UNL A   1      46.599  35.363  28.915  1.00  0.00     0.060 A 
BRANCH  62  63
ATOM     63  S   UNL A   1      46.973  37.105  29.211  1.00  0.00     0.124 S 
ATOM     64  O   UNL A   1      47.201  37.111  30.652  1.00  0.00    -0.237 OA
ATOM     65  O   UNL A   1      48.154  37.319  28.381  1.00  0.00    -0.237 OA
ATOM     66  O   UNL A   1      45.765  37.792  28.764  1.00  0.00    -0.744 OA
ENDBRANCH  62  63
ENDBRANCH  41  55
BRANCH  42  67
ATOM     67  C   UNL A   1      43.397  23.149  26.875  1.00  0.00     0.058 A 
ATOM     68  C   UNL A   1      43.373  22.638  25.569  1.00  0.00     0.135 A 
ATOM     69  C   UNL A   1      43.066  22.278  27.925  1.00  0.00     0.135 A 
ATOM     70  F   UNL A   1      43.667  23.436  24.532  1.00  0.00    -0.206 F 
ATOM     71  C   UNL A   1      43.036  21.313  25.312  1.00  0.00     0.059 A 
ATOM     72  C   UNL A   1      42.748  20.943  27.695  1.00  0.00     0.059 A 
ATOM     73  F   UNL A   1      43.081  22.716  29.193  1.00  0.00    -0.206 F 
ATOM     74  C   UNL A   1      42.729  20.471  26.384  1.00  0.00     0.060 A 
BRANCH  74  75
ATOM     75  S   UNL A   1      42.359  18.736  26.049  1.00  0.00     0.124 S 
ATOM     76  O   UNL A   1      40.944  18.800  25.703  1.00  0.00    -0.237 OA
ATOM     77  O   UNL A   1      43.271  18.430  24.951  1.00  0.00    -0.237 OA
ATOM     78  O   UNL A   1      42.671  18.077  27.314  1.00  0.00    -0.744 OA
ENDBRANCH  74  75
ENDBRANCH  42  67
BRANCH  54  79
ATOM     79  C   UNL A   1      49.433  26.625  26.546  1.00  0.00     0.058 A 
ATOM     80  C   UNL A   1      50.278  25.976  27.458  1.00  0.00     0.135 A 
ATOM     81  C   UNL A   1      49.910  26.836  25.243  1.00  0.00     0.135 A 
ATOM     82  F   UNL A   1      49.871  25.759  28.720  1.00  0.00    -0.206 F 
ATOM     83  C   UNL A   1      51.555  25.561  27.097  1.00  0.00     0.059 A 
ATOM     84  C   UNL A   1      51.176  26.410  24.853  1.00  0.00     0.059 A 
ATOM     85  F   UNL A   1      49.137  27.447  24.331  1.00  0.00    -0.206 F 
ATOM     86  C   UNL A   1      51.996  25.783  25.791  1.00  0.00     0.060 A 
BRANCH  86  87
ATOM     87  S   UNL A   1      53.642  25.207  25.322  1.00  0.00     0.124 S 
ATOM     88  O   UNL A   1      53.580  23.800  25.701  1.00  0.00    -0.237 OA
ATOM     89  O   UNL A   1      53.671  25.476  23.887  1.00  0.00    -0.237 OA
ATOM     90  O   UNL A   1      54.533  26.037  26.126  1.00  0.00    -0.744 OA
ENDBRANCH  86  87
ENDBRANCH  54  79
ENDBRANCH  28  29
ENDBRANCH  21  23
ENDBRANCH  20  21
ENDBRANCH   1  20
TORSDOF 16
ENDMDL
