MODEL 1
REMARK VINA RESULT:     -12.1      0.000      0.000
REMARK SMILES O=C(OCCOC(=O)c1ccccc1/C=C1/SC(=S)N(C2CCCC2)C1=O)c1ccc(-c2c3nc(c(-c4c(F)cc(S(=O)(=O)[O-])cc4F)c4ccc([nH]4)c(-c4c(F)cc(S(=O)(=O)[O-])cc4F)c4nc(c(-c5c(F)cc(S(=O)(=O)[O-])cc5F)c5ccc2[nH]5)C=C4)C=C3)cc1
REMARK SMILES IDX 4 1 3 2 2 3 1 4 28 5 29 6 93 7 30 8 92 9 31 10 32 11 33 12
REMARK SMILES IDX 86 13 34 14 91 15 85 16 87 17 35 18 90 19 84 20 83 21 36 23
REMARK SMILES IDX 70 24 49 25 69 26 50 27 53 28 68 29 88 30 51 31 52 32 67 34
REMARK SMILES IDX 89 35 54 36 37 37 38 38 47 39 39 40 40 41 46 42 48 43 41 44
REMARK SMILES IDX 42 45 43 46 44 47 45 48 71 49 72 50 81 51 73 52 74 53 80 54
REMARK SMILES IDX 82 55 75 56 76 57 77 58 78 59 79 60 55 61 56 62 65 63 57 64
REMARK SMILES IDX 58 65 64 66 66 67 59 68 60 69 61 70 62 71 63 72 5 73 6 74
REMARK SMILES IDX 7 75 8 76 9 77 10 78 14 79 11 80 13 81 12 82 15 83 16 84
REMARK SMILES IDX 17 85 26 86 18 87 20 88 27 89 19 90 21 91 22 92 25 93 23 94
REMARK SMILES IDX 24 95
REMARK H PARENT 87 22 53 33
REMARK Flexibility Score: inf
ROOT
ATOM      1  C   UNL A   1      34.719  30.720  27.784  1.00  0.00     0.275 C 
ENDROOT
BRANCH   1   2
ATOM      2  O   UNL A   1      35.487  30.852  28.995  1.00  0.00    -0.458 OA
BRANCH   2   3
ATOM      3  C   UNL A   1      36.377  30.015  29.579  1.00  0.00     0.338 C 
ATOM      4  O   UNL A   1      36.056  29.481  30.641  1.00  0.00    -0.246 OA
BRANCH   3   5
ATOM      5  C   UNL A   1      37.769  29.762  29.077  1.00  0.00     0.060 A 
ATOM      6  C   UNL A   1      38.151  29.627  27.742  1.00  0.00     0.016 A 
ATOM      7  C   UNL A   1      38.772  29.622  30.059  1.00  0.00     0.016 A 
ATOM      8  C   UNL A   1      39.487  29.401  27.393  1.00  0.00     0.010 A 
ATOM      9  C   UNL A   1      40.111  29.389  29.717  1.00  0.00     0.010 A 
ATOM     10  C   UNL A   1      40.470  29.264  28.375  1.00  0.00    -0.014 A 
BRANCH  10  11
ATOM     11  C   UNL A   1      41.835  28.859  27.959  1.00  0.00     0.031 A 
ATOM     12  C   UNL A   1      42.915  29.884  27.983  1.00  0.00     0.074 A 
ATOM     13  C   UNL A   1      42.118  27.574  27.684  1.00  0.00     0.049 A 
ATOM     14  N   UNL A   1      44.194  29.719  27.793  1.00  0.00    -0.248 NA
ATOM     15  C   UNL A   1      42.508  31.268  28.268  1.00  0.00     0.031 C 
ATOM     16  C   UNL A   1      41.111  26.533  27.647  1.00  0.00     0.029 A 
ATOM     17  N   UNL A   1      43.278  26.904  27.411  1.00  0.00    -0.354 N 
ATOM     18  C   UNL A   1      44.753  30.974  27.966  1.00  0.00     0.074 A 
ATOM     19  C   UNL A   1      43.671  31.898  28.229  1.00  0.00     0.031 C 
ATOM     20  C   UNL A   1      41.674  25.342  27.409  1.00  0.00     0.029 A 
ATOM     21  C   UNL A   1      43.104  25.545  27.231  1.00  0.00     0.049 A 
ATOM     22  H   UNL A   1      44.154  27.347  27.347  1.00  0.00     0.167 HD
ATOM     23  C   UNL A   1      46.061  31.309  27.923  1.00  0.00     0.037 A 
ATOM     24  C   UNL A   1      43.999  24.581  26.949  1.00  0.00     0.037 A 
ATOM     25  C   UNL A   1      47.107  30.376  27.603  1.00  0.00     0.049 A 
ATOM     26  C   UNL A   1      45.439  24.999  26.833  1.00  0.00     0.074 A 
ATOM     27  C   UNL A   1      48.458  30.614  27.441  1.00  0.00     0.029 A 
ATOM     28  N   UNL A   1      46.907  29.017  27.383  1.00  0.00    -0.354 N 
ATOM     29  N   UNL A   1      45.955  26.196  26.996  1.00  0.00    -0.248 NA
ATOM     30  C   UNL A   1      46.416  23.959  26.496  1.00  0.00     0.031 C 
ATOM     31  C   UNL A   1      49.071  29.404  27.094  1.00  0.00     0.029 A 
ATOM     32  C   UNL A   1      48.110  28.404  27.081  1.00  0.00     0.049 A 
ATOM     33  H   UNL A   1      46.038  28.559  27.436  1.00  0.00     0.167 HD
ATOM     34  C   UNL A   1      47.318  26.053  26.792  1.00  0.00     0.074 A 
ATOM     35  C   UNL A   1      47.550  24.646  26.521  1.00  0.00     0.031 C 
ATOM     36  C   UNL A   1      48.291  26.996  26.818  1.00  0.00     0.037 A 
BRANCH  23  37
ATOM     37  C   UNL A   1      46.389  32.745  28.197  1.00  0.00     0.058 A 
ATOM     38  C   UNL A   1      46.711  33.183  29.492  1.00  0.00     0.135 A 
ATOM     39  C   UNL A   1      46.316  33.704  27.176  1.00  0.00     0.135 A 
ATOM     40  F   UNL A   1      46.753  32.308  30.511  1.00  0.00    -0.206 F 
ATOM     41  C   UNL A   1      46.921  34.528  29.773  1.00  0.00     0.059 A 
ATOM     42  C   UNL A   1      46.544  35.053  27.430  1.00  0.00     0.059 A 
ATOM     43  F   UNL A   1      45.990  33.338  25.928  1.00  0.00    -0.206 F 
ATOM     44  C   UNL A   1      46.828  35.457  28.734  1.00  0.00     0.060 A 
BRANCH  44  45
ATOM     45  S   UNL A   1      47.074  37.202  29.119  1.00  0.00     0.124 S 
ATOM     46  O   UNL A   1      47.958  37.617  28.033  1.00  0.00    -0.237 OA
ATOM     47  O   UNL A   1      45.715  37.729  29.064  1.00  0.00    -0.237 OA
ATOM     48  O   UNL A   1      47.680  37.175  30.446  1.00  0.00    -0.744 OA
ENDBRANCH  44  45
ENDBRANCH  23  37
BRANCH  24  49
ATOM     49  C   UNL A   1      43.574  23.167  26.737  1.00  0.00     0.058 A 
ATOM     50  C   UNL A   1      43.203  22.340  27.808  1.00  0.00     0.135 A 
ATOM     51  C   UNL A   1      43.548  22.603  25.449  1.00  0.00     0.135 A 
ATOM     52  F   UNL A   1      43.207  22.822  29.060  1.00  0.00    -0.206 F 
ATOM     53  C   UNL A   1      42.855  21.003  27.619  1.00  0.00     0.059 A 
ATOM     54  C   UNL A   1      43.176  21.279  25.230  1.00  0.00     0.059 A 
ATOM     55  F   UNL A   1      43.871  23.350  24.381  1.00  0.00    -0.206 F 
ATOM     56  C   UNL A   1      42.850  20.480  26.324  1.00  0.00     0.060 A 
BRANCH  56  57
ATOM     57  S   UNL A   1      42.389  18.749  26.082  1.00  0.00     0.124 S 
ATOM     58  O   UNL A   1      42.624  18.196  27.410  1.00  0.00    -0.237 OA
ATOM     59  O   UNL A   1      40.993  18.856  25.671  1.00  0.00    -0.237 OA
ATOM     60  O   UNL A   1      43.308  18.302  25.040  1.00  0.00    -0.744 OA
ENDBRANCH  56  57
ENDBRANCH  24  49
BRANCH  36  61
ATOM     61  C   UNL A   1      49.689  26.519  26.565  1.00  0.00     0.058 A 
ATOM     62  C   UNL A   1      50.506  26.058  27.608  1.00  0.00     0.135 A 
ATOM     63  C   UNL A   1      50.199  26.489  25.258  1.00  0.00     0.135 A 
ATOM     64  F   UNL A   1      50.061  26.078  28.875  1.00  0.00    -0.206 F 
ATOM     65  C   UNL A   1      51.795  25.602  27.367  1.00  0.00     0.059 A 
ATOM     66  C   UNL A   1      51.476  26.013  24.991  1.00  0.00     0.059 A 
ATOM     67  F   UNL A   1      49.450  26.915  24.230  1.00  0.00    -0.206 F 
ATOM     68  C   UNL A   1      52.270  25.582  26.054  1.00  0.00     0.060 A 
BRANCH  68  69
ATOM     69  S   UNL A   1      53.934  24.956  25.745  1.00  0.00     0.124 S 
ATOM     70  O   UNL A   1      54.592  25.240  27.015  1.00  0.00    -0.237 OA
ATOM     71  O   UNL A   1      53.690  23.546  25.457  1.00  0.00    -0.237 OA
ATOM     72  O   UNL A   1      54.388  25.752  24.609  1.00  0.00    -0.744 OA
ENDBRANCH  68  69
ENDBRANCH  36  61
ENDBRANCH  10  11
ENDBRANCH   3   5
ENDBRANCH   2   3
ENDBRANCH   1   2
BRANCH   1  73
ATOM     73  C   UNL A   1      33.891  29.440  27.700  1.00  0.00     0.275 C 
BRANCH  73  74
ATOM     74  O   UNL A   1      32.557  29.667  27.225  1.00  0.00    -0.458 OA
BRANCH  74  75
ATOM     75  C   UNL A   1      31.775  28.560  27.147  1.00  0.00     0.338 C 
ATOM     76  O   UNL A   1      31.343  27.924  28.095  1.00  0.00    -0.246 OA
BRANCH  75  77
ATOM     77  C   UNL A   1      31.426  28.252  25.738  1.00  0.00     0.067 A 
ATOM     78  C   UNL A   1      31.550  29.323  24.837  1.00  0.00     0.016 A 
ATOM     79  C   UNL A   1      30.966  26.996  25.289  1.00  0.00    -0.010 A 
ATOM     80  C   UNL A   1      31.245  29.152  23.489  1.00  0.00     0.001 A 
ATOM     81  C   UNL A   1      30.604  26.867  23.938  1.00  0.00     0.009 A 
ATOM     82  C   UNL A   1      30.764  27.926  23.042  1.00  0.00     0.001 A 
BRANCH  79  83
ATOM     83  C   UNL A   1      30.889  25.786  26.133  1.00  0.00     0.030 C 
ATOM     84  C   UNL A   1      31.901  24.958  26.396  1.00  0.00     0.081 C 
ATOM     85  S   UNL A   1      31.726  23.383  27.047  1.00  0.00    -0.054 SA
ATOM     86  C   UNL A   1      33.269  25.142  25.899  1.00  0.00     0.266 C 
ATOM     87  C   UNL A   1      33.199  22.831  26.235  1.00  0.00     0.148 C 
ATOM     88  N   UNL A   1      33.821  23.904  25.627  1.00  0.00    -0.290 N 
ATOM     89  O   UNL A   1      33.802  26.233  25.747  1.00  0.00    -0.268 OA
ATOM     90  S   UNL A   1      33.631  21.220  26.262  1.00  0.00    -0.052 S 
BRANCH  88  91
ATOM     91  C   UNL A   1      35.029  23.927  24.815  1.00  0.00     0.092 C 
ATOM     92  C   UNL A   1      36.299  23.554  25.560  1.00  0.00     0.025 C 
ATOM     93  C   UNL A   1      35.036  23.088  23.537  1.00  0.00     0.025 C 
ATOM     94  C   UNL A   1      37.297  23.425  24.425  1.00  0.00     0.002 C 
ATOM     95  C   UNL A   1      36.512  22.786  23.280  1.00  0.00     0.002 C 
ENDBRANCH  88  91
ENDBRANCH  79  83
ENDBRANCH  75  77
ENDBRANCH  74  75
ENDBRANCH  73  74
ENDBRANCH   1  73
TORSDOF 16
ENDMDL
MODEL 2
REMARK VINA RESULT:     -11.7      0.645      8.215
REMARK SMILES O=C(OCCOC(=O)c1ccccc1/C=C1/SC(=S)N(C2CCCC2)C1=O)c1ccc(-c2c3nc(c(-c4c(F)cc(S(=O)(=O)[O-])cc4F)c4ccc([nH]4)c(-c4c(F)cc(S(=O)(=O)[O-])cc4F)c4nc(c(-c5c(F)cc(S(=O)(=O)[O-])cc5F)c5ccc2[nH]5)C=C4)C=C3)cc1
REMARK SMILES IDX 4 1 3 2 2 3 1 4 28 5 29 6 93 7 30 8 92 9 31 10 32 11 33 12
REMARK SMILES IDX 86 13 34 14 91 15 85 16 87 17 35 18 90 19 84 20 83 21 36 23
REMARK SMILES IDX 70 24 49 25 69 26 50 27 53 28 68 29 88 30 51 31 52 32 67 34
REMARK SMILES IDX 89 35 54 36 37 37 38 38 47 39 39 40 40 41 46 42 48 43 41 44
REMARK SMILES IDX 42 45 43 46 44 47 45 48 71 49 72 50 81 51 73 52 74 53 80 54
REMARK SMILES IDX 82 55 75 56 76 57 77 58 78 59 79 60 55 61 56 62 65 63 57 64
REMARK SMILES IDX 58 65 64 66 66 67 59 68 60 69 61 70 62 71 63 72 5 73 6 74
REMARK SMILES IDX 7 75 8 76 9 77 10 78 14 79 11 80 13 81 12 82 15 83 16 84
REMARK SMILES IDX 17 85 26 86 18 87 20 88 27 89 19 90 21 91 22 92 25 93 23 94
REMARK SMILES IDX 24 95
REMARK H PARENT 87 22 53 33
REMARK Flexibility Score: inf
ROOT
ATOM      1  C   UNL A   1      34.802  30.594  27.616  1.00  0.00     0.275 C 
ENDROOT
BRANCH   1   2
ATOM      2  O   UNL A   1      35.457  30.862  28.870  1.00  0.00    -0.458 OA
BRANCH   2   3
ATOM      3  C   UNL A   1      36.317  30.115  29.601  1.00  0.00     0.338 C 
ATOM      4  O   UNL A   1      35.916  29.652  30.669  1.00  0.00    -0.246 OA
BRANCH   3   5
ATOM      5  C   UNL A   1      37.760  29.887  29.253  1.00  0.00     0.060 A 
ATOM      6  C   UNL A   1      38.276  29.679  27.973  1.00  0.00     0.016 A 
ATOM      7  C   UNL A   1      38.666  29.853  30.334  1.00  0.00     0.016 A 
ATOM      8  C   UNL A   1      39.646  29.487  27.770  1.00  0.00     0.010 A 
ATOM      9  C   UNL A   1      40.039  29.653  30.139  1.00  0.00     0.010 A 
ATOM     10  C   UNL A   1      40.533  29.455  28.849  1.00  0.00    -0.014 A 
BRANCH  10  11
ATOM     11  C   UNL A   1      41.945  29.080  28.594  1.00  0.00     0.031 A 
ATOM     12  C   UNL A   1      42.252  27.661  28.268  1.00  0.00     0.074 A 
ATOM     13  C   UNL A   1      42.906  30.019  28.536  1.00  0.00     0.049 A 
ATOM     14  N   UNL A   1      43.383  27.144  27.880  1.00  0.00    -0.248 NA
ATOM     15  C   UNL A   1      41.143  26.700  28.383  1.00  0.00     0.031 C 
ATOM     16  C   UNL A   1      42.667  31.415  28.840  1.00  0.00     0.029 A 
ATOM     17  N   UNL A   1      44.231  29.988  28.199  1.00  0.00    -0.354 N 
ATOM     18  C   UNL A   1      43.120  25.800  27.672  1.00  0.00     0.074 A 
ATOM     19  C   UNL A   1      41.734  25.572  28.023  1.00  0.00     0.031 C 
ATOM     20  C   UNL A   1      43.779  32.135  28.646  1.00  0.00     0.029 A 
ATOM     21  C   UNL A   1      44.840  31.228  28.236  1.00  0.00     0.049 A 
ATOM     22  H   UNL A   1      44.706  29.162  27.954  1.00  0.00     0.167 HD
ATOM     23  C   UNL A   1      43.965  24.853  27.212  1.00  0.00     0.037 A 
ATOM     24  C   UNL A   1      46.113  31.582  27.976  1.00  0.00     0.037 A 
ATOM     25  C   UNL A   1      45.352  25.102  26.927  1.00  0.00     0.049 A 
ATOM     26  C   UNL A   1      47.049  30.490  27.538  1.00  0.00     0.074 A 
ATOM     27  C   UNL A   1      46.330  24.205  26.542  1.00  0.00     0.029 A 
ATOM     28  N   UNL A   1      45.960  26.350  27.011  1.00  0.00    -0.354 N 
ATOM     29  N   UNL A   1      46.784  29.217  27.349  1.00  0.00    -0.248 NA
ATOM     30  C   UNL A   1      48.443  30.864  27.281  1.00  0.00     0.031 C 
ATOM     31  C   UNL A   1      47.536  24.906  26.422  1.00  0.00     0.029 A 
ATOM     32  C   UNL A   1      47.302  26.247  26.691  1.00  0.00     0.049 A 
ATOM     33  H   UNL A   1      45.502  27.185  27.261  1.00  0.00     0.167 HD
ATOM     34  C   UNL A   1      47.975  28.639  26.941  1.00  0.00     0.074 A 
ATOM     35  C   UNL A   1      48.956  29.707  26.884  1.00  0.00     0.031 C 
ATOM     36  C   UNL A   1      48.241  27.342  26.647  1.00  0.00     0.037 A 
BRANCH  23  37
ATOM     37  C   UNL A   1      43.393  23.480  27.037  1.00  0.00     0.058 A 
ATOM     38  C   UNL A   1      42.936  23.037  25.785  1.00  0.00     0.135 A 
ATOM     39  C   UNL A   1      43.238  22.622  28.136  1.00  0.00     0.135 A 
ATOM     40  F   UNL A   1      43.026  23.838  24.710  1.00  0.00    -0.206 F 
ATOM     41  C   UNL A   1      42.316  21.802  25.633  1.00  0.00     0.059 A 
ATOM     42  C   UNL A   1      42.640  21.373  28.003  1.00  0.00     0.059 A 
ATOM     43  F   UNL A   1      43.639  23.009  29.356  1.00  0.00    -0.206 F 
ATOM     44  C   UNL A   1      42.166  20.980  26.752  1.00  0.00     0.060 A 
BRANCH  44  45
ATOM     45  S   UNL A   1      41.333  19.393  26.546  1.00  0.00     0.124 S 
ATOM     46  O   UNL A   1      41.183  18.961  27.933  1.00  0.00    -0.237 OA
ATOM     47  O   UNL A   1      40.101  19.773  25.864  1.00  0.00    -0.237 OA
ATOM     48  O   UNL A   1      42.275  18.617  25.745  1.00  0.00    -0.744 OA
ENDBRANCH  44  45
ENDBRANCH  23  37
BRANCH  24  49
ATOM     49  C   UNL A   1      46.573  32.991  28.139  1.00  0.00     0.058 A 
ATOM     50  C   UNL A   1      47.060  33.471  29.365  1.00  0.00     0.135 A 
ATOM     51  C   UNL A   1      46.517  33.900  27.068  1.00  0.00     0.135 A 
ATOM     52  F   UNL A   1      47.138  32.649  30.423  1.00  0.00    -0.206 F 
ATOM     53  C   UNL A   1      47.443  34.800  29.534  1.00  0.00     0.059 A 
ATOM     54  C   UNL A   1      46.921  35.227  27.204  1.00  0.00     0.059 A 
ATOM     55  F   UNL A   1      46.082  33.496  25.865  1.00  0.00    -0.206 F 
ATOM     56  C   UNL A   1      47.364  35.673  28.447  1.00  0.00     0.060 A 
BRANCH  56  57
ATOM     57  S   UNL A   1      47.870  37.394  28.669  1.00  0.00     0.124 S 
ATOM     58  O   UNL A   1      47.973  37.484  30.120  1.00  0.00    -0.237 OA
ATOM     59  O   UNL A   1      49.129  37.443  27.934  1.00  0.00    -0.237 OA
ATOM     60  O   UNL A   1      46.772  38.145  28.066  1.00  0.00    -0.744 OA
ENDBRANCH  56  57
ENDBRANCH  24  49
BRANCH  36  61
ATOM     61  C   UNL A   1      49.643  27.029  26.221  1.00  0.00     0.058 A 
ATOM     62  C   UNL A   1      50.634  26.693  27.155  1.00  0.00     0.135 A 
ATOM     63  C   UNL A   1      49.984  27.030  24.860  1.00  0.00     0.135 A 
ATOM     64  F   UNL A   1      50.353  26.689  28.468  1.00  0.00    -0.206 F 
ATOM     65  C   UNL A   1      51.929  26.388  26.754  1.00  0.00     0.059 A 
ATOM     66  C   UNL A   1      51.266  26.703  24.435  1.00  0.00     0.059 A 
ATOM     67  F   UNL A   1      49.066  27.340  23.932  1.00  0.00    -0.206 F 
ATOM     68  C   UNL A   1      52.234  26.395  25.391  1.00  0.00     0.060 A 
BRANCH  68  69
ATOM     69  S   UNL A   1      53.909  25.965  24.878  1.00  0.00     0.124 S 
ATOM     70  O   UNL A   1      54.645  26.114  26.128  1.00  0.00    -0.237 OA
ATOM     71  O   UNL A   1      53.747  24.596  24.395  1.00  0.00    -0.237 OA
ATOM     72  O   UNL A   1      54.210  26.954  23.848  1.00  0.00    -0.744 OA
ENDBRANCH  68  69
ENDBRANCH  36  61
ENDBRANCH  10  11
ENDBRANCH   3   5
ENDBRANCH   2   3
ENDBRANCH   1   2
BRANCH   1  73
ATOM     73  C   UNL A   1      33.912  29.353  27.623  1.00  0.00     0.275 C 
BRANCH  73  74
ATOM     74  O   UNL A   1      32.582  29.616  27.155  1.00  0.00    -0.458 OA
BRANCH  74  75
ATOM     75  C   UNL A   1      31.776  28.528  27.063  1.00  0.00     0.338 C 
ATOM     76  O   UNL A   1      31.282  27.925  28.002  1.00  0.00    -0.246 OA
BRANCH  75  77
ATOM     77  C   UNL A   1      31.486  28.197  25.645  1.00  0.00     0.067 A 
ATOM     78  C   UNL A   1      31.649  29.254  24.734  1.00  0.00     0.016 A 
ATOM     79  C   UNL A   1      31.043  26.935  25.198  1.00  0.00    -0.010 A 
ATOM     80  C   UNL A   1      31.402  29.062  23.376  1.00  0.00     0.001 A 
ATOM     81  C   UNL A   1      30.738  26.785  23.835  1.00  0.00     0.009 A 
ATOM     82  C   UNL A   1      30.937  27.829  22.930  1.00  0.00     0.001 A 
BRANCH  79  83
ATOM     83  C   UNL A   1      30.928  25.740  26.057  1.00  0.00     0.030 C 
ATOM     84  C   UNL A   1      31.925  24.912  26.373  1.00  0.00     0.081 C 
ATOM     85  S   UNL A   1      31.719  23.348  27.041  1.00  0.00    -0.054 SA
ATOM     86  C   UNL A   1      33.313  25.083  25.926  1.00  0.00     0.266 C 
ATOM     87  C   UNL A   1      33.219  22.778  26.295  1.00  0.00     0.148 C 
ATOM     88  N   UNL A   1      33.869  23.838  25.694  1.00  0.00    -0.290 N 
ATOM     89  O   UNL A   1      33.855  26.169  25.777  1.00  0.00    -0.268 OA
ATOM     90  S   UNL A   1      33.643  21.166  26.364  1.00  0.00    -0.052 S 
BRANCH  88  91
ATOM     91  C   UNL A   1      35.107  23.844  24.930  1.00  0.00     0.092 C 
ATOM     92  C   UNL A   1      36.347  23.485  25.731  1.00  0.00     0.025 C 
ATOM     93  C   UNL A   1      35.163  22.979  23.670  1.00  0.00     0.025 C 
ATOM     94  C   UNL A   1      37.389  23.332  24.638  1.00  0.00     0.002 C 
ATOM     95  C   UNL A   1      36.648  22.670  23.477  1.00  0.00     0.002 C 
ENDBRANCH  88  91
ENDBRANCH  79  83
ENDBRANCH  75  77
ENDBRANCH  74  75
ENDBRANCH  73  74
ENDBRANCH   1  73
TORSDOF 16
ENDMDL
MODEL 3
REMARK VINA RESULT:     -11.4      2.315      8.830
REMARK SMILES O=C(OCCOC(=O)c1ccccc1/C=C1/SC(=S)N(C2CCCC2)C1=O)c1ccc(-c2c3nc(c(-c4c(F)cc(S(=O)(=O)[O-])cc4F)c4ccc([nH]4)c(-c4c(F)cc(S(=O)(=O)[O-])cc4F)c4nc(c(-c5c(F)cc(S(=O)(=O)[O-])cc5F)c5ccc2[nH]5)C=C4)C=C3)cc1
REMARK SMILES IDX 4 1 3 2 2 3 1 4 28 5 29 6 93 7 30 8 92 9 31 10 32 11 33 12
REMARK SMILES IDX 86 13 34 14 91 15 85 16 87 17 35 18 90 19 84 20 83 21 36 23
REMARK SMILES IDX 70 24 49 25 69 26 50 27 53 28 68 29 88 30 51 31 52 32 67 34
REMARK SMILES IDX 89 35 54 36 37 37 38 38 47 39 39 40 40 41 46 42 48 43 41 44
REMARK SMILES IDX 42 45 43 46 44 47 45 48 71 49 72 50 81 51 73 52 74 53 80 54
REMARK SMILES IDX 82 55 75 56 76 57 77 58 78 59 79 60 55 61 56 62 65 63 57 64
REMARK SMILES IDX 58 65 64 66 66 67 59 68 60 69 61 70 62 71 63 72 5 73 6 74
REMARK SMILES IDX 7 75 8 76 9 77 10 78 14 79 11 80 13 81 12 82 15 83 16 84
REMARK SMILES IDX 17 85 26 86 18 87 20 88 27 89 19 90 21 91 22 92 25 93 23 94
REMARK SMILES IDX 24 95
REMARK H PARENT 87 22 53 33
REMARK Flexibility Score: inf
ROOT
ATOM      1  C   UNL A   1      38.866  20.815  26.069  1.00  0.00     0.275 C 
ENDROOT
BRANCH   1   2
ATOM      2  O   UNL A   1      39.939  19.876  25.881  1.00  0.00    -0.458 OA
BRANCH   2   3
ATOM      3  C   UNL A   1      41.264  19.976  26.142  1.00  0.00     0.338 C 
ATOM      4  O   UNL A   1      41.941  18.948  26.093  1.00  0.00    -0.246 OA
BRANCH   3   5
ATOM      5  C   UNL A   1      41.957  21.233  26.581  1.00  0.00     0.060 A 
ATOM      6  C   UNL A   1      42.264  21.589  27.895  1.00  0.00     0.016 A 
ATOM      7  C   UNL A   1      42.302  22.146  25.562  1.00  0.00     0.016 A 
ATOM      8  C   UNL A   1      42.924  22.787  28.183  1.00  0.00     0.010 A 
ATOM      9  C   UNL A   1      42.956  23.352  25.843  1.00  0.00     0.010 A 
ATOM     10  C   UNL A   1      43.259  23.683  27.164  1.00  0.00    -0.014 A 
BRANCH  10  11
ATOM     11  C   UNL A   1      43.804  25.010  27.540  1.00  0.00     0.031 A 
ATOM     12  C   UNL A   1      45.255  25.266  27.325  1.00  0.00     0.074 A 
ATOM     13  C   UNL A   1      42.988  25.998  27.949  1.00  0.00     0.049 A 
ATOM     14  N   UNL A   1      45.909  26.386  27.452  1.00  0.00    -0.248 NA
ATOM     15  C   UNL A   1      46.073  24.119  26.901  1.00  0.00     0.031 C 
ATOM     16  C   UNL A   1      41.570  25.810  28.174  1.00  0.00     0.029 A 
ATOM     17  N   UNL A   1      43.182  27.323  28.228  1.00  0.00    -0.354 N 
ATOM     18  C   UNL A   1      47.214  26.090  27.095  1.00  0.00     0.074 A 
ATOM     19  C   UNL A   1      47.270  24.676  26.792  1.00  0.00     0.031 C 
ATOM     20  C   UNL A   1      40.991  26.968  28.518  1.00  0.00     0.029 A 
ATOM     21  C   UNL A   1      42.025  27.989  28.580  1.00  0.00     0.049 A 
ATOM     22  H   UNL A   1      44.063  27.760  28.183  1.00  0.00     0.167 HD
ATOM     23  C   UNL A   1      48.261  26.938  27.015  1.00  0.00     0.037 A 
ATOM     24  C   UNL A   1      41.830  29.277  28.920  1.00  0.00     0.037 A 
ATOM     25  C   UNL A   1      48.185  28.327  27.379  1.00  0.00     0.049 A 
ATOM     26  C   UNL A   1      43.032  30.180  28.894  1.00  0.00     0.074 A 
ATOM     27  C   UNL A   1      49.198  29.265  27.426  1.00  0.00     0.029 A 
ATOM     28  N   UNL A   1      47.017  28.973  27.773  1.00  0.00    -0.354 N 
ATOM     29  N   UNL A   1      44.266  29.883  28.556  1.00  0.00    -0.248 NA
ATOM     30  C   UNL A   1      42.831  31.577  29.291  1.00  0.00     0.031 C 
ATOM     31  C   UNL A   1      48.648  30.471  27.877  1.00  0.00     0.029 A 
ATOM     32  C   UNL A   1      47.286  30.297  28.071  1.00  0.00     0.049 A 
ATOM     33  H   UNL A   1      46.131  28.550  27.830  1.00  0.00     0.167 HD
ATOM     34  C   UNL A   1      44.988  31.058  28.689  1.00  0.00     0.074 A 
ATOM     35  C   UNL A   1      44.047  32.078  29.113  1.00  0.00     0.031 C 
ATOM     36  C   UNL A   1      46.312  31.276  28.489  1.00  0.00     0.037 A 
BRANCH  23  37
ATOM     37  C   UNL A   1      49.558  26.350  26.550  1.00  0.00     0.058 A 
ATOM     38  C   UNL A   1      50.459  25.767  27.456  1.00  0.00     0.135 A 
ATOM     39  C   UNL A   1      49.939  26.428  25.202  1.00  0.00     0.135 A 
ATOM     40  F   UNL A   1      50.157  25.705  28.764  1.00  0.00    -0.206 F 
ATOM     41  C   UNL A   1      51.705  25.306  27.048  1.00  0.00     0.059 A 
ATOM     42  C   UNL A   1      51.172  25.954  24.767  1.00  0.00     0.059 A 
ATOM     43  F   UNL A   1      49.122  26.997  24.302  1.00  0.00    -0.206 F 
ATOM     44  C   UNL A   1      52.055  25.412  25.700  1.00  0.00     0.060 A 
BRANCH  44  45
ATOM     45  S   UNL A   1      53.688  24.838  25.189  1.00  0.00     0.124 S 
ATOM     46  O   UNL A   1      53.898  25.609  23.968  1.00  0.00    -0.237 OA
ATOM     47  O   UNL A   1      54.521  25.213  26.327  1.00  0.00    -0.237 OA
ATOM     48  O   UNL A   1      53.498  23.402  25.002  1.00  0.00    -0.744 OA
ENDBRANCH  44  45
ENDBRANCH  23  37
BRANCH  24  49
ATOM     49  C   UNL A   1      40.484  29.775  29.326  1.00  0.00     0.058 A 
ATOM     50  C   UNL A   1      40.181  30.074  30.664  1.00  0.00     0.135 A 
ATOM     51  C   UNL A   1      39.458  29.946  28.380  1.00  0.00     0.135 A 
ATOM     52  F   UNL A   1      41.120  29.932  31.611  1.00  0.00    -0.206 F 
ATOM     53  C   UNL A   1      38.909  30.491  31.054  1.00  0.00     0.059 A 
ATOM     54  C   UNL A   1      38.187  30.388  28.740  1.00  0.00     0.059 A 
ATOM     55  F   UNL A   1      39.692  29.698  27.082  1.00  0.00    -0.206 F 
ATOM     56  C   UNL A   1      37.916  30.639  30.083  1.00  0.00     0.060 A 
BRANCH  56  57
ATOM     57  S   UNL A   1      36.271  31.188  30.593  1.00  0.00     0.124 S 
ATOM     58  O   UNL A   1      36.543  32.547  31.047  1.00  0.00    -0.237 OA
ATOM     59  O   UNL A   1      35.509  31.069  29.355  1.00  0.00    -0.237 OA
ATOM     60  O   UNL A   1      35.909  30.234  31.637  1.00  0.00    -0.744 OA
ENDBRANCH  56  57
ENDBRANCH  24  49
BRANCH  36  61
ATOM     61  C   UNL A   1      46.796  32.677  28.710  1.00  0.00     0.058 A 
ATOM     62  C   UNL A   1      47.270  33.099  29.961  1.00  0.00     0.135 A 
ATOM     63  C   UNL A   1      46.821  33.592  27.646  1.00  0.00     0.135 A 
ATOM     64  F   UNL A   1      47.255  32.259  31.009  1.00  0.00    -0.206 F 
ATOM     65  C   UNL A   1      47.733  34.394  30.158  1.00  0.00     0.059 A 
ATOM     66  C   UNL A   1      47.303  34.883  27.814  1.00  0.00     0.059 A 
ATOM     67  F   UNL A   1      46.383  33.229  26.431  1.00  0.00    -0.206 F 
ATOM     68  C   UNL A   1      47.746  35.278  29.076  1.00  0.00     0.060 A 
BRANCH  68  69
ATOM     69  S   UNL A   1      48.381  36.947  29.332  1.00  0.00     0.124 S 
ATOM     70  O   UNL A   1      48.433  37.019  30.788  1.00  0.00    -0.237 OA
ATOM     71  O   UNL A   1      49.673  36.899  28.652  1.00  0.00    -0.237 OA
ATOM     72  O   UNL A   1      47.376  37.792  28.695  1.00  0.00    -0.744 OA
ENDBRANCH  68  69
ENDBRANCH  36  61
ENDBRANCH  10  11
ENDBRANCH   3   5
ENDBRANCH   2   3
ENDBRANCH   1   2
BRANCH   1  73
ATOM     73  C   UNL A   1      37.982  21.016  24.839  1.00  0.00     0.275 C 
BRANCH  73  74
ATOM     74  O   UNL A   1      37.248  22.248  24.873  1.00  0.00    -0.458 OA
BRANCH  74  75
ATOM     75  C   UNL A   1      36.352  22.414  23.867  1.00  0.00     0.338 C 
ATOM     76  O   UNL A   1      36.612  22.802  22.738  1.00  0.00    -0.246 OA
BRANCH  75  77
ATOM     77  C   UNL A   1      34.996  21.977  24.281  1.00  0.00     0.067 A 
ATOM     78  C   UNL A   1      34.960  20.976  25.266  1.00  0.00     0.016 A 
ATOM     79  C   UNL A   1      33.797  22.478  23.732  1.00  0.00    -0.010 A 
ATOM     80  C   UNL A   1      33.742  20.485  25.731  1.00  0.00     0.001 A 
ATOM     81  C   UNL A   1      32.584  21.920  24.170  1.00  0.00     0.009 A 
ATOM     82  C   UNL A   1      32.555  20.951  25.175  1.00  0.00     0.001 A 
BRANCH  79  83
ATOM     83  C   UNL A   1      33.725  23.590  22.764  1.00  0.00     0.030 C 
ATOM     84  C   UNL A   1      33.738  24.888  23.070  1.00  0.00     0.081 C 
ATOM     85  S   UNL A   1      33.279  26.146  22.001  1.00  0.00    -0.054 SA
ATOM     86  C   UNL A   1      33.855  25.413  24.436  1.00  0.00     0.266 C 
ATOM     87  C   UNL A   1      32.760  27.169  23.349  1.00  0.00     0.148 C 
ATOM     88  N   UNL A   1      33.090  26.560  24.545  1.00  0.00    -0.290 N 
ATOM     89  O   UNL A   1      34.519  24.886  25.317  1.00  0.00    -0.268 OA
ATOM     90  S   UNL A   1      31.976  28.613  23.067  1.00  0.00    -0.052 S 
BRANCH  88  91
ATOM     91  C   UNL A   1      32.827  27.003  25.906  1.00  0.00     0.092 C 
ATOM     92  C   UNL A   1      33.520  28.298  26.294  1.00  0.00     0.025 C 
ATOM     93  C   UNL A   1      31.366  27.174  26.323  1.00  0.00     0.025 C 
ATOM     94  C   UNL A   1      32.864  28.613  27.626  1.00  0.00     0.002 C 
ATOM     95  C   UNL A   1      31.402  28.203  27.453  1.00  0.00     0.002 C 
ENDBRANCH  88  91
ENDBRANCH  79  83
ENDBRANCH  75  77
ENDBRANCH  74  75
ENDBRANCH  73  74
ENDBRANCH   1  73
TORSDOF 16
ENDMDL
