MODEL 1
REMARK VINA RESULT:     -10.3      0.000      0.000
REMARK SMILES CC(C)C[C@H](NC(=O)[C@@H](NC(=O)[C@H](C)NC(=O)CNC(=O)OCc1ccccc1)C(C)C)C(=O)OCCOC(=O)c1ccc(-c2c3nc(c(-c4c(F)cc(S(=O)(=O)[O-])cc4F)c4ccc([nH]4)c(-c4c(F)cc(S(=O)(=O)[O-])cc4F)c4nc(c(-c5c(F)cc(S(=O)(=O)[O-])cc5F)c5ccc2[nH]5)C=C4)C=C3)cc1
REMARK SMILES IDX 5 1 4 2 2 3 1 4 3 5 33 6 34 7 35 8 36 9 37 10 38 11 39 12
REMARK SMILES IDX 40 13 41 14 42 15 106 16 43 17 105 18 44 19 45 20 46 21
REMARK SMILES IDX 99 22 47 23 104 24 98 25 100 26 48 27 103 28 97 29 96 30
REMARK SMILES IDX 49 32 83 33 62 34 82 35 63 36 66 37 81 38 101 39 64 40 65 41
REMARK SMILES IDX 80 43 102 44 67 45 50 46 51 47 60 48 52 49 53 50 59 51 61 52
REMARK SMILES IDX 54 53 55 54 56 55 57 56 58 57 84 58 85 59 94 60 86 61 87 62
REMARK SMILES IDX 93 63 95 64 88 65 89 66 90 67 91 68 92 69 68 70 69 71 78 72
REMARK SMILES IDX 70 73 71 74 77 75 79 76 72 77 73 78 74 79 75 80 76 81 6 82
REMARK SMILES IDX 7 83 8 85 9 86 10 87 11 88 12 90 13 91 14 92 15 93 16 94
REMARK SMILES IDX 17 96 18 97 19 98 20 99 21 101 22 102 23 103 24 104 25 105
REMARK SMILES IDX 29 106 26 107 28 108 27 109 30 110 31 111 32 112
REMARK H PARENT 100 31 66 42 6 84 10 89 15 95 19 100
REMARK Flexibility Score: inf
ROOT
ATOM      1  C   UNL A   1      33.595  20.648  24.693  1.00  0.00     0.192 C 
ENDROOT
BRANCH   1   2
ATOM      2  C   UNL A   1      33.862  19.244  25.249  1.00  0.00     0.040 C 
BRANCH   2   3
ATOM      3  C   UNL A   1      33.286  18.031  24.486  1.00  0.00    -0.015 C 
ATOM      4  C   UNL A   1      34.291  17.223  23.666  1.00  0.00     0.007 C 
ATOM      5  C   UNL A   1      32.627  17.081  25.493  1.00  0.00     0.007 C 
ENDBRANCH   2   3
ENDBRANCH   1   2
BRANCH   1   6
ATOM      6  C   UNL A   1      34.960  21.349  24.502  1.00  0.00     0.328 C 
ATOM      7  O   UNL A   1      35.066  22.537  24.217  1.00  0.00    -0.250 OA
BRANCH   6   8
ATOM      8  O   UNL A   1      36.016  20.564  24.867  1.00  0.00    -0.461 OA
BRANCH   8   9
ATOM      9  C   UNL A   1      37.281  21.257  24.921  1.00  0.00     0.274 C 
BRANCH   9  10
ATOM     10  C   UNL A   1      38.452  20.370  25.366  1.00  0.00     0.275 C 
BRANCH  10  11
ATOM     11  O   UNL A   1      39.418  21.065  26.175  1.00  0.00    -0.458 OA
BRANCH  11  12
ATOM     12  C   UNL A   1      40.686  20.602  26.057  1.00  0.00     0.338 C 
ATOM     13  O   UNL A   1      41.011  19.485  25.681  1.00  0.00    -0.246 OA
BRANCH  12  14
ATOM     14  C   UNL A   1      41.668  21.679  26.290  1.00  0.00     0.060 A 
ATOM     15  C   UNL A   1      42.943  21.295  26.710  1.00  0.00     0.016 A 
ATOM     16  C   UNL A   1      41.349  23.036  26.171  1.00  0.00     0.016 A 
ATOM     17  C   UNL A   1      43.896  22.259  27.027  1.00  0.00     0.010 A 
ATOM     18  C   UNL A   1      42.312  24.004  26.490  1.00  0.00     0.010 A 
ATOM     19  C   UNL A   1      43.591  23.619  26.926  1.00  0.00    -0.014 A 
BRANCH  19  20
ATOM     20  C   UNL A   1      44.591  24.608  27.394  1.00  0.00     0.031 A 
ATOM     21  C   UNL A   1      44.528  25.089  28.815  1.00  0.00     0.074 A 
ATOM     22  C   UNL A   1      45.591  25.013  26.588  1.00  0.00     0.049 A 
ATOM     23  N   UNL A   1      45.256  25.992  29.418  1.00  0.00    -0.248 NA
ATOM     24  C   UNL A   1      43.514  24.455  29.673  1.00  0.00     0.031 C 
ATOM     25  C   UNL A   1      45.824  24.539  25.225  1.00  0.00     0.029 A 
ATOM     26  N   UNL A   1      46.602  25.916  26.807  1.00  0.00    -0.354 N 
ATOM     27  C   UNL A   1      44.784  26.045  30.723  1.00  0.00     0.074 A 
ATOM     28  C   UNL A   1      43.699  25.090  30.821  1.00  0.00     0.031 C 
ATOM     29  C   UNL A   1      46.899  25.171  24.721  1.00  0.00     0.029 A 
ATOM     30  C   UNL A   1      47.405  26.121  25.710  1.00  0.00     0.049 A 
ATOM     31  H   UNL A   1      46.739  26.375  27.668  1.00  0.00     0.167 HD
ATOM     32  C   UNL A   1      45.214  26.822  31.745  1.00  0.00     0.037 A 
ATOM     33  C   UNL A   1      48.412  26.998  25.518  1.00  0.00     0.037 A 
ATOM     34  C   UNL A   1      46.290  27.770  31.642  1.00  0.00     0.049 A 
ATOM     35  C   UNL A   1      48.803  27.929  26.638  1.00  0.00     0.074 A 
ATOM     36  C   UNL A   1      46.783  28.622  32.614  1.00  0.00     0.029 A 
ATOM     37  N   UNL A   1      47.039  27.997  30.497  1.00  0.00    -0.354 N 
ATOM     38  N   UNL A   1      48.326  27.999  27.858  1.00  0.00    -0.248 NA
ATOM     39  C   UNL A   1      49.864  28.907  26.353  1.00  0.00     0.031 C 
ATOM     40  C   UNL A   1      47.802  29.394  32.045  1.00  0.00     0.029 A 
ATOM     41  C   UNL A   1      47.976  28.990  30.731  1.00  0.00     0.049 A 
ATOM     42  H   UNL A   1      46.923  27.521  29.643  1.00  0.00     0.167 HD
ATOM     43  C   UNL A   1      49.041  29.013  28.490  1.00  0.00     0.074 A 
ATOM     44  C   UNL A   1      49.991  29.519  27.522  1.00  0.00     0.031 C 
ATOM     45  C   UNL A   1      48.920  29.480  29.758  1.00  0.00     0.037 A 
BRANCH  32  46
ATOM     46  C   UNL A   1      44.478  26.710  33.049  1.00  0.00     0.058 A 
ATOM     47  C   UNL A   1      44.869  25.803  34.045  1.00  0.00     0.135 A 
ATOM     48  C   UNL A   1      43.369  27.532  33.306  1.00  0.00     0.135 A 
ATOM     49  F   UNL A   1      45.910  24.980  33.840  1.00  0.00    -0.206 F 
ATOM     50  C   UNL A   1      44.169  25.696  35.244  1.00  0.00     0.059 A 
ATOM     51  C   UNL A   1      42.669  27.458  34.506  1.00  0.00     0.059 A 
ATOM     52  F   UNL A   1      42.952  28.412  32.383  1.00  0.00    -0.206 F 
ATOM     53  C   UNL A   1      43.067  26.526  35.462  1.00  0.00     0.060 A 
BRANCH  53  54
ATOM     54  S   UNL A   1      42.160  26.371  37.015  1.00  0.00     0.124 S 
ATOM     55  O   UNL A   1      43.208  26.651  37.992  1.00  0.00    -0.237 OA
ATOM     56  O   UNL A   1      41.130  27.397  36.880  1.00  0.00    -0.237 OA
ATOM     57  O   UNL A   1      41.676  24.995  36.991  1.00  0.00    -0.744 OA
ENDBRANCH  53  54
ENDBRANCH  32  46
BRANCH  33  58
ATOM     58  C   UNL A   1      49.092  27.078  24.197  1.00  0.00     0.058 A 
ATOM     59  C   UNL A   1      48.448  27.620  23.076  1.00  0.00     0.135 A 
ATOM     60  C   UNL A   1      50.398  26.588  24.027  1.00  0.00     0.135 A 
ATOM     61  F   UNL A   1      47.194  28.086  23.182  1.00  0.00    -0.206 F 
ATOM     62  C   UNL A   1      49.068  27.664  21.829  1.00  0.00     0.059 A 
ATOM     63  C   UNL A   1      51.046  26.643  22.798  1.00  0.00     0.059 A 
ATOM     64  F   UNL A   1      51.060  26.062  25.069  1.00  0.00    -0.206 F 
ATOM     65  C   UNL A   1      50.368  27.171  21.700  1.00  0.00     0.060 A 
BRANCH  65  66
ATOM     66  S   UNL A   1      51.180  27.258  20.089  1.00  0.00     0.124 S 
ATOM     67  O   UNL A   1      52.293  26.335  20.271  1.00  0.00    -0.237 OA
ATOM     68  O   UNL A   1      50.123  26.815  19.186  1.00  0.00    -0.237 OA
ATOM     69  O   UNL A   1      51.541  28.667  19.973  1.00  0.00    -0.744 OA
ENDBRANCH  65  66
ENDBRANCH  33  58
BRANCH  45  70
ATOM     70  C   UNL A   1      49.858  30.576  30.187  1.00  0.00     0.058 A 
ATOM     71  C   UNL A   1      49.515  31.930  30.064  1.00  0.00     0.135 A 
ATOM     72  C   UNL A   1      51.089  30.263  30.787  1.00  0.00     0.135 A 
ATOM     73  F   UNL A   1      48.352  32.284  29.493  1.00  0.00    -0.206 F 
ATOM     74  C   UNL A   1      50.367  32.939  30.503  1.00  0.00     0.059 A 
ATOM     75  C   UNL A   1      51.947  31.255  31.256  1.00  0.00     0.059 A 
ATOM     76  F   UNL A   1      51.462  28.982  30.940  1.00  0.00    -0.206 F 
ATOM     77  C   UNL A   1      51.581  32.591  31.100  1.00  0.00     0.060 A 
BRANCH  77  78
ATOM     78  S   UNL A   1      52.661  33.907  31.705  1.00  0.00     0.124 S 
ATOM     79  O   UNL A   1      53.734  33.883  30.717  1.00  0.00    -0.237 OA
ATOM     80  O   UNL A   1      51.786  35.075  31.663  1.00  0.00    -0.237 OA
ATOM     81  O   UNL A   1      53.028  33.456  33.044  1.00  0.00    -0.744 OA
ENDBRANCH  77  78
ENDBRANCH  45  70
ENDBRANCH  19  20
ENDBRANCH  12  14
ENDBRANCH  11  12
ENDBRANCH  10  11
ENDBRANCH   9  10
ENDBRANCH   8   9
ENDBRANCH   6   8
ENDBRANCH   1   6
BRANCH   1  82
ATOM     82  N   UNL A   1      32.805  20.618  23.449  1.00  0.00    -0.341 N 
ATOM     83  C   UNL A   1      32.197  21.522  22.640  1.00  0.00     0.243 C 
ATOM     84  H   UNL A   1      32.688  19.699  23.116  1.00  0.00     0.164 HD
ATOM     85  O   UNL A   1      31.808  21.050  21.560  1.00  0.00    -0.273 OA
BRANCH  83  86
ATOM     86  C   UNL A   1      31.948  23.056  22.897  1.00  0.00     0.174 C 
BRANCH  86  87
ATOM     87  N   UNL A   1      32.308  24.027  21.855  1.00  0.00    -0.342 N 
ATOM     88  C   UNL A   1      32.836  25.269  21.758  1.00  0.00     0.242 C 
ATOM     89  H   UNL A   1      32.104  23.668  20.962  1.00  0.00     0.164 HD
ATOM     90  O   UNL A   1      33.115  25.621  20.601  1.00  0.00    -0.273 OA
BRANCH  88  91
ATOM     91  C   UNL A   1      33.237  26.187  22.926  1.00  0.00     0.168 C 
ATOM     92  C   UNL A   1      33.954  27.409  22.353  1.00  0.00     0.041 C 
BRANCH  91  93
ATOM     93  N   UNL A   1      34.000  25.575  23.998  1.00  0.00    -0.343 N 
ATOM     94  C   UNL A   1      33.971  25.729  25.344  1.00  0.00     0.240 C 
ATOM     95  H   UNL A   1      34.667  24.920  23.688  1.00  0.00     0.164 HD
ATOM     96  O   UNL A   1      34.934  25.253  25.946  1.00  0.00    -0.273 OA
BRANCH  94  97
ATOM     97  C   UNL A   1      32.819  26.378  26.100  1.00  0.00     0.219 C 
BRANCH  97  98
ATOM     98  N   UNL A   1      33.118  27.746  26.436  1.00  0.00    -0.312 N 
ATOM     99  C   UNL A   1      32.609  28.835  25.810  1.00  0.00     0.407 C 
ATOM    100  H   UNL A   1      33.743  27.902  27.180  1.00  0.00     0.167 HD
ATOM    101  O   UNL A   1      33.122  29.940  25.963  1.00  0.00    -0.225 OA
BRANCH  99 102
ATOM    102  O   UNL A   1      31.600  28.532  24.959  1.00  0.00    -0.445 OA
BRANCH 102 103
ATOM    103  C   UNL A   1      31.392  29.428  23.858  1.00  0.00     0.270 C 
BRANCH 103 104
ATOM    104  C   UNL A   1      29.939  29.527  23.493  1.00  0.00    -0.011 A 
ATOM    105  C   UNL A   1      29.198  28.381  23.183  1.00  0.00     0.007 A 
ATOM    106  C   UNL A   1      29.285  30.764  23.581  1.00  0.00     0.007 A 
ATOM    107  C   UNL A   1      27.819  28.472  22.997  1.00  0.00     0.000 A 
ATOM    108  C   UNL A   1      27.907  30.850  23.413  1.00  0.00     0.000 A 
ATOM    109  C   UNL A   1      27.173  29.701  23.126  1.00  0.00     0.000 A 
ENDBRANCH 103 104
ENDBRANCH 102 103
ENDBRANCH  99 102
ENDBRANCH  97  98
ENDBRANCH  94  97
ENDBRANCH  91  93
ENDBRANCH  88  91
ENDBRANCH  86  87
BRANCH  86 110
ATOM    110  C   UNL A   1      30.726  23.479  23.770  1.00  0.00     0.015 C 
ATOM    111  C   UNL A   1      30.946  23.380  25.279  1.00  0.00     0.010 C 
ATOM    112  C   UNL A   1      30.269  24.911  23.432  1.00  0.00     0.010 C 
ENDBRANCH  86 110
ENDBRANCH  83  86
ENDBRANCH   1  82
TORSDOF 27
ENDMDL
MODEL 2
REMARK VINA RESULT:     -10.1      3.523      4.611
REMARK SMILES CC(C)C[C@H](NC(=O)[C@@H](NC(=O)[C@H](C)NC(=O)CNC(=O)OCc1ccccc1)C(C)C)C(=O)OCCOC(=O)c1ccc(-c2c3nc(c(-c4c(F)cc(S(=O)(=O)[O-])cc4F)c4ccc([nH]4)c(-c4c(F)cc(S(=O)(=O)[O-])cc4F)c4nc(c(-c5c(F)cc(S(=O)(=O)[O-])cc5F)c5ccc2[nH]5)C=C4)C=C3)cc1
REMARK SMILES IDX 5 1 4 2 2 3 1 4 3 5 33 6 34 7 35 8 36 9 37 10 38 11 39 12
REMARK SMILES IDX 40 13 41 14 42 15 106 16 43 17 105 18 44 19 45 20 46 21
REMARK SMILES IDX 99 22 47 23 104 24 98 25 100 26 48 27 103 28 97 29 96 30
REMARK SMILES IDX 49 32 83 33 62 34 82 35 63 36 66 37 81 38 101 39 64 40 65 41
REMARK SMILES IDX 80 43 102 44 67 45 50 46 51 47 60 48 52 49 53 50 59 51 61 52
REMARK SMILES IDX 54 53 55 54 56 55 57 56 58 57 84 58 85 59 94 60 86 61 87 62
REMARK SMILES IDX 93 63 95 64 88 65 89 66 90 67 91 68 92 69 68 70 69 71 78 72
REMARK SMILES IDX 70 73 71 74 77 75 79 76 72 77 73 78 74 79 75 80 76 81 6 82
REMARK SMILES IDX 7 83 8 85 9 86 10 87 11 88 12 90 13 91 14 92 15 93 16 94
REMARK SMILES IDX 17 96 18 97 19 98 20 99 21 101 22 102 23 103 24 104 25 105
REMARK SMILES IDX 29 106 26 107 28 108 27 109 30 110 31 111 32 112
REMARK H PARENT 100 31 66 42 6 84 10 89 15 95 19 100
REMARK Flexibility Score: inf
ROOT
ATOM      1  C   UNL A   1      34.824  21.712  24.704  1.00  0.00     0.192 C 
ENDROOT
BRANCH   1   2
ATOM      2  C   UNL A   1      34.638  20.198  24.867  1.00  0.00     0.040 C 
BRANCH   2   3
ATOM      3  C   UNL A   1      33.202  19.630  24.861  1.00  0.00    -0.015 C 
ATOM      4  C   UNL A   1      32.540  19.509  23.488  1.00  0.00     0.007 C 
ATOM      5  C   UNL A   1      33.219  18.236  25.499  1.00  0.00     0.007 C 
ENDBRANCH   2   3
ENDBRANCH   1   2
BRANCH   1   6
ATOM      6  C   UNL A   1      36.305  22.042  24.999  1.00  0.00     0.328 C 
ATOM      7  O   UNL A   1      36.750  23.185  24.982  1.00  0.00    -0.250 OA
BRANCH   6   8
ATOM      8  O   UNL A   1      37.007  20.967  25.461  1.00  0.00    -0.461 OA
BRANCH   8   9
ATOM      9  C   UNL A   1      38.441  21.123  25.403  1.00  0.00     0.274 C 
BRANCH   9  10
ATOM     10  C   UNL A   1      39.214  19.812  25.604  1.00  0.00     0.275 C 
BRANCH  10  11
ATOM     11  O   UNL A   1      40.202  19.887  26.647  1.00  0.00    -0.458 OA
BRANCH  11  12
ATOM     12  C   UNL A   1      41.478  19.720  26.223  1.00  0.00     0.338 C 
ATOM     13  O   UNL A   1      41.925  18.731  25.661  1.00  0.00    -0.246 OA
BRANCH  12  14
ATOM     14  C   UNL A   1      42.257  20.965  26.380  1.00  0.00     0.060 A 
ATOM     15  C   UNL A   1      42.405  21.462  27.676  1.00  0.00     0.016 A 
ATOM     16  C   UNL A   1      42.777  21.676  25.293  1.00  0.00     0.016 A 
ATOM     17  C   UNL A   1      43.055  22.673  27.892  1.00  0.00     0.010 A 
ATOM     18  C   UNL A   1      43.434  22.896  25.515  1.00  0.00     0.010 A 
ATOM     19  C   UNL A   1      43.571  23.404  26.818  1.00  0.00    -0.014 A 
BRANCH  19  20
ATOM     20  C   UNL A   1      44.142  24.746  27.080  1.00  0.00     0.031 A 
ATOM     21  C   UNL A   1      43.238  25.836  27.576  1.00  0.00     0.074 A 
ATOM     22  C   UNL A   1      45.465  24.969  26.956  1.00  0.00     0.049 A 
ATOM     23  N   UNL A   1      43.507  27.094  27.810  1.00  0.00    -0.248 NA
ATOM     24  C   UNL A   1      41.846  25.452  27.857  1.00  0.00     0.031 C 
ATOM     25  C   UNL A   1      46.462  23.966  26.586  1.00  0.00     0.029 A 
ATOM     26  N   UNL A   1      46.195  26.119  27.132  1.00  0.00    -0.354 N 
ATOM     27  C   UNL A   1      42.318  27.656  28.256  1.00  0.00     0.074 A 
ATOM     28  C   UNL A   1      41.322  26.604  28.249  1.00  0.00     0.031 C 
ATOM     29  C   UNL A   1      47.673  24.548  26.544  1.00  0.00     0.029 A 
ATOM     30  C   UNL A   1      47.531  25.972  26.845  1.00  0.00     0.049 A 
ATOM     31  H   UNL A   1      45.799  26.969  27.434  1.00  0.00     0.167 HD
ATOM     32  C   UNL A   1      42.078  28.934  28.633  1.00  0.00     0.037 A 
ATOM     33  C   UNL A   1      48.519  26.890  26.798  1.00  0.00     0.037 A 
ATOM     34  C   UNL A   1      43.070  29.976  28.636  1.00  0.00     0.049 A 
ATOM     35  C   UNL A   1      48.204  28.330  27.119  1.00  0.00     0.074 A 
ATOM     36  C   UNL A   1      42.917  31.309  28.976  1.00  0.00     0.029 A 
ATOM     37  N   UNL A   1      44.398  29.806  28.277  1.00  0.00    -0.354 N 
ATOM     38  N   UNL A   1      47.067  28.860  27.503  1.00  0.00    -0.248 NA
ATOM     39  C   UNL A   1      49.304  29.297  26.992  1.00  0.00     0.031 C 
ATOM     40  C   UNL A   1      44.144  31.953  28.783  1.00  0.00     0.029 A 
ATOM     41  C   UNL A   1      45.073  31.013  28.367  1.00  0.00     0.049 A 
ATOM     42  H   UNL A   1      44.803  28.952  28.000  1.00  0.00     0.167 HD
ATOM     43  C   UNL A   1      47.321  30.217  27.681  1.00  0.00     0.074 A 
ATOM     44  C   UNL A   1      48.721  30.424  27.376  1.00  0.00     0.031 C 
ATOM     45  C   UNL A   1      46.469  31.202  28.065  1.00  0.00     0.037 A 
BRANCH  32  46
ATOM     46  C   UNL A   1      40.670  29.282  29.023  1.00  0.00     0.058 A 
ATOM     47  C   UNL A   1      39.664  29.485  28.066  1.00  0.00     0.135 A 
ATOM     48  C   UNL A   1      40.324  29.402  30.378  1.00  0.00     0.135 A 
ATOM     49  F   UNL A   1      39.948  29.402  26.757  1.00  0.00    -0.206 F 
ATOM     50  C   UNL A   1      38.366  29.823  28.440  1.00  0.00     0.059 A 
ATOM     51  C   UNL A   1      39.028  29.717  30.775  1.00  0.00     0.059 A 
ATOM     52  F   UNL A   1      41.251  29.222  31.331  1.00  0.00    -0.206 F 
ATOM     53  C   UNL A   1      38.059  29.941  29.797  1.00  0.00     0.060 A 
BRANCH  53  54
ATOM     54  S   UNL A   1      36.377  30.391  30.270  1.00  0.00     0.124 S 
ATOM     55  O   UNL A   1      35.612  29.885  29.134  1.00  0.00    -0.237 OA
ATOM     56  O   UNL A   1      36.199  29.666  31.525  1.00  0.00    -0.237 OA
ATOM     57  O   UNL A   1      36.434  31.843  30.391  1.00  0.00    -0.744 OA
ENDBRANCH  53  54
ENDBRANCH  32  46
BRANCH  33  58
ATOM     58  C   UNL A   1      49.892  26.491  26.385  1.00  0.00     0.058 A 
ATOM     59  C   UNL A   1      50.785  25.902  27.291  1.00  0.00     0.135 A 
ATOM     60  C   UNL A   1      50.344  26.714  25.074  1.00  0.00     0.135 A 
ATOM     61  F   UNL A   1      50.406  25.684  28.560  1.00  0.00    -0.206 F 
ATOM     62  C   UNL A   1      52.083  25.561  26.919  1.00  0.00     0.059 A 
ATOM     63  C   UNL A   1      51.627  26.358  24.672  1.00  0.00     0.059 A 
ATOM     64  F   UNL A   1      49.528  27.271  24.166  1.00  0.00    -0.206 F 
ATOM     65  C   UNL A   1      52.495  25.795  25.605  1.00  0.00     0.060 A 
BRANCH  65  66
ATOM     66  S   UNL A   1      54.168  25.321  25.117  1.00  0.00     0.124 S 
ATOM     67  O   UNL A   1      54.325  26.048  23.863  1.00  0.00    -0.237 OA
ATOM     68  O   UNL A   1      54.966  25.803  26.240  1.00  0.00    -0.237 OA
ATOM     69  O   UNL A   1      54.083  23.869  24.998  1.00  0.00    -0.744 OA
ENDBRANCH  65  66
ENDBRANCH  33  58
BRANCH  45  70
ATOM     70  C   UNL A   1      47.031  32.591  28.207  1.00  0.00     0.058 A 
ATOM     71  C   UNL A   1      46.891  33.550  27.194  1.00  0.00     0.135 A 
ATOM     72  C   UNL A   1      47.664  32.983  29.398  1.00  0.00     0.135 A 
ATOM     73  F   UNL A   1      46.299  33.226  26.032  1.00  0.00    -0.206 F 
ATOM     74  C   UNL A   1      47.373  34.847  27.348  1.00  0.00     0.059 A 
ATOM     75  C   UNL A   1      48.133  34.280  29.584  1.00  0.00     0.059 A 
ATOM     76  F   UNL A   1      47.815  32.107  30.404  1.00  0.00    -0.206 F 
ATOM     77  C   UNL A   1      47.991  35.203  28.548  1.00  0.00     0.060 A 
BRANCH  77  78
ATOM     78  S   UNL A   1      48.576  36.899  28.754  1.00  0.00     0.124 S 
ATOM     79  O   UNL A   1      49.908  36.685  29.308  1.00  0.00    -0.237 OA
ATOM     80  O   UNL A   1      48.533  37.415  27.389  1.00  0.00    -0.237 OA
ATOM     81  O   UNL A   1      47.602  37.487  29.669  1.00  0.00    -0.744 OA
ENDBRANCH  77  78
ENDBRANCH  45  70
ENDBRANCH  19  20
ENDBRANCH  12  14
ENDBRANCH  11  12
ENDBRANCH  10  11
ENDBRANCH   9  10
ENDBRANCH   8   9
ENDBRANCH   6   8
ENDBRANCH   1   6
BRANCH   1  82
ATOM     82  N   UNL A   1      34.401  22.188  23.374  1.00  0.00    -0.341 N 
ATOM     83  C   UNL A   1      33.855  23.316  22.854  1.00  0.00     0.243 C 
ATOM     84  H   UNL A   1      34.557  21.508  22.679  1.00  0.00     0.164 HD
ATOM     85  O   UNL A   1      33.856  23.351  21.613  1.00  0.00    -0.273 OA
BRANCH  83  86
ATOM     86  C   UNL A   1      33.250  24.554  23.617  1.00  0.00     0.174 C 
BRANCH  86  87
ATOM     87  N   UNL A   1      33.289  24.584  25.085  1.00  0.00    -0.342 N 
ATOM     88  C   UNL A   1      32.587  24.094  26.133  1.00  0.00     0.242 C 
ATOM     89  H   UNL A   1      34.052  25.118  25.401  1.00  0.00     0.164 HD
ATOM     90  O   UNL A   1      33.127  24.259  27.238  1.00  0.00    -0.273 OA
BRANCH  88  91
ATOM     91  C   UNL A   1      31.297  23.257  26.060  1.00  0.00     0.168 C 
ATOM     92  C   UNL A   1      31.127  22.760  24.625  1.00  0.00     0.041 C 
BRANCH  91  93
ATOM     93  N   UNL A   1      30.087  23.887  26.554  1.00  0.00    -0.343 N 
ATOM     94  C   UNL A   1      29.492  25.070  26.267  1.00  0.00     0.240 C 
ATOM     95  H   UNL A   1      29.605  23.353  27.225  1.00  0.00     0.164 HD
ATOM     96  O   UNL A   1      28.615  25.419  27.059  1.00  0.00    -0.273 OA
BRANCH  94  97
ATOM     97  C   UNL A   1      29.807  25.904  25.032  1.00  0.00     0.219 C 
BRANCH  97  98
ATOM     98  N   UNL A   1      28.606  26.261  24.322  1.00  0.00    -0.312 N 
ATOM     99  C   UNL A   1      28.420  27.407  23.623  1.00  0.00     0.407 C 
ATOM    100  H   UNL A   1      27.860  25.619  24.345  1.00  0.00     0.167 HD
ATOM    101  O   UNL A   1      27.292  27.761  23.291  1.00  0.00    -0.225 OA
BRANCH  99 102
ATOM    102  O   UNL A   1      29.561  28.118  23.461  1.00  0.00    -0.445 OA
BRANCH 102 103
ATOM    103  C   UNL A   1      29.709  28.831  22.225  1.00  0.00     0.270 C 
BRANCH 103 104
ATOM    104  C   UNL A   1      29.118  30.209  22.308  1.00  0.00    -0.011 A 
ATOM    105  C   UNL A   1      29.171  30.942  23.499  1.00  0.00     0.007 A 
ATOM    106  C   UNL A   1      28.616  30.818  21.149  1.00  0.00     0.007 A 
ATOM    107  C   UNL A   1      28.758  32.273  23.518  1.00  0.00     0.000 A 
ATOM    108  C   UNL A   1      28.221  32.152  21.166  1.00  0.00     0.000 A 
ATOM    109  C   UNL A   1      28.297  32.880  22.350  1.00  0.00     0.000 A 
ENDBRANCH 103 104
ENDBRANCH 102 103
ENDBRANCH  99 102
ENDBRANCH  97  98
ENDBRANCH  94  97
ENDBRANCH  91  93
ENDBRANCH  88  91
ENDBRANCH  86  87
BRANCH  86 110
ATOM    110  C   UNL A   1      33.340  25.960  22.947  1.00  0.00     0.015 C 
ATOM    111  C   UNL A   1      32.193  26.295  21.993  1.00  0.00     0.010 C 
ATOM    112  C   UNL A   1      33.440  27.075  24.005  1.00  0.00     0.010 C 
ENDBRANCH  86 110
ENDBRANCH  83  86
ENDBRANCH   1  82
TORSDOF 27
ENDMDL
MODEL 3
REMARK VINA RESULT:      -8.9      9.058     14.870
REMARK SMILES CC(C)C[C@H](NC(=O)[C@@H](NC(=O)[C@H](C)NC(=O)CNC(=O)OCc1ccccc1)C(C)C)C(=O)OCCOC(=O)c1ccc(-c2c3nc(c(-c4c(F)cc(S(=O)(=O)[O-])cc4F)c4ccc([nH]4)c(-c4c(F)cc(S(=O)(=O)[O-])cc4F)c4nc(c(-c5c(F)cc(S(=O)(=O)[O-])cc5F)c5ccc2[nH]5)C=C4)C=C3)cc1
REMARK SMILES IDX 5 1 4 2 2 3 1 4 3 5 33 6 34 7 35 8 36 9 37 10 38 11 39 12
REMARK SMILES IDX 40 13 41 14 42 15 106 16 43 17 105 18 44 19 45 20 46 21
REMARK SMILES IDX 99 22 47 23 104 24 98 25 100 26 48 27 103 28 97 29 96 30
REMARK SMILES IDX 49 32 83 33 62 34 82 35 63 36 66 37 81 38 101 39 64 40 65 41
REMARK SMILES IDX 80 43 102 44 67 45 50 46 51 47 60 48 52 49 53 50 59 51 61 52
REMARK SMILES IDX 54 53 55 54 56 55 57 56 58 57 84 58 85 59 94 60 86 61 87 62
REMARK SMILES IDX 93 63 95 64 88 65 89 66 90 67 91 68 92 69 68 70 69 71 78 72
REMARK SMILES IDX 70 73 71 74 77 75 79 76 72 77 73 78 74 79 75 80 76 81 6 82
REMARK SMILES IDX 7 83 8 85 9 86 10 87 11 88 12 90 13 91 14 92 15 93 16 94
REMARK SMILES IDX 17 96 18 97 19 98 20 99 21 101 22 102 23 103 24 104 25 105
REMARK SMILES IDX 29 106 26 107 28 108 27 109 30 110 31 111 32 112
REMARK H PARENT 100 31 66 42 6 84 10 89 15 95 19 100
REMARK Flexibility Score: inf
ROOT
ATOM      1  C   UNL A   1      37.275  32.152  29.873  1.00  0.00     0.192 C 
ENDROOT
BRANCH   1   2
ATOM      2  C   UNL A   1      38.642  32.282  30.557  1.00  0.00     0.040 C 
BRANCH   2   3
ATOM      3  C   UNL A   1      39.361  33.648  30.504  1.00  0.00    -0.015 C 
ATOM      4  C   UNL A   1      40.852  33.603  30.174  1.00  0.00     0.007 C 
ATOM      5  C   UNL A   1      38.673  34.527  29.452  1.00  0.00     0.007 C 
ENDBRANCH   2   3
ENDBRANCH   1   2
BRANCH   1   6
ATOM      6  C   UNL A   1      37.345  30.954  28.899  1.00  0.00     0.328 C 
ATOM      7  O   UNL A   1      36.614  30.847  27.920  1.00  0.00    -0.250 OA
BRANCH   6   8
ATOM      8  O   UNL A   1      38.418  30.142  29.131  1.00  0.00    -0.461 OA
BRANCH   8   9
ATOM      9  C   UNL A   1      38.107  28.732  29.131  1.00  0.00     0.274 C 
BRANCH   9  10
ATOM     10  C   UNL A   1      38.182  28.084  30.520  1.00  0.00     0.275 C 
BRANCH  10  11
ATOM     11  O   UNL A   1      38.913  28.870  31.477  1.00  0.00    -0.458 OA
BRANCH  11  12
ATOM     12  C   UNL A   1      38.272  29.057  32.657  1.00  0.00     0.338 C 
ATOM     13  O   UNL A   1      37.477  28.284  33.173  1.00  0.00    -0.246 OA
BRANCH  12  14
ATOM     14  C   UNL A   1      38.774  30.260  33.350  1.00  0.00     0.060 A 
ATOM     15  C   UNL A   1      40.138  30.298  33.647  1.00  0.00     0.016 A 
ATOM     16  C   UNL A   1      37.937  31.301  33.765  1.00  0.00     0.016 A 
ATOM     17  C   UNL A   1      40.667  31.363  34.370  1.00  0.00     0.010 A 
ATOM     18  C   UNL A   1      38.475  32.373  34.492  1.00  0.00     0.010 A 
ATOM     19  C   UNL A   1      39.845  32.406  34.804  1.00  0.00    -0.014 A 
BRANCH  19  20
ATOM     20  C   UNL A   1      40.425  33.453  35.678  1.00  0.00     0.031 A 
ATOM     21  C   UNL A   1      41.357  34.465  35.078  1.00  0.00     0.074 A 
ATOM     22  C   UNL A   1      40.063  33.551  36.971  1.00  0.00     0.049 A 
ATOM     23  N   UNL A   1      42.025  35.425  35.662  1.00  0.00    -0.248 NA
ATOM     24  C   UNL A   1      41.551  34.390  33.621  1.00  0.00     0.031 C 
ATOM     25  C   UNL A   1      39.086  32.696  37.644  1.00  0.00     0.029 A 
ATOM     26  N   UNL A   1      40.479  34.421  37.949  1.00  0.00    -0.354 N 
ATOM     27  C   UNL A   1      42.728  36.064  34.648  1.00  0.00     0.074 A 
ATOM     28  C   UNL A   1      42.413  35.375  33.413  1.00  0.00     0.031 C 
ATOM     29  C   UNL A   1      38.991  33.073  38.932  1.00  0.00     0.029 A 
ATOM     30  C   UNL A   1      39.928  34.166  39.183  1.00  0.00     0.049 A 
ATOM     31  H   UNL A   1      41.112  35.157  37.783  1.00  0.00     0.167 HD
ATOM     32  C   UNL A   1      43.564  37.125  34.740  1.00  0.00     0.037 A 
ATOM     33  C   UNL A   1      40.178  34.731  40.382  1.00  0.00     0.037 A 
ATOM     34  C   UNL A   1      43.875  37.805  35.969  1.00  0.00     0.049 A 
ATOM     35  C   UNL A   1      41.193  35.843  40.478  1.00  0.00     0.074 A 
ATOM     36  C   UNL A   1      44.730  38.875  36.168  1.00  0.00     0.029 A 
ATOM     37  N   UNL A   1      43.348  37.479  37.209  1.00  0.00    -0.354 N 
ATOM     38  N   UNL A   1      41.882  36.416  39.520  1.00  0.00    -0.248 NA
ATOM     39  C   UNL A   1      41.471  36.378  41.819  1.00  0.00     0.031 C 
ATOM     40  C   UNL A   1      44.752  39.169  37.536  1.00  0.00     0.029 A 
ATOM     41  C   UNL A   1      43.876  38.312  38.183  1.00  0.00     0.049 A 
ATOM     42  H   UNL A   1      42.695  36.761  37.375  1.00  0.00     0.167 HD
ATOM     43  C   UNL A   1      42.659  37.391  40.139  1.00  0.00     0.074 A 
ATOM     44  C   UNL A   1      42.346  37.339  41.552  1.00  0.00     0.031 C 
ATOM     45  C   UNL A   1      43.550  38.252  39.586  1.00  0.00     0.037 A 
BRANCH  32  46
ATOM     46  C   UNL A   1      44.237  37.580  33.477  1.00  0.00     0.058 A 
ATOM     47  C   UNL A   1      45.340  36.900  32.938  1.00  0.00     0.135 A 
ATOM     48  C   UNL A   1      43.762  38.710  32.793  1.00  0.00     0.135 A 
ATOM     49  F   UNL A   1      45.845  35.826  33.566  1.00  0.00    -0.206 F 
ATOM     50  C   UNL A   1      45.966  37.340  31.776  1.00  0.00     0.059 A 
ATOM     51  C   UNL A   1      44.358  39.154  31.617  1.00  0.00     0.059 A 
ATOM     52  F   UNL A   1      42.714  39.398  33.270  1.00  0.00    -0.206 F 
ATOM     53  C   UNL A   1      45.470  38.472  31.125  1.00  0.00     0.060 A 
BRANCH  53  54
ATOM     54  S   UNL A   1      46.297  39.041  29.625  1.00  0.00     0.124 S 
ATOM     55  O   UNL A   1      45.292  39.937  29.061  1.00  0.00    -0.237 OA
ATOM     56  O   UNL A   1      47.495  39.687  30.153  1.00  0.00    -0.237 OA
ATOM     57  O   UNL A   1      46.530  37.810  28.878  1.00  0.00    -0.744 OA
ENDBRANCH  53  54
ENDBRANCH  32  46
BRANCH  33  58
ATOM     58  C   UNL A   1      39.494  34.225  41.604  1.00  0.00     0.058 A 
ATOM     59  C   UNL A   1      40.056  33.207  42.386  1.00  0.00     0.135 A 
ATOM     60  C   UNL A   1      38.248  34.740  41.998  1.00  0.00     0.135 A 
ATOM     61  F   UNL A   1      41.237  32.671  42.042  1.00  0.00    -0.206 F 
ATOM     62  C   UNL A   1      39.403  32.705  43.509  1.00  0.00     0.059 A 
ATOM     63  C   UNL A   1      37.588  34.273  43.130  1.00  0.00     0.059 A 
ATOM     64  F   UNL A   1      37.668  35.718  41.286  1.00  0.00    -0.206 F 
ATOM     65  C   UNL A   1      38.167  33.245  43.872  1.00  0.00     0.060 A 
BRANCH  65  66
ATOM     66  S   UNL A   1      37.338  32.614  45.348  1.00  0.00     0.124 S 
ATOM     67  O   UNL A   1      37.413  31.174  45.133  1.00  0.00    -0.237 OA
ATOM     68  O   UNL A   1      38.172  33.144  46.421  1.00  0.00    -0.237 OA
ATOM     69  O   UNL A   1      36.004  33.197  45.257  1.00  0.00    -0.744 OA
ENDBRANCH  65  66
ENDBRANCH  33  58
BRANCH  45  70
ATOM     70  C   UNL A   1      44.231  39.231  40.502  1.00  0.00     0.058 A 
ATOM     71  C   UNL A   1      43.669  40.482  40.795  1.00  0.00     0.135 A 
ATOM     72  C   UNL A   1      45.433  38.886  41.144  1.00  0.00     0.135 A 
ATOM     73  F   UNL A   1      42.524  40.863  40.205  1.00  0.00    -0.206 F 
ATOM     74  C   UNL A   1      44.281  41.366  41.679  1.00  0.00     0.059 A 
ATOM     75  C   UNL A   1      46.050  39.744  42.049  1.00  0.00     0.059 A 
ATOM     76  F   UNL A   1      46.009  37.697  40.908  1.00  0.00    -0.206 F 
ATOM     77  C   UNL A   1      45.471  40.987  42.302  1.00  0.00     0.060 A 
BRANCH  77  78
ATOM     78  S   UNL A   1      46.236  42.125  43.479  1.00  0.00     0.124 S 
ATOM     79  O   UNL A   1      47.603  42.191  42.977  1.00  0.00    -0.237 OA
ATOM     80  O   UNL A   1      45.438  43.336  43.310  1.00  0.00    -0.237 OA
ATOM     81  O   UNL A   1      46.069  41.449  44.763  1.00  0.00    -0.744 OA
ENDBRANCH  77  78
ENDBRANCH  45  70
ENDBRANCH  19  20
ENDBRANCH  12  14
ENDBRANCH  11  12
ENDBRANCH  10  11
ENDBRANCH   9  10
ENDBRANCH   8   9
ENDBRANCH   6   8
ENDBRANCH   1   6
BRANCH   1  82
ATOM     82  N   UNL A   1      36.174  32.016  30.844  1.00  0.00    -0.341 N 
ATOM     83  C   UNL A   1      35.254  32.832  31.417  1.00  0.00     0.243 C 
ATOM     84  H   UNL A   1      36.080  31.088  31.159  1.00  0.00     0.164 HD
ATOM     85  O   UNL A   1      34.366  32.230  32.043  1.00  0.00    -0.273 OA
BRANCH  83  86
ATOM     86  C   UNL A   1      35.174  34.405  31.371  1.00  0.00     0.174 C 
BRANCH  86  87
ATOM     87  N   UNL A   1      34.137  35.048  30.553  1.00  0.00    -0.342 N 
ATOM     88  C   UNL A   1      33.454  34.818  29.409  1.00  0.00     0.242 C 
ATOM     89  H   UNL A   1      33.857  35.900  30.957  1.00  0.00     0.164 HD
ATOM     90  O   UNL A   1      32.518  35.606  29.200  1.00  0.00    -0.273 OA
BRANCH  88  91
ATOM     91  C   UNL A   1      33.640  33.623  28.456  1.00  0.00     0.168 C 
ATOM     92  C   UNL A   1      34.860  33.895  27.577  1.00  0.00     0.041 C 
BRANCH  91  93
ATOM     93  N   UNL A   1      32.485  33.242  27.663  1.00  0.00    -0.343 N 
ATOM     94  C   UNL A   1      32.210  32.143  26.921  1.00  0.00     0.240 C 
ATOM     95  H   UNL A   1      31.762  33.910  27.667  1.00  0.00     0.164 HD
ATOM     96  O   UNL A   1      31.247  32.252  26.161  1.00  0.00    -0.273 OA
BRANCH  94  97
ATOM     97  C   UNL A   1      32.969  30.827  27.035  1.00  0.00     0.219 C 
BRANCH  97  98
ATOM     98  N   UNL A   1      32.171  29.818  27.683  1.00  0.00    -0.312 N 
ATOM     99  C   UNL A   1      32.185  28.496  27.383  1.00  0.00     0.407 C 
ATOM    100  H   UNL A   1      31.567  30.113  28.402  1.00  0.00     0.167 HD
ATOM    101  O   UNL A   1      31.286  27.757  27.775  1.00  0.00    -0.225 OA
BRANCH  99 102
ATOM    102  O   UNL A   1      33.195  28.154  26.548  1.00  0.00    -0.445 OA
BRANCH 102 103
ATOM    103  C   UNL A   1      33.272  26.776  26.157  1.00  0.00     0.270 C 
BRANCH 103 104
ATOM    104  C   UNL A   1      32.796  26.575  24.747  1.00  0.00    -0.011 A 
ATOM    105  C   UNL A   1      31.430  26.464  24.461  1.00  0.00     0.007 A 
ATOM    106  C   UNL A   1      33.717  26.618  23.691  1.00  0.00     0.007 A 
ATOM    107  C   UNL A   1      30.996  26.432  23.136  1.00  0.00     0.000 A 
ATOM    108  C   UNL A   1      33.281  26.604  22.371  1.00  0.00     0.000 A 
ATOM    109  C   UNL A   1      31.919  26.515  22.094  1.00  0.00     0.000 A 
ENDBRANCH 103 104
ENDBRANCH 102 103
ENDBRANCH  99 102
ENDBRANCH  97  98
ENDBRANCH  94  97
ENDBRANCH  91  93
ENDBRANCH  88  91
ENDBRANCH  86  87
BRANCH  86 110
ATOM    110  C   UNL A   1      35.573  35.211  32.646  1.00  0.00     0.015 C 
ATOM    111  C   UNL A   1      34.622  35.053  33.834  1.00  0.00     0.010 C 
ATOM    112  C   UNL A   1      36.998  34.853  33.107  1.00  0.00     0.010 C 
ENDBRANCH  86 110
ENDBRANCH  83  86
ENDBRANCH   1  82
TORSDOF 27
ENDMDL
