MODEL 1
REMARK VINA RESULT:     -10.6      0.000      0.000
REMARK SMILES Cn1cccc1C(=O)N[C@](C)(C(=O)OCCOC(=O)c1ccc(-c2c3nc(c(-c4c(F)cc(S(=O)(=O)[O-])cc4F)c4ccc([nH]4)c(-c4c(F)cc(S(=O)(=O)[O-])cc4F)c4nc(c(-c5c(F)cc(S(=O)(=O)[O-])cc5F)c5ccc2[nH]5)C=C4)C=C3)cc1)C(F)(F)F
REMARK SMILES IDX 16 1 15 2 14 3 12 4 13 5 10 6 11 7 9 8 7 9 8 10 6 12 1 13
REMARK SMILES IDX 2 14 3 15 4 16 5 17 86 18 87 19 88 20 89 21 17 22 18 23
REMARK SMILES IDX 19 24 20 25 21 26 85 27 22 28 84 29 23 30 24 31 25 32 78 33
REMARK SMILES IDX 26 34 83 35 77 36 79 37 27 38 82 39 76 40 75 41 28 43 62 44
REMARK SMILES IDX 41 45 61 46 42 47 45 48 60 49 80 50 43 51 44 52 59 54 81 55
REMARK SMILES IDX 46 56 29 57 30 58 39 59 31 60 32 61 38 62 40 63 33 64 34 65
REMARK SMILES IDX 35 66 36 67 37 68 63 69 64 70 73 71 65 72 66 73 72 74 74 75
REMARK SMILES IDX 67 76 68 77 69 78 70 79 71 80 47 81 48 82 57 83 49 84 50 85
REMARK SMILES IDX 56 86 58 87 51 88 52 89 53 90 54 91 55 92
REMARK H PARENT 9 11 79 42 45 53
REMARK Flexibility Score: inf
ROOT
ATOM      1  C   UNL A   1      33.568  28.964  25.894  1.00  0.00     0.275 C 
ENDROOT
BRANCH   1   2
ATOM      2  C   UNL A   1      32.058  29.161  25.754  1.00  0.00     0.274 C 
BRANCH   2   3
ATOM      3  O   UNL A   1      31.434  28.048  25.077  1.00  0.00    -0.460 OA
BRANCH   3   4
ATOM      4  C   UNL A   1      31.156  26.931  25.808  1.00  0.00     0.341 C 
ATOM      5  O   UNL A   1      30.763  26.982  26.965  1.00  0.00    -0.249 OA
BRANCH   4   6
ATOM      6  C   UNL A   1      31.457  25.635  25.024  1.00  0.00     0.231 C 
ATOM      7  C   UNL A   1      32.796  25.582  24.284  1.00  0.00     0.058 C 
BRANCH   6   8
ATOM      8  N   UNL A   1      31.236  24.545  26.013  1.00  0.00    -0.328 N 
ATOM      9  C   UNL A   1      31.844  23.474  26.582  1.00  0.00     0.269 C 
ATOM     10  O   UNL A   1      31.281  23.184  27.649  1.00  0.00    -0.268 OA
ATOM     11  H   UNL A   1      30.328  24.630  26.385  1.00  0.00     0.165 HD
BRANCH   9  12
ATOM     12  C   UNL A   1      32.899  22.604  26.076  1.00  0.00     0.106 A 
ATOM     13  C   UNL A   1      32.535  21.852  23.626  1.00  0.00     0.150 C 
ATOM     14  N   UNL A   1      33.197  21.922  24.906  1.00  0.00    -0.347 N 
ATOM     15  C   UNL A   1      34.440  21.317  25.012  1.00  0.00     0.086 A 
ATOM     16  C   UNL A   1      34.989  21.631  26.222  1.00  0.00     0.020 A 
ATOM     17  C   UNL A   1      34.039  22.422  26.879  1.00  0.00     0.033 A 
ENDBRANCH   9  12
ENDBRANCH   6   8
BRANCH   6  18
ATOM     18  C   UNL A   1      30.354  25.584  23.931  1.00  0.00     0.422 C 
ATOM     19  F   UNL A   1      30.715  26.217  22.794  1.00  0.00    -0.168 F 
ATOM     20  F   UNL A   1      30.091  24.295  23.591  1.00  0.00    -0.168 F 
ATOM     21  F   UNL A   1      29.182  26.101  24.364  1.00  0.00    -0.168 F 
ENDBRANCH   6  18
ENDBRANCH   4   6
ENDBRANCH   3   4
ENDBRANCH   2   3
ENDBRANCH   1   2
BRANCH   1  22
ATOM     22  O   UNL A   1      33.942  28.928  27.281  1.00  0.00    -0.458 OA
BRANCH  22  23
ATOM     23  C   UNL A   1      34.438  30.074  27.793  1.00  0.00     0.338 C 
ATOM     24  O   UNL A   1      33.818  31.095  28.068  1.00  0.00    -0.246 OA
BRANCH  23  25
ATOM     25  C   UNL A   1      35.840  29.852  28.161  1.00  0.00     0.060 A 
ATOM     26  C   UNL A   1      36.800  30.071  27.175  1.00  0.00     0.016 A 
ATOM     27  C   UNL A   1      36.216  29.374  29.414  1.00  0.00     0.016 A 
ATOM     28  C   UNL A   1      38.139  29.809  27.416  1.00  0.00     0.010 A 
ATOM     29  C   UNL A   1      37.574  29.137  29.670  1.00  0.00     0.010 A 
ATOM     30  C   UNL A   1      38.543  29.344  28.669  1.00  0.00    -0.014 A 
BRANCH  30  31
ATOM     31  C   UNL A   1      39.973  29.017  28.885  1.00  0.00     0.031 A 
ATOM     32  C   UNL A   1      40.881  30.040  29.501  1.00  0.00     0.074 A 
ATOM     33  C   UNL A   1      40.436  27.786  28.592  1.00  0.00     0.049 A 
ATOM     34  N   UNL A   1      42.178  30.010  29.647  1.00  0.00    -0.248 NA
ATOM     35  C   UNL A   1      40.243  31.262  30.017  1.00  0.00     0.031 C 
ATOM     36  C   UNL A   1      39.632  26.681  28.064  1.00  0.00     0.029 A 
ATOM     37  N   UNL A   1      41.695  27.253  28.708  1.00  0.00    -0.354 N 
ATOM     38  C   UNL A   1      42.522  31.230  30.219  1.00  0.00     0.074 A 
ATOM     39  C   UNL A   1      41.294  31.972  30.406  1.00  0.00     0.031 C 
ATOM     40  C   UNL A   1      40.413  25.598  27.921  1.00  0.00     0.029 A 
ATOM     41  C   UNL A   1      41.782  25.950  28.279  1.00  0.00     0.049 A 
ATOM     42  H   UNL A   1      42.463  27.756  29.064  1.00  0.00     0.167 HD
ATOM     43  C   UNL A   1      43.753  31.686  30.545  1.00  0.00     0.037 A 
ATOM     44  C   UNL A   1      42.854  25.142  28.150  1.00  0.00     0.037 A 
ATOM     45  C   UNL A   1      44.961  30.918  30.398  1.00  0.00     0.049 A 
ATOM     46  C   UNL A   1      44.212  25.676  28.508  1.00  0.00     0.074 A 
ATOM     47  C   UNL A   1      46.262  31.292  30.685  1.00  0.00     0.029 A 
ATOM     48  N   UNL A   1      45.012  29.609  29.941  1.00  0.00    -0.354 N 
ATOM     49  N   UNL A   1      44.535  26.861  28.970  1.00  0.00    -0.248 NA
ATOM     50  C   UNL A   1      45.355  24.774  28.310  1.00  0.00     0.031 C 
ATOM     51  C   UNL A   1      47.103  30.214  30.380  1.00  0.00     0.029 A 
ATOM     52  C   UNL A   1      46.321  29.160  29.934  1.00  0.00     0.049 A 
ATOM     53  H   UNL A   1      44.231  29.078  29.663  1.00  0.00     0.167 HD
ATOM     54  C   UNL A   1      45.916  26.849  29.115  1.00  0.00     0.074 A 
ATOM     55  C   UNL A   1      46.366  25.530  28.716  1.00  0.00     0.031 C 
ATOM     56  C   UNL A   1      46.741  27.841  29.533  1.00  0.00     0.037 A 
BRANCH  43  57
ATOM     57  C   UNL A   1      43.857  33.098  31.044  1.00  0.00     0.058 A 
ATOM     58  C   UNL A   1      43.838  34.200  30.175  1.00  0.00     0.135 A 
ATOM     59  C   UNL A   1      43.967  33.350  32.421  1.00  0.00     0.135 A 
ATOM     60  F   UNL A   1      43.760  34.013  28.848  1.00  0.00    -0.206 F 
ATOM     61  C   UNL A   1      43.944  35.503  30.654  1.00  0.00     0.059 A 
ATOM     62  C   UNL A   1      44.055  34.644  32.924  1.00  0.00     0.059 A 
ATOM     63  F   UNL A   1      43.998  32.330  33.294  1.00  0.00    -0.206 F 
ATOM     64  C   UNL A   1      44.058  35.714  32.031  1.00  0.00     0.060 A 
BRANCH  64  65
ATOM     65  S   UNL A   1      44.203  37.406  32.641  1.00  0.00     0.124 S 
ATOM     66  O   UNL A   1      44.145  38.168  31.397  1.00  0.00    -0.237 OA
ATOM     67  O   UNL A   1      43.039  37.530  33.513  1.00  0.00    -0.237 OA
ATOM     68  O   UNL A   1      45.494  37.412  33.321  1.00  0.00    -0.744 OA
ENDBRANCH  64  65
ENDBRANCH  43  57
BRANCH  44  69
ATOM     69  C   UNL A   1      42.683  23.768  27.611  1.00  0.00     0.058 A 
ATOM     70  C   UNL A   1      42.747  23.514  26.233  1.00  0.00     0.135 A 
ATOM     71  C   UNL A   1      42.480  22.675  28.469  1.00  0.00     0.135 A 
ATOM     72  F   UNL A   1      42.925  24.528  25.372  1.00  0.00    -0.206 F 
ATOM     73  C   UNL A   1      42.613  22.226  25.724  1.00  0.00     0.059 A 
ATOM     74  C   UNL A   1      42.368  21.376  27.985  1.00  0.00     0.059 A 
ATOM     75  F   UNL A   1      42.422  22.865  29.796  1.00  0.00    -0.206 F 
ATOM     76  C   UNL A   1      42.429  21.162  26.609  1.00  0.00     0.060 A 
BRANCH  76  77
ATOM     77  S   UNL A   1      42.326  19.482  25.952  1.00  0.00     0.124 S 
ATOM     78  O   UNL A   1      43.272  19.543  24.844  1.00  0.00    -0.237 OA
ATOM     79  O   UNL A   1      42.735  18.674  27.097  1.00  0.00    -0.237 OA
ATOM     80  O   UNL A   1      40.920  19.357  25.579  1.00  0.00    -0.744 OA
ENDBRANCH  76  77
ENDBRANCH  44  69
BRANCH  56  81
ATOM     81  C   UNL A   1      48.207  27.530  29.591  1.00  0.00     0.058 A 
ATOM     82  C   UNL A   1      49.063  27.851  28.528  1.00  0.00     0.135 A 
ATOM     83  C   UNL A   1      48.766  26.950  30.740  1.00  0.00     0.135 A 
ATOM     84  F   UNL A   1      48.573  28.402  27.407  1.00  0.00    -0.206 F 
ATOM     85  C   UNL A   1      50.427  27.590  28.593  1.00  0.00     0.059 A 
ATOM     86  C   UNL A   1      50.131  26.696  30.835  1.00  0.00     0.059 A 
ATOM     87  F   UNL A   1      47.987  26.634  31.786  1.00  0.00    -0.206 F 
ATOM     88  C   UNL A   1      50.952  27.011  29.751  1.00  0.00     0.060 A 
BRANCH  88  89
ATOM     89  S   UNL A   1      52.729  26.703  29.842  1.00  0.00     0.124 S 
ATOM     90  O   UNL A   1      52.818  25.854  31.025  1.00  0.00    -0.237 OA
ATOM     91  O   UNL A   1      53.001  26.045  28.568  1.00  0.00    -0.237 OA
ATOM     92  O   UNL A   1      53.295  28.041  29.982  1.00  0.00    -0.744 OA
ENDBRANCH  88  89
ENDBRANCH  56  81
ENDBRANCH  30  31
ENDBRANCH  23  25
ENDBRANCH  22  23
ENDBRANCH   1  22
TORSDOF 17
ENDMDL
MODEL 2
REMARK VINA RESULT:     -10.6      3.865      5.946
REMARK SMILES Cn1cccc1C(=O)N[C@](C)(C(=O)OCCOC(=O)c1ccc(-c2c3nc(c(-c4c(F)cc(S(=O)(=O)[O-])cc4F)c4ccc([nH]4)c(-c4c(F)cc(S(=O)(=O)[O-])cc4F)c4nc(c(-c5c(F)cc(S(=O)(=O)[O-])cc5F)c5ccc2[nH]5)C=C4)C=C3)cc1)C(F)(F)F
REMARK SMILES IDX 16 1 15 2 14 3 12 4 13 5 10 6 11 7 9 8 7 9 8 10 6 12 1 13
REMARK SMILES IDX 2 14 3 15 4 16 5 17 86 18 87 19 88 20 89 21 17 22 18 23
REMARK SMILES IDX 19 24 20 25 21 26 85 27 22 28 84 29 23 30 24 31 25 32 78 33
REMARK SMILES IDX 26 34 83 35 77 36 79 37 27 38 82 39 76 40 75 41 28 43 62 44
REMARK SMILES IDX 41 45 61 46 42 47 45 48 60 49 80 50 43 51 44 52 59 54 81 55
REMARK SMILES IDX 46 56 29 57 30 58 39 59 31 60 32 61 38 62 40 63 33 64 34 65
REMARK SMILES IDX 35 66 36 67 37 68 63 69 64 70 73 71 65 72 66 73 72 74 74 75
REMARK SMILES IDX 67 76 68 77 69 78 70 79 71 80 47 81 48 82 57 83 49 84 50 85
REMARK SMILES IDX 56 86 58 87 51 88 52 89 53 90 54 91 55 92
REMARK H PARENT 9 11 79 42 45 53
REMARK Flexibility Score: inf
ROOT
ATOM      1  C   UNL A   1      34.227  32.360  28.346  1.00  0.00     0.275 C 
ENDROOT
BRANCH   1   2
ATOM      2  C   UNL A   1      35.197  33.507  28.063  1.00  0.00     0.274 C 
BRANCH   2   3
ATOM      3  O   UNL A   1      34.946  34.642  28.918  1.00  0.00    -0.460 OA
BRANCH   3   4
ATOM      4  C   UNL A   1      34.017  34.505  29.907  1.00  0.00     0.341 C 
ATOM      5  O   UNL A   1      32.817  34.626  29.704  1.00  0.00    -0.249 OA
BRANCH   4   6
ATOM      6  C   UNL A   1      34.668  34.248  31.283  1.00  0.00     0.231 C 
ATOM      7  C   UNL A   1      34.285  32.943  31.986  1.00  0.00     0.058 C 
BRANCH   6   8
ATOM      8  N   UNL A   1      36.125  34.436  31.044  1.00  0.00    -0.328 N 
ATOM      9  C   UNL A   1      37.336  33.895  31.326  1.00  0.00     0.269 C 
ATOM     10  O   UNL A   1      38.177  34.284  30.501  1.00  0.00    -0.268 OA
ATOM     11  H   UNL A   1      36.256  35.236  30.485  1.00  0.00     0.165 HD
BRANCH   9  12
ATOM     12  C   UNL A   1      37.774  33.091  32.460  1.00  0.00     0.106 A 
ATOM     13  C   UNL A   1      38.470  34.498  34.519  1.00  0.00     0.150 C 
ATOM     14  N   UNL A   1      38.252  33.300  33.745  1.00  0.00    -0.347 N 
ATOM     15  C   UNL A   1      38.411  32.086  34.396  1.00  0.00     0.086 A 
ATOM     16  C   UNL A   1      37.998  31.079  33.573  1.00  0.00     0.020 A 
ATOM     17  C   UNL A   1      37.607  31.698  32.379  1.00  0.00     0.033 A 
ENDBRANCH   9  12
ENDBRANCH   6   8
BRANCH   6  18
ATOM     18  C   UNL A   1      34.130  35.397  32.181  1.00  0.00     0.422 C 
ATOM     19  F   UNL A   1      33.010  35.056  32.852  1.00  0.00    -0.168 F 
ATOM     20  F   UNL A   1      35.057  35.733  33.117  1.00  0.00    -0.168 F 
ATOM     21  F   UNL A   1      33.890  36.526  31.475  1.00  0.00    -0.168 F 
ENDBRANCH   6  18
ENDBRANCH   4   6
ENDBRANCH   3   4
ENDBRANCH   2   3
ENDBRANCH   1   2
BRANCH   1  22
ATOM     22  O   UNL A   1      34.322  31.358  27.320  1.00  0.00    -0.458 OA
BRANCH  22  23
ATOM     23  C   UNL A   1      34.454  30.084  27.743  1.00  0.00     0.338 C 
ATOM     24  O   UNL A   1      33.617  29.190  27.681  1.00  0.00    -0.246 OA
BRANCH  23  25
ATOM     25  C   UNL A   1      35.852  29.862  28.126  1.00  0.00     0.060 A 
ATOM     26  C   UNL A   1      36.819  30.040  27.138  1.00  0.00     0.016 A 
ATOM     27  C   UNL A   1      36.217  29.424  29.397  1.00  0.00     0.016 A 
ATOM     28  C   UNL A   1      38.154  29.774  27.395  1.00  0.00     0.010 A 
ATOM     29  C   UNL A   1      37.572  29.185  29.668  1.00  0.00     0.010 A 
ATOM     30  C   UNL A   1      38.547  29.350  28.666  1.00  0.00    -0.014 A 
BRANCH  30  31
ATOM     31  C   UNL A   1      39.973  29.017  28.901  1.00  0.00     0.031 A 
ATOM     32  C   UNL A   1      40.875  30.036  29.535  1.00  0.00     0.074 A 
ATOM     33  C   UNL A   1      40.438  27.787  28.609  1.00  0.00     0.049 A 
ATOM     34  N   UNL A   1      42.170  30.002  29.699  1.00  0.00    -0.248 NA
ATOM     35  C   UNL A   1      40.233  31.258  30.047  1.00  0.00     0.031 C 
ATOM     36  C   UNL A   1      39.639  26.686  28.065  1.00  0.00     0.029 A 
ATOM     37  N   UNL A   1      41.694  27.250  28.741  1.00  0.00    -0.354 N 
ATOM     38  C   UNL A   1      42.509  31.218  30.281  1.00  0.00     0.074 A 
ATOM     39  C   UNL A   1      41.280  31.963  30.453  1.00  0.00     0.031 C 
ATOM     40  C   UNL A   1      40.419  25.602  27.928  1.00  0.00     0.029 A 
ATOM     41  C   UNL A   1      41.784  25.949  28.308  1.00  0.00     0.049 A 
ATOM     42  H   UNL A   1      42.458  27.750  29.110  1.00  0.00     0.167 HD
ATOM     43  C   UNL A   1      43.736  31.670  30.626  1.00  0.00     0.037 A 
ATOM     44  C   UNL A   1      42.855  25.139  28.190  1.00  0.00     0.037 A 
ATOM     45  C   UNL A   1      44.944  30.900  30.494  1.00  0.00     0.049 A 
ATOM     46  C   UNL A   1      44.210  25.668  28.570  1.00  0.00     0.074 A 
ATOM     47  C   UNL A   1      46.242  31.269  30.800  1.00  0.00     0.029 A 
ATOM     48  N   UNL A   1      44.998  29.592  30.031  1.00  0.00    -0.354 N 
ATOM     49  N   UNL A   1      44.529  26.850  29.041  1.00  0.00    -0.248 NA
ATOM     50  C   UNL A   1      45.353  24.764  28.384  1.00  0.00     0.031 C 
ATOM     51  C   UNL A   1      47.084  30.190  30.502  1.00  0.00     0.029 A 
ATOM     52  C   UNL A   1      46.306  29.140  30.041  1.00  0.00     0.049 A 
ATOM     53  H   UNL A   1      44.220  29.064  29.740  1.00  0.00     0.167 HD
ATOM     54  C   UNL A   1      45.908  26.834  29.206  1.00  0.00     0.074 A 
ATOM     55  C   UNL A   1      46.360  25.516  28.808  1.00  0.00     0.031 C 
ATOM     56  C   UNL A   1      46.729  27.822  29.640  1.00  0.00     0.037 A 
BRANCH  43  57
ATOM     57  C   UNL A   1      43.837  33.080  31.132  1.00  0.00     0.058 A 
ATOM     58  C   UNL A   1      43.748  33.391  32.497  1.00  0.00     0.135 A 
ATOM     59  C   UNL A   1      44.037  34.138  30.230  1.00  0.00     0.135 A 
ATOM     60  F   UNL A   1      43.531  32.421  33.399  1.00  0.00    -0.206 F 
ATOM     61  C   UNL A   1      43.834  34.705  32.949  1.00  0.00     0.059 A 
ATOM     62  C   UNL A   1      44.146  35.456  30.659  1.00  0.00     0.059 A 
ATOM     63  F   UNL A   1      44.121  33.893  28.912  1.00  0.00    -0.206 F 
ATOM     64  C   UNL A   1      44.027  35.731  32.021  1.00  0.00     0.060 A 
BRANCH  64  65
ATOM     65  S   UNL A   1      44.131  37.433  32.615  1.00  0.00     0.124 S 
ATOM     66  O   UNL A   1      45.487  37.469  33.153  1.00  0.00    -0.237 OA
ATOM     67  O   UNL A   1      43.912  38.208  31.398  1.00  0.00    -0.237 OA
ATOM     68  O   UNL A   1      43.061  37.511  33.604  1.00  0.00    -0.744 OA
ENDBRANCH  64  65
ENDBRANCH  43  57
BRANCH  44  69
ATOM     69  C   UNL A   1      42.689  23.768  27.643  1.00  0.00     0.058 A 
ATOM     70  C   UNL A   1      42.748  23.523  26.263  1.00  0.00     0.135 A 
ATOM     71  C   UNL A   1      42.495  22.668  28.494  1.00  0.00     0.135 A 
ATOM     72  F   UNL A   1      42.919  24.544  25.408  1.00  0.00    -0.206 F 
ATOM     73  C   UNL A   1      42.619  22.238  25.745  1.00  0.00     0.059 A 
ATOM     74  C   UNL A   1      42.387  21.372  28.002  1.00  0.00     0.059 A 
ATOM     75  F   UNL A   1      42.440  22.849  29.823  1.00  0.00    -0.206 F 
ATOM     76  C   UNL A   1      42.443  21.168  26.624  1.00  0.00     0.060 A 
BRANCH  76  77
ATOM     77  S   UNL A   1      42.346  19.491  25.957  1.00  0.00     0.124 S 
ATOM     78  O   UNL A   1      40.918  19.367  25.684  1.00  0.00    -0.237 OA
ATOM     79  O   UNL A   1      43.214  19.570  24.787  1.00  0.00    -0.237 OA
ATOM     80  O   UNL A   1      42.855  18.669  27.051  1.00  0.00    -0.744 OA
ENDBRANCH  76  77
ENDBRANCH  44  69
BRANCH  56  81
ATOM     81  C   UNL A   1      48.193  27.507  29.718  1.00  0.00     0.058 A 
ATOM     82  C   UNL A   1      49.039  27.695  28.615  1.00  0.00     0.135 A 
ATOM     83  C   UNL A   1      48.761  27.059  30.920  1.00  0.00     0.135 A 
ATOM     84  F   UNL A   1      48.539  28.118  27.443  1.00  0.00    -0.206 F 
ATOM     85  C   UNL A   1      50.402  27.432  28.696  1.00  0.00     0.059 A 
ATOM     86  C   UNL A   1      50.126  26.806  31.028  1.00  0.00     0.059 A 
ATOM     87  F   UNL A   1      47.992  26.873  32.003  1.00  0.00    -0.206 F 
ATOM     88  C   UNL A   1      50.936  26.986  29.907  1.00  0.00     0.060 A 
BRANCH  88  89
ATOM     89  S   UNL A   1      52.711  26.676  30.013  1.00  0.00     0.124 S 
ATOM     90  O   UNL A   1      53.221  28.003  30.339  1.00  0.00    -0.237 OA
ATOM     91  O   UNL A   1      52.795  25.684  31.082  1.00  0.00    -0.237 OA
ATOM     92  O   UNL A   1      53.047  26.181  28.682  1.00  0.00    -0.744 OA
ENDBRANCH  88  89
ENDBRANCH  56  81
ENDBRANCH  30  31
ENDBRANCH  23  25
ENDBRANCH  22  23
ENDBRANCH   1  22
TORSDOF 17
ENDMDL
MODEL 3
REMARK VINA RESULT:     -10.4      5.244     10.721
REMARK SMILES Cn1cccc1C(=O)N[C@](C)(C(=O)OCCOC(=O)c1ccc(-c2c3nc(c(-c4c(F)cc(S(=O)(=O)[O-])cc4F)c4ccc([nH]4)c(-c4c(F)cc(S(=O)(=O)[O-])cc4F)c4nc(c(-c5c(F)cc(S(=O)(=O)[O-])cc5F)c5ccc2[nH]5)C=C4)C=C3)cc1)C(F)(F)F
REMARK SMILES IDX 16 1 15 2 14 3 12 4 13 5 10 6 11 7 9 8 7 9 8 10 6 12 1 13
REMARK SMILES IDX 2 14 3 15 4 16 5 17 86 18 87 19 88 20 89 21 17 22 18 23
REMARK SMILES IDX 19 24 20 25 21 26 85 27 22 28 84 29 23 30 24 31 25 32 78 33
REMARK SMILES IDX 26 34 83 35 77 36 79 37 27 38 82 39 76 40 75 41 28 43 62 44
REMARK SMILES IDX 41 45 61 46 42 47 45 48 60 49 80 50 43 51 44 52 59 54 81 55
REMARK SMILES IDX 46 56 29 57 30 58 39 59 31 60 32 61 38 62 40 63 33 64 34 65
REMARK SMILES IDX 35 66 36 67 37 68 63 69 64 70 73 71 65 72 66 73 72 74 74 75
REMARK SMILES IDX 67 76 68 77 69 78 70 79 71 80 47 81 48 82 57 83 49 84 50 85
REMARK SMILES IDX 56 86 58 87 51 88 52 89 53 90 54 91 55 92
REMARK H PARENT 9 11 79 42 45 53
REMARK Flexibility Score: inf
ROOT
ATOM      1  C   UNL A   1      38.455  23.044  26.263  1.00  0.00     0.275 C 
ENDROOT
BRANCH   1   2
ATOM      2  C   UNL A   1      37.674  22.928  24.953  1.00  0.00     0.274 C 
BRANCH   2   3
ATOM      3  O   UNL A   1      36.506  23.776  24.951  1.00  0.00    -0.460 OA
BRANCH   3   4
ATOM      4  C   UNL A   1      35.686  23.732  23.862  1.00  0.00     0.341 C 
ATOM      5  O   UNL A   1      36.063  23.329  22.770  1.00  0.00    -0.249 OA
BRANCH   4   6
ATOM      6  C   UNL A   1      34.284  24.301  24.168  1.00  0.00     0.231 C 
ATOM      7  C   UNL A   1      34.197  25.327  25.302  1.00  0.00     0.058 C 
BRANCH   6   8
ATOM      8  N   UNL A   1      33.779  24.771  22.849  1.00  0.00    -0.328 N 
ATOM      9  C   UNL A   1      33.191  25.832  22.242  1.00  0.00     0.269 C 
ATOM     10  O   UNL A   1      33.379  25.777  21.016  1.00  0.00    -0.268 OA
ATOM     11  H   UNL A   1      33.921  24.061  22.181  1.00  0.00     0.165 HD
BRANCH   9  12
ATOM     12  C   UNL A   1      32.320  26.869  22.781  1.00  0.00     0.106 A 
ATOM     13  C   UNL A   1      33.595  28.745  24.030  1.00  0.00     0.150 C 
ATOM     14  N   UNL A   1      32.447  28.038  23.518  1.00  0.00    -0.347 N 
ATOM     15  C   UNL A   1      31.212  28.657  23.641  1.00  0.00     0.086 A 
ATOM     16  C   UNL A   1      30.279  27.936  22.954  1.00  0.00     0.020 A 
ATOM     17  C   UNL A   1      30.961  26.833  22.426  1.00  0.00     0.033 A 
ENDBRANCH   9  12
ENDBRANCH   6   8
BRANCH   6  18
ATOM     18  C   UNL A   1      33.463  23.067  24.635  1.00  0.00     0.422 C 
ATOM     19  F   UNL A   1      33.576  22.836  25.960  1.00  0.00    -0.168 F 
ATOM     20  F   UNL A   1      32.141  23.262  24.386  1.00  0.00    -0.168 F 
ATOM     21  F   UNL A   1      33.806  21.943  23.965  1.00  0.00    -0.168 F 
ENDBRANCH   6  18
ENDBRANCH   4   6
ENDBRANCH   3   4
ENDBRANCH   2   3
ENDBRANCH   1   2
BRANCH   1  22
ATOM     22  O   UNL A   1      38.899  24.396  26.463  1.00  0.00    -0.458 OA
BRANCH  22  23
ATOM     23  C   UNL A   1      40.210  24.556  26.741  1.00  0.00     0.338 C 
ATOM     24  O   UNL A   1      41.162  24.071  26.140  1.00  0.00    -0.246 OA
BRANCH  23  25
ATOM     25  C   UNL A   1      40.344  25.578  27.784  1.00  0.00     0.060 A 
ATOM     26  C   UNL A   1      39.339  25.641  28.747  1.00  0.00     0.016 A 
ATOM     27  C   UNL A   1      41.385  26.504  27.793  1.00  0.00     0.016 A 
ATOM     28  C   UNL A   1      39.348  26.627  29.720  1.00  0.00     0.010 A 
ATOM     29  C   UNL A   1      41.413  27.484  28.795  1.00  0.00     0.010 A 
ATOM     30  C   UNL A   1      40.389  27.557  29.759  1.00  0.00    -0.014 A 
BRANCH  30  31
ATOM     31  C   UNL A   1      40.347  28.637  30.775  1.00  0.00     0.031 A 
ATOM     32  C   UNL A   1      41.338  28.632  31.902  1.00  0.00     0.074 A 
ATOM     33  C   UNL A   1      39.469  29.650  30.648  1.00  0.00     0.049 A 
ATOM     34  N   UNL A   1      41.387  29.393  32.961  1.00  0.00    -0.248 NA
ATOM     35  C   UNL A   1      42.415  27.630  31.827  1.00  0.00     0.031 C 
ATOM     36  C   UNL A   1      38.509  29.808  29.552  1.00  0.00     0.029 A 
ATOM     37  N   UNL A   1      39.248  30.748  31.441  1.00  0.00    -0.354 N 
ATOM     38  C   UNL A   1      42.463  28.931  33.709  1.00  0.00     0.074 A 
ATOM     39  C   UNL A   1      43.048  27.830  32.975  1.00  0.00     0.031 C 
ATOM     40  C   UNL A   1      37.819  30.945  29.732  1.00  0.00     0.029 A 
ATOM     41  C   UNL A   1      38.235  31.559  30.989  1.00  0.00     0.049 A 
ATOM     42  H   UNL A   1      39.766  30.936  32.257  1.00  0.00     0.167 HD
ATOM     43  C   UNL A   1      42.909  29.382  34.904  1.00  0.00     0.037 A 
ATOM     44  C   UNL A   1      37.676  32.652  31.545  1.00  0.00     0.037 A 
ATOM     45  C   UNL A   1      42.347  30.509  35.599  1.00  0.00     0.049 A 
ATOM     46  C   UNL A   1      38.181  33.126  32.879  1.00  0.00     0.074 A 
ATOM     47  C   UNL A   1      42.715  31.040  36.823  1.00  0.00     0.029 A 
ATOM     48  N   UNL A   1      41.308  31.294  35.119  1.00  0.00    -0.354 N 
ATOM     49  N   UNL A   1      39.145  32.630  33.617  1.00  0.00    -0.248 NA
ATOM     50  C   UNL A   1      37.512  34.295  33.466  1.00  0.00     0.031 C 
ATOM     51  C   UNL A   1      41.883  32.133  37.093  1.00  0.00     0.029 A 
ATOM     52  C   UNL A   1      41.019  32.302  36.023  1.00  0.00     0.049 A 
ATOM     53  H   UNL A   1      40.845  31.153  34.262  1.00  0.00     0.167 HD
ATOM     54  C   UNL A   1      39.198  33.423  34.756  1.00  0.00     0.074 A 
ATOM     55  C   UNL A   1      38.185  34.447  34.599  1.00  0.00     0.031 C 
ATOM     56  C   UNL A   1      40.005  33.310  35.840  1.00  0.00     0.037 A 
BRANCH  43  57
ATOM     57  C   UNL A   1      44.027  28.621  35.556  1.00  0.00     0.058 A 
ATOM     58  C   UNL A   1      45.376  28.928  35.320  1.00  0.00     0.135 A 
ATOM     59  C   UNL A   1      43.738  27.572  36.444  1.00  0.00     0.135 A 
ATOM     60  F   UNL A   1      45.707  29.905  34.462  1.00  0.00    -0.206 F 
ATOM     61  C   UNL A   1      46.400  28.206  35.926  1.00  0.00     0.059 A 
ATOM     62  C   UNL A   1      44.745  26.850  37.076  1.00  0.00     0.059 A 
ATOM     63  F   UNL A   1      42.463  27.234  36.698  1.00  0.00    -0.206 F 
ATOM     64  C   UNL A   1      46.074  27.164  36.799  1.00  0.00     0.060 A 
BRANCH  64  65
ATOM     65  S   UNL A   1      47.409  26.230  37.575  1.00  0.00     0.124 S 
ATOM     66  O   UNL A   1      47.992  27.237  38.457  1.00  0.00    -0.237 OA
ATOM     67  O   UNL A   1      46.694  25.146  38.239  1.00  0.00    -0.237 OA
ATOM     68  O   UNL A   1      48.241  25.828  36.446  1.00  0.00    -0.744 OA
ENDBRANCH  64  65
ENDBRANCH  43  57
BRANCH  44  69
ATOM     69  C   UNL A   1      36.544  33.332  30.864  1.00  0.00     0.058 A 
ATOM     70  C   UNL A   1      35.229  33.202  31.331  1.00  0.00     0.135 A 
ATOM     71  C   UNL A   1      36.762  34.150  29.744  1.00  0.00     0.135 A 
ATOM     72  F   UNL A   1      34.968  32.420  32.391  1.00  0.00    -0.206 F 
ATOM     73  C   UNL A   1      34.168  33.857  30.713  1.00  0.00     0.059 A 
ATOM     74  C   UNL A   1      35.722  34.834  29.123  1.00  0.00     0.059 A 
ATOM     75  F   UNL A   1      38.004  34.315  29.263  1.00  0.00    -0.206 F 
ATOM     76  C   UNL A   1      34.426  34.675  29.611  1.00  0.00     0.060 A 
BRANCH  76  77
ATOM     77  S   UNL A   1      33.059  35.580  28.852  1.00  0.00     0.124 S 
ATOM     78  O   UNL A   1      32.417  34.534  28.064  1.00  0.00    -0.237 OA
ATOM     79  O   UNL A   1      32.313  36.052  30.014  1.00  0.00    -0.237 OA
ATOM     80  O   UNL A   1      33.736  36.623  28.087  1.00  0.00    -0.744 OA
ENDBRANCH  76  77
ENDBRANCH  44  69
BRANCH  56  81
ATOM     81  C   UNL A   1      39.832  34.327  36.928  1.00  0.00     0.058 A 
ATOM     82  C   UNL A   1      39.059  34.053  38.066  1.00  0.00     0.135 A 
ATOM     83  C   UNL A   1      40.484  35.567  36.853  1.00  0.00     0.135 A 
ATOM     84  F   UNL A   1      38.413  32.882  38.180  1.00  0.00    -0.206 F 
ATOM     85  C   UNL A   1      38.923  34.985  39.089  1.00  0.00     0.059 A 
ATOM     86  C   UNL A   1      40.376  36.508  37.873  1.00  0.00     0.059 A 
ATOM     87  F   UNL A   1      41.242  35.869  35.787  1.00  0.00    -0.206 F 
ATOM     88  C   UNL A   1      39.585  36.210  38.983  1.00  0.00     0.060 A 
BRANCH  88  89
ATOM     89  S   UNL A   1      39.428  37.403  40.329  1.00  0.00     0.124 S 
ATOM     90  O   UNL A   1      38.653  38.463  39.692  1.00  0.00    -0.237 OA
ATOM     91  O   UNL A   1      38.728  36.634  41.353  1.00  0.00    -0.237 OA
ATOM     92  O   UNL A   1      40.813  37.738  40.645  1.00  0.00    -0.744 OA
ENDBRANCH  88  89
ENDBRANCH  56  81
ENDBRANCH  30  31
ENDBRANCH  23  25
ENDBRANCH  22  23
ENDBRANCH   1  22
TORSDOF 17
ENDMDL
