MODEL 1
REMARK VINA RESULT:     -11.4      0.000      0.000
REMARK SMILES CO[C@@H]1C[C@@H](C(=O)OCCOC(=O)c2ccc(-c3c4nc(c(-c5c(F)cc(S(=O)(=O)[O-])cc5F)c5ccc([nH]5)c(-c5c(F)cc(S(=O)(=O)[O-])cc5F)c5nc(c(-c6c(F)cc(S(=O)(=O)[O-])cc6F)c6ccc3[nH]6)C=C5)C=C4)cc2)N(S(=O)(=O)/C=C/c2ccccc2)C1
REMARK SMILES IDX 9 1 8 2 6 3 7 4 5 5 3 6 4 7 92 8 80 9 2 10 1 11 81 12 82 13
REMARK SMILES IDX 83 14 84 15 85 16 86 17 87 18 91 19 88 20 90 21 89 22 10 23
REMARK SMILES IDX 11 24 12 25 13 26 14 27 15 28 79 29 16 30 78 31 17 32 18 33
REMARK SMILES IDX 19 34 72 35 20 36 77 37 71 38 73 39 21 40 76 41 70 42 69 43
REMARK SMILES IDX 22 45 56 46 35 47 55 48 36 49 39 50 54 51 74 52 37 53 38 54
REMARK SMILES IDX 53 56 75 57 40 58 23 59 24 60 33 61 25 62 26 63 32 64 34 65
REMARK SMILES IDX 27 66 28 67 29 68 30 69 31 70 57 71 58 72 67 73 59 74 60 75
REMARK SMILES IDX 66 76 68 77 61 78 62 79 63 80 64 81 65 82 41 83 42 84 51 85
REMARK SMILES IDX 43 86 44 87 50 88 52 89 45 90 46 91 47 92 48 93 49 94
REMARK H PARENT 73 44 39 55
REMARK Flexibility Score: inf
ROOT
ATOM      1  C   UNL A   1      37.746  22.616  25.966  1.00  0.00     0.274 C 
ENDROOT
BRANCH   1   2
ATOM      2  O   UNL A   1      36.511  22.635  25.227  1.00  0.00    -0.461 OA
BRANCH   2   3
ATOM      3  C   UNL A   1      35.376  22.607  25.959  1.00  0.00     0.324 C 
ATOM      4  O   UNL A   1      35.188  23.339  26.931  1.00  0.00    -0.250 OA
BRANCH   3   5
ATOM      5  C   UNL A   1      34.280  21.745  25.392  1.00  0.00     0.185 C 
ATOM      6  C   UNL A   1      33.672  19.630  24.528  1.00  0.00     0.135 C 
ATOM      7  C   UNL A   1      34.900  20.422  24.924  1.00  0.00     0.065 C 
ATOM      8  C   UNL A   1      32.869  20.687  23.752  1.00  0.00     0.135 C 
ATOM      9  N   UNL A   1      33.227  22.023  24.367  1.00  0.00    -0.181 NA
BRANCH   6  10
ATOM     10  O   UNL A   1      32.901  19.186  25.653  1.00  0.00    -0.380 OA
ATOM     11  C   UNL A   1      32.672  17.782  25.699  1.00  0.00     0.195 C 
ENDBRANCH   6  10
BRANCH   9  12
ATOM     12  S   UNL A   1      33.396  23.277  23.249  1.00  0.00     0.237 S 
ATOM     13  O   UNL A   1      34.724  23.114  22.685  1.00  0.00    -0.207 OA
ATOM     14  O   UNL A   1      32.250  23.185  22.362  1.00  0.00    -0.207 OA
BRANCH  12  15
ATOM     15  C   UNL A   1      33.315  24.816  24.030  1.00  0.00     0.123 C 
ATOM     16  C   UNL A   1      32.671  24.998  25.195  1.00  0.00     0.021 C 
BRANCH  16  17
ATOM     17  C   UNL A   1      32.700  26.313  25.858  1.00  0.00    -0.025 A 
ATOM     18  C   UNL A   1      31.552  26.795  26.503  1.00  0.00     0.008 A 
ATOM     19  C   UNL A   1      33.875  27.072  25.921  1.00  0.00     0.008 A 
ATOM     20  C   UNL A   1      31.601  27.962  27.270  1.00  0.00     0.001 A 
ATOM     21  C   UNL A   1      33.919  28.253  26.668  1.00  0.00     0.001 A 
ATOM     22  C   UNL A   1      32.788  28.687  27.359  1.00  0.00     0.000 A 
ENDBRANCH  16  17
ENDBRANCH  12  15
ENDBRANCH   9  12
ENDBRANCH   3   5
ENDBRANCH   2   3
ENDBRANCH   1   2
BRANCH   1  23
ATOM     23  C   UNL A   1      38.414  23.997  25.927  1.00  0.00     0.275 C 
BRANCH  23  24
ATOM     24  O   UNL A   1      39.716  24.055  26.556  1.00  0.00    -0.458 OA
BRANCH  24  25
ATOM     25  C   UNL A   1      40.387  25.213  26.380  1.00  0.00     0.338 C 
ATOM     26  O   UNL A   1      41.056  25.533  25.414  1.00  0.00    -0.246 OA
BRANCH  25  27
ATOM     27  C   UNL A   1      40.254  26.151  27.495  1.00  0.00     0.060 A 
ATOM     28  C   UNL A   1      41.148  27.226  27.541  1.00  0.00     0.016 A 
ATOM     29  C   UNL A   1      39.412  25.870  28.571  1.00  0.00     0.016 A 
ATOM     30  C   UNL A   1      41.189  28.043  28.661  1.00  0.00     0.010 A 
ATOM     31  C   UNL A   1      39.447  26.699  29.693  1.00  0.00     0.010 A 
ATOM     32  C   UNL A   1      40.329  27.791  29.737  1.00  0.00    -0.014 A 
BRANCH  32  33
ATOM     33  C   UNL A   1      40.279  28.760  30.850  1.00  0.00     0.031 A 
ATOM     34  C   UNL A   1      41.200  28.653  32.023  1.00  0.00     0.074 A 
ATOM     35  C   UNL A   1      39.378  29.756  30.759  1.00  0.00     0.049 A 
ATOM     36  N   UNL A   1      41.263  29.412  33.086  1.00  0.00    -0.248 NA
ATOM     37  C   UNL A   1      42.174  27.551  32.007  1.00  0.00     0.031 C 
ATOM     38  C   UNL A   1      38.448  29.944  29.641  1.00  0.00     0.029 A 
ATOM     39  N   UNL A   1      39.096  30.792  31.606  1.00  0.00    -0.354 N 
ATOM     40  C   UNL A   1      42.273  28.879  33.875  1.00  0.00     0.074 A 
ATOM     41  C   UNL A   1      42.790  27.722  33.172  1.00  0.00     0.031 C 
ATOM     42  C   UNL A   1      37.703  31.035  29.870  1.00  0.00     0.029 A 
ATOM     43  C   UNL A   1      38.078  31.599  31.162  1.00  0.00     0.049 A 
ATOM     44  H   UNL A   1      39.577  30.944  32.452  1.00  0.00     0.167 HD
ATOM     45  C   UNL A   1      42.720  29.320  35.075  1.00  0.00     0.037 A 
ATOM     46  C   UNL A   1      37.500  32.665  31.740  1.00  0.00     0.037 A 
ATOM     47  C   UNL A   1      42.191  30.477  35.755  1.00  0.00     0.049 A 
ATOM     48  C   UNL A   1      38.012  33.131  33.070  1.00  0.00     0.074 A 
ATOM     49  C   UNL A   1      42.575  31.015  36.972  1.00  0.00     0.029 A 
ATOM     50  N   UNL A   1      41.161  31.276  35.275  1.00  0.00    -0.354 N 
ATOM     51  N   UNL A   1      38.973  32.619  33.802  1.00  0.00    -0.248 NA
ATOM     52  C   UNL A   1      37.370  34.315  33.649  1.00  0.00     0.031 C 
ATOM     53  C   UNL A   1      41.758  32.120  37.241  1.00  0.00     0.029 A 
ATOM     54  C   UNL A   1      40.888  32.293  36.176  1.00  0.00     0.049 A 
ATOM     55  H   UNL A   1      40.691  31.139  34.421  1.00  0.00     0.167 HD
ATOM     56  C   UNL A   1      39.061  33.427  34.928  1.00  0.00     0.074 A 
ATOM     57  C   UNL A   1      38.064  34.469  34.770  1.00  0.00     0.031 C 
ATOM     58  C   UNL A   1      39.887  33.315  35.996  1.00  0.00     0.037 A 
BRANCH  45  59
ATOM     59  C   UNL A   1      43.816  28.539  35.743  1.00  0.00     0.058 A 
ATOM     60  C   UNL A   1      43.537  27.481  36.623  1.00  0.00     0.135 A 
ATOM     61  C   UNL A   1      45.163  28.826  35.472  1.00  0.00     0.135 A 
ATOM     62  F   UNL A   1      42.267  27.174  36.928  1.00  0.00    -0.206 F 
ATOM     63  C   UNL A   1      44.556  26.749  37.227  1.00  0.00     0.059 A 
ATOM     64  C   UNL A   1      46.198  28.094  36.048  1.00  0.00     0.059 A 
ATOM     65  F   UNL A   1      45.485  29.828  34.638  1.00  0.00    -0.206 F 
ATOM     66  C   UNL A   1      45.884  27.066  36.936  1.00  0.00     0.060 A 
BRANCH  66  67
ATOM     67  S   UNL A   1      47.199  26.111  37.723  1.00  0.00     0.124 S 
ATOM     68  O   UNL A   1      47.049  26.506  39.121  1.00  0.00    -0.237 OA
ATOM     69  O   UNL A   1      46.823  24.736  37.410  1.00  0.00    -0.237 OA
ATOM     70  O   UNL A   1      48.409  26.590  37.062  1.00  0.00    -0.744 OA
ENDBRANCH  66  67
ENDBRANCH  45  59
BRANCH  46  71
ATOM     71  C   UNL A   1      36.382  33.352  31.048  1.00  0.00     0.058 A 
ATOM     72  C   UNL A   1      35.080  33.310  31.563  1.00  0.00     0.135 A 
ATOM     73  C   UNL A   1      36.610  34.119  29.894  1.00  0.00     0.135 A 
ATOM     74  F   UNL A   1      34.818  32.592  32.665  1.00  0.00    -0.206 F 
ATOM     75  C   UNL A   1      34.038  34.002  30.956  1.00  0.00     0.059 A 
ATOM     76  C   UNL A   1      35.589  34.836  29.282  1.00  0.00     0.059 A 
ATOM     77  F   UNL A   1      37.846  34.207  29.379  1.00  0.00    -0.206 F 
ATOM     78  C   UNL A   1      34.303  34.767  29.819  1.00  0.00     0.060 A 
BRANCH  78  79
ATOM     79  S   UNL A   1      32.964  35.726  29.081  1.00  0.00     0.124 S 
ATOM     80  O   UNL A   1      32.374  34.751  28.171  1.00  0.00    -0.237 OA
ATOM     81  O   UNL A   1      32.158  36.082  30.245  1.00  0.00    -0.237 OA
ATOM     82  O   UNL A   1      33.662  36.841  28.449  1.00  0.00    -0.744 OA
ENDBRANCH  78  79
ENDBRANCH  46  71
BRANCH  58  83
ATOM     83  C   UNL A   1      39.753  34.362  37.062  1.00  0.00     0.058 A 
ATOM     84  C   UNL A   1      40.374  35.615  36.940  1.00  0.00     0.135 A 
ATOM     85  C   UNL A   1      38.981  34.116  38.208  1.00  0.00     0.135 A 
ATOM     86  F   UNL A   1      41.130  35.891  35.865  1.00  0.00    -0.206 F 
ATOM     87  C   UNL A   1      40.258  36.580  37.933  1.00  0.00     0.059 A 
ATOM     88  C   UNL A   1      38.835  35.075  39.205  1.00  0.00     0.059 A 
ATOM     89  F   UNL A   1      38.363  32.935  38.365  1.00  0.00    -0.206 F 
ATOM     90  C   UNL A   1      39.489  36.298  39.064  1.00  0.00     0.060 A 
BRANCH  90  91
ATOM     91  S   UNL A   1      39.331  37.562  40.345  1.00  0.00     0.124 S 
ATOM     92  O   UNL A   1      40.647  38.189  40.300  1.00  0.00    -0.237 OA
ATOM     93  O   UNL A   1      38.224  38.375  39.852  1.00  0.00    -0.237 OA
ATOM     94  O   UNL A   1      39.043  36.787  41.548  1.00  0.00    -0.744 OA
ENDBRANCH  90  91
ENDBRANCH  58  83
ENDBRANCH  32  33
ENDBRANCH  25  27
ENDBRANCH  24  25
ENDBRANCH  23  24
ENDBRANCH   1  23
TORSDOF 18
ENDMDL
MODEL 2
REMARK VINA RESULT:     -11.0      2.776      8.771
REMARK SMILES CO[C@@H]1C[C@@H](C(=O)OCCOC(=O)c2ccc(-c3c4nc(c(-c5c(F)cc(S(=O)(=O)[O-])cc5F)c5ccc([nH]5)c(-c5c(F)cc(S(=O)(=O)[O-])cc5F)c5nc(c(-c6c(F)cc(S(=O)(=O)[O-])cc6F)c6ccc3[nH]6)C=C5)C=C4)cc2)N(S(=O)(=O)/C=C/c2ccccc2)C1
REMARK SMILES IDX 9 1 8 2 6 3 7 4 5 5 3 6 4 7 92 8 80 9 2 10 1 11 81 12 82 13
REMARK SMILES IDX 83 14 84 15 85 16 86 17 87 18 91 19 88 20 90 21 89 22 10 23
REMARK SMILES IDX 11 24 12 25 13 26 14 27 15 28 79 29 16 30 78 31 17 32 18 33
REMARK SMILES IDX 19 34 72 35 20 36 77 37 71 38 73 39 21 40 76 41 70 42 69 43
REMARK SMILES IDX 22 45 56 46 35 47 55 48 36 49 39 50 54 51 74 52 37 53 38 54
REMARK SMILES IDX 53 56 75 57 40 58 23 59 24 60 33 61 25 62 26 63 32 64 34 65
REMARK SMILES IDX 27 66 28 67 29 68 30 69 31 70 57 71 58 72 67 73 59 74 60 75
REMARK SMILES IDX 66 76 68 77 61 78 62 79 63 80 64 81 65 82 41 83 42 84 51 85
REMARK SMILES IDX 43 86 44 87 50 88 52 89 45 90 46 91 47 92 48 93 49 94
REMARK H PARENT 73 44 39 55
REMARK Flexibility Score: inf
ROOT
ATOM      1  C   UNL A   1      35.583  23.437  26.141  1.00  0.00     0.274 C 
ENDROOT
BRANCH   1   2
ATOM      2  O   UNL A   1      35.190  24.541  25.304  1.00  0.00    -0.461 OA
BRANCH   2   3
ATOM      3  C   UNL A   1      34.073  24.362  24.567  1.00  0.00     0.324 C 
ATOM      4  O   UNL A   1      33.894  24.907  23.477  1.00  0.00    -0.250 OA
BRANCH   3   5
ATOM      5  C   UNL A   1      33.137  23.303  25.086  1.00  0.00     0.185 C 
ATOM      6  C   UNL A   1      31.983  21.289  24.640  1.00  0.00     0.135 C 
ATOM      7  C   UNL A   1      32.792  22.355  23.932  1.00  0.00     0.065 C 
ATOM      8  C   UNL A   1      31.073  22.146  25.534  1.00  0.00     0.135 C 
ATOM      9  N   UNL A   1      31.860  23.398  25.859  1.00  0.00    -0.181 NA
BRANCH   6  10
ATOM     10  O   UNL A   1      32.782  20.431  25.466  1.00  0.00    -0.380 OA
ATOM     11  C   UNL A   1      33.947  19.913  24.833  1.00  0.00     0.195 C 
ENDBRANCH   6  10
BRANCH   9  12
ATOM     12  S   UNL A   1      30.938  24.813  25.865  1.00  0.00     0.237 S 
ATOM     13  O   UNL A   1      30.627  25.077  24.472  1.00  0.00    -0.207 OA
ATOM     14  O   UNL A   1      29.842  24.577  26.787  1.00  0.00    -0.207 OA
BRANCH  12  15
ATOM     15  C   UNL A   1      31.851  26.142  26.486  1.00  0.00     0.123 C 
ATOM     16  C   UNL A   1      31.924  27.324  25.850  1.00  0.00     0.021 C 
BRANCH  16  17
ATOM     17  C   UNL A   1      32.651  28.449  26.463  1.00  0.00    -0.025 A 
ATOM     18  C   UNL A   1      34.025  28.336  26.715  1.00  0.00     0.008 A 
ATOM     19  C   UNL A   1      32.015  29.665  26.737  1.00  0.00     0.008 A 
ATOM     20  C   UNL A   1      34.765  29.440  27.148  1.00  0.00     0.001 A 
ATOM     21  C   UNL A   1      32.748  30.764  27.192  1.00  0.00     0.001 A 
ATOM     22  C   UNL A   1      34.127  30.658  27.377  1.00  0.00     0.000 A 
ENDBRANCH  16  17
ENDBRANCH  12  15
ENDBRANCH   9  12
ENDBRANCH   3   5
ENDBRANCH   2   3
ENDBRANCH   1   2
BRANCH   1  23
ATOM     23  C   UNL A   1      36.889  22.815  25.628  1.00  0.00     0.275 C 
BRANCH  23  24
ATOM     24  O   UNL A   1      37.971  23.757  25.439  1.00  0.00    -0.458 OA
BRANCH  24  25
ATOM     25  C   UNL A   1      39.094  23.488  26.139  1.00  0.00     0.338 C 
ATOM     26  O   UNL A   1      39.722  22.445  26.145  1.00  0.00    -0.246 OA
BRANCH  25  27
ATOM     27  C   UNL A   1      39.569  24.608  26.952  1.00  0.00     0.060 A 
ATOM     28  C   UNL A   1      39.008  24.761  28.225  1.00  0.00     0.016 A 
ATOM     29  C   UNL A   1      40.387  25.596  26.404  1.00  0.00     0.016 A 
ATOM     30  C   UNL A   1      39.283  25.899  28.968  1.00  0.00     0.010 A 
ATOM     31  C   UNL A   1      40.671  26.736  27.157  1.00  0.00     0.010 A 
ATOM     32  C   UNL A   1      40.127  26.886  28.443  1.00  0.00    -0.014 A 
BRANCH  32  33
ATOM     33  C   UNL A   1      40.530  28.011  29.309  1.00  0.00     0.031 A 
ATOM     34  C   UNL A   1      39.644  29.200  29.511  1.00  0.00     0.074 A 
ATOM     35  C   UNL A   1      41.724  27.920  29.922  1.00  0.00     0.049 A 
ATOM     36  N   UNL A   1      39.866  30.274  30.221  1.00  0.00    -0.248 NA
ATOM     37  C   UNL A   1      38.343  29.185  28.827  1.00  0.00     0.031 C 
ATOM     38  C   UNL A   1      42.649  26.788  29.792  1.00  0.00     0.029 A 
ATOM     39  N   UNL A   1      42.365  28.777  30.774  1.00  0.00    -0.354 N 
ATOM     40  C   UNL A   1      38.742  31.073  30.065  1.00  0.00     0.074 A 
ATOM     41  C   UNL A   1      37.841  30.362  29.180  1.00  0.00     0.031 C 
ATOM     42  C   UNL A   1      43.734  27.020  30.543  1.00  0.00     0.029 A 
ATOM     43  C   UNL A   1      43.598  28.327  31.177  1.00  0.00     0.049 A 
ATOM     44  H   UNL A   1      41.979  29.633  31.070  1.00  0.00     0.167 HD
ATOM     45  C   UNL A   1      38.494  32.288  30.612  1.00  0.00     0.037 A 
ATOM     46  C   UNL A   1      44.523  28.911  31.957  1.00  0.00     0.037 A 
ATOM     47  C   UNL A   1      39.407  32.975  31.492  1.00  0.00     0.049 A 
ATOM     48  C   UNL A   1      44.225  30.256  32.547  1.00  0.00     0.074 A 
ATOM     49  C   UNL A   1      39.253  34.207  32.106  1.00  0.00     0.029 A 
ATOM     50  N   UNL A   1      40.648  32.490  31.883  1.00  0.00    -0.354 N 
ATOM     51  N   UNL A   1      43.153  30.998  32.394  1.00  0.00    -0.248 NA
ATOM     52  C   UNL A   1      45.251  30.841  33.414  1.00  0.00     0.031 C 
ATOM     53  C   UNL A   1      40.411  34.478  32.844  1.00  0.00     0.029 A 
ATOM     54  C   UNL A   1      41.274  33.400  32.719  1.00  0.00     0.049 A 
ATOM     55  H   UNL A   1      41.029  31.625  31.606  1.00  0.00     0.167 HD
ATOM     56  C   UNL A   1      43.370  32.137  33.157  1.00  0.00     0.074 A 
ATOM     57  C   UNL A   1      44.670  31.977  33.782  1.00  0.00     0.031 C 
ATOM     58  C   UNL A   1      42.570  33.217  33.324  1.00  0.00     0.037 A 
BRANCH  45  59
ATOM     59  C   UNL A   1      37.201  32.964  30.256  1.00  0.00     0.058 A 
ATOM     60  C   UNL A   1      37.065  33.728  29.086  1.00  0.00     0.135 A 
ATOM     61  C   UNL A   1      36.071  32.815  31.075  1.00  0.00     0.135 A 
ATOM     62  F   UNL A   1      38.118  33.915  28.275  1.00  0.00    -0.206 F 
ATOM     63  C   UNL A   1      35.858  34.339  28.752  1.00  0.00     0.059 A 
ATOM     64  C   UNL A   1      34.849  33.399  30.750  1.00  0.00     0.059 A 
ATOM     65  F   UNL A   1      36.145  32.094  32.205  1.00  0.00    -0.206 F 
ATOM     66  C   UNL A   1      34.757  34.172  29.593  1.00  0.00     0.060 A 
BRANCH  66  67
ATOM     67  S   UNL A   1      33.197  34.966  29.152  1.00  0.00     0.124 S 
ATOM     68  O   UNL A   1      32.498  34.967  30.434  1.00  0.00    -0.237 OA
ATOM     69  O   UNL A   1      33.632  36.273  28.667  1.00  0.00    -0.237 OA
ATOM     70  O   UNL A   1      32.640  34.080  28.135  1.00  0.00    -0.744 OA
ENDBRANCH  66  67
ENDBRANCH  45  59
BRANCH  46  71
ATOM     71  C   UNL A   1      45.804  28.209  32.217  1.00  0.00     0.058 A 
ATOM     72  C   UNL A   1      45.944  27.345  33.311  1.00  0.00     0.135 A 
ATOM     73  C   UNL A   1      46.890  28.338  31.336  1.00  0.00     0.135 A 
ATOM     74  F   UNL A   1      44.931  27.188  34.176  1.00  0.00    -0.206 F 
ATOM     75  C   UNL A   1      47.119  26.633  33.527  1.00  0.00     0.059 A 
ATOM     76  C   UNL A   1      48.066  27.622  31.519  1.00  0.00     0.059 A 
ATOM     77  F   UNL A   1      46.792  29.137  30.262  1.00  0.00    -0.206 F 
ATOM     78  C   UNL A   1      48.173  26.775  32.622  1.00  0.00     0.060 A 
BRANCH  78  79
ATOM     79  S   UNL A   1      49.667  25.790  32.863  1.00  0.00     0.124 S 
ATOM     80  O   UNL A   1      50.444  26.651  33.748  1.00  0.00    -0.237 OA
ATOM     81  O   UNL A   1      49.141  24.568  33.462  1.00  0.00    -0.237 OA
ATOM     82  O   UNL A   1      50.188  25.639  31.508  1.00  0.00    -0.744 OA
ENDBRANCH  78  79
ENDBRANCH  46  71
BRANCH  58  83
ATOM     83  C   UNL A   1      43.080  34.297  34.234  1.00  0.00     0.058 A 
ATOM     84  C   UNL A   1      43.877  35.345  33.749  1.00  0.00     0.135 A 
ATOM     85  C   UNL A   1      42.752  34.291  35.598  1.00  0.00     0.135 A 
ATOM     86  F   UNL A   1      44.223  35.387  32.453  1.00  0.00    -0.206 F 
ATOM     87  C   UNL A   1      44.357  36.338  34.595  1.00  0.00     0.059 A 
ATOM     88  C   UNL A   1      43.204  35.286  36.458  1.00  0.00     0.059 A 
ATOM     89  F   UNL A   1      41.987  33.312  36.105  1.00  0.00    -0.206 F 
ATOM     90  C   UNL A   1      44.018  36.298  35.949  1.00  0.00     0.060 A 
BRANCH  90  91
ATOM     91  S   UNL A   1      44.634  37.599  37.038  1.00  0.00     0.124 S 
ATOM     92  O   UNL A   1      44.241  38.800  36.311  1.00  0.00    -0.237 OA
ATOM     93  O   UNL A   1      43.909  37.342  38.279  1.00  0.00    -0.237 OA
ATOM     94  O   UNL A   1      46.069  37.338  37.096  1.00  0.00    -0.744 OA
ENDBRANCH  90  91
ENDBRANCH  58  83
ENDBRANCH  32  33
ENDBRANCH  25  27
ENDBRANCH  24  25
ENDBRANCH  23  24
ENDBRANCH   1  23
TORSDOF 18
ENDMDL
MODEL 3
REMARK VINA RESULT:     -11.0      3.152      3.929
REMARK SMILES CO[C@@H]1C[C@@H](C(=O)OCCOC(=O)c2ccc(-c3c4nc(c(-c5c(F)cc(S(=O)(=O)[O-])cc5F)c5ccc([nH]5)c(-c5c(F)cc(S(=O)(=O)[O-])cc5F)c5nc(c(-c6c(F)cc(S(=O)(=O)[O-])cc6F)c6ccc3[nH]6)C=C5)C=C4)cc2)N(S(=O)(=O)/C=C/c2ccccc2)C1
REMARK SMILES IDX 9 1 8 2 6 3 7 4 5 5 3 6 4 7 92 8 80 9 2 10 1 11 81 12 82 13
REMARK SMILES IDX 83 14 84 15 85 16 86 17 87 18 91 19 88 20 90 21 89 22 10 23
REMARK SMILES IDX 11 24 12 25 13 26 14 27 15 28 79 29 16 30 78 31 17 32 18 33
REMARK SMILES IDX 19 34 72 35 20 36 77 37 71 38 73 39 21 40 76 41 70 42 69 43
REMARK SMILES IDX 22 45 56 46 35 47 55 48 36 49 39 50 54 51 74 52 37 53 38 54
REMARK SMILES IDX 53 56 75 57 40 58 23 59 24 60 33 61 25 62 26 63 32 64 34 65
REMARK SMILES IDX 27 66 28 67 29 68 30 69 31 70 57 71 58 72 67 73 59 74 60 75
REMARK SMILES IDX 66 76 68 77 61 78 62 79 63 80 64 81 65 82 41 83 42 84 51 85
REMARK SMILES IDX 43 86 44 87 50 88 52 89 45 90 46 91 47 92 48 93 49 94
REMARK H PARENT 73 44 39 55
REMARK Flexibility Score: inf
ROOT
ATOM      1  C   UNL A   1      35.539  23.563  26.422  1.00  0.00     0.274 C 
ENDROOT
BRANCH   1   2
ATOM      2  O   UNL A   1      35.093  24.633  25.568  1.00  0.00    -0.461 OA
BRANCH   2   3
ATOM      3  C   UNL A   1      34.111  24.327  24.692  1.00  0.00     0.324 C 
ATOM      4  O   UNL A   1      34.076  24.768  23.544  1.00  0.00    -0.250 OA
BRANCH   3   5
ATOM      5  C   UNL A   1      33.158  23.260  25.161  1.00  0.00     0.185 C 
ATOM      6  C   UNL A   1      32.036  21.243  24.649  1.00  0.00     0.135 C 
ATOM      7  C   UNL A   1      32.871  22.317  23.986  1.00  0.00     0.065 C 
ATOM      8  C   UNL A   1      31.080  22.090  25.505  1.00  0.00     0.135 C 
ATOM      9  N   UNL A   1      31.845  23.344  25.873  1.00  0.00    -0.181 NA
BRANCH   6  10
ATOM     10  O   UNL A   1      32.799  20.384  25.506  1.00  0.00    -0.380 OA
ATOM     11  C   UNL A   1      33.793  19.612  24.841  1.00  0.00     0.195 C 
ENDBRANCH   6  10
BRANCH   9  12
ATOM     12  S   UNL A   1      30.916  24.754  25.845  1.00  0.00     0.237 S 
ATOM     13  O   UNL A   1      30.544  24.943  24.454  1.00  0.00    -0.207 OA
ATOM     14  O   UNL A   1      29.862  24.565  26.825  1.00  0.00    -0.207 OA
BRANCH  12  15
ATOM     15  C   UNL A   1      31.848  26.118  26.354  1.00  0.00     0.123 C 
ATOM     16  C   UNL A   1      31.777  27.309  25.735  1.00  0.00     0.021 C 
BRANCH  16  17
ATOM     17  C   UNL A   1      32.533  28.459  26.258  1.00  0.00    -0.025 A 
ATOM     18  C   UNL A   1      31.913  29.711  26.365  1.00  0.00     0.008 A 
ATOM     19  C   UNL A   1      33.847  28.317  26.722  1.00  0.00     0.008 A 
ATOM     20  C   UNL A   1      32.558  30.776  27.001  1.00  0.00     0.001 A 
ATOM     21  C   UNL A   1      34.502  29.388  27.338  1.00  0.00     0.001 A 
ATOM     22  C   UNL A   1      33.850  30.611  27.496  1.00  0.00     0.000 A 
ENDBRANCH  16  17
ENDBRANCH  12  15
ENDBRANCH   9  12
ENDBRANCH   3   5
ENDBRANCH   2   3
ENDBRANCH   1   2
BRANCH   1  23
ATOM     23  C   UNL A   1      36.623  22.733  25.719  1.00  0.00     0.275 C 
BRANCH  23  24
ATOM     24  O   UNL A   1      37.818  23.472  25.374  1.00  0.00    -0.458 OA
BRANCH  24  25
ATOM     25  C   UNL A   1      38.905  23.185  26.123  1.00  0.00     0.338 C 
ATOM     26  O   UNL A   1      39.446  22.101  26.242  1.00  0.00    -0.246 OA
BRANCH  25  27
ATOM     27  C   UNL A   1      39.455  24.337  26.836  1.00  0.00     0.060 A 
ATOM     28  C   UNL A   1      39.005  24.558  28.143  1.00  0.00     0.016 A 
ATOM     29  C   UNL A   1      40.230  25.288  26.173  1.00  0.00     0.016 A 
ATOM     30  C   UNL A   1      39.351  25.728  28.804  1.00  0.00     0.010 A 
ATOM     31  C   UNL A   1      40.586  26.460  26.843  1.00  0.00     0.010 A 
ATOM     32  C   UNL A   1      40.154  26.678  28.162  1.00  0.00    -0.014 A 
BRANCH  32  33
ATOM     33  C   UNL A   1      40.638  27.840  28.934  1.00  0.00     0.031 A 
ATOM     34  C   UNL A   1      42.016  27.875  29.514  1.00  0.00     0.074 A 
ATOM     35  C   UNL A   1      39.792  28.875  29.082  1.00  0.00     0.049 A 
ATOM     36  N   UNL A   1      42.577  28.811  30.233  1.00  0.00    -0.248 NA
ATOM     37  C   UNL A   1      42.876  26.709  29.262  1.00  0.00     0.031 C 
ATOM     38  C   UNL A   1      38.432  28.931  28.537  1.00  0.00     0.029 A 
ATOM     39  N   UNL A   1      39.943  30.073  29.726  1.00  0.00    -0.354 N 
ATOM     40  C   UNL A   1      43.852  28.350  30.531  1.00  0.00     0.074 A 
ATOM     41  C   UNL A   1      43.978  27.041  29.924  1.00  0.00     0.031 C 
ATOM     42  C   UNL A   1      37.876  30.106  28.863  1.00  0.00     0.029 A 
ATOM     43  C   UNL A   1      38.824  30.868  29.668  1.00  0.00     0.049 A 
ATOM     44  H   UNL A   1      40.772  30.339  30.184  1.00  0.00     0.167 HD
ATOM     45  C   UNL A   1      44.821  28.969  31.249  1.00  0.00     0.037 A 
ATOM     46  C   UNL A   1      38.585  32.071  30.218  1.00  0.00     0.037 A 
ATOM     47  C   UNL A   1      44.672  30.274  31.843  1.00  0.00     0.049 A 
ATOM     48  C   UNL A   1      39.673  32.731  31.010  1.00  0.00     0.074 A 
ATOM     49  C   UNL A   1      45.591  30.996  32.586  1.00  0.00     0.029 A 
ATOM     50  N   UNL A   1      43.526  31.055  31.764  1.00  0.00    -0.354 N 
ATOM     51  N   UNL A   1      40.877  32.284  31.279  1.00  0.00    -0.248 NA
ATOM     52  C   UNL A   1      39.377  34.055  31.567  1.00  0.00     0.031 C 
ATOM     53  C   UNL A   1      44.993  32.199  32.978  1.00  0.00     0.029 A 
ATOM     54  C   UNL A   1      43.711  32.244  32.452  1.00  0.00     0.049 A 
ATOM     55  H   UNL A   1      42.702  30.802  31.288  1.00  0.00     0.167 HD
ATOM     56  C   UNL A   1      41.490  33.278  32.030  1.00  0.00     0.074 A 
ATOM     57  C   UNL A   1      40.526  34.356  32.158  1.00  0.00     0.031 C 
ATOM     58  C   UNL A   1      42.733  33.298  32.567  1.00  0.00     0.037 A 
BRANCH  45  59
ATOM     59  C   UNL A   1      46.115  28.234  31.455  1.00  0.00     0.058 A 
ATOM     60  C   UNL A   1      46.287  27.322  32.509  1.00  0.00     0.135 A 
ATOM     61  C   UNL A   1      47.185  28.415  30.565  1.00  0.00     0.135 A 
ATOM     62  F   UNL A   1      45.300  27.123  33.396  1.00  0.00    -0.206 F 
ATOM     63  C   UNL A   1      47.483  26.631  32.685  1.00  0.00     0.059 A 
ATOM     64  C   UNL A   1      48.383  27.720  30.710  1.00  0.00     0.059 A 
ATOM     65  F   UNL A   1      47.074  29.275  29.540  1.00  0.00    -0.206 F 
ATOM     66  C   UNL A   1      48.527  26.840  31.783  1.00  0.00     0.060 A 
BRANCH  66  67
ATOM     67  S   UNL A   1      50.074  25.939  32.018  1.00  0.00     0.124 S 
ATOM     68  O   UNL A   1      49.953  24.886  31.014  1.00  0.00    -0.237 OA
ATOM     69  O   UNL A   1      51.080  26.961  31.747  1.00  0.00    -0.237 OA
ATOM     70  O   UNL A   1      49.999  25.493  33.406  1.00  0.00    -0.744 OA
ENDBRANCH  66  67
ENDBRANCH  45  59
BRANCH  46  71
ATOM     71  C   UNL A   1      37.261  32.710  30.022  1.00  0.00     0.058 A 
ATOM     72  C   UNL A   1      36.204  32.466  30.908  1.00  0.00     0.135 A 
ATOM     73  C   UNL A   1      37.050  33.629  28.982  1.00  0.00     0.135 A 
ATOM     74  F   UNL A   1      36.363  31.597  31.919  1.00  0.00    -0.206 F 
ATOM     75  C   UNL A   1      34.979  33.108  30.770  1.00  0.00     0.059 A 
ATOM     76  C   UNL A   1      35.842  34.299  28.836  1.00  0.00     0.059 A 
ATOM     77  F   UNL A   1      38.042  33.911  28.123  1.00  0.00    -0.206 F 
ATOM     78  C   UNL A   1      34.809  34.028  29.733  1.00  0.00     0.060 A 
BRANCH  78  79
ATOM     79  S   UNL A   1      33.243  34.918  29.604  1.00  0.00     0.124 S 
ATOM     80  O   UNL A   1      32.499  34.067  28.683  1.00  0.00    -0.237 OA
ATOM     81  O   UNL A   1      32.775  34.924  30.987  1.00  0.00    -0.237 OA
ATOM     82  O   UNL A   1      33.644  36.220  29.082  1.00  0.00    -0.744 OA
ENDBRANCH  78  79
ENDBRANCH  46  71
BRANCH  58  83
ATOM     83  C   UNL A   1      43.119  34.534  33.324  1.00  0.00     0.058 A 
ATOM     84  C   UNL A   1      43.745  35.617  32.686  1.00  0.00     0.135 A 
ATOM     85  C   UNL A   1      42.845  34.643  34.696  1.00  0.00     0.135 A 
ATOM     86  F   UNL A   1      44.036  35.553  31.378  1.00  0.00    -0.206 F 
ATOM     87  C   UNL A   1      44.113  36.757  33.391  1.00  0.00     0.059 A 
ATOM     88  C   UNL A   1      43.185  35.784  35.416  1.00  0.00     0.059 A 
ATOM     89  F   UNL A   1      42.242  33.636  35.347  1.00  0.00    -0.206 F 
ATOM     90  C   UNL A   1      43.832  36.829  34.757  1.00  0.00     0.060 A 
BRANCH  90  91
ATOM     91  S   UNL A   1      44.299  38.319  35.663  1.00  0.00     0.124 S 
ATOM     92  O   UNL A   1      45.755  38.259  35.595  1.00  0.00    -0.237 OA
ATOM     93  O   UNL A   1      43.671  39.377  34.879  1.00  0.00    -0.237 OA
ATOM     94  O   UNL A   1      43.720  38.103  36.986  1.00  0.00    -0.744 OA
ENDBRANCH  90  91
ENDBRANCH  58  83
ENDBRANCH  32  33
ENDBRANCH  25  27
ENDBRANCH  24  25
ENDBRANCH  23  24
ENDBRANCH   1  23
TORSDOF 18
ENDMDL
