MODEL 1
REMARK VINA RESULT:     -11.6      0.000      0.000
REMARK SMILES COc1cccc(NC(=O)[C@@H]2[C@@H](C(=O)OCCOC(=O)c3ccc(-c4c5nc(c(-c6c(F)cc(S(=O)(=O)[O-])cc6F)c6ccc([nH]6)c(-c6c(F)cc(S(=O)(=O)[O-])cc6F)c6nc(c(-c7c(F)cc(S(=O)(=O)[O-])cc7F)c7ccc4[nH]7)C=C6)C=C5)cc3)[C@H]3C=C[C@@H]2C3)c1
REMARK SMILES IDX 16 1 15 2 13 3 14 4 12 5 11 6 90 7 87 8 89 9 91 10 88 11
REMARK SMILES IDX 9 12 8 13 10 15 7 16 3 17 4 18 92 19 5 20 6 21 2 22 1 23
REMARK SMILES IDX 17 24 18 25 19 26 20 27 21 28 22 29 86 30 23 31 85 32 24 33
REMARK SMILES IDX 25 34 26 35 79 36 27 37 84 38 78 39 80 40 28 41 83 42 77 43
REMARK SMILES IDX 76 44 29 46 63 47 42 48 62 49 43 50 46 51 61 52 81 53 44 54
REMARK SMILES IDX 45 55 60 57 82 58 47 59 30 60 31 61 40 62 32 63 33 64 39 65
REMARK SMILES IDX 41 66 34 67 35 68 36 69 37 70 38 71 64 72 65 73 74 74 66 75
REMARK SMILES IDX 67 76 73 77 75 78 68 79 69 80 70 81 71 82 72 83 48 84 49 85
REMARK SMILES IDX 58 86 50 87 51 88 57 89 59 90 52 91 53 92 54 93 55 94 56 95
REMARK H PARENT 8 14 80 45 46 56
REMARK Flexibility Score: inf
ROOT
ATOM      1  C   UNL A   1      37.560  22.457  25.567  1.00  0.00     0.274 C 
ENDROOT
BRANCH   1   2
ATOM      2  O   UNL A   1      36.648  23.423  26.114  1.00  0.00    -0.462 OA
BRANCH   2   3
ATOM      3  C   UNL A   1      35.338  23.068  26.160  1.00  0.00     0.310 C 
ATOM      4  O   UNL A   1      34.905  22.073  26.729  1.00  0.00    -0.252 OA
BRANCH   3   5
ATOM      5  C   UNL A   1      34.443  24.146  25.582  1.00  0.00     0.119 C 
ATOM      6  C   UNL A   1      32.957  23.745  25.600  1.00  0.00     0.100 C 
ATOM      7  C   UNL A   1      32.526  23.913  24.120  1.00  0.00     0.025 C 
ATOM      8  C   UNL A   1      34.683  24.504  24.092  1.00  0.00     0.027 C 
ATOM      9  C   UNL A   1      33.275  22.873  23.298  1.00  0.00    -0.027 C 
ATOM     10  C   UNL A   1      33.344  25.119  23.670  1.00  0.00     0.017 C 
ATOM     11  C   UNL A   1      34.566  23.243  23.266  1.00  0.00    -0.027 C 
BRANCH   6  12
ATOM     12  C   UNL A   1      32.036  24.401  26.630  1.00  0.00     0.228 C 
ATOM     13  N   UNL A   1      31.594  25.679  26.717  1.00  0.00    -0.326 N 
ATOM     14  H   UNL A   1      30.868  25.740  27.380  1.00  0.00     0.169 HD
ATOM     15  O   UNL A   1      31.492  23.638  27.449  1.00  0.00    -0.274 OA
BRANCH  13  16
ATOM     16  C   UNL A   1      31.842  26.943  26.159  1.00  0.00     0.044 A 
ATOM     17  C   UNL A   1      33.277  28.903  26.201  1.00  0.00     0.120 A 
ATOM     18  C   UNL A   1      32.464  29.555  25.284  1.00  0.00     0.046 A 
ATOM     19  C   UNL A   1      32.971  27.616  26.645  1.00  0.00     0.072 A 
ATOM     20  C   UNL A   1      31.401  28.863  24.723  1.00  0.00     0.006 A 
ATOM     21  C   UNL A   1      31.122  27.553  25.133  1.00  0.00     0.026 A 
BRANCH  17  22
ATOM     22  O   UNL A   1      34.366  29.553  26.715  1.00  0.00    -0.497 OA
ATOM     23  C   UNL A   1      33.947  30.780  27.320  1.00  0.00     0.278 C 
ENDBRANCH  17  22
ENDBRANCH  13  16
ENDBRANCH   6  12
ENDBRANCH   3   5
ENDBRANCH   2   3
ENDBRANCH   1   2
BRANCH   1  24
ATOM     24  C   UNL A   1      38.943  22.633  26.198  1.00  0.00     0.275 C 
BRANCH  24  25
ATOM     25  O   UNL A   1      39.071  23.901  26.868  1.00  0.00    -0.458 OA
BRANCH  25  26
ATOM     26  C   UNL A   1      40.319  24.424  26.908  1.00  0.00     0.338 C 
ATOM     27  O   UNL A   1      41.250  24.182  26.158  1.00  0.00    -0.246 OA
BRANCH  26  28
ATOM     28  C   UNL A   1      40.393  25.442  27.968  1.00  0.00     0.060 A 
ATOM     29  C   UNL A   1      39.295  25.603  28.818  1.00  0.00     0.016 A 
ATOM     30  C   UNL A   1      41.502  26.281  28.075  1.00  0.00     0.016 A 
ATOM     31  C   UNL A   1      39.288  26.626  29.760  1.00  0.00     0.010 A 
ATOM     32  C   UNL A   1      41.505  27.293  29.039  1.00  0.00     0.010 A 
ATOM     33  C   UNL A   1      40.392  27.480  29.879  1.00  0.00    -0.014 A 
BRANCH  33  34
ATOM     34  C   UNL A   1      40.385  28.576  30.878  1.00  0.00     0.031 A 
ATOM     35  C   UNL A   1      41.324  28.532  32.050  1.00  0.00     0.074 A 
ATOM     36  C   UNL A   1      39.526  29.602  30.730  1.00  0.00     0.049 A 
ATOM     37  N   UNL A   1      41.399  29.337  33.077  1.00  0.00    -0.248 NA
ATOM     38  C   UNL A   1      42.305  27.436  32.070  1.00  0.00     0.031 C 
ATOM     39  C   UNL A   1      38.590  29.763  29.615  1.00  0.00     0.029 A 
ATOM     40  N   UNL A   1      39.295  30.697  31.523  1.00  0.00    -0.354 N 
ATOM     41  C   UNL A   1      42.420  28.838  33.878  1.00  0.00     0.074 A 
ATOM     42  C   UNL A   1      42.924  27.648  33.224  1.00  0.00     0.031 C 
ATOM     43  C   UNL A   1      37.886  30.892  29.797  1.00  0.00     0.029 A 
ATOM     44  C   UNL A   1      38.284  31.504  31.061  1.00  0.00     0.049 A 
ATOM     45  H   UNL A   1      39.805  30.886  32.344  1.00  0.00     0.167 HD
ATOM     46  C   UNL A   1      42.892  29.331  35.047  1.00  0.00     0.037 A 
ATOM     47  C   UNL A   1      37.719  32.596  31.611  1.00  0.00     0.037 A 
ATOM     48  C   UNL A   1      42.390  30.523  35.681  1.00  0.00     0.049 A 
ATOM     49  C   UNL A   1      38.223  33.092  32.937  1.00  0.00     0.074 A 
ATOM     50  C   UNL A   1      42.817  31.119  36.856  1.00  0.00     0.029 A 
ATOM     51  N   UNL A   1      41.348  31.300  35.196  1.00  0.00    -0.354 N 
ATOM     52  N   UNL A   1      39.192  32.612  33.681  1.00  0.00    -0.248 NA
ATOM     53  C   UNL A   1      37.555  34.270  33.504  1.00  0.00     0.031 C 
ATOM     54  C   UNL A   1      42.007  32.233  37.101  1.00  0.00     0.029 A 
ATOM     55  C   UNL A   1      41.103  32.357  36.058  1.00  0.00     0.049 A 
ATOM     56  H   UNL A   1      40.855  31.127  34.362  1.00  0.00     0.167 HD
ATOM     57  C   UNL A   1      39.258  33.439  34.797  1.00  0.00     0.074 A 
ATOM     58  C   UNL A   1      38.242  34.457  34.624  1.00  0.00     0.031 C 
ATOM     59  C   UNL A   1      40.085  33.361  35.869  1.00  0.00     0.037 A 
BRANCH  46  60
ATOM     60  C   UNL A   1      43.992  28.569  35.731  1.00  0.00     0.058 A 
ATOM     61  C   UNL A   1      43.720  27.546  36.652  1.00  0.00     0.135 A 
ATOM     62  C   UNL A   1      45.338  28.846  35.438  1.00  0.00     0.135 A 
ATOM     63  F   UNL A   1      42.452  27.251  36.981  1.00  0.00    -0.206 F 
ATOM     64  C   UNL A   1      44.743  26.839  37.277  1.00  0.00     0.059 A 
ATOM     65  C   UNL A   1      46.376  28.137  36.034  1.00  0.00     0.059 A 
ATOM     66  F   UNL A   1      45.653  29.816  34.565  1.00  0.00    -0.206 F 
ATOM     67  C   UNL A   1      46.069  27.145  36.964  1.00  0.00     0.060 A 
BRANCH  67  68
ATOM     68  S   UNL A   1      47.386  26.224  37.787  1.00  0.00     0.124 S 
ATOM     69  O   UNL A   1      47.289  26.737  39.151  1.00  0.00    -0.237 OA
ATOM     70  O   UNL A   1      46.964  24.840  37.601  1.00  0.00    -0.237 OA
ATOM     71  O   UNL A   1      48.585  26.615  37.053  1.00  0.00    -0.744 OA
ENDBRANCH  67  68
ENDBRANCH  46  60
BRANCH  47  72
ATOM     72  C   UNL A   1      36.594  33.274  30.915  1.00  0.00     0.058 A 
ATOM     73  C   UNL A   1      35.275  33.140  31.372  1.00  0.00     0.135 A 
ATOM     74  C   UNL A   1      36.820  34.085  29.791  1.00  0.00     0.135 A 
ATOM     75  F   UNL A   1      35.010  32.368  32.437  1.00  0.00    -0.206 F 
ATOM     76  C   UNL A   1      34.216  33.777  30.734  1.00  0.00     0.059 A 
ATOM     77  C   UNL A   1      35.781  34.751  29.150  1.00  0.00     0.059 A 
ATOM     78  F   UNL A   1      38.066  34.253  29.322  1.00  0.00    -0.206 F 
ATOM     79  C   UNL A   1      34.480  34.583  29.624  1.00  0.00     0.060 A 
BRANCH  79  80
ATOM     80  S   UNL A   1      33.106  35.444  28.829  1.00  0.00     0.124 S 
ATOM     81  O   UNL A   1      33.808  36.449  28.038  1.00  0.00    -0.237 OA
ATOM     82  O   UNL A   1      32.464  34.372  28.075  1.00  0.00    -0.237 OA
ATOM     83  O   UNL A   1      32.333  35.955  29.957  1.00  0.00    -0.744 OA
ENDBRANCH  79  80
ENDBRANCH  47  72
BRANCH  59  84
ATOM     84  C   UNL A   1      39.940  34.416  36.928  1.00  0.00     0.058 A 
ATOM     85  C   UNL A   1      39.082  34.242  38.024  1.00  0.00     0.135 A 
ATOM     86  C   UNL A   1      40.710  35.589  36.875  1.00  0.00     0.135 A 
ATOM     87  F   UNL A   1      38.319  33.142  38.116  1.00  0.00    -0.206 F 
ATOM     88  C   UNL A   1      38.981  35.201  39.026  1.00  0.00     0.059 A 
ATOM     89  C   UNL A   1      40.641  36.553  37.876  1.00  0.00     0.059 A 
ATOM     90  F   UNL A   1      41.552  35.799  35.850  1.00  0.00    -0.206 F 
ATOM     91  C   UNL A   1      39.766  36.353  38.943  1.00  0.00     0.060 A 
BRANCH  91  92
ATOM     92  S   UNL A   1      39.660  37.572  40.272  1.00  0.00     0.124 S 
ATOM     93  O   UNL A   1      40.743  38.484  39.920  1.00  0.00    -0.237 OA
ATOM     94  O   UNL A   1      38.308  38.098  40.108  1.00  0.00    -0.237 OA
ATOM     95  O   UNL A   1      39.875  36.778  41.478  1.00  0.00    -0.744 OA
ENDBRANCH  91  92
ENDBRANCH  59  84
ENDBRANCH  33  34
ENDBRANCH  26  28
ENDBRANCH  25  26
ENDBRANCH  24  25
ENDBRANCH   1  24
TORSDOF 17
ENDMDL
MODEL 2
REMARK VINA RESULT:     -11.5      6.708     12.096
REMARK SMILES COc1cccc(NC(=O)[C@@H]2[C@@H](C(=O)OCCOC(=O)c3ccc(-c4c5nc(c(-c6c(F)cc(S(=O)(=O)[O-])cc6F)c6ccc([nH]6)c(-c6c(F)cc(S(=O)(=O)[O-])cc6F)c6nc(c(-c7c(F)cc(S(=O)(=O)[O-])cc7F)c7ccc4[nH]7)C=C6)C=C5)cc3)[C@H]3C=C[C@@H]2C3)c1
REMARK SMILES IDX 16 1 15 2 13 3 14 4 12 5 11 6 90 7 87 8 89 9 91 10 88 11
REMARK SMILES IDX 9 12 8 13 10 15 7 16 3 17 4 18 92 19 5 20 6 21 2 22 1 23
REMARK SMILES IDX 17 24 18 25 19 26 20 27 21 28 22 29 86 30 23 31 85 32 24 33
REMARK SMILES IDX 25 34 26 35 79 36 27 37 84 38 78 39 80 40 28 41 83 42 77 43
REMARK SMILES IDX 76 44 29 46 63 47 42 48 62 49 43 50 46 51 61 52 81 53 44 54
REMARK SMILES IDX 45 55 60 57 82 58 47 59 30 60 31 61 40 62 32 63 33 64 39 65
REMARK SMILES IDX 41 66 34 67 35 68 36 69 37 70 38 71 64 72 65 73 74 74 66 75
REMARK SMILES IDX 67 76 73 77 75 78 68 79 69 80 70 81 71 82 72 83 48 84 49 85
REMARK SMILES IDX 58 86 50 87 51 88 57 89 59 90 52 91 53 92 54 93 55 94 56 95
REMARK H PARENT 8 14 80 45 46 56
REMARK Flexibility Score: inf
ROOT
ATOM      1  C   UNL A   1      33.414  29.273  27.024  1.00  0.00     0.274 C 
ENDROOT
BRANCH   1   2
ATOM      2  O   UNL A   1      34.033  28.180  26.327  1.00  0.00    -0.462 OA
BRANCH   2   3
ATOM      3  C   UNL A   1      33.525  27.869  25.106  1.00  0.00     0.310 C 
ATOM      4  O   UNL A   1      33.471  28.642  24.157  1.00  0.00    -0.252 OA
BRANCH   3   5
ATOM      5  C   UNL A   1      33.200  26.394  24.992  1.00  0.00     0.119 C 
ATOM      6  C   UNL A   1      32.479  26.052  23.676  1.00  0.00     0.100 C 
ATOM      7  C   UNL A   1      31.189  25.337  24.152  1.00  0.00     0.025 C 
ATOM      8  C   UNL A   1      32.237  25.823  26.067  1.00  0.00     0.027 C 
ATOM      9  C   UNL A   1      30.338  26.359  24.894  1.00  0.00    -0.027 C 
ATOM     10  C   UNL A   1      31.666  24.575  25.384  1.00  0.00     0.017 C 
ATOM     11  C   UNL A   1      30.961  26.633  26.052  1.00  0.00    -0.027 C 
BRANCH   6  12
ATOM     12  C   UNL A   1      33.263  25.330  22.579  1.00  0.00     0.228 C 
ATOM     13  N   UNL A   1      33.581  24.019  22.453  1.00  0.00    -0.326 N 
ATOM     14  H   UNL A   1      33.926  23.841  21.548  1.00  0.00     0.169 HD
ATOM     15  O   UNL A   1      33.553  26.002  21.573  1.00  0.00    -0.274 OA
BRANCH  13  16
ATOM     16  C   UNL A   1      33.572  22.833  23.206  1.00  0.00     0.044 A 
ATOM     17  C   UNL A   1      34.761  21.496  24.850  1.00  0.00     0.120 A 
ATOM     18  C   UNL A   1      33.839  20.466  24.723  1.00  0.00     0.046 A 
ATOM     19  C   UNL A   1      34.642  22.665  24.096  1.00  0.00     0.072 A 
ATOM     20  C   UNL A   1      32.726  20.662  23.920  1.00  0.00     0.006 A 
ATOM     21  C   UNL A   1      32.580  21.855  23.200  1.00  0.00     0.026 A 
BRANCH  17  22
ATOM     22  O   UNL A   1      35.831  21.341  25.688  1.00  0.00    -0.497 OA
ATOM     23  C   UNL A   1      37.041  21.349  24.923  1.00  0.00     0.278 C 
ENDBRANCH  17  22
ENDBRANCH  13  16
ENDBRANCH   6  12
ENDBRANCH   3   5
ENDBRANCH   2   3
ENDBRANCH   1   2
BRANCH   1  24
ATOM     24  C   UNL A   1      34.488  30.226  27.555  1.00  0.00     0.275 C 
BRANCH  24  25
ATOM     25  O   UNL A   1      35.308  29.604  28.561  1.00  0.00    -0.458 OA
BRANCH  25  26
ATOM     26  C   UNL A   1      36.210  30.411  29.168  1.00  0.00     0.338 C 
ATOM     27  O   UNL A   1      35.984  31.378  29.877  1.00  0.00    -0.246 OA
BRANCH  26  28
ATOM     28  C   UNL A   1      37.569  29.900  28.927  1.00  0.00     0.060 A 
ATOM     29  C   UNL A   1      38.408  29.689  30.024  1.00  0.00     0.016 A 
ATOM     30  C   UNL A   1      38.037  29.703  27.627  1.00  0.00     0.016 A 
ATOM     31  C   UNL A   1      39.732  29.309  29.825  1.00  0.00     0.010 A 
ATOM     32  C   UNL A   1      39.360  29.298  27.430  1.00  0.00     0.010 A 
ATOM     33  C   UNL A   1      40.219  29.111  28.527  1.00  0.00    -0.014 A 
BRANCH  33  34
ATOM     34  C   UNL A   1      41.631  28.713  28.312  1.00  0.00     0.031 A 
ATOM     35  C   UNL A   1      42.721  29.745  28.362  1.00  0.00     0.074 A 
ATOM     36  C   UNL A   1      41.924  27.423  28.062  1.00  0.00     0.049 A 
ATOM     37  N   UNL A   1      43.996  29.613  28.103  1.00  0.00    -0.248 NA
ATOM     38  C   UNL A   1      42.324  31.107  28.754  1.00  0.00     0.031 C 
ATOM     39  C   UNL A   1      40.951  26.330  28.019  1.00  0.00     0.029 A 
ATOM     40  N   UNL A   1      43.123  26.814  27.791  1.00  0.00    -0.354 N 
ATOM     41  C   UNL A   1      44.552  30.874  28.279  1.00  0.00     0.074 A 
ATOM     42  C   UNL A   1      43.472  31.763  28.652  1.00  0.00     0.031 C 
ATOM     43  C   UNL A   1      41.592  25.185  27.737  1.00  0.00     0.029 A 
ATOM     44  C   UNL A   1      43.009  25.470  27.531  1.00  0.00     0.049 A 
ATOM     45  H   UNL A   1      43.983  27.295  27.783  1.00  0.00     0.167 HD
ATOM     46  C   UNL A   1      45.846  31.251  28.144  1.00  0.00     0.037 A 
ATOM     47  C   UNL A   1      43.935  24.575  27.138  1.00  0.00     0.037 A 
ATOM     48  C   UNL A   1      46.915  30.354  27.785  1.00  0.00     0.049 A 
ATOM     49  C   UNL A   1      45.355  25.030  26.942  1.00  0.00     0.074 A 
ATOM     50  C   UNL A   1      48.263  30.633  27.646  1.00  0.00     0.029 A 
ATOM     51  N   UNL A   1      46.756  29.004  27.504  1.00  0.00    -0.354 N 
ATOM     52  N   UNL A   1      45.868  26.225  27.116  1.00  0.00    -0.248 NA
ATOM     53  C   UNL A   1      46.320  24.019  26.488  1.00  0.00     0.031 C 
ATOM     54  C   UNL A   1      48.913  29.461  27.243  1.00  0.00     0.029 A 
ATOM     55  C   UNL A   1      47.977  28.442  27.172  1.00  0.00     0.049 A 
ATOM     56  H   UNL A   1      45.901  28.517  27.538  1.00  0.00     0.167 HD
ATOM     57  C   UNL A   1      47.219  26.106  26.807  1.00  0.00     0.074 A 
ATOM     58  C   UNL A   1      47.445  24.721  26.448  1.00  0.00     0.031 C 
ATOM     59  C   UNL A   1      48.183  27.059  26.817  1.00  0.00     0.037 A 
BRANCH  46  60
ATOM     60  C   UNL A   1      46.176  32.701  28.363  1.00  0.00     0.058 A 
ATOM     61  C   UNL A   1      46.129  33.635  27.317  1.00  0.00     0.135 A 
ATOM     62  C   UNL A   1      46.515  33.168  29.644  1.00  0.00     0.135 A 
ATOM     63  F   UNL A   1      45.826  33.240  26.070  1.00  0.00    -0.206 F 
ATOM     64  C   UNL A   1      46.428  34.977  27.527  1.00  0.00     0.059 A 
ATOM     65  C   UNL A   1      46.798  34.510  29.881  1.00  0.00     0.059 A 
ATOM     66  F   UNL A   1      46.576  32.315  30.679  1.00  0.00    -0.206 F 
ATOM     67  C   UNL A   1      46.766  35.404  28.813  1.00  0.00     0.060 A 
BRANCH  67  68
ATOM     68  S   UNL A   1      47.159  37.148  29.069  1.00  0.00     0.124 S 
ATOM     69  O   UNL A   1      46.383  37.447  30.270  1.00  0.00    -0.237 OA
ATOM     70  O   UNL A   1      48.607  37.121  29.242  1.00  0.00    -0.237 OA
ATOM     71  O   UNL A   1      46.688  37.787  27.844  1.00  0.00    -0.744 OA
ENDBRANCH  67  68
ENDBRANCH  46  60
BRANCH  47  72
ATOM     72  C   UNL A   1      43.538  23.166  26.881  1.00  0.00     0.058 A 
ATOM     73  C   UNL A   1      43.491  22.656  25.575  1.00  0.00     0.135 A 
ATOM     74  C   UNL A   1      43.217  22.299  27.937  1.00  0.00     0.135 A 
ATOM     75  F   UNL A   1      43.780  23.450  24.534  1.00  0.00    -0.206 F 
ATOM     76  C   UNL A   1      43.128  21.337  25.324  1.00  0.00     0.059 A 
ATOM     77  C   UNL A   1      42.875  20.969  27.712  1.00  0.00     0.059 A 
ATOM     78  F   UNL A   1      43.258  22.737  29.204  1.00  0.00    -0.206 F 
ATOM     79  C   UNL A   1      42.824  20.500  26.400  1.00  0.00     0.060 A 
BRANCH  79  80
ATOM     80  S   UNL A   1      42.400  18.776  26.068  1.00  0.00     0.124 S 
ATOM     81  O   UNL A   1      43.294  18.462  24.960  1.00  0.00    -0.237 OA
ATOM     82  O   UNL A   1      42.708  18.131  27.341  1.00  0.00    -0.237 OA
ATOM     83  O   UNL A   1      40.979  18.839  25.735  1.00  0.00    -0.744 OA
ENDBRANCH  79  80
ENDBRANCH  47  72
BRANCH  59  84
ATOM     84  C   UNL A   1      49.576  26.633  26.450  1.00  0.00     0.058 A 
ATOM     85  C   UNL A   1      50.434  26.042  27.390  1.00  0.00     0.135 A 
ATOM     86  C   UNL A   1      50.037  26.766  25.130  1.00  0.00     0.135 A 
ATOM     87  F   UNL A   1      50.042  25.900  28.666  1.00  0.00    -0.206 F 
ATOM     88  C   UNL A   1      51.708  25.609  27.038  1.00  0.00     0.059 A 
ATOM     89  C   UNL A   1      51.299  26.321  24.750  1.00  0.00     0.059 A 
ATOM     90  F   UNL A   1      49.250  27.318  24.192  1.00  0.00    -0.206 F 
ATOM     91  C   UNL A   1      52.131  25.752  25.715  1.00  0.00     0.060 A 
BRANCH  91  92
ATOM     92  S   UNL A   1      53.770  25.147  25.258  1.00  0.00     0.124 S 
ATOM     93  O   UNL A   1      54.612  25.802  26.253  1.00  0.00    -0.237 OA
ATOM     94  O   UNL A   1      53.622  23.702  25.403  1.00  0.00    -0.237 OA
ATOM     95  O   UNL A   1      53.935  25.619  23.886  1.00  0.00    -0.744 OA
ENDBRANCH  91  92
ENDBRANCH  59  84
ENDBRANCH  33  34
ENDBRANCH  26  28
ENDBRANCH  25  26
ENDBRANCH  24  25
ENDBRANCH   1  24
TORSDOF 17
ENDMDL
MODEL 3
REMARK VINA RESULT:     -11.4      0.839      1.914
REMARK SMILES COc1cccc(NC(=O)[C@@H]2[C@@H](C(=O)OCCOC(=O)c3ccc(-c4c5nc(c(-c6c(F)cc(S(=O)(=O)[O-])cc6F)c6ccc([nH]6)c(-c6c(F)cc(S(=O)(=O)[O-])cc6F)c6nc(c(-c7c(F)cc(S(=O)(=O)[O-])cc7F)c7ccc4[nH]7)C=C6)C=C5)cc3)[C@H]3C=C[C@@H]2C3)c1
REMARK SMILES IDX 16 1 15 2 13 3 14 4 12 5 11 6 90 7 87 8 89 9 91 10 88 11
REMARK SMILES IDX 9 12 8 13 10 15 7 16 3 17 4 18 92 19 5 20 6 21 2 22 1 23
REMARK SMILES IDX 17 24 18 25 19 26 20 27 21 28 22 29 86 30 23 31 85 32 24 33
REMARK SMILES IDX 25 34 26 35 79 36 27 37 84 38 78 39 80 40 28 41 83 42 77 43
REMARK SMILES IDX 76 44 29 46 63 47 42 48 62 49 43 50 46 51 61 52 81 53 44 54
REMARK SMILES IDX 45 55 60 57 82 58 47 59 30 60 31 61 40 62 32 63 33 64 39 65
REMARK SMILES IDX 41 66 34 67 35 68 36 69 37 70 38 71 64 72 65 73 74 74 66 75
REMARK SMILES IDX 67 76 73 77 75 78 68 79 69 80 70 81 71 82 72 83 48 84 49 85
REMARK SMILES IDX 58 86 50 87 51 88 57 89 59 90 52 91 53 92 54 93 55 94 56 95
REMARK H PARENT 8 14 80 45 46 56
REMARK Flexibility Score: inf
ROOT
ATOM      1  C   UNL A   1      37.449  22.535  25.545  1.00  0.00     0.274 C 
ENDROOT
BRANCH   1   2
ATOM      2  O   UNL A   1      36.525  23.522  26.032  1.00  0.00    -0.462 OA
BRANCH   2   3
ATOM      3  C   UNL A   1      35.239  23.119  26.211  1.00  0.00     0.310 C 
ATOM      4  O   UNL A   1      34.897  22.178  26.916  1.00  0.00    -0.252 OA
BRANCH   3   5
ATOM      5  C   UNL A   1      34.255  24.085  25.582  1.00  0.00     0.119 C 
ATOM      6  C   UNL A   1      32.811  23.552  25.613  1.00  0.00     0.100 C 
ATOM      7  C   UNL A   1      32.377  23.615  24.127  1.00  0.00     0.025 C 
ATOM      8  C   UNL A   1      34.473  24.397  24.078  1.00  0.00     0.027 C 
ATOM      9  C   UNL A   1      33.224  22.612  23.354  1.00  0.00    -0.027 C 
ATOM     10  C   UNL A   1      33.086  24.869  23.625  1.00  0.00     0.017 C 
ATOM     11  C   UNL A   1      34.476  23.095  23.309  1.00  0.00    -0.027 C 
BRANCH   6  12
ATOM     12  C   UNL A   1      31.828  24.167  26.611  1.00  0.00     0.228 C 
ATOM     13  N   UNL A   1      31.210  25.373  26.596  1.00  0.00    -0.326 N 
ATOM     14  H   UNL A   1      30.496  25.394  27.275  1.00  0.00     0.169 HD
ATOM     15  O   UNL A   1      31.414  23.416  27.512  1.00  0.00    -0.274 OA
BRANCH  13  16
ATOM     16  C   UNL A   1      31.265  26.601  25.918  1.00  0.00     0.044 A 
ATOM     17  C   UNL A   1      30.417  27.893  24.043  1.00  0.00     0.120 A 
ATOM     18  C   UNL A   1      31.298  28.930  24.321  1.00  0.00     0.046 A 
ATOM     19  C   UNL A   1      30.402  26.735  24.822  1.00  0.00     0.072 A 
ATOM     20  C   UNL A   1      32.085  28.850  25.460  1.00  0.00     0.006 A 
ATOM     21  C   UNL A   1      32.035  27.708  26.269  1.00  0.00     0.026 A 
BRANCH  17  22
ATOM     22  O   UNL A   1      29.589  27.987  22.958  1.00  0.00    -0.497 OA
ATOM     23  C   UNL A   1      28.239  27.750  23.367  1.00  0.00     0.278 C 
ENDBRANCH  17  22
ENDBRANCH  13  16
ENDBRANCH   6  12
ENDBRANCH   3   5
ENDBRANCH   2   3
ENDBRANCH   1   2
BRANCH   1  24
ATOM     24  C   UNL A   1      38.837  22.788  26.138  1.00  0.00     0.275 C 
BRANCH  24  25
ATOM     25  O   UNL A   1      39.071  24.187  26.382  1.00  0.00    -0.458 OA
BRANCH  25  26
ATOM     26  C   UNL A   1      40.316  24.513  26.802  1.00  0.00     0.338 C 
ATOM     27  O   UNL A   1      41.376  24.051  26.412  1.00  0.00    -0.246 OA
BRANCH  26  28
ATOM     28  C   UNL A   1      40.236  25.614  27.775  1.00  0.00     0.060 A 
ATOM     29  C   UNL A   1      41.229  26.597  27.755  1.00  0.00     0.016 A 
ATOM     30  C   UNL A   1      39.235  25.634  28.747  1.00  0.00     0.016 A 
ATOM     31  C   UNL A   1      41.243  27.591  28.729  1.00  0.00     0.010 A 
ATOM     32  C   UNL A   1      39.237  26.648  29.709  1.00  0.00     0.010 A 
ATOM     33  C   UNL A   1      40.248  27.625  29.714  1.00  0.00    -0.014 A 
BRANCH  33  34
ATOM     34  C   UNL A   1      40.265  28.680  30.756  1.00  0.00     0.031 A 
ATOM     35  C   UNL A   1      41.215  28.579  31.915  1.00  0.00     0.074 A 
ATOM     36  C   UNL A   1      39.417  29.720  30.659  1.00  0.00     0.049 A 
ATOM     37  N   UNL A   1      41.311  29.341  32.973  1.00  0.00    -0.248 NA
ATOM     38  C   UNL A   1      42.183  27.471  31.881  1.00  0.00     0.031 C 
ATOM     39  C   UNL A   1      38.471  29.937  29.562  1.00  0.00     0.029 A 
ATOM     40  N   UNL A   1      39.207  30.786  31.497  1.00  0.00    -0.354 N 
ATOM     41  C   UNL A   1      42.334  28.799  33.741  1.00  0.00     0.074 A 
ATOM     42  C   UNL A   1      42.817  27.630  33.035  1.00  0.00     0.031 C 
ATOM     43  C   UNL A   1      37.782  31.065  29.796  1.00  0.00     0.029 A 
ATOM     44  C   UNL A   1      38.200  31.622  31.079  1.00  0.00     0.049 A 
ATOM     45  H   UNL A   1      39.728  30.936  32.319  1.00  0.00     0.167 HD
ATOM     46  C   UNL A   1      42.824  29.239  34.924  1.00  0.00     0.037 A 
ATOM     47  C   UNL A   1      37.654  32.698  31.678  1.00  0.00     0.037 A 
ATOM     48  C   UNL A   1      42.344  30.412  35.610  1.00  0.00     0.049 A 
ATOM     49  C   UNL A   1      38.179  33.135  33.017  1.00  0.00     0.074 A 
ATOM     50  C   UNL A   1      42.791  30.955  36.802  1.00  0.00     0.029 A 
ATOM     51  N   UNL A   1      41.306  31.219  35.168  1.00  0.00    -0.354 N 
ATOM     52  N   UNL A   1      39.149  32.615  33.731  1.00  0.00    -0.248 NA
ATOM     53  C   UNL A   1      37.530  34.297  33.638  1.00  0.00     0.031 C 
ATOM     54  C   UNL A   1      41.996  32.068  37.101  1.00  0.00     0.029 A 
ATOM     55  C   UNL A   1      41.083  32.243  36.074  1.00  0.00     0.049 A 
ATOM     56  H   UNL A   1      40.802  31.085  34.333  1.00  0.00     0.167 HD
ATOM     57  C   UNL A   1      39.238  33.396  34.877  1.00  0.00     0.074 A 
ATOM     58  C   UNL A   1      38.231  34.431  34.756  1.00  0.00     0.031 C 
ATOM     59  C   UNL A   1      40.075  33.266  35.936  1.00  0.00     0.037 A 
BRANCH  46  60
ATOM     60  C   UNL A   1      43.923  28.439  35.565  1.00  0.00     0.058 A 
ATOM     61  C   UNL A   1      43.649  27.387  36.452  1.00  0.00     0.135 A 
ATOM     62  C   UNL A   1      45.268  28.708  35.263  1.00  0.00     0.135 A 
ATOM     63  F   UNL A   1      42.381  27.097  36.787  1.00  0.00    -0.206 F 
ATOM     64  C   UNL A   1      44.670  26.644  37.036  1.00  0.00     0.059 A 
ATOM     65  C   UNL A   1      46.305  27.964  35.820  1.00  0.00     0.059 A 
ATOM     66  F   UNL A   1      45.586  29.704  34.422  1.00  0.00    -0.206 F 
ATOM     67  C   UNL A   1      45.996  26.943  36.717  1.00  0.00     0.060 A 
BRANCH  67  68
ATOM     68  S   UNL A   1      47.310  25.975  37.488  1.00  0.00     0.124 S 
ATOM     69  O   UNL A   1      46.675  24.666  37.605  1.00  0.00    -0.237 OA
ATOM     70  O   UNL A   1      48.387  26.072  36.509  1.00  0.00    -0.237 OA
ATOM     71  O   UNL A   1      47.550  26.671  38.749  1.00  0.00    -0.744 OA
ENDBRANCH  67  68
ENDBRANCH  46  60
BRANCH  47  72
ATOM     72  C   UNL A   1      36.530  33.416  31.022  1.00  0.00     0.058 A 
ATOM     73  C   UNL A   1      36.744  34.206  29.883  1.00  0.00     0.135 A 
ATOM     74  C   UNL A   1      35.219  33.312  31.512  1.00  0.00     0.135 A 
ATOM     75  F   UNL A   1      37.982  34.343  29.385  1.00  0.00    -0.206 F 
ATOM     76  C   UNL A   1      35.698  34.876  29.257  1.00  0.00     0.059 A 
ATOM     77  C   UNL A   1      34.153  33.952  30.889  1.00  0.00     0.059 A 
ATOM     78  F   UNL A   1      34.962  32.559  32.593  1.00  0.00    -0.206 F 
ATOM     79  C   UNL A   1      34.405  34.741  29.767  1.00  0.00     0.060 A 
BRANCH  79  80
ATOM     80  S   UNL A   1      33.045  35.576  28.921  1.00  0.00     0.124 S 
ATOM     81  O   UNL A   1      32.251  36.056  30.046  1.00  0.00    -0.237 OA
ATOM     82  O   UNL A   1      33.743  36.599  28.148  1.00  0.00    -0.237 OA
ATOM     83  O   UNL A   1      32.438  34.510  28.128  1.00  0.00    -0.744 OA
ENDBRANCH  79  80
ENDBRANCH  47  72
BRANCH  59  84
ATOM     84  C   UNL A   1      39.954  34.280  37.038  1.00  0.00     0.058 A 
ATOM     85  C   UNL A   1      40.541  35.550  36.934  1.00  0.00     0.135 A 
ATOM     86  C   UNL A   1      39.196  33.996  38.185  1.00  0.00     0.135 A 
ATOM     87  F   UNL A   1      41.282  35.865  35.860  1.00  0.00    -0.206 F 
ATOM     88  C   UNL A   1      40.392  36.502  37.937  1.00  0.00     0.059 A 
ATOM     89  C   UNL A   1      39.016  34.940  39.191  1.00  0.00     0.059 A 
ATOM     90  F   UNL A   1      38.608  32.798  38.328  1.00  0.00    -0.206 F 
ATOM     91  C   UNL A   1      39.626  36.188  39.061  1.00  0.00     0.060 A 
BRANCH  91  92
ATOM     92  S   UNL A   1      39.402  37.446  40.338  1.00  0.00     0.124 S 
ATOM     93  O   UNL A   1      38.643  38.462  39.617  1.00  0.00    -0.237 OA
ATOM     94  O   UNL A   1      38.669  36.719  41.370  1.00  0.00    -0.237 OA
ATOM     95  O   UNL A   1      40.769  37.817  40.691  1.00  0.00    -0.744 OA
ENDBRANCH  91  92
ENDBRANCH  59  84
ENDBRANCH  33  34
ENDBRANCH  26  28
ENDBRANCH  25  26
ENDBRANCH  24  25
ENDBRANCH   1  24
TORSDOF 17
ENDMDL
