MODEL 1
REMARK VINA RESULT:     -11.2      0.000      0.000
REMARK SMILES CCc1cc2c(C)cc(=O)oc2cc1O[C@H](C)C(=O)OCCOC(=O)c1ccc(-c2c3nc(c(-c4c(F)cc(S(=O)(=O)[O-])cc4F)c4ccc([nH]4)c(-c4c(F)cc(S(=O)(=O)[O-])cc4F)c4nc(c(-c5c(F)cc(S(=O)(=O)[O-])cc5F)c5ccc2[nH]5)C=C4)C=C3)cc1
REMARK SMILES IDX 21 1 20 2 18 3 19 4 16 5 17 6 15 7 14 8 3 9 4 10 5 11 13 12
REMARK SMILES IDX 6 13 12 14 7 15 8 16 11 17 9 18 10 19 2 20 1 21 22 22 23 23
REMARK SMILES IDX 24 24 25 25 26 26 27 27 91 28 28 29 90 30 29 31 30 32 31 33
REMARK SMILES IDX 84 34 32 35 89 36 83 37 85 38 33 39 88 40 82 41 81 42 34 44
REMARK SMILES IDX 68 45 47 46 67 47 48 48 51 49 66 50 86 51 49 52 50 53 65 55
REMARK SMILES IDX 87 56 52 57 35 58 36 59 45 60 37 61 38 62 44 63 46 64 39 65
REMARK SMILES IDX 40 66 41 67 42 68 43 69 69 70 70 71 79 72 71 73 72 74 78 75
REMARK SMILES IDX 80 76 73 77 74 78 75 79 76 80 77 81 53 82 54 83 63 84 55 85
REMARK SMILES IDX 56 86 62 87 64 88 57 89 58 90 59 91 60 92 61 93
REMARK H PARENT 85 43 51 54
REMARK Flexibility Score: inf
ROOT
ATOM      1  C   UNL A   1      32.683  29.228  25.525  1.00  0.00     0.274 C 
ENDROOT
BRANCH   1   2
ATOM      2  O   UNL A   1      31.279  28.916  25.393  1.00  0.00    -0.459 OA
BRANCH   2   3
ATOM      3  C   UNL A   1      30.871  28.717  24.114  1.00  0.00     0.347 C 
ATOM      4  O   UNL A   1      31.001  29.557  23.226  1.00  0.00    -0.248 OA
BRANCH   3   5
ATOM      5  C   UNL A   1      30.132  27.392  23.861  1.00  0.00     0.279 C 
ATOM      6  C   UNL A   1      28.740  27.681  23.283  1.00  0.00     0.066 C 
BRANCH   5   7
ATOM      7  O   UNL A   1      30.705  26.338  23.093  1.00  0.00    -0.479 OA
BRANCH   7   8
ATOM      8  C   UNL A   1      31.677  25.515  23.584  1.00  0.00     0.127 A 
ATOM      9  C   UNL A   1      32.997  25.804  23.198  1.00  0.00    -0.005 A 
ATOM     10  C   UNL A   1      34.072  25.214  23.905  1.00  0.00     0.019 A 
ATOM     11  C   UNL A   1      33.848  24.324  24.961  1.00  0.00     0.021 A 
ATOM     12  C   UNL A   1      31.478  24.475  24.479  1.00  0.00     0.094 A 
ATOM     13  C   UNL A   1      34.895  23.733  25.801  1.00  0.00    -0.033 A 
ATOM     14  C   UNL A   1      32.537  23.963  25.216  1.00  0.00     0.142 A 
ATOM     15  C   UNL A   1      36.333  23.889  25.423  1.00  0.00     0.045 C 
ATOM     16  C   UNL A   1      34.521  23.055  26.896  1.00  0.00     0.098 A 
ATOM     17  O   UNL A   1      32.177  23.134  26.294  1.00  0.00    -0.423 OA
ATOM     18  C   UNL A   1      33.112  22.832  27.262  1.00  0.00     0.336 A 
ATOM     19  O   UNL A   1      32.812  22.369  28.357  1.00  0.00    -0.246 OA
BRANCH   9  20
ATOM     20  C   UNL A   1      33.280  26.715  22.018  1.00  0.00     0.036 C 
ATOM     21  C   UNL A   1      34.053  27.968  22.426  1.00  0.00     0.009 C 
ENDBRANCH   9  20
ENDBRANCH   7   8
ENDBRANCH   5   7
ENDBRANCH   3   5
ENDBRANCH   2   3
ENDBRANCH   1   2
BRANCH   1  22
ATOM     22  C   UNL A   1      32.988  30.377  26.504  1.00  0.00     0.275 C 
BRANCH  22  23
ATOM     23  O   UNL A   1      33.670  29.954  27.702  1.00  0.00    -0.458 OA
BRANCH  23  24
ATOM     24  C   UNL A   1      34.541  30.854  28.230  1.00  0.00     0.338 C 
ATOM     25  O   UNL A   1      34.256  31.940  28.710  1.00  0.00    -0.246 OA
BRANCH  24  26
ATOM     26  C   UNL A   1      35.889  30.251  28.349  1.00  0.00     0.060 A 
ATOM     27  C   UNL A   1      36.273  29.739  29.599  1.00  0.00     0.016 A 
ATOM     28  C   UNL A   1      36.773  30.203  27.273  1.00  0.00     0.016 A 
ATOM     29  C   UNL A   1      37.530  29.166  29.780  1.00  0.00     0.010 A 
ATOM     30  C   UNL A   1      38.050  29.665  27.463  1.00  0.00     0.010 A 
ATOM     31  C   UNL A   1      38.437  29.156  28.718  1.00  0.00    -0.014 A 
BRANCH  31  32
ATOM     32  C   UNL A   1      39.849  28.776  28.953  1.00  0.00     0.031 A 
ATOM     33  C   UNL A   1      40.784  29.830  29.473  1.00  0.00     0.074 A 
ATOM     34  C   UNL A   1      40.287  27.528  28.710  1.00  0.00     0.049 A 
ATOM     35  N   UNL A   1      42.086  29.813  29.565  1.00  0.00    -0.248 NA
ATOM     36  C   UNL A   1      40.161  31.078  29.950  1.00  0.00     0.031 C 
ATOM     37  C   UNL A   1      39.451  26.400  28.300  1.00  0.00     0.029 A 
ATOM     38  N   UNL A   1      41.556  27.006  28.754  1.00  0.00    -0.354 N 
ATOM     39  C   UNL A   1      42.441  31.050  30.087  1.00  0.00     0.074 A 
ATOM     40  C   UNL A   1      41.221  31.800  30.282  1.00  0.00     0.031 C 
ATOM     41  C   UNL A   1      40.235  25.326  28.098  1.00  0.00     0.029 A 
ATOM     42  C   UNL A   1      41.630  25.706  28.312  1.00  0.00     0.049 A 
ATOM     43  H   UNL A   1      42.338  27.514  29.072  1.00  0.00     0.167 HD
ATOM     44  C   UNL A   1      43.680  31.514  30.374  1.00  0.00     0.037 A 
ATOM     45  C   UNL A   1      42.708  24.934  28.062  1.00  0.00     0.037 A 
ATOM     46  C   UNL A   1      44.882  30.752  30.172  1.00  0.00     0.049 A 
ATOM     47  C   UNL A   1      44.086  25.510  28.290  1.00  0.00     0.074 A 
ATOM     48  C   UNL A   1      46.192  31.135  30.393  1.00  0.00     0.029 A 
ATOM     49  N   UNL A   1      44.918  29.445  29.707  1.00  0.00    -0.354 N 
ATOM     50  N   UNL A   1      44.420  26.698  28.739  1.00  0.00    -0.248 NA
ATOM     51  C   UNL A   1      45.233  24.648  27.971  1.00  0.00     0.031 C 
ATOM     52  C   UNL A   1      47.023  30.074  30.025  1.00  0.00     0.029 A 
ATOM     53  C   UNL A   1      46.228  29.009  29.631  1.00  0.00     0.049 A 
ATOM     54  H   UNL A   1      44.128  28.908  29.468  1.00  0.00     0.167 HD
ATOM     55  C   UNL A   1      45.810  26.705  28.803  1.00  0.00     0.074 A 
ATOM     56  C   UNL A   1      46.256  25.408  28.339  1.00  0.00     0.031 C 
ATOM     57  C   UNL A   1      46.643  27.693  29.213  1.00  0.00     0.037 A 
BRANCH  44  58
ATOM     58  C   UNL A   1      43.799  32.915  30.906  1.00  0.00     0.058 A 
ATOM     59  C   UNL A   1      43.702  33.193  32.278  1.00  0.00     0.135 A 
ATOM     60  C   UNL A   1      44.063  33.985  30.037  1.00  0.00     0.135 A 
ATOM     61  F   UNL A   1      43.426  32.211  33.150  1.00  0.00    -0.206 F 
ATOM     62  C   UNL A   1      43.852  34.486  32.768  1.00  0.00     0.059 A 
ATOM     63  C   UNL A   1      44.244  35.282  30.508  1.00  0.00     0.059 A 
ATOM     64  F   UNL A   1      44.157  33.775  28.715  1.00  0.00    -0.206 F 
ATOM     65  C   UNL A   1      44.128  35.523  31.876  1.00  0.00     0.060 A 
BRANCH  65  66
ATOM     66  S   UNL A   1      44.351  37.190  32.534  1.00  0.00     0.124 S 
ATOM     67  O   UNL A   1      43.825  38.006  31.444  1.00  0.00    -0.237 OA
ATOM     68  O   UNL A   1      43.540  37.156  33.747  1.00  0.00    -0.237 OA
ATOM     69  O   UNL A   1      45.791  37.282  32.748  1.00  0.00    -0.744 OA
ENDBRANCH  65  66
ENDBRANCH  44  58
BRANCH  45  70
ATOM     70  C   UNL A   1      42.546  23.551  27.531  1.00  0.00     0.058 A 
ATOM     71  C   UNL A   1      42.354  22.462  28.394  1.00  0.00     0.135 A 
ATOM     72  C   UNL A   1      42.623  23.284  26.155  1.00  0.00     0.135 A 
ATOM     73  F   UNL A   1      42.286  22.661  29.719  1.00  0.00    -0.206 F 
ATOM     74  C   UNL A   1      42.275  21.157  27.917  1.00  0.00     0.059 A 
ATOM     75  C   UNL A   1      42.516  21.992  25.651  1.00  0.00     0.059 A 
ATOM     76  F   UNL A   1      42.798  24.289  25.283  1.00  0.00    -0.206 F 
ATOM     77  C   UNL A   1      42.361  20.932  26.543  1.00  0.00     0.060 A 
BRANCH  77  78
ATOM     78  S   UNL A   1      42.254  19.234  25.934  1.00  0.00     0.124 S 
ATOM     79  O   UNL A   1      42.777  18.483  27.069  1.00  0.00    -0.237 OA
ATOM     80  O   UNL A   1      40.824  19.089  25.676  1.00  0.00    -0.237 OA
ATOM     81  O   UNL A   1      43.100  19.249  24.744  1.00  0.00    -0.744 OA
ENDBRANCH  77  78
ENDBRANCH  45  70
BRANCH  57  82
ATOM     82  C   UNL A   1      48.115  27.394  29.273  1.00  0.00     0.058 A 
ATOM     83  C   UNL A   1      48.966  27.613  28.181  1.00  0.00     0.135 A 
ATOM     84  C   UNL A   1      48.694  26.985  30.487  1.00  0.00     0.135 A 
ATOM     85  F   UNL A   1      48.461  27.997  26.998  1.00  0.00    -0.206 F 
ATOM     86  C   UNL A   1      50.341  27.431  28.288  1.00  0.00     0.059 A 
ATOM     87  C   UNL A   1      50.068  26.824  30.624  1.00  0.00     0.059 A 
ATOM     88  F   UNL A   1      47.922  26.772  31.566  1.00  0.00    -0.206 F 
ATOM     89  C   UNL A   1      50.884  27.047  29.517  1.00  0.00     0.060 A 
BRANCH  89  90
ATOM     90  S   UNL A   1      52.676  26.894  29.662  1.00  0.00     0.124 S 
ATOM     91  O   UNL A   1      52.803  25.939  30.758  1.00  0.00    -0.237 OA
ATOM     92  O   UNL A   1      53.055  26.398  28.342  1.00  0.00    -0.237 OA
ATOM     93  O   UNL A   1      53.112  28.255  29.961  1.00  0.00    -0.744 OA
ENDBRANCH  89  90
ENDBRANCH  57  82
ENDBRANCH  31  32
ENDBRANCH  24  26
ENDBRANCH  23  24
ENDBRANCH  22  23
ENDBRANCH   1  22
TORSDOF 17
ENDMDL
MODEL 2
REMARK VINA RESULT:     -11.1      5.643     11.370
REMARK SMILES CCc1cc2c(C)cc(=O)oc2cc1O[C@H](C)C(=O)OCCOC(=O)c1ccc(-c2c3nc(c(-c4c(F)cc(S(=O)(=O)[O-])cc4F)c4ccc([nH]4)c(-c4c(F)cc(S(=O)(=O)[O-])cc4F)c4nc(c(-c5c(F)cc(S(=O)(=O)[O-])cc5F)c5ccc2[nH]5)C=C4)C=C3)cc1
REMARK SMILES IDX 21 1 20 2 18 3 19 4 16 5 17 6 15 7 14 8 3 9 4 10 5 11 13 12
REMARK SMILES IDX 6 13 12 14 7 15 8 16 11 17 9 18 10 19 2 20 1 21 22 22 23 23
REMARK SMILES IDX 24 24 25 25 26 26 27 27 91 28 28 29 90 30 29 31 30 32 31 33
REMARK SMILES IDX 84 34 32 35 89 36 83 37 85 38 33 39 88 40 82 41 81 42 34 44
REMARK SMILES IDX 68 45 47 46 67 47 48 48 51 49 66 50 86 51 49 52 50 53 65 55
REMARK SMILES IDX 87 56 52 57 35 58 36 59 45 60 37 61 38 62 44 63 46 64 39 65
REMARK SMILES IDX 40 66 41 67 42 68 43 69 69 70 70 71 79 72 71 73 72 74 78 75
REMARK SMILES IDX 80 76 73 77 74 78 75 79 76 80 77 81 53 82 54 83 63 84 55 85
REMARK SMILES IDX 56 86 62 87 64 88 57 89 58 90 59 91 60 92 61 93
REMARK H PARENT 85 43 51 54
REMARK Flexibility Score: inf
ROOT
ATOM      1  C   UNL A   1      44.356  23.668  24.625  1.00  0.00     0.274 C 
ENDROOT
BRANCH   1   2
ATOM      2  O   UNL A   1      43.773  22.392  24.288  1.00  0.00    -0.459 OA
BRANCH   2   3
ATOM      3  C   UNL A   1      44.445  21.323  24.789  1.00  0.00     0.347 C 
ATOM      4  O   UNL A   1      45.664  21.195  24.707  1.00  0.00    -0.248 OA
BRANCH   3   5
ATOM      5  C   UNL A   1      43.562  20.215  25.386  1.00  0.00     0.279 C 
ATOM      6  C   UNL A   1      44.307  18.875  25.327  1.00  0.00     0.066 C 
BRANCH   5   7
ATOM      7  O   UNL A   1      42.978  20.324  26.681  1.00  0.00    -0.479 OA
BRANCH   7   8
ATOM      8  C   UNL A   1      41.893  21.114  26.934  1.00  0.00     0.127 A 
ATOM      9  C   UNL A   1      42.143  22.325  27.602  1.00  0.00    -0.005 A 
ATOM     10  C   UNL A   1      41.145  23.329  27.614  1.00  0.00     0.019 A 
ATOM     11  C   UNL A   1      39.903  23.129  27.001  1.00  0.00     0.021 A 
ATOM     12  C   UNL A   1      40.594  20.855  26.527  1.00  0.00     0.094 A 
ATOM     13  C   UNL A   1      38.845  24.139  26.891  1.00  0.00    -0.033 A 
ATOM     14  C   UNL A   1      39.652  21.873  26.476  1.00  0.00     0.142 A 
ATOM     15  C   UNL A   1      38.958  25.424  27.647  1.00  0.00     0.045 C 
ATOM     16  C   UNL A   1      37.790  23.868  26.108  1.00  0.00     0.098 A 
ATOM     17  O   UNL A   1      38.472  21.569  25.774  1.00  0.00    -0.423 OA
ATOM     18  C   UNL A   1      37.621  22.589  25.400  1.00  0.00     0.336 A 
ATOM     19  O   UNL A   1      36.743  22.447  24.556  1.00  0.00    -0.246 OA
BRANCH   9  20
ATOM     20  C   UNL A   1      43.453  22.556  28.332  1.00  0.00     0.036 C 
ATOM     21  C   UNL A   1      43.281  23.447  29.561  1.00  0.00     0.009 C 
ENDBRANCH   9  20
ENDBRANCH   7   8
ENDBRANCH   5   7
ENDBRANCH   3   5
ENDBRANCH   2   3
ENDBRANCH   1   2
BRANCH   1  22
ATOM     22  C   UNL A   1      43.331  24.753  25.007  1.00  0.00     0.275 C 
BRANCH  22  23
ATOM     23  O   UNL A   1      43.910  25.887  25.684  1.00  0.00    -0.458 OA
BRANCH  23  24
ATOM     24  C   UNL A   1      43.195  27.041  25.611  1.00  0.00     0.338 C 
ATOM     25  O   UNL A   1      42.655  27.495  24.615  1.00  0.00    -0.246 OA
BRANCH  24  26
ATOM     26  C   UNL A   1      42.968  27.586  26.970  1.00  0.00     0.060 A 
ATOM     27  C   UNL A   1      42.254  26.796  27.885  1.00  0.00     0.016 A 
ATOM     28  C   UNL A   1      43.417  28.852  27.342  1.00  0.00     0.016 A 
ATOM     29  C   UNL A   1      41.999  27.252  29.176  1.00  0.00     0.010 A 
ATOM     30  C   UNL A   1      43.125  29.329  28.624  1.00  0.00     0.010 A 
ATOM     31  C   UNL A   1      42.407  28.537  29.541  1.00  0.00    -0.014 A 
BRANCH  31  32
ATOM     32  C   UNL A   1      41.937  29.130  30.814  1.00  0.00     0.031 A 
ATOM     33  C   UNL A   1      40.700  29.980  30.780  1.00  0.00     0.074 A 
ATOM     34  C   UNL A   1      42.596  28.919  31.968  1.00  0.00     0.049 A 
ATOM     35  N   UNL A   1      40.207  30.766  31.698  1.00  0.00    -0.248 NA
ATOM     36  C   UNL A   1      39.912  29.938  29.535  1.00  0.00     0.031 C 
ATOM     37  C   UNL A   1      43.748  28.035  32.138  1.00  0.00     0.029 A 
ATOM     38  N   UNL A   1      42.396  29.456  33.216  1.00  0.00    -0.354 N 
ATOM     39  C   UNL A   1      39.068  31.330  31.137  1.00  0.00     0.074 A 
ATOM     40  C   UNL A   1      38.946  30.807  29.795  1.00  0.00     0.031 C 
ATOM     41  C   UNL A   1      44.175  28.115  33.411  1.00  0.00     0.029 A 
ATOM     42  C   UNL A   1      43.361  29.094  34.128  1.00  0.00     0.049 A 
ATOM     43  H   UNL A   1      41.637  30.042  33.437  1.00  0.00     0.167 HD
ATOM     44  C   UNL A   1      38.205  32.209  31.698  1.00  0.00     0.037 A 
ATOM     45  C   UNL A   1      43.584  29.545  35.379  1.00  0.00     0.037 A 
ATOM     46  C   UNL A   1      38.344  32.718  33.035  1.00  0.00     0.049 A 
ATOM     47  C   UNL A   1      42.669  30.605  35.947  1.00  0.00     0.074 A 
ATOM     48  C   UNL A   1      37.550  33.641  33.692  1.00  0.00     0.029 A 
ATOM     49  N   UNL A   1      39.342  32.342  33.922  1.00  0.00    -0.354 N 
ATOM     50  N   UNL A   1      41.620  31.171  35.396  1.00  0.00    -0.248 NA
ATOM     51  C   UNL A   1      42.970  31.094  37.300  1.00  0.00     0.031 C 
ATOM     52  C   UNL A   1      38.091  33.851  34.964  1.00  0.00     0.029 A 
ATOM     53  C   UNL A   1      39.186  33.016  35.120  1.00  0.00     0.049 A 
ATOM     54  H   UNL A   1      40.055  31.690  33.729  1.00  0.00     0.167 HD
ATOM     55  C   UNL A   1      41.111  32.043  36.352  1.00  0.00     0.074 A 
ATOM     56  C   UNL A   1      41.968  31.937  37.513  1.00  0.00     0.031 C 
ATOM     57  C   UNL A   1      40.027  32.855  36.280  1.00  0.00     0.037 A 
BRANCH  44  58
ATOM     58  C   UNL A   1      37.056  32.697  30.860  1.00  0.00     0.058 A 
ATOM     59  C   UNL A   1      37.179  33.813  30.019  1.00  0.00     0.135 A 
ATOM     60  C   UNL A   1      35.832  32.009  30.864  1.00  0.00     0.135 A 
ATOM     61  F   UNL A   1      38.319  34.521  29.995  1.00  0.00    -0.206 F 
ATOM     62  C   UNL A   1      36.124  34.236  29.217  1.00  0.00     0.059 A 
ATOM     63  C   UNL A   1      34.773  32.399  30.050  1.00  0.00     0.059 A 
ATOM     64  F   UNL A   1      35.658  30.941  31.658  1.00  0.00    -0.206 F 
ATOM     65  C   UNL A   1      34.926  33.519  29.235  1.00  0.00     0.060 A 
BRANCH  65  66
ATOM     66  S   UNL A   1      33.578  34.065  28.165  1.00  0.00     0.124 S 
ATOM     67  O   UNL A   1      34.294  34.882  27.189  1.00  0.00    -0.237 OA
ATOM     68  O   UNL A   1      33.048  32.802  27.665  1.00  0.00    -0.237 OA
ATOM     69  O   UNL A   1      32.699  34.797  29.071  1.00  0.00    -0.744 OA
ENDBRANCH  65  66
ENDBRANCH  44  58
BRANCH  45  70
ATOM     70  C   UNL A   1      44.737  29.038  36.176  1.00  0.00     0.058 A 
ATOM     71  C   UNL A   1      45.999  29.644  36.089  1.00  0.00     0.135 A 
ATOM     72  C   UNL A   1      44.612  27.913  37.007  1.00  0.00     0.135 A 
ATOM     73  F   UNL A   1      46.175  30.715  35.299  1.00  0.00    -0.206 F 
ATOM     74  C   UNL A   1      47.102  29.137  36.770  1.00  0.00     0.059 A 
ATOM     75  C   UNL A   1      45.693  27.406  37.722  1.00  0.00     0.059 A 
ATOM     76  F   UNL A   1      43.427  27.298  37.135  1.00  0.00    -0.206 F 
ATOM     77  C   UNL A   1      46.939  28.014  37.582  1.00  0.00     0.060 A 
BRANCH  77  78
ATOM     78  S   UNL A   1      48.376  27.366  38.465  1.00  0.00     0.124 S 
ATOM     79  O   UNL A   1      48.084  27.770  39.835  1.00  0.00    -0.237 OA
ATOM     80  O   UNL A   1      48.287  25.935  38.189  1.00  0.00    -0.237 OA
ATOM     81  O   UNL A   1      49.498  28.051  37.830  1.00  0.00    -0.744 OA
ENDBRANCH  77  78
ENDBRANCH  45  70
BRANCH  57  82
ATOM     82  C   UNL A   1      39.640  33.626  37.511  1.00  0.00     0.058 A 
ATOM     83  C   UNL A   1      38.764  33.106  38.472  1.00  0.00     0.135 A 
ATOM     84  C   UNL A   1      40.251  34.864  37.778  1.00  0.00     0.135 A 
ATOM     85  F   UNL A   1      38.149  31.931  38.261  1.00  0.00    -0.206 F 
ATOM     86  C   UNL A   1      38.500  33.788  39.656  1.00  0.00     0.059 A 
ATOM     87  C   UNL A   1      40.024  35.549  38.966  1.00  0.00     0.059 A 
ATOM     88  F   UNL A   1      41.108  35.400  36.893  1.00  0.00    -0.206 F 
ATOM     89  C   UNL A   1      39.144  35.005  39.899  1.00  0.00     0.060 A 
BRANCH  89  90
ATOM     90  S   UNL A   1      38.856  35.838  41.473  1.00  0.00     0.124 S 
ATOM     91  O   UNL A   1      38.979  37.241  41.091  1.00  0.00    -0.237 OA
ATOM     92  O   UNL A   1      37.510  35.392  41.821  1.00  0.00    -0.237 OA
ATOM     93  O   UNL A   1      39.920  35.325  42.331  1.00  0.00    -0.744 OA
ENDBRANCH  89  90
ENDBRANCH  57  82
ENDBRANCH  31  32
ENDBRANCH  24  26
ENDBRANCH  23  24
ENDBRANCH  22  23
ENDBRANCH   1  22
TORSDOF 17
ENDMDL
MODEL 3
REMARK VINA RESULT:     -10.9      1.496      3.391
REMARK SMILES CCc1cc2c(C)cc(=O)oc2cc1O[C@H](C)C(=O)OCCOC(=O)c1ccc(-c2c3nc(c(-c4c(F)cc(S(=O)(=O)[O-])cc4F)c4ccc([nH]4)c(-c4c(F)cc(S(=O)(=O)[O-])cc4F)c4nc(c(-c5c(F)cc(S(=O)(=O)[O-])cc5F)c5ccc2[nH]5)C=C4)C=C3)cc1
REMARK SMILES IDX 21 1 20 2 18 3 19 4 16 5 17 6 15 7 14 8 3 9 4 10 5 11 13 12
REMARK SMILES IDX 6 13 12 14 7 15 8 16 11 17 9 18 10 19 2 20 1 21 22 22 23 23
REMARK SMILES IDX 24 24 25 25 26 26 27 27 91 28 28 29 90 30 29 31 30 32 31 33
REMARK SMILES IDX 84 34 32 35 89 36 83 37 85 38 33 39 88 40 82 41 81 42 34 44
REMARK SMILES IDX 68 45 47 46 67 47 48 48 51 49 66 50 86 51 49 52 50 53 65 55
REMARK SMILES IDX 87 56 52 57 35 58 36 59 45 60 37 61 38 62 44 63 46 64 39 65
REMARK SMILES IDX 40 66 41 67 42 68 43 69 69 70 70 71 79 72 71 73 72 74 78 75
REMARK SMILES IDX 80 76 73 77 74 78 75 79 76 80 77 81 53 82 54 83 63 84 55 85
REMARK SMILES IDX 56 86 62 87 64 88 57 89 58 90 59 91 60 92 61 93
REMARK H PARENT 85 43 51 54
REMARK Flexibility Score: inf
ROOT
ATOM      1  C   UNL A   1      32.726  30.027  26.226  1.00  0.00     0.274 C 
ENDROOT
BRANCH   1   2
ATOM      2  O   UNL A   1      33.088  28.657  25.949  1.00  0.00    -0.459 OA
BRANCH   2   3
ATOM      3  C   UNL A   1      33.483  28.433  24.669  1.00  0.00     0.347 C 
ATOM      4  O   UNL A   1      33.583  29.325  23.830  1.00  0.00    -0.248 OA
BRANCH   3   5
ATOM      5  C   UNL A   1      33.702  26.957  24.300  1.00  0.00     0.279 C 
ATOM      6  C   UNL A   1      33.863  26.125  25.579  1.00  0.00     0.066 C 
BRANCH   5   7
ATOM      7  O   UNL A   1      32.816  26.250  23.437  1.00  0.00    -0.479 OA
BRANCH   7   8
ATOM      8  C   UNL A   1      31.567  26.709  23.130  1.00  0.00     0.127 A 
ATOM      9  C   UNL A   1      30.494  26.104  23.805  1.00  0.00    -0.005 A 
ATOM     10  C   UNL A   1      29.223  26.728  23.787  1.00  0.00     0.019 A 
ATOM     11  C   UNL A   1      29.006  27.918  23.085  1.00  0.00     0.021 A 
ATOM     12  C   UNL A   1      31.283  27.759  22.270  1.00  0.00     0.094 A 
ATOM     13  C   UNL A   1      27.750  28.676  23.079  1.00  0.00    -0.033 A 
ATOM     14  C   UNL A   1      30.055  28.403  22.323  1.00  0.00     0.142 A 
ATOM     15  C   UNL A   1      26.516  28.081  23.677  1.00  0.00     0.045 C 
ATOM     16  C   UNL A   1      27.750  29.897  22.522  1.00  0.00     0.098 A 
ATOM     17  O   UNL A   1      29.984  29.626  21.631  1.00  0.00    -0.423 OA
ATOM     18  C   UNL A   1      28.932  30.485  21.872  1.00  0.00     0.336 A 
ATOM     19  O   UNL A   1      28.946  31.664  21.539  1.00  0.00    -0.246 OA
BRANCH   9  20
ATOM     20  C   UNL A   1      30.674  24.781  24.525  1.00  0.00     0.036 C 
ATOM     21  C   UNL A   1      30.737  23.600  23.558  1.00  0.00     0.009 C 
ENDBRANCH   9  20
ENDBRANCH   7   8
ENDBRANCH   5   7
ENDBRANCH   3   5
ENDBRANCH   2   3
ENDBRANCH   1   2
BRANCH   1  22
ATOM     22  C   UNL A   1      33.217  30.549  27.589  1.00  0.00     0.275 C 
BRANCH  22  23
ATOM     23  O   UNL A   1      34.517  31.172  27.539  1.00  0.00    -0.458 OA
BRANCH  23  24
ATOM     24  C   UNL A   1      35.117  31.374  28.742  1.00  0.00     0.338 C 
ATOM     25  O   UNL A   1      34.603  31.870  29.732  1.00  0.00    -0.246 OA
BRANCH  24  26
ATOM     26  C   UNL A   1      36.440  30.708  28.771  1.00  0.00     0.060 A 
ATOM     27  C   UNL A   1      37.051  30.511  30.020  1.00  0.00     0.016 A 
ATOM     28  C   UNL A   1      37.088  30.304  27.605  1.00  0.00     0.016 A 
ATOM     29  C   UNL A   1      38.298  29.899  30.115  1.00  0.00     0.010 A 
ATOM     30  C   UNL A   1      38.358  29.727  27.696  1.00  0.00     0.010 A 
ATOM     31  C   UNL A   1      38.972  29.532  28.948  1.00  0.00    -0.014 A 
BRANCH  31  32
ATOM     32  C   UNL A   1      40.389  29.107  29.014  1.00  0.00     0.031 A 
ATOM     33  C   UNL A   1      41.419  30.141  29.369  1.00  0.00     0.074 A 
ATOM     34  C   UNL A   1      40.750  27.835  28.762  1.00  0.00     0.049 A 
ATOM     35  N   UNL A   1      42.720  30.077  29.293  1.00  0.00    -0.248 NA
ATOM     36  C   UNL A   1      40.906  31.426  29.876  1.00  0.00     0.031 C 
ATOM     37  C   UNL A   1      39.830  26.728  28.505  1.00  0.00     0.029 A 
ATOM     38  N   UNL A   1      41.996  27.268  28.662  1.00  0.00    -0.354 N 
ATOM     39  C   UNL A   1      43.182  31.316  29.719  1.00  0.00     0.074 A 
ATOM     40  C   UNL A   1      42.024  32.118  30.042  1.00  0.00     0.031 C 
ATOM     41  C   UNL A   1      40.545  25.619  28.244  1.00  0.00     0.029 A 
ATOM     42  C   UNL A   1      41.968  25.952  28.262  1.00  0.00     0.049 A 
ATOM     43  H   UNL A   1      42.829  27.755  28.857  1.00  0.00     0.167 HD
ATOM     44  C   UNL A   1      44.462  31.741  29.827  1.00  0.00     0.037 A 
ATOM     45  C   UNL A   1      42.977  25.132  27.904  1.00  0.00     0.037 A 
ATOM     46  C   UNL A   1      45.602  30.927  29.500  1.00  0.00     0.049 A 
ATOM     47  C   UNL A   1      44.391  25.662  27.931  1.00  0.00     0.074 A 
ATOM     48  C   UNL A   1      46.942  31.268  29.536  1.00  0.00     0.029 A 
ATOM     49  N   UNL A   1      45.533  29.606  29.083  1.00  0.00    -0.354 N 
ATOM     50  N   UNL A   1      44.821  26.850  28.289  1.00  0.00    -0.248 NA
ATOM     51  C   UNL A   1      45.458  24.747  27.498  1.00  0.00     0.031 C 
ATOM     52  C   UNL A   1      47.682  30.164  29.103  1.00  0.00     0.029 A 
ATOM     53  C   UNL A   1      46.806  29.118  28.854  1.00  0.00     0.049 A 
ATOM     54  H   UNL A   1      44.701  29.092  28.967  1.00  0.00     0.167 HD
ATOM     55  C   UNL A   1      46.207  26.806  28.172  1.00  0.00     0.074 A 
ATOM     56  C   UNL A   1      46.544  25.479  27.704  1.00  0.00     0.031 C 
ATOM     57  C   UNL A   1      47.119  27.775  28.435  1.00  0.00     0.037 A 
BRANCH  44  58
ATOM     58  C   UNL A   1      44.697  33.152  30.287  1.00  0.00     0.058 A 
ATOM     59  C   UNL A   1      44.719  34.228  29.386  1.00  0.00     0.135 A 
ATOM     60  C   UNL A   1      44.854  33.438  31.653  1.00  0.00     0.135 A 
ATOM     61  F   UNL A   1      44.598  34.009  28.067  1.00  0.00    -0.206 F 
ATOM     62  C   UNL A   1      44.898  35.537  29.822  1.00  0.00     0.059 A 
ATOM     63  C   UNL A   1      45.008  34.742  32.114  1.00  0.00     0.059 A 
ATOM     64  F   UNL A   1      44.851  32.445  32.556  1.00  0.00    -0.206 F 
ATOM     65  C   UNL A   1      45.036  35.784  31.189  1.00  0.00     0.060 A 
BRANCH  65  66
ATOM     66  S   UNL A   1      45.237  37.492  31.740  1.00  0.00     0.124 S 
ATOM     67  O   UNL A   1      44.426  37.504  32.954  1.00  0.00    -0.237 OA
ATOM     68  O   UNL A   1      46.679  37.586  31.940  1.00  0.00    -0.237 OA
ATOM     69  O   UNL A   1      44.709  38.274  30.626  1.00  0.00    -0.744 OA
ENDBRANCH  65  66
ENDBRANCH  44  58
BRANCH  45  70
ATOM     70  C   UNL A   1      42.701  23.740  27.450  1.00  0.00     0.058 A 
ATOM     71  C   UNL A   1      42.588  22.687  28.370  1.00  0.00     0.135 A 
ATOM     72  C   UNL A   1      42.587  23.426  26.086  1.00  0.00     0.135 A 
ATOM     73  F   UNL A   1      42.702  22.930  29.684  1.00  0.00    -0.206 F 
ATOM     74  C   UNL A   1      42.404  21.371  27.955  1.00  0.00     0.059 A 
ATOM     75  C   UNL A   1      42.372  22.123  25.648  1.00  0.00     0.059 A 
ATOM     76  F   UNL A   1      42.679  24.395  25.162  1.00  0.00    -0.206 F 
ATOM     77  C   UNL A   1      42.301  21.099  26.590  1.00  0.00     0.060 A 
BRANCH  77  78
ATOM     78  S   UNL A   1      42.059  19.388  26.063  1.00  0.00     0.124 S 
ATOM     79  O   UNL A   1      40.623  19.360  25.811  1.00  0.00    -0.237 OA
ATOM     80  O   UNL A   1      42.916  19.305  24.884  1.00  0.00    -0.237 OA
ATOM     81  O   UNL A   1      42.512  18.613  27.214  1.00  0.00    -0.744 OA
ENDBRANCH  77  78
ENDBRANCH  45  70
BRANCH  57  82
ATOM     82  C   UNL A   1      48.576  27.421  28.316  1.00  0.00     0.058 A 
ATOM     83  C   UNL A   1      49.326  27.727  27.173  1.00  0.00     0.135 A 
ATOM     84  C   UNL A   1      49.250  26.866  29.417  1.00  0.00     0.135 A 
ATOM     85  F   UNL A   1      48.727  28.253  26.092  1.00  0.00    -0.206 F 
ATOM     86  C   UNL A   1      50.695  27.489  27.121  1.00  0.00     0.059 A 
ATOM     87  C   UNL A   1      50.622  26.645  29.398  1.00  0.00     0.059 A 
ATOM     88  F   UNL A   1      48.577  26.565  30.540  1.00  0.00    -0.206 F 
ATOM     89  C   UNL A   1      51.337  26.958  28.244  1.00  0.00     0.060 A 
BRANCH  89  90
ATOM     90  S   UNL A   1      53.127  26.731  28.192  1.00  0.00     0.124 S 
ATOM     91  O   UNL A   1      53.445  26.571  29.607  1.00  0.00    -0.237 OA
ATOM     92  O   UNL A   1      53.265  25.531  27.372  1.00  0.00    -0.237 OA
ATOM     93  O   UNL A   1      53.609  27.962  27.575  1.00  0.00    -0.744 OA
ENDBRANCH  89  90
ENDBRANCH  57  82
ENDBRANCH  31  32
ENDBRANCH  24  26
ENDBRANCH  23  24
ENDBRANCH  22  23
ENDBRANCH   1  22
TORSDOF 17
ENDMDL
