MODEL 1
REMARK VINA RESULT:     -10.9      0.000      0.000
REMARK SMILES COc1ccc(-c2sc(C(=O)OCCOC(=O)c3ccc(-c4c5nc(c(-c6c(F)cc(S(=O)(=O)[O-])cc6F)c6ccc([nH]6)c(-c6c(F)cc(S(=O)(=O)[O-])cc6F)c6nc(c(-c7c(F)cc(S(=O)(=O)[O-])cc7F)c7ccc4[nH]7)C=C6)C=C5)cc3)cc2C)c(OC)c1
REMARK SMILES IDX 14 1 13 2 12 3 10 4 11 5 9 6 7 7 8 8 85 9 84 10 86 11 6 12
REMARK SMILES IDX 3 13 4 14 90 15 5 16 87 17 2 18 1 19 88 20 89 21 15 22 16 23
REMARK SMILES IDX 17 24 18 25 19 26 83 27 20 28 82 29 21 30 22 31 23 32 76 33
REMARK SMILES IDX 24 34 81 35 75 36 77 37 25 38 80 39 74 40 73 41 26 43 60 44
REMARK SMILES IDX 39 45 59 46 40 47 43 48 58 49 78 50 41 51 42 52 57 54 79 55
REMARK SMILES IDX 44 56 27 57 28 58 37 59 29 60 30 61 36 62 38 63 31 64 32 65
REMARK SMILES IDX 33 66 34 67 35 68 61 69 62 70 71 71 63 72 64 73 70 74 72 75
REMARK SMILES IDX 65 76 66 77 67 78 68 79 69 80 45 81 46 82 55 83 47 84 48 85
REMARK SMILES IDX 54 86 56 87 49 88 50 89 51 90 52 91 53 92
REMARK H PARENT 77 42 43 53
REMARK Flexibility Score: inf
ROOT
ATOM      1  C   UNL A   1      33.375  28.175  26.336  1.00  0.00     0.275 C 
ENDROOT
BRANCH   1   2
ATOM      2  C   UNL A   1      31.907  27.740  26.302  1.00  0.00     0.275 C 
BRANCH   2   3
ATOM      3  O   UNL A   1      31.737  26.401  26.808  1.00  0.00    -0.458 OA
BRANCH   3   4
ATOM      4  C   UNL A   1      30.911  25.593  26.080  1.00  0.00     0.348 C 
ATOM      5  O   UNL A   1      29.711  25.800  25.930  1.00  0.00    -0.245 OA
BRANCH   4   6
ATOM      6  C   UNL A   1      31.635  24.526  25.412  1.00  0.00     0.113 A 
ATOM      7  C   UNL A   1      32.794  22.448  24.739  1.00  0.00     0.042 A 
ATOM      8  S   UNL A   1      32.048  23.052  26.165  1.00  0.00    -0.128 S 
ATOM      9  C   UNL A   1      32.835  23.397  23.731  1.00  0.00    -0.031 A 
ATOM     10  C   UNL A   1      32.050  24.532  24.093  1.00  0.00     0.031 A 
ATOM     11  C   UNL A   1      33.542  23.278  22.420  1.00  0.00     0.046 C 
BRANCH   7  12
ATOM     12  C   UNL A   1      33.262  21.058  24.696  1.00  0.00     0.034 A 
ATOM     13  C   UNL A   1      34.082  18.395  24.371  1.00  0.00     0.122 A 
ATOM     14  C   UNL A   1      32.763  18.755  24.106  1.00  0.00     0.047 A 
ATOM     15  C   UNL A   1      35.002  19.367  24.779  1.00  0.00     0.093 A 
ATOM     16  C   UNL A   1      32.352  20.074  24.276  1.00  0.00     0.017 A 
ATOM     17  C   UNL A   1      34.604  20.704  24.935  1.00  0.00     0.131 A 
BRANCH  13  18
ATOM     18  O   UNL A   1      34.371  17.075  24.149  1.00  0.00    -0.497 OA
ATOM     19  C   UNL A   1      33.383  16.148  24.582  1.00  0.00     0.278 C 
ENDBRANCH  13  18
BRANCH  17  20
ATOM     20  O   UNL A   1      35.444  21.720  25.312  1.00  0.00    -0.496 OA
ATOM     21  C   UNL A   1      36.529  22.039  24.451  1.00  0.00     0.278 C 
ENDBRANCH  17  20
ENDBRANCH   7  12
ENDBRANCH   4   6
ENDBRANCH   3   4
ENDBRANCH   2   3
ENDBRANCH   1   2
BRANCH   1  22
ATOM     22  O   UNL A   1      33.775  28.567  27.663  1.00  0.00    -0.458 OA
BRANCH  22  23
ATOM     23  C   UNL A   1      34.257  29.828  27.762  1.00  0.00     0.338 C 
ATOM     24  O   UNL A   1      33.641  30.869  27.613  1.00  0.00    -0.246 OA
BRANCH  23  25
ATOM     25  C   UNL A   1      35.671  29.802  28.167  1.00  0.00     0.060 A 
ATOM     26  C   UNL A   1      36.632  30.051  27.194  1.00  0.00     0.016 A 
ATOM     27  C   UNL A   1      36.052  29.359  29.429  1.00  0.00     0.016 A 
ATOM     28  C   UNL A   1      37.970  29.756  27.430  1.00  0.00     0.010 A 
ATOM     29  C   UNL A   1      37.412  29.163  29.702  1.00  0.00     0.010 A 
ATOM     30  C   UNL A   1      38.385  29.318  28.694  1.00  0.00    -0.014 A 
BRANCH  30  31
ATOM     31  C   UNL A   1      39.817  28.988  28.949  1.00  0.00     0.031 A 
ATOM     32  C   UNL A   1      40.746  30.040  29.502  1.00  0.00     0.074 A 
ATOM     33  C   UNL A   1      40.291  27.752  28.690  1.00  0.00     0.049 A 
ATOM     34  N   UNL A   1      42.050  30.025  29.603  1.00  0.00    -0.248 NA
ATOM     35  C   UNL A   1      40.124  31.282  29.992  1.00  0.00     0.031 C 
ATOM     36  C   UNL A   1      39.495  26.619  28.209  1.00  0.00     0.029 A 
ATOM     37  N   UNL A   1      41.563  27.239  28.787  1.00  0.00    -0.354 N 
ATOM     38  C   UNL A   1      42.409  31.267  30.116  1.00  0.00     0.074 A 
ATOM     39  C   UNL A   1      41.184  32.019  30.291  1.00  0.00     0.031 C 
ATOM     40  C   UNL A   1      40.288  25.546  28.075  1.00  0.00     0.029 A 
ATOM     41  C   UNL A   1      41.664  25.933  28.365  1.00  0.00     0.049 A 
ATOM     42  H   UNL A   1      42.329  27.756  29.128  1.00  0.00     0.167 HD
ATOM     43  C   UNL A   1      43.646  31.736  30.413  1.00  0.00     0.037 A 
ATOM     44  C   UNL A   1      42.741  25.147  28.175  1.00  0.00     0.037 A 
ATOM     45  C   UNL A   1      44.853  30.961  30.273  1.00  0.00     0.049 A 
ATOM     46  C   UNL A   1      44.109  25.708  28.453  1.00  0.00     0.074 A 
ATOM     47  C   UNL A   1      46.155  31.338  30.556  1.00  0.00     0.029 A 
ATOM     48  N   UNL A   1      44.909  29.650  29.821  1.00  0.00    -0.354 N 
ATOM     49  N   UNL A   1      44.437  26.899  28.894  1.00  0.00    -0.248 NA
ATOM     50  C   UNL A   1      45.254  24.824  28.197  1.00  0.00     0.031 C 
ATOM     51  C   UNL A   1      47.000  30.273  30.230  1.00  0.00     0.029 A 
ATOM     52  C   UNL A   1      46.221  29.210  29.801  1.00  0.00     0.049 A 
ATOM     53  H   UNL A   1      44.128  29.113  29.553  1.00  0.00     0.167 HD
ATOM     54  C   UNL A   1      45.823  26.897  28.997  1.00  0.00     0.074 A 
ATOM     55  C   UNL A   1      46.271  25.584  28.581  1.00  0.00     0.031 C 
ATOM     56  C   UNL A   1      46.650  27.892  29.403  1.00  0.00     0.037 A 
BRANCH  43  57
ATOM     57  C   UNL A   1      43.765  33.162  30.886  1.00  0.00     0.058 A 
ATOM     58  C   UNL A   1      43.746  33.504  32.247  1.00  0.00     0.135 A 
ATOM     59  C   UNL A   1      43.943  34.202  29.957  1.00  0.00     0.135 A 
ATOM     60  F   UNL A   1      43.565  32.555  33.179  1.00  0.00    -0.206 F 
ATOM     61  C   UNL A   1      43.865  34.826  32.669  1.00  0.00     0.059 A 
ATOM     62  C   UNL A   1      44.096  35.527  30.357  1.00  0.00     0.059 A 
ATOM     63  F   UNL A   1      43.972  33.936  28.641  1.00  0.00    -0.206 F 
ATOM     64  C   UNL A   1      44.040  35.830  31.715  1.00  0.00     0.060 A 
BRANCH  64  65
ATOM     65  S   UNL A   1      44.194  37.538  32.280  1.00  0.00     0.124 S 
ATOM     66  O   UNL A   1      45.597  37.588  32.680  1.00  0.00    -0.237 OA
ATOM     67  O   UNL A   1      43.852  38.295  31.080  1.00  0.00    -0.237 OA
ATOM     68  O   UNL A   1      43.228  37.627  33.370  1.00  0.00    -0.744 OA
ENDBRANCH  64  65
ENDBRANCH  43  57
BRANCH  44  69
ATOM     69  C   UNL A   1      42.571  23.761  27.658  1.00  0.00     0.058 A 
ATOM     70  C   UNL A   1      42.514  22.665  28.531  1.00  0.00     0.135 A 
ATOM     71  C   UNL A   1      42.451  23.506  26.282  1.00  0.00     0.135 A 
ATOM     72  F   UNL A   1      42.634  22.854  29.854  1.00  0.00    -0.206 F 
ATOM     73  C   UNL A   1      42.357  21.365  28.060  1.00  0.00     0.059 A 
ATOM     74  C   UNL A   1      42.261  22.219  25.789  1.00  0.00     0.059 A 
ATOM     75  F   UNL A   1      42.487  24.519  25.403  1.00  0.00    -0.206 F 
ATOM     76  C   UNL A   1      42.228  21.153  26.686  1.00  0.00     0.060 A 
BRANCH  76  77
ATOM     77  S   UNL A   1      41.981  19.466  26.090  1.00  0.00     0.124 S 
ATOM     78  O   UNL A   1      40.543  19.449  25.847  1.00  0.00    -0.237 OA
ATOM     79  O   UNL A   1      42.831  19.433  24.905  1.00  0.00    -0.237 OA
ATOM     80  O   UNL A   1      42.442  18.645  27.206  1.00  0.00    -0.744 OA
ENDBRANCH  76  77
ENDBRANCH  44  69
BRANCH  56  81
ATOM     81  C   UNL A   1      48.121  27.585  29.479  1.00  0.00     0.058 A 
ATOM     82  C   UNL A   1      48.995  27.867  28.419  1.00  0.00     0.135 A 
ATOM     83  C   UNL A   1      48.670  27.056  30.659  1.00  0.00     0.135 A 
ATOM     84  F   UNL A   1      48.522  28.364  27.266  1.00  0.00    -0.206 F 
ATOM     85  C   UNL A   1      50.361  27.619  28.520  1.00  0.00     0.059 A 
ATOM     86  C   UNL A   1      50.035  26.829  30.793  1.00  0.00     0.059 A 
ATOM     87  F   UNL A   1      47.877  26.775  31.706  1.00  0.00    -0.206 F 
ATOM     88  C   UNL A   1      50.872  27.105  29.713  1.00  0.00     0.060 A 
BRANCH  88  89
ATOM     89  S   UNL A   1      52.652  26.835  29.848  1.00  0.00     0.124 S 
ATOM     90  O   UNL A   1      52.971  26.311  28.525  1.00  0.00    -0.237 OA
ATOM     91  O   UNL A   1      53.148  28.178  30.135  1.00  0.00    -0.237 OA
ATOM     92  O   UNL A   1      52.770  25.882  30.947  1.00  0.00    -0.744 OA
ENDBRANCH  88  89
ENDBRANCH  56  81
ENDBRANCH  30  31
ENDBRANCH  23  25
ENDBRANCH  22  23
ENDBRANCH   1  22
TORSDOF 17
ENDMDL
MODEL 2
REMARK VINA RESULT:     -10.8      2.731      3.633
REMARK SMILES COc1ccc(-c2sc(C(=O)OCCOC(=O)c3ccc(-c4c5nc(c(-c6c(F)cc(S(=O)(=O)[O-])cc6F)c6ccc([nH]6)c(-c6c(F)cc(S(=O)(=O)[O-])cc6F)c6nc(c(-c7c(F)cc(S(=O)(=O)[O-])cc7F)c7ccc4[nH]7)C=C6)C=C5)cc3)cc2C)c(OC)c1
REMARK SMILES IDX 14 1 13 2 12 3 10 4 11 5 9 6 7 7 8 8 85 9 84 10 86 11 6 12
REMARK SMILES IDX 3 13 4 14 90 15 5 16 87 17 2 18 1 19 88 20 89 21 15 22 16 23
REMARK SMILES IDX 17 24 18 25 19 26 83 27 20 28 82 29 21 30 22 31 23 32 76 33
REMARK SMILES IDX 24 34 81 35 75 36 77 37 25 38 80 39 74 40 73 41 26 43 60 44
REMARK SMILES IDX 39 45 59 46 40 47 43 48 58 49 78 50 41 51 42 52 57 54 79 55
REMARK SMILES IDX 44 56 27 57 28 58 37 59 29 60 30 61 36 62 38 63 31 64 32 65
REMARK SMILES IDX 33 66 34 67 35 68 61 69 62 70 71 71 63 72 64 73 70 74 72 75
REMARK SMILES IDX 65 76 66 77 67 78 68 79 69 80 45 81 46 82 55 83 47 84 48 85
REMARK SMILES IDX 54 86 56 87 49 88 50 89 51 90 52 91 53 92
REMARK H PARENT 77 42 43 53
REMARK Flexibility Score: inf
ROOT
ATOM      1  C   UNL A   1      34.459  30.137  27.848  1.00  0.00     0.275 C 
ENDROOT
BRANCH   1   2
ATOM      2  C   UNL A   1      33.304  30.793  27.086  1.00  0.00     0.275 C 
BRANCH   2   3
ATOM      3  O   UNL A   1      32.113  29.982  27.123  1.00  0.00    -0.458 OA
BRANCH   3   4
ATOM      4  C   UNL A   1      31.734  29.432  25.932  1.00  0.00     0.348 C 
ATOM      5  O   UNL A   1      31.174  30.059  25.037  1.00  0.00    -0.245 OA
BRANCH   4   6
ATOM      6  C   UNL A   1      32.167  28.053  25.800  1.00  0.00     0.113 A 
ATOM      7  C   UNL A   1      33.271  25.912  25.241  1.00  0.00     0.042 A 
ATOM      8  S   UNL A   1      33.422  27.555  24.758  1.00  0.00    -0.128 S 
ATOM      9  C   UNL A   1      32.201  25.719  26.100  1.00  0.00    -0.031 A 
ATOM     10  C   UNL A   1      31.666  26.976  26.509  1.00  0.00     0.031 A 
ATOM     11  C   UNL A   1      31.678  24.409  26.593  1.00  0.00     0.046 C 
BRANCH   7  12
ATOM     12  C   UNL A   1      34.244  24.922  24.767  1.00  0.00     0.034 A 
ATOM     13  C   UNL A   1      36.077  22.912  24.083  1.00  0.00     0.122 A 
ATOM     14  C   UNL A   1      36.283  23.684  25.223  1.00  0.00     0.047 A 
ATOM     15  C   UNL A   1      34.945  23.126  23.290  1.00  0.00     0.093 A 
ATOM     16  C   UNL A   1      35.380  24.688  25.559  1.00  0.00     0.017 A 
ATOM     17  C   UNL A   1      34.016  24.123  23.630  1.00  0.00     0.131 A 
BRANCH  13  18
ATOM     18  O   UNL A   1      37.023  21.945  23.868  1.00  0.00    -0.497 OA
ATOM     19  C   UNL A   1      37.329  21.124  24.988  1.00  0.00     0.278 C 
ENDBRANCH  13  18
BRANCH  17  20
ATOM     20  O   UNL A   1      32.872  24.385  22.920  1.00  0.00    -0.496 OA
ATOM     21  C   UNL A   1      32.990  25.151  21.729  1.00  0.00     0.278 C 
ENDBRANCH  17  20
ENDBRANCH   7  12
ENDBRANCH   4   6
ENDBRANCH   3   4
ENDBRANCH   2   3
ENDBRANCH   1   2
BRANCH   1  22
ATOM     22  O   UNL A   1      35.569  31.041  27.997  1.00  0.00    -0.458 OA
BRANCH  22  23
ATOM     23  C   UNL A   1      36.257  30.910  29.155  1.00  0.00     0.338 C 
ATOM     24  O   UNL A   1      35.910  31.273  30.266  1.00  0.00    -0.246 OA
BRANCH  23  25
ATOM     25  C   UNL A   1      37.508  30.172  28.924  1.00  0.00     0.060 A 
ATOM     26  C   UNL A   1      38.337  29.938  30.014  1.00  0.00     0.016 A 
ATOM     27  C   UNL A   1      37.947  29.880  27.637  1.00  0.00     0.016 A 
ATOM     28  C   UNL A   1      39.649  29.517  29.828  1.00  0.00     0.010 A 
ATOM     29  C   UNL A   1      39.233  29.355  27.456  1.00  0.00     0.010 A 
ATOM     30  C   UNL A   1      40.116  29.206  28.545  1.00  0.00    -0.014 A 
BRANCH  30  31
ATOM     31  C   UNL A   1      41.526  28.767  28.337  1.00  0.00     0.031 A 
ATOM     32  C   UNL A   1      42.646  29.776  28.398  1.00  0.00     0.074 A 
ATOM     33  C   UNL A   1      41.812  27.471  28.096  1.00  0.00     0.049 A 
ATOM     34  N   UNL A   1      43.900  29.646  28.050  1.00  0.00    -0.248 NA
ATOM     35  C   UNL A   1      42.305  31.116  28.905  1.00  0.00     0.031 C 
ATOM     36  C   UNL A   1      40.837  26.377  28.067  1.00  0.00     0.029 A 
ATOM     37  N   UNL A   1      43.007  26.850  27.819  1.00  0.00    -0.354 N 
ATOM     38  C   UNL A   1      44.483  30.894  28.243  1.00  0.00     0.074 A 
ATOM     39  C   UNL A   1      43.441  31.775  28.725  1.00  0.00     0.031 C 
ATOM     40  C   UNL A   1      41.473  25.224  27.812  1.00  0.00     0.029 A 
ATOM     41  C   UNL A   1      42.882  25.504  27.562  1.00  0.00     0.049 A 
ATOM     42  H   UNL A   1      43.871  27.324  27.808  1.00  0.00     0.167 HD
ATOM     43  C   UNL A   1      45.770  31.270  28.036  1.00  0.00     0.037 A 
ATOM     44  C   UNL A   1      43.780  24.603  27.121  1.00  0.00     0.037 A 
ATOM     45  C   UNL A   1      46.808  30.371  27.595  1.00  0.00     0.049 A 
ATOM     46  C   UNL A   1      45.187  25.054  26.839  1.00  0.00     0.074 A 
ATOM     47  C   UNL A   1      48.145  30.648  27.365  1.00  0.00     0.029 A 
ATOM     48  N   UNL A   1      46.629  29.022  27.326  1.00  0.00    -0.354 N 
ATOM     49  N   UNL A   1      45.713  26.247  26.983  1.00  0.00    -0.248 NA
ATOM     50  C   UNL A   1      46.120  24.042  26.326  1.00  0.00     0.031 C 
ATOM     51  C   UNL A   1      48.762  29.479  26.912  1.00  0.00     0.029 A 
ATOM     52  C   UNL A   1      47.825  28.457  26.917  1.00  0.00     0.049 A 
ATOM     53  H   UNL A   1      45.776  28.538  27.413  1.00  0.00     0.167 HD
ATOM     54  C   UNL A   1      47.046  26.122  26.606  1.00  0.00     0.074 A 
ATOM     55  C   UNL A   1      47.247  24.736  26.237  1.00  0.00     0.031 C 
ATOM     56  C   UNL A   1      48.015  27.070  26.573  1.00  0.00     0.037 A 
BRANCH  43  57
ATOM     57  C   UNL A   1      46.125  32.719  28.249  1.00  0.00     0.058 A 
ATOM     58  C   UNL A   1      46.604  33.199  29.477  1.00  0.00     0.135 A 
ATOM     59  C   UNL A   1      46.020  33.636  27.188  1.00  0.00     0.135 A 
ATOM     60  F   UNL A   1      46.712  32.373  30.531  1.00  0.00    -0.206 F 
ATOM     61  C   UNL A   1      46.935  34.540  29.657  1.00  0.00     0.059 A 
ATOM     62  C   UNL A   1      46.376  34.974  27.336  1.00  0.00     0.059 A 
ATOM     63  F   UNL A   1      45.571  33.234  25.989  1.00  0.00    -0.206 F 
ATOM     64  C   UNL A   1      46.817  35.419  28.579  1.00  0.00     0.060 A 
BRANCH  64  65
ATOM     65  S   UNL A   1      47.253  37.154  28.829  1.00  0.00     0.124 S 
ATOM     66  O   UNL A   1      48.710  37.085  28.874  1.00  0.00    -0.237 OA
ATOM     67  O   UNL A   1      46.687  37.791  27.645  1.00  0.00    -0.237 OA
ATOM     68  O   UNL A   1      46.602  37.491  30.091  1.00  0.00    -0.744 OA
ENDBRANCH  64  65
ENDBRANCH  43  57
BRANCH  44  69
ATOM     69  C   UNL A   1      43.365  23.193  26.878  1.00  0.00     0.058 A 
ATOM     70  C   UNL A   1      43.306  22.669  25.580  1.00  0.00     0.135 A 
ATOM     71  C   UNL A   1      43.028  22.339  27.942  1.00  0.00     0.135 A 
ATOM     72  F   UNL A   1      43.608  23.447  24.528  1.00  0.00    -0.206 F 
ATOM     73  C   UNL A   1      42.918  21.355  25.340  1.00  0.00     0.059 A 
ATOM     74  C   UNL A   1      42.669  21.012  27.731  1.00  0.00     0.059 A 
ATOM     75  F   UNL A   1      43.078  22.786  29.207  1.00  0.00    -0.206 F 
ATOM     76  C   UNL A   1      42.604  20.532  26.424  1.00  0.00     0.060 A 
BRANCH  76  77
ATOM     77  S   UNL A   1      42.143  18.816  26.104  1.00  0.00     0.124 S 
ATOM     78  O   UNL A   1      40.730  18.950  25.771  1.00  0.00    -0.237 OA
ATOM     79  O   UNL A   1      43.030  18.462  25.001  1.00  0.00    -0.237 OA
ATOM     80  O   UNL A   1      42.433  18.149  27.370  1.00  0.00    -0.744 OA
ENDBRANCH  76  77
ENDBRANCH  44  69
BRANCH  56  81
ATOM     81  C   UNL A   1      49.400  26.632  26.181  1.00  0.00     0.058 A 
ATOM     82  C   UNL A   1      49.872  26.745  24.866  1.00  0.00     0.135 A 
ATOM     83  C   UNL A   1      50.287  26.148  27.158  1.00  0.00     0.135 A 
ATOM     84  F   UNL A   1      49.063  27.192  23.892  1.00  0.00    -0.206 F 
ATOM     85  C   UNL A   1      51.171  26.377  24.526  1.00  0.00     0.059 A 
ATOM     86  C   UNL A   1      51.598  25.803  26.847  1.00  0.00     0.059 A 
ATOM     87  F   UNL A   1      49.888  26.027  28.434  1.00  0.00    -0.206 F 
ATOM     88  C   UNL A   1      52.028  25.913  25.526  1.00  0.00     0.060 A 
BRANCH  88  89
ATOM     89  S   UNL A   1      53.726  25.487  25.082  1.00  0.00     0.124 S 
ATOM     90  O   UNL A   1      53.676  24.030  25.093  1.00  0.00    -0.237 OA
ATOM     91  O   UNL A   1      53.868  26.107  23.769  1.00  0.00    -0.237 OA
ATOM     92  O   UNL A   1      54.519  26.096  26.145  1.00  0.00    -0.744 OA
ENDBRANCH  88  89
ENDBRANCH  56  81
ENDBRANCH  30  31
ENDBRANCH  23  25
ENDBRANCH  22  23
ENDBRANCH   1  22
TORSDOF 17
ENDMDL
MODEL 3
REMARK VINA RESULT:     -10.7      3.545      9.934
REMARK SMILES COc1ccc(-c2sc(C(=O)OCCOC(=O)c3ccc(-c4c5nc(c(-c6c(F)cc(S(=O)(=O)[O-])cc6F)c6ccc([nH]6)c(-c6c(F)cc(S(=O)(=O)[O-])cc6F)c6nc(c(-c7c(F)cc(S(=O)(=O)[O-])cc7F)c7ccc4[nH]7)C=C6)C=C5)cc3)cc2C)c(OC)c1
REMARK SMILES IDX 14 1 13 2 12 3 10 4 11 5 9 6 7 7 8 8 85 9 84 10 86 11 6 12
REMARK SMILES IDX 3 13 4 14 90 15 5 16 87 17 2 18 1 19 88 20 89 21 15 22 16 23
REMARK SMILES IDX 17 24 18 25 19 26 83 27 20 28 82 29 21 30 22 31 23 32 76 33
REMARK SMILES IDX 24 34 81 35 75 36 77 37 25 38 80 39 74 40 73 41 26 43 60 44
REMARK SMILES IDX 39 45 59 46 40 47 43 48 58 49 78 50 41 51 42 52 57 54 79 55
REMARK SMILES IDX 44 56 27 57 28 58 37 59 29 60 30 61 36 62 38 63 31 64 32 65
REMARK SMILES IDX 33 66 34 67 35 68 61 69 62 70 71 71 63 72 64 73 70 74 72 75
REMARK SMILES IDX 65 76 66 77 67 78 68 79 69 80 45 81 46 82 55 83 47 84 48 85
REMARK SMILES IDX 54 86 56 87 49 88 50 89 51 90 52 91 53 92
REMARK H PARENT 77 42 43 53
REMARK Flexibility Score: inf
ROOT
ATOM      1  C   UNL A   1      38.346  21.383  25.388  1.00  0.00     0.275 C 
ENDROOT
BRANCH   1   2
ATOM      2  C   UNL A   1      36.989  21.205  24.702  1.00  0.00     0.275 C 
BRANCH   2   3
ATOM      3  O   UNL A   1      35.914  21.125  25.659  1.00  0.00    -0.458 OA
BRANCH   3   4
ATOM      4  C   UNL A   1      34.652  21.185  25.140  1.00  0.00     0.348 C 
ATOM      5  O   UNL A   1      33.977  20.196  24.869  1.00  0.00    -0.245 OA
BRANCH   4   6
ATOM      6  C   UNL A   1      34.159  22.547  25.051  1.00  0.00     0.113 A 
ATOM      7  C   UNL A   1      33.389  24.866  25.431  1.00  0.00     0.042 A 
ATOM      8  S   UNL A   1      33.909  23.551  26.407  1.00  0.00    -0.128 S 
ATOM      9  C   UNL A   1      33.294  24.516  24.094  1.00  0.00    -0.031 A 
ATOM     10  C   UNL A   1      33.864  23.226  23.882  1.00  0.00     0.031 A 
ATOM     11  C   UNL A   1      32.730  25.351  22.990  1.00  0.00     0.046 C 
BRANCH   7  12
ATOM     12  C   UNL A   1      33.142  26.176  26.046  1.00  0.00     0.034 A 
ATOM     13  C   UNL A   1      32.731  28.782  26.999  1.00  0.00     0.122 A 
ATOM     14  C   UNL A   1      33.964  28.423  26.458  1.00  0.00     0.047 A 
ATOM     15  C   UNL A   1      31.692  27.846  27.046  1.00  0.00     0.093 A 
ATOM     16  C   UNL A   1      34.173  27.128  25.995  1.00  0.00     0.017 A 
ATOM     17  C   UNL A   1      31.885  26.543  26.563  1.00  0.00     0.131 A 
BRANCH  13  18
ATOM     18  O   UNL A   1      32.642  30.086  27.404  1.00  0.00    -0.497 OA
ATOM     19  C   UNL A   1      33.869  30.804  27.446  1.00  0.00     0.278 C 
ENDBRANCH  13  18
BRANCH  17  20
ATOM     20  O   UNL A   1      30.916  25.572  26.554  1.00  0.00    -0.496 OA
ATOM     21  C   UNL A   1      29.804  25.750  25.686  1.00  0.00     0.278 C 
ENDBRANCH  17  20
ENDBRANCH   7  12
ENDBRANCH   4   6
ENDBRANCH   3   4
ENDBRANCH   2   3
ENDBRANCH   1   2
BRANCH   1  22
ATOM     22  O   UNL A   1      38.508  22.722  25.891  1.00  0.00    -0.458 OA
BRANCH  22  23
ATOM     23  C   UNL A   1      39.785  23.080  26.157  1.00  0.00     0.338 C 
ATOM     24  O   UNL A   1      40.802  22.505  25.806  1.00  0.00    -0.246 OA
BRANCH  23  25
ATOM     25  C   UNL A   1      39.816  24.353  26.892  1.00  0.00     0.060 A 
ATOM     26  C   UNL A   1      40.743  25.311  26.498  1.00  0.00     0.016 A 
ATOM     27  C   UNL A   1      39.082  24.530  28.060  1.00  0.00     0.016 A 
ATOM     28  C   UNL A   1      41.028  26.397  27.317  1.00  0.00     0.010 A 
ATOM     29  C   UNL A   1      39.293  25.679  28.832  1.00  0.00     0.010 A 
ATOM     30  C   UNL A   1      40.299  26.607  28.493  1.00  0.00    -0.014 A 
BRANCH  30  31
ATOM     31  C   UNL A   1      40.610  27.764  29.382  1.00  0.00     0.031 A 
ATOM     32  C   UNL A   1      41.850  27.742  30.240  1.00  0.00     0.074 A 
ATOM     33  C   UNL A   1      39.790  28.834  29.426  1.00  0.00     0.049 A 
ATOM     34  N   UNL A   1      42.196  28.538  31.218  1.00  0.00    -0.248 NA
ATOM     35  C   UNL A   1      42.825  26.672  29.969  1.00  0.00     0.031 C 
ATOM     36  C   UNL A   1      38.587  29.017  28.609  1.00  0.00     0.029 A 
ATOM     37  N   UNL A   1      39.837  29.971  30.197  1.00  0.00    -0.354 N 
ATOM     38  C   UNL A   1      43.396  28.037  31.714  1.00  0.00     0.074 A 
ATOM     39  C   UNL A   1      43.711  26.858  30.937  1.00  0.00     0.031 C 
ATOM     40  C   UNL A   1      38.026  30.199  28.905  1.00  0.00     0.029 A 
ATOM     41  C   UNL A   1      38.768  30.816  29.998  1.00  0.00     0.049 A 
ATOM     42  H   UNL A   1      40.566  30.164  30.830  1.00  0.00     0.167 HD
ATOM     43  C   UNL A   1      44.161  28.518  32.725  1.00  0.00     0.037 A 
ATOM     44  C   UNL A   1      38.391  31.931  30.653  1.00  0.00     0.037 A 
ATOM     45  C   UNL A   1      43.857  29.718  33.463  1.00  0.00     0.049 A 
ATOM     46  C   UNL A   1      39.222  32.412  31.810  1.00  0.00     0.074 A 
ATOM     47  C   UNL A   1      44.572  30.298  34.497  1.00  0.00     0.029 A 
ATOM     48  N   UNL A   1      42.752  30.529  33.240  1.00  0.00    -0.354 N 
ATOM     49  N   UNL A   1      40.329  31.903  32.297  1.00  0.00    -0.248 NA
ATOM     50  C   UNL A   1      38.750  33.612  32.514  1.00  0.00     0.031 C 
ATOM     51  C   UNL A   1      43.876  31.429  34.930  1.00  0.00     0.029 A 
ATOM     52  C   UNL A   1      42.759  31.592  34.127  1.00  0.00     0.049 A 
ATOM     53  H   UNL A   1      42.066  30.370  32.553  1.00  0.00     0.167 HD
ATOM     54  C   UNL A   1      40.701  32.738  33.345  1.00  0.00     0.074 A 
ATOM     55  C   UNL A   1      39.707  33.788  33.416  1.00  0.00     0.031 C 
ATOM     56  C   UNL A   1      41.771  32.643  34.172  1.00  0.00     0.037 A 
BRANCH  43  57
ATOM     57  C   UNL A   1      45.385  27.731  33.118  1.00  0.00     0.058 A 
ATOM     58  C   UNL A   1      45.336  26.689  34.058  1.00  0.00     0.135 A 
ATOM     59  C   UNL A   1      46.624  28.000  32.511  1.00  0.00     0.135 A 
ATOM     60  F   UNL A   1      44.183  26.396  34.681  1.00  0.00    -0.206 F 
ATOM     61  C   UNL A   1      46.474  25.966  34.406  1.00  0.00     0.059 A 
ATOM     62  C   UNL A   1      47.768  27.269  32.819  1.00  0.00     0.059 A 
ATOM     63  F   UNL A   1      46.732  28.982  31.602  1.00  0.00    -0.206 F 
ATOM     64  C   UNL A   1      47.686  26.264  33.780  1.00  0.00     0.060 A 
BRANCH  64  65
ATOM     65  S   UNL A   1      49.151  25.315  34.241  1.00  0.00     0.124 S 
ATOM     66  O   UNL A   1      48.609  24.416  35.255  1.00  0.00    -0.237 OA
ATOM     67  O   UNL A   1      49.528  24.690  32.978  1.00  0.00    -0.237 OA
ATOM     68  O   UNL A   1      50.075  26.332  34.735  1.00  0.00    -0.744 OA
ENDBRANCH  64  65
ENDBRANCH  43  57
BRANCH  44  69
ATOM     69  C   UNL A   1      37.145  32.643  30.255  1.00  0.00     0.058 A 
ATOM     70  C   UNL A   1      37.168  33.656  29.287  1.00  0.00     0.135 A 
ATOM     71  C   UNL A   1      35.904  32.316  30.828  1.00  0.00     0.135 A 
ATOM     72  F   UNL A   1      38.329  34.013  28.717  1.00  0.00    -0.206 F 
ATOM     73  C   UNL A   1      36.010  34.329  28.908  1.00  0.00     0.059 A 
ATOM     74  C   UNL A   1      34.729  32.952  30.443  1.00  0.00     0.059 A 
ATOM     75  F   UNL A   1      35.823  31.346  31.752  1.00  0.00    -0.206 F 
ATOM     76  C   UNL A   1      34.794  33.967  29.490  1.00  0.00     0.060 A 
BRANCH  76  77
ATOM     77  S   UNL A   1      33.293  34.819  28.960  1.00  0.00     0.124 S 
ATOM     78  O   UNL A   1      32.572  34.954  30.220  1.00  0.00    -0.237 OA
ATOM     79  O   UNL A   1      33.825  36.053  28.391  1.00  0.00    -0.237 OA
ATOM     80  O   UNL A   1      32.707  33.895  27.993  1.00  0.00    -0.744 OA
ENDBRANCH  76  77
ENDBRANCH  44  69
BRANCH  56  81
ATOM     81  C   UNL A   1      41.963  33.736  35.188  1.00  0.00     0.058 A 
ATOM     82  C   UNL A   1      41.491  33.620  36.503  1.00  0.00     0.135 A 
ATOM     83  C   UNL A   1      42.686  34.892  34.849  1.00  0.00     0.135 A 
ATOM     84  F   UNL A   1      40.786  32.541  36.877  1.00  0.00    -0.206 F 
ATOM     85  C   UNL A   1      41.714  34.620  37.445  1.00  0.00     0.059 A 
ATOM     86  C   UNL A   1      42.947  35.890  35.781  1.00  0.00     0.059 A 
ATOM     87  F   UNL A   1      43.166  35.049  33.605  1.00  0.00    -0.206 F 
ATOM     88  C   UNL A   1      42.449  35.749  37.075  1.00  0.00     0.060 A 
BRANCH  88  89
ATOM     89  S   UNL A   1      42.775  37.016  38.320  1.00  0.00     0.124 S 
ATOM     90  O   UNL A   1      43.521  36.261  39.320  1.00  0.00    -0.237 OA
ATOM     91  O   UNL A   1      43.543  38.001  37.566  1.00  0.00    -0.237 OA
ATOM     92  O   UNL A   1      41.440  37.447  38.725  1.00  0.00    -0.744 OA
ENDBRANCH  88  89
ENDBRANCH  56  81
ENDBRANCH  30  31
ENDBRANCH  23  25
ENDBRANCH  22  23
ENDBRANCH   1  22
TORSDOF 17
ENDMDL
