MODEL 1
REMARK VINA RESULT:     -10.0      0.000      0.000
REMARK SMILES CC[C@H](CNC(=O)[C@H]1CSc2ccccc21)C(=O)OCCOC(=O)c1ccc(-c2c3nc(c(-c4c(F)cc(S(=O)(=O)[O-])cc4F)c4ccc([nH]4)c(-c4c(F)cc(S(=O)(=O)[O-])cc4F)c4nc(c(-c5c(F)cc(S(=O)(=O)[O-])cc5F)c5ccc2[nH]5)C=C4)C=C3)cc1
REMARK SMILES IDX 20 1 19 2 17 3 18 4 3 5 2 6 1 7 4 8 5 9 6 10 7 12 8 13 9 14
REMARK SMILES IDX 16 15 10 16 11 17 15 18 12 19 14 20 13 21 21 22 22 23 23 24
REMARK SMILES IDX 24 25 25 26 26 27 90 28 27 29 89 30 28 31 29 32 30 33 83 34
REMARK SMILES IDX 31 35 88 36 82 37 84 38 32 39 87 40 81 41 80 42 33 44 67 45
REMARK SMILES IDX 46 46 66 47 47 48 50 49 65 50 85 51 48 52 49 53 64 55 86 56
REMARK SMILES IDX 51 57 34 58 35 59 44 60 36 61 37 62 43 63 45 64 38 65 39 66
REMARK SMILES IDX 40 67 41 68 42 69 68 70 69 71 78 72 70 73 71 74 77 75 79 76
REMARK SMILES IDX 72 77 73 78 74 79 75 80 76 81 52 82 53 83 62 84 54 85 55 86
REMARK SMILES IDX 61 87 63 88 56 89 57 90 58 91 59 92 60 93
REMARK H PARENT 5 11 84 43 50 54
REMARK Flexibility Score: inf
ROOT
ATOM      1  C   UNL A   1      42.106  21.791  25.888  1.00  0.00     0.274 C 
ENDROOT
BRANCH   1   2
ATOM      2  O   UNL A   1      43.509  21.553  25.648  1.00  0.00    -0.462 OA
BRANCH   2   3
ATOM      3  C   UNL A   1      44.063  22.239  24.618  1.00  0.00     0.310 C 
ATOM      4  O   UNL A   1      43.426  22.905  23.808  1.00  0.00    -0.252 OA
BRANCH   3   5
ATOM      5  C   UNL A   1      45.576  22.091  24.519  1.00  0.00     0.118 C 
BRANCH   5   6
ATOM      6  C   UNL A   1      46.008  20.926  25.438  1.00  0.00     0.014 C 
ATOM      7  C   UNL A   1      46.425  19.646  24.725  1.00  0.00     0.005 C 
ENDBRANCH   5   6
BRANCH   5   8
ATOM      8  C   UNL A   1      46.360  23.379  24.760  1.00  0.00     0.131 C 
BRANCH   8   9
ATOM      9  N   UNL A   1      45.579  24.564  25.082  1.00  0.00    -0.355 N 
ATOM     10  C   UNL A   1      45.780  25.467  26.097  1.00  0.00     0.228 C 
ATOM     11  H   UNL A   1      44.808  24.742  24.497  1.00  0.00     0.163 HD
ATOM     12  O   UNL A   1      45.228  26.567  26.006  1.00  0.00    -0.274 OA
BRANCH  10  13
ATOM     13  C   UNL A   1      46.664  25.158  27.312  1.00  0.00     0.120 C 
ATOM     14  C   UNL A   1      47.563  26.349  27.666  1.00  0.00     0.093 C 
ATOM     15  C   UNL A   1      45.884  24.746  28.535  1.00  0.00    -0.021 A 
ATOM     16  S   UNL A   1      47.440  26.677  29.459  1.00  0.00    -0.125 SA
ATOM     17  C   UNL A   1      46.138  25.502  29.679  1.00  0.00     0.011 A 
ATOM     18  C   UNL A   1      44.895  23.765  28.542  1.00  0.00     0.006 A 
ATOM     19  C   UNL A   1      45.340  25.373  30.805  1.00  0.00     0.015 A 
ATOM     20  C   UNL A   1      44.097  23.620  29.675  1.00  0.00     0.000 A 
ATOM     21  C   UNL A   1      44.303  24.437  30.794  1.00  0.00     0.001 A 
ENDBRANCH  10  13
ENDBRANCH   8   9
ENDBRANCH   5   8
ENDBRANCH   3   5
ENDBRANCH   2   3
ENDBRANCH   1   2
BRANCH   1  22
ATOM     22  C   UNL A   1      41.887  22.797  27.018  1.00  0.00     0.275 C 
BRANCH  22  23
ATOM     23  O   UNL A   1      41.045  23.875  26.579  1.00  0.00    -0.458 OA
BRANCH  23  24
ATOM     24  C   UNL A   1      41.675  25.053  26.361  1.00  0.00     0.338 C 
ATOM     25  O   UNL A   1      42.366  25.358  25.408  1.00  0.00    -0.246 OA
BRANCH  24  26
ATOM     26  C   UNL A   1      41.374  25.953  27.482  1.00  0.00     0.060 A 
ATOM     27  C   UNL A   1      42.284  26.945  27.831  1.00  0.00     0.016 A 
ATOM     28  C   UNL A   1      40.170  25.820  28.176  1.00  0.00     0.016 A 
ATOM     29  C   UNL A   1      42.005  27.765  28.924  1.00  0.00     0.010 A 
ATOM     30  C   UNL A   1      39.864  26.672  29.231  1.00  0.00     0.010 A 
ATOM     31  C   UNL A   1      40.798  27.628  29.637  1.00  0.00    -0.014 A 
BRANCH  31  32
ATOM     32  C   UNL A   1      40.535  28.481  30.819  1.00  0.00     0.031 A 
ATOM     33  C   UNL A   1      41.389  28.357  32.050  1.00  0.00     0.074 A 
ATOM     34  C   UNL A   1      39.543  29.387  30.755  1.00  0.00     0.049 A 
ATOM     35  N   UNL A   1      41.409  29.116  33.115  1.00  0.00    -0.248 NA
ATOM     36  C   UNL A   1      42.335  27.230  32.100  1.00  0.00     0.031 C 
ATOM     37  C   UNL A   1      38.618  29.540  29.628  1.00  0.00     0.029 A 
ATOM     38  N   UNL A   1      39.164  30.368  31.634  1.00  0.00    -0.354 N 
ATOM     39  C   UNL A   1      42.381  28.575  33.948  1.00  0.00     0.074 A 
ATOM     40  C   UNL A   1      42.877  27.381  33.301  1.00  0.00     0.031 C 
ATOM     41  C   UNL A   1      37.822  30.595  29.857  1.00  0.00     0.029 A 
ATOM     42  C   UNL A   1      38.163  31.177  31.152  1.00  0.00     0.049 A 
ATOM     43  H   UNL A   1      39.570  30.481  32.524  1.00  0.00     0.167 HD
ATOM     44  C   UNL A   1      42.841  29.054  35.127  1.00  0.00     0.037 A 
ATOM     45  C   UNL A   1      37.605  32.281  31.684  1.00  0.00     0.037 A 
ATOM     46  C   UNL A   1      42.333  30.247  35.754  1.00  0.00     0.049 A 
ATOM     47  C   UNL A   1      38.125  32.790  33.000  1.00  0.00     0.074 A 
ATOM     48  C   UNL A   1      42.748  30.846  36.929  1.00  0.00     0.029 A 
ATOM     49  N   UNL A   1      41.293  31.019  35.255  1.00  0.00    -0.354 N 
ATOM     50  N   UNL A   1      39.096  32.311  33.741  1.00  0.00    -0.248 NA
ATOM     51  C   UNL A   1      37.480  33.989  33.549  1.00  0.00     0.031 C 
ATOM     52  C   UNL A   1      41.927  31.954  37.165  1.00  0.00     0.029 A 
ATOM     53  C   UNL A   1      41.034  32.077  36.111  1.00  0.00     0.049 A 
ATOM     54  H   UNL A   1      40.811  30.842  34.415  1.00  0.00     0.167 HD
ATOM     55  C   UNL A   1      39.189  33.156  34.841  1.00  0.00     0.074 A 
ATOM     56  C   UNL A   1      38.187  34.189  34.654  1.00  0.00     0.031 C 
ATOM     57  C   UNL A   1      40.023  33.085  35.908  1.00  0.00     0.037 A 
BRANCH  44  58
ATOM     58  C   UNL A   1      43.955  28.300  35.804  1.00  0.00     0.058 A 
ATOM     59  C   UNL A   1      45.303  28.624  35.576  1.00  0.00     0.135 A 
ATOM     60  C   UNL A   1      43.679  27.272  36.720  1.00  0.00     0.135 A 
ATOM     61  F   UNL A   1      45.627  29.588  34.700  1.00  0.00    -0.206 F 
ATOM     62  C   UNL A   1      46.336  27.940  36.208  1.00  0.00     0.059 A 
ATOM     63  C   UNL A   1      44.696  26.593  37.387  1.00  0.00     0.059 A 
ATOM     64  F   UNL A   1      42.410  26.919  36.978  1.00  0.00    -0.206 F 
ATOM     65  C   UNL A   1      46.022  26.926  37.115  1.00  0.00     0.060 A 
BRANCH  65  66
ATOM     66  S   UNL A   1      47.377  26.056  37.932  1.00  0.00     0.124 S 
ATOM     67  O   UNL A   1      46.653  25.068  38.727  1.00  0.00    -0.237 OA
ATOM     68  O   UNL A   1      48.133  25.527  36.801  1.00  0.00    -0.237 OA
ATOM     69  O   UNL A   1      48.046  27.104  38.696  1.00  0.00    -0.744 OA
ENDBRANCH  65  66
ENDBRANCH  44  58
BRANCH  45  70
ATOM     70  C   UNL A   1      36.541  32.997  30.933  1.00  0.00     0.058 A 
ATOM     71  C   UNL A   1      35.205  32.954  31.357  1.00  0.00     0.135 A 
ATOM     72  C   UNL A   1      36.847  33.793  29.818  1.00  0.00     0.135 A 
ATOM     73  F   UNL A   1      34.860  32.206  32.415  1.00  0.00    -0.206 F 
ATOM     74  C   UNL A   1      34.209  33.673  30.703  1.00  0.00     0.059 A 
ATOM     75  C   UNL A   1      35.873  34.541  29.162  1.00  0.00     0.059 A 
ATOM     76  F   UNL A   1      38.114  33.882  29.383  1.00  0.00    -0.206 F 
ATOM     77  C   UNL A   1      34.556  34.473  29.611  1.00  0.00     0.060 A 
BRANCH  77  78
ATOM     78  S   UNL A   1      33.266  35.457  28.818  1.00  0.00     0.124 S 
ATOM     79  O   UNL A   1      32.575  34.451  28.021  1.00  0.00    -0.237 OA
ATOM     80  O   UNL A   1      32.531  35.978  29.967  1.00  0.00    -0.237 OA
ATOM     81  O   UNL A   1      34.020  36.453  28.062  1.00  0.00    -0.744 OA
ENDBRANCH  77  78
ENDBRANCH  45  70
BRANCH  57  82
ATOM     82  C   UNL A   1      39.886  34.147  36.962  1.00  0.00     0.058 A 
ATOM     83  C   UNL A   1      40.470  35.412  36.804  1.00  0.00     0.135 A 
ATOM     84  C   UNL A   1      39.102  33.922  38.106  1.00  0.00     0.135 A 
ATOM     85  F   UNL A   1      41.234  35.675  35.732  1.00  0.00    -0.206 F 
ATOM     86  C   UNL A   1      40.294  36.416  37.750  1.00  0.00     0.059 A 
ATOM     87  C   UNL A   1      38.889  34.920  39.051  1.00  0.00     0.059 A 
ATOM     88  F   UNL A   1      38.512  32.731  38.297  1.00  0.00    -0.206 F 
ATOM     89  C   UNL A   1      39.495  36.162  38.867  1.00  0.00     0.060 A 
BRANCH  89  90
ATOM     90  S   UNL A   1      39.240  37.490  40.061  1.00  0.00     0.124 S 
ATOM     91  O   UNL A   1      38.302  38.352  39.349  1.00  0.00    -0.237 OA
ATOM     92  O   UNL A   1      38.695  36.773  41.210  1.00  0.00    -0.237 OA
ATOM     93  O   UNL A   1      40.578  38.042  40.251  1.00  0.00    -0.744 OA
ENDBRANCH  89  90
ENDBRANCH  57  82
ENDBRANCH  31  32
ENDBRANCH  24  26
ENDBRANCH  23  24
ENDBRANCH  22  23
ENDBRANCH   1  22
TORSDOF 18
ENDMDL
MODEL 2
REMARK VINA RESULT:      -9.8      3.539      5.479
REMARK SMILES CC[C@H](CNC(=O)[C@H]1CSc2ccccc21)C(=O)OCCOC(=O)c1ccc(-c2c3nc(c(-c4c(F)cc(S(=O)(=O)[O-])cc4F)c4ccc([nH]4)c(-c4c(F)cc(S(=O)(=O)[O-])cc4F)c4nc(c(-c5c(F)cc(S(=O)(=O)[O-])cc5F)c5ccc2[nH]5)C=C4)C=C3)cc1
REMARK SMILES IDX 20 1 19 2 17 3 18 4 3 5 2 6 1 7 4 8 5 9 6 10 7 12 8 13 9 14
REMARK SMILES IDX 16 15 10 16 11 17 15 18 12 19 14 20 13 21 21 22 22 23 23 24
REMARK SMILES IDX 24 25 25 26 26 27 90 28 27 29 89 30 28 31 29 32 30 33 83 34
REMARK SMILES IDX 31 35 88 36 82 37 84 38 32 39 87 40 81 41 80 42 33 44 67 45
REMARK SMILES IDX 46 46 66 47 47 48 50 49 65 50 85 51 48 52 49 53 64 55 86 56
REMARK SMILES IDX 51 57 34 58 35 59 44 60 36 61 37 62 43 63 45 64 38 65 39 66
REMARK SMILES IDX 40 67 41 68 42 69 68 70 69 71 78 72 70 73 71 74 77 75 79 76
REMARK SMILES IDX 72 77 73 78 74 79 75 80 76 81 52 82 53 83 62 84 54 85 55 86
REMARK SMILES IDX 61 87 63 88 56 89 57 90 58 91 59 92 60 93
REMARK H PARENT 5 11 84 43 50 54
REMARK Flexibility Score: inf
ROOT
ATOM      1  C   UNL A   1      40.952  21.847  26.188  1.00  0.00     0.274 C 
ENDROOT
BRANCH   1   2
ATOM      2  O   UNL A   1      39.523  22.027  26.265  1.00  0.00    -0.462 OA
BRANCH   2   3
ATOM      3  C   UNL A   1      38.770  21.119  25.597  1.00  0.00     0.310 C 
ATOM      4  O   UNL A   1      39.097  19.951  25.411  1.00  0.00    -0.252 OA
BRANCH   3   5
ATOM      5  C   UNL A   1      37.464  21.681  25.049  1.00  0.00     0.118 C 
BRANCH   5   6
ATOM      6  C   UNL A   1      37.597  23.218  24.968  1.00  0.00     0.014 C 
ATOM      7  C   UNL A   1      37.059  23.989  26.166  1.00  0.00     0.005 C 
ENDBRANCH   5   6
BRANCH   5   8
ATOM      8  C   UNL A   1      36.211  21.216  25.787  1.00  0.00     0.131 C 
BRANCH   8   9
ATOM      9  N   UNL A   1      35.541  20.039  25.253  1.00  0.00    -0.355 N 
ATOM     10  C   UNL A   1      34.239  19.917  24.836  1.00  0.00     0.228 C 
ATOM     11  H   UNL A   1      36.091  19.227  25.183  1.00  0.00     0.163 HD
ATOM     12  O   UNL A   1      33.953  18.955  24.115  1.00  0.00    -0.274 OA
BRANCH  10  13
ATOM     13  C   UNL A   1      33.151  20.927  25.221  1.00  0.00     0.120 C 
ATOM     14  C   UNL A   1      33.057  21.094  26.743  1.00  0.00     0.093 C 
ATOM     15  C   UNL A   1      33.336  22.283  24.585  1.00  0.00    -0.021 A 
ATOM     16  S   UNL A   1      33.047  22.875  27.148  1.00  0.00    -0.125 SA
ATOM     17  C   UNL A   1      33.377  23.353  25.480  1.00  0.00     0.011 A 
ATOM     18  C   UNL A   1      33.563  22.489  23.226  1.00  0.00     0.006 A 
ATOM     19  C   UNL A   1      33.755  24.617  25.054  1.00  0.00     0.015 A 
ATOM     20  C   UNL A   1      33.931  23.759  22.789  1.00  0.00     0.000 A 
ATOM     21  C   UNL A   1      34.050  24.814  23.702  1.00  0.00     0.001 A 
ENDBRANCH  10  13
ENDBRANCH   8   9
ENDBRANCH   5   8
ENDBRANCH   3   5
ENDBRANCH   2   3
ENDBRANCH   1   2
BRANCH   1  22
ATOM     22  C   UNL A   1      41.692  23.185  26.162  1.00  0.00     0.275 C 
BRANCH  22  23
ATOM     23  O   UNL A   1      40.778  24.271  26.379  1.00  0.00    -0.458 OA
BRANCH  23  24
ATOM     24  C   UNL A   1      41.285  25.508  26.171  1.00  0.00     0.338 C 
ATOM     25  O   UNL A   1      41.816  25.930  25.161  1.00  0.00    -0.246 OA
BRANCH  24  26
ATOM     26  C   UNL A   1      41.075  26.306  27.386  1.00  0.00     0.060 A 
ATOM     27  C   UNL A   1      40.151  25.882  28.334  1.00  0.00     0.016 A 
ATOM     28  C   UNL A   1      41.818  27.469  27.591  1.00  0.00     0.016 A 
ATOM     29  C   UNL A   1      39.931  26.671  29.463  1.00  0.00     0.010 A 
ATOM     30  C   UNL A   1      41.641  28.228  28.743  1.00  0.00     0.010 A 
ATOM     31  C   UNL A   1      40.667  27.853  29.670  1.00  0.00    -0.014 A 
BRANCH  31  32
ATOM     32  C   UNL A   1      40.393  28.699  30.855  1.00  0.00     0.031 A 
ATOM     33  C   UNL A   1      41.245  28.579  32.088  1.00  0.00     0.074 A 
ATOM     34  C   UNL A   1      39.391  29.595  30.793  1.00  0.00     0.049 A 
ATOM     35  N   UNL A   1      41.254  29.333  33.156  1.00  0.00    -0.248 NA
ATOM     36  C   UNL A   1      42.202  27.461  32.136  1.00  0.00     0.031 C 
ATOM     37  C   UNL A   1      38.468  29.743  29.664  1.00  0.00     0.029 A 
ATOM     38  N   UNL A   1      39.001  30.568  31.674  1.00  0.00    -0.354 N 
ATOM     39  C   UNL A   1      42.229  28.799  33.990  1.00  0.00     0.074 A 
ATOM     40  C   UNL A   1      42.739  27.613  33.339  1.00  0.00     0.031 C 
ATOM     41  C   UNL A   1      37.660  30.789  29.895  1.00  0.00     0.029 A 
ATOM     42  C   UNL A   1      37.993  31.369  31.193  1.00  0.00     0.049 A 
ATOM     43  H   UNL A   1      39.403  30.681  32.566  1.00  0.00     0.167 HD
ATOM     44  C   UNL A   1      42.682  29.278  35.172  1.00  0.00     0.037 A 
ATOM     45  C   UNL A   1      37.422  32.465  31.728  1.00  0.00     0.037 A 
ATOM     46  C   UNL A   1      42.160  30.463  35.802  1.00  0.00     0.049 A 
ATOM     47  C   UNL A   1      37.933  32.974  33.047  1.00  0.00     0.074 A 
ATOM     48  C   UNL A   1      42.566  31.062  36.981  1.00  0.00     0.029 A 
ATOM     49  N   UNL A   1      41.114  31.227  35.303  1.00  0.00    -0.354 N 
ATOM     50  N   UNL A   1      38.907  32.502  33.789  1.00  0.00    -0.248 NA
ATOM     51  C   UNL A   1      37.275  34.164  33.600  1.00  0.00     0.031 C 
ATOM     52  C   UNL A   1      41.734  32.160  37.219  1.00  0.00     0.029 A 
ATOM     53  C   UNL A   1      40.842  32.278  36.163  1.00  0.00     0.049 A 
ATOM     54  H   UNL A   1      40.635  31.048  34.462  1.00  0.00     0.167 HD
ATOM     55  C   UNL A   1      38.989  33.344  34.892  1.00  0.00     0.074 A 
ATOM     56  C   UNL A   1      37.977  34.367  34.707  1.00  0.00     0.031 C 
ATOM     57  C   UNL A   1      39.821  33.277  35.961  1.00  0.00     0.037 A 
BRANCH  44  58
ATOM     58  C   UNL A   1      43.801  28.533  35.848  1.00  0.00     0.058 A 
ATOM     59  C   UNL A   1      45.147  28.864  35.616  1.00  0.00     0.135 A 
ATOM     60  C   UNL A   1      43.533  27.506  36.768  1.00  0.00     0.135 A 
ATOM     61  F   UNL A   1      45.464  29.827  34.737  1.00  0.00    -0.206 F 
ATOM     62  C   UNL A   1      46.185  28.188  36.249  1.00  0.00     0.059 A 
ATOM     63  C   UNL A   1      44.556  26.834  37.435  1.00  0.00     0.059 A 
ATOM     64  F   UNL A   1      42.267  27.146  37.030  1.00  0.00    -0.206 F 
ATOM     65  C   UNL A   1      45.880  27.175  37.159  1.00  0.00     0.060 A 
BRANCH  65  66
ATOM     66  S   UNL A   1      47.241  26.315  37.976  1.00  0.00     0.124 S 
ATOM     67  O   UNL A   1      46.829  24.921  37.844  1.00  0.00    -0.237 OA
ATOM     68  O   UNL A   1      48.390  26.714  37.168  1.00  0.00    -0.237 OA
ATOM     69  O   UNL A   1      47.217  26.848  39.335  1.00  0.00    -0.744 OA
ENDBRANCH  65  66
ENDBRANCH  44  58
BRANCH  45  70
ATOM     70  C   UNL A   1      36.352  33.174  30.977  1.00  0.00     0.058 A 
ATOM     71  C   UNL A   1      35.016  33.119  31.400  1.00  0.00     0.135 A 
ATOM     72  C   UNL A   1      36.653  33.972  29.863  1.00  0.00     0.135 A 
ATOM     73  F   UNL A   1      34.677  32.367  32.457  1.00  0.00    -0.206 F 
ATOM     74  C   UNL A   1      34.015  33.830  30.746  1.00  0.00     0.059 A 
ATOM     75  C   UNL A   1      35.674  34.713  29.207  1.00  0.00     0.059 A 
ATOM     76  F   UNL A   1      37.919  34.072  29.429  1.00  0.00    -0.206 F 
ATOM     77  C   UNL A   1      34.357  34.634  29.655  1.00  0.00     0.060 A 
BRANCH  77  78
ATOM     78  S   UNL A   1      33.059  35.609  28.863  1.00  0.00     0.124 S 
ATOM     79  O   UNL A   1      32.333  36.128  30.015  1.00  0.00    -0.237 OA
ATOM     80  O   UNL A   1      33.834  36.585  28.102  1.00  0.00    -0.237 OA
ATOM     81  O   UNL A   1      32.343  34.624  28.057  1.00  0.00    -0.744 OA
ENDBRANCH  77  78
ENDBRANCH  45  70
BRANCH  57  82
ATOM     82  C   UNL A   1      39.671  34.333  37.019  1.00  0.00     0.058 A 
ATOM     83  C   UNL A   1      38.865  34.125  38.149  1.00  0.00     0.135 A 
ATOM     84  C   UNL A   1      40.399  35.532  36.942  1.00  0.00     0.135 A 
ATOM     85  F   UNL A   1      38.144  32.999  38.268  1.00  0.00    -0.206 F 
ATOM     86  C   UNL A   1      38.773  35.076  39.159  1.00  0.00     0.059 A 
ATOM     87  C   UNL A   1      40.344  36.484  37.953  1.00  0.00     0.059 A 
ATOM     88  F   UNL A   1      41.193  35.772  35.886  1.00  0.00    -0.206 F 
ATOM     89  C   UNL A   1      39.523  36.250  39.055  1.00  0.00     0.060 A 
BRANCH  89  90
ATOM     90  S   UNL A   1      39.427  37.452  40.397  1.00  0.00     0.124 S 
ATOM     91  O   UNL A   1      38.401  38.365  39.904  1.00  0.00    -0.237 OA
ATOM     92  O   UNL A   1      39.041  36.619  41.533  1.00  0.00    -0.237 OA
ATOM     93  O   UNL A   1      40.777  38.002  40.461  1.00  0.00    -0.744 OA
ENDBRANCH  89  90
ENDBRANCH  57  82
ENDBRANCH  31  32
ENDBRANCH  24  26
ENDBRANCH  23  24
ENDBRANCH  22  23
ENDBRANCH   1  22
TORSDOF 18
ENDMDL
MODEL 3
REMARK VINA RESULT:      -9.8      6.147     11.650
REMARK SMILES CC[C@H](CNC(=O)[C@H]1CSc2ccccc21)C(=O)OCCOC(=O)c1ccc(-c2c3nc(c(-c4c(F)cc(S(=O)(=O)[O-])cc4F)c4ccc([nH]4)c(-c4c(F)cc(S(=O)(=O)[O-])cc4F)c4nc(c(-c5c(F)cc(S(=O)(=O)[O-])cc5F)c5ccc2[nH]5)C=C4)C=C3)cc1
REMARK SMILES IDX 20 1 19 2 17 3 18 4 3 5 2 6 1 7 4 8 5 9 6 10 7 12 8 13 9 14
REMARK SMILES IDX 16 15 10 16 11 17 15 18 12 19 14 20 13 21 21 22 22 23 23 24
REMARK SMILES IDX 24 25 25 26 26 27 90 28 27 29 89 30 28 31 29 32 30 33 83 34
REMARK SMILES IDX 31 35 88 36 82 37 84 38 32 39 87 40 81 41 80 42 33 44 67 45
REMARK SMILES IDX 46 46 66 47 47 48 50 49 65 50 85 51 48 52 49 53 64 55 86 56
REMARK SMILES IDX 51 57 34 58 35 59 44 60 36 61 37 62 43 63 45 64 38 65 39 66
REMARK SMILES IDX 40 67 41 68 42 69 68 70 69 71 78 72 70 73 71 74 77 75 79 76
REMARK SMILES IDX 72 77 73 78 74 79 75 80 76 81 52 82 53 83 62 84 54 85 55 86
REMARK SMILES IDX 61 87 63 88 56 89 57 90 58 91 59 92 60 93
REMARK H PARENT 5 11 84 43 50 54
REMARK Flexibility Score: inf
ROOT
ATOM      1  C   UNL A   1      31.983  28.290  26.319  1.00  0.00     0.274 C 
ENDROOT
BRANCH   1   2
ATOM      2  O   UNL A   1      31.543  28.362  24.947  1.00  0.00    -0.462 OA
BRANCH   2   3
ATOM      3  C   UNL A   1      32.022  27.405  24.115  1.00  0.00     0.310 C 
ATOM      4  O   UNL A   1      33.179  26.996  24.125  1.00  0.00    -0.252 OA
BRANCH   3   5
ATOM      5  C   UNL A   1      30.998  26.883  23.116  1.00  0.00     0.118 C 
BRANCH   5   6
ATOM      6  C   UNL A   1      29.612  27.445  23.508  1.00  0.00     0.014 C 
ATOM      7  C   UNL A   1      28.612  26.423  24.031  1.00  0.00     0.005 C 
ENDBRANCH   5   6
BRANCH   5   8
ATOM      8  C   UNL A   1      31.008  25.369  22.924  1.00  0.00     0.131 C 
BRANCH   8   9
ATOM      9  N   UNL A   1      32.090  24.823  22.117  1.00  0.00    -0.355 N 
ATOM     10  C   UNL A   1      32.858  23.712  22.363  1.00  0.00     0.228 C 
ATOM     11  H   UNL A   1      32.298  25.313  21.290  1.00  0.00     0.163 HD
ATOM     12  O   UNL A   1      33.485  23.226  21.417  1.00  0.00    -0.274 OA
BRANCH  10  13
ATOM     13  C   UNL A   1      32.948  23.062  23.749  1.00  0.00     0.120 C 
ATOM     14  C   UNL A   1      32.207  21.720  23.787  1.00  0.00     0.093 C 
ATOM     15  C   UNL A   1      34.364  22.858  24.227  1.00  0.00    -0.021 A 
ATOM     16  S   UNL A   1      33.291  20.460  24.544  1.00  0.00    -0.125 SA
ATOM     17  C   UNL A   1      34.682  21.548  24.589  1.00  0.00     0.011 A 
ATOM     18  C   UNL A   1      35.346  23.846  24.221  1.00  0.00     0.006 A 
ATOM     19  C   UNL A   1      35.995  21.181  24.837  1.00  0.00     0.015 A 
ATOM     20  C   UNL A   1      36.667  23.487  24.482  1.00  0.00     0.000 A 
ATOM     21  C   UNL A   1      36.994  22.156  24.766  1.00  0.00     0.001 A 
ENDBRANCH  10  13
ENDBRANCH   8   9
ENDBRANCH   5   8
ENDBRANCH   3   5
ENDBRANCH   2   3
ENDBRANCH   1   2
BRANCH   1  22
ATOM     22  C   UNL A   1      32.678  29.579  26.760  1.00  0.00     0.275 C 
BRANCH  22  23
ATOM     23  O   UNL A   1      33.896  29.283  27.461  1.00  0.00    -0.458 OA
BRANCH  23  24
ATOM     24  C   UNL A   1      34.504  30.342  28.043  1.00  0.00     0.338 C 
ATOM     25  O   UNL A   1      34.008  31.414  28.331  1.00  0.00    -0.246 OA
BRANCH  24  26
ATOM     26  C   UNL A   1      35.905  29.985  28.304  1.00  0.00     0.060 A 
ATOM     27  C   UNL A   1      36.282  29.567  29.575  1.00  0.00     0.016 A 
ATOM     28  C   UNL A   1      36.842  30.048  27.271  1.00  0.00     0.016 A 
ATOM     29  C   UNL A   1      37.623  29.272  29.820  1.00  0.00     0.010 A 
ATOM     30  C   UNL A   1      38.169  29.701  27.499  1.00  0.00     0.010 A 
ATOM     31  C   UNL A   1      38.576  29.346  28.786  1.00  0.00    -0.014 A 
BRANCH  31  32
ATOM     32  C   UNL A   1      40.003  29.067  29.073  1.00  0.00     0.031 A 
ATOM     33  C   UNL A   1      40.597  27.727  28.739  1.00  0.00     0.074 A 
ATOM     34  C   UNL A   1      40.759  30.045  29.605  1.00  0.00     0.049 A 
ATOM     35  N   UNL A   1      41.849  27.353  28.775  1.00  0.00    -0.248 NA
ATOM     36  C   UNL A   1      39.666  26.665  28.324  1.00  0.00     0.031 C 
ATOM     37  C   UNL A   1      40.259  31.358  30.022  1.00  0.00     0.029 A 
ATOM     38  N   UNL A   1      42.105  30.104  29.856  1.00  0.00    -0.354 N 
ATOM     39  C   UNL A   1      41.860  26.025  28.366  1.00  0.00     0.074 A 
ATOM     40  C   UNL A   1      40.484  25.634  28.159  1.00  0.00     0.031 C 
ATOM     41  C   UNL A   1      41.295  32.114  30.417  1.00  0.00     0.029 A 
ATOM     42  C   UNL A   1      42.524  31.334  30.302  1.00  0.00     0.049 A 
ATOM     43  H   UNL A   1      42.711  29.338  29.729  1.00  0.00     0.167 HD
ATOM     44  C   UNL A   1      42.926  25.219  28.148  1.00  0.00     0.037 A 
ATOM     45  C   UNL A   1      43.764  31.789  30.562  1.00  0.00     0.037 A 
ATOM     46  C   UNL A   1      44.290  25.629  28.360  1.00  0.00     0.049 A 
ATOM     47  C   UNL A   1      44.933  30.873  30.322  1.00  0.00     0.074 A 
ATOM     48  C   UNL A   1      45.451  24.911  28.137  1.00  0.00     0.029 A 
ATOM     49  N   UNL A   1      44.674  26.871  28.848  1.00  0.00    -0.354 N 
ATOM     50  N   UNL A   1      44.935  29.644  29.863  1.00  0.00    -0.248 NA
ATOM     51  C   UNL A   1      46.267  31.405  30.629  1.00  0.00     0.031 C 
ATOM     52  C   UNL A   1      46.534  25.701  28.537  1.00  0.00     0.029 A 
ATOM     53  C   UNL A   1      46.053  26.931  28.960  1.00  0.00     0.049 A 
ATOM     54  H   UNL A   1      44.057  27.602  29.082  1.00  0.00     0.167 HD
ATOM     55  C   UNL A   1      46.269  29.257  29.814  1.00  0.00     0.074 A 
ATOM     56  C   UNL A   1      47.046  30.393  30.271  1.00  0.00     0.031 C 
ATOM     57  C   UNL A   1      46.803  28.071  29.429  1.00  0.00     0.037 A 
BRANCH  44  58
ATOM     58  C   UNL A   1      42.661  23.827  27.641  1.00  0.00     0.058 A 
ATOM     59  C   UNL A   1      42.522  23.560  26.269  1.00  0.00     0.135 A 
ATOM     60  C   UNL A   1      42.584  22.739  28.526  1.00  0.00     0.135 A 
ATOM     61  F   UNL A   1      42.572  24.563  25.378  1.00  0.00    -0.206 F 
ATOM     62  C   UNL A   1      42.290  22.273  25.794  1.00  0.00     0.059 A 
ATOM     63  C   UNL A   1      42.381  21.438  28.071  1.00  0.00     0.059 A 
ATOM     64  F   UNL A   1      42.709  22.933  29.848  1.00  0.00    -0.206 F 
ATOM     65  C   UNL A   1      42.223  21.217  26.704  1.00  0.00     0.060 A 
BRANCH  65  66
ATOM     66  S   UNL A   1      41.930  19.553  26.067  1.00  0.00     0.124 S 
ATOM     67  O   UNL A   1      40.507  19.607  25.749  1.00  0.00    -0.237 OA
ATOM     68  O   UNL A   1      42.833  19.495  24.922  1.00  0.00    -0.237 OA
ATOM     69  O   UNL A   1      42.288  18.689  27.189  1.00  0.00    -0.744 OA
ENDBRANCH  65  66
ENDBRANCH  44  58
BRANCH  45  70
ATOM     70  C   UNL A   1      43.950  33.192  31.015  1.00  0.00     0.058 A 
ATOM     71  C   UNL A   1      44.114  33.496  32.374  1.00  0.00     0.135 A 
ATOM     72  C   UNL A   1      44.032  34.249  30.095  1.00  0.00     0.135 A 
ATOM     73  F   UNL A   1      44.041  32.522  33.293  1.00  0.00    -0.206 F 
ATOM     74  C   UNL A   1      44.355  34.796  32.807  1.00  0.00     0.059 A 
ATOM     75  C   UNL A   1      44.297  35.554  30.500  1.00  0.00     0.059 A 
ATOM     76  F   UNL A   1      43.899  34.008  28.781  1.00  0.00    -0.206 F 
ATOM     77  C   UNL A   1      44.455  35.818  31.859  1.00  0.00     0.060 A 
BRANCH  77  78
ATOM     78  S   UNL A   1      44.840  37.488  32.429  1.00  0.00     0.124 S 
ATOM     79  O   UNL A   1      44.404  37.434  33.819  1.00  0.00    -0.237 OA
ATOM     80  O   UNL A   1      46.282  37.558  32.213  1.00  0.00    -0.237 OA
ATOM     81  O   UNL A   1      44.040  38.337  31.550  1.00  0.00    -0.744 OA
ENDBRANCH  77  78
ENDBRANCH  45  70
BRANCH  57  82
ATOM     82  C   UNL A   1      48.298  27.935  29.491  1.00  0.00     0.058 A 
ATOM     83  C   UNL A   1      48.938  27.432  30.632  1.00  0.00     0.135 A 
ATOM     84  C   UNL A   1      49.091  28.239  28.372  1.00  0.00     0.135 A 
ATOM     85  F   UNL A   1      48.226  27.131  31.731  1.00  0.00    -0.206 F 
ATOM     86  C   UNL A   1      50.316  27.248  30.670  1.00  0.00     0.059 A 
ATOM     87  C   UNL A   1      50.466  28.036  28.376  1.00  0.00     0.059 A 
ATOM     88  F   UNL A   1      48.523  28.713  27.251  1.00  0.00    -0.206 F 
ATOM     89  C   UNL A   1      51.070  27.546  29.533  1.00  0.00     0.060 A 
BRANCH  89  90
ATOM     90  S   UNL A   1      52.851  27.258  29.583  1.00  0.00     0.124 S 
ATOM     91  O   UNL A   1      53.012  26.222  28.568  1.00  0.00    -0.237 OA
ATOM     92  O   UNL A   1      53.387  28.572  29.239  1.00  0.00    -0.237 OA
ATOM     93  O   UNL A   1      53.090  26.830  30.959  1.00  0.00    -0.744 OA
ENDBRANCH  89  90
ENDBRANCH  57  82
ENDBRANCH  31  32
ENDBRANCH  24  26
ENDBRANCH  23  24
ENDBRANCH  22  23
ENDBRANCH   1  22
TORSDOF 18
ENDMDL
