MODEL 1
REMARK VINA RESULT:     -11.5      0.000      0.000
REMARK SMILES O=C(C[N@@H+]1C[C@@]2([N+](=O)[O-])CC=C(Cl)[C@@]([N+](=O)[O-])(C1)C2)OCCOC(=O)c1ccc(-c2c3nc(c(-c4c(F)cc(S(=O)(=O)[O-])cc4F)c4ccc([nH]4)c(-c4c(F)cc(S(=O)(=O)[O-])cc4F)c4nc(c(-c5c(F)cc(S(=O)(=O)[O-])cc5F)c5ccc2[nH]5)C=C4)C=C3)cc1
REMARK SMILES IDX 22 1 21 2 20 3 2 4 1 5 3 6 4 7 5 8 18 9 6 11 14 12 10 13
REMARK SMILES IDX 19 14 12 15 11 16 13 17 7 18 8 19 9 20 15 21 16 22 17 23
REMARK SMILES IDX 23 24 24 25 25 26 26 27 27 28 91 29 28 30 90 31 29 32 30 33
REMARK SMILES IDX 31 34 84 35 32 36 89 37 83 38 85 39 33 40 88 41 82 42 81 43
REMARK SMILES IDX 34 45 68 46 47 47 67 48 48 49 51 50 66 51 86 52 49 53 50 54
REMARK SMILES IDX 65 56 87 57 52 58 35 59 36 60 45 61 37 62 38 63 44 64 46 65
REMARK SMILES IDX 39 66 40 67 41 68 42 69 43 70 69 71 70 72 79 73 71 74 72 75
REMARK SMILES IDX 78 76 80 77 73 78 74 79 75 80 76 81 77 82 53 83 54 84 63 85
REMARK SMILES IDX 55 86 56 87 62 88 64 89 57 90 58 91 59 92 60 93 61 94
REMARK H PARENT 4 10 85 44 51 55
REMARK Flexibility Score: inf
ROOT
ATOM      1  C   UNL A   1      40.454  21.911  26.532  1.00  0.00     0.275 C 
ENDROOT
BRANCH   1   2
ATOM      2  C   UNL A   1      39.181  21.386  25.861  1.00  0.00     0.274 C 
BRANCH   2   3
ATOM      3  O   UNL A   1      38.070  22.294  26.026  1.00  0.00    -0.458 OA
BRANCH   3   4
ATOM      4  C   UNL A   1      36.972  22.347  25.228  1.00  0.00     0.361 C 
ATOM      5  O   UNL A   1      36.590  21.341  24.632  1.00  0.00    -0.245 OA
BRANCH   4   6
ATOM      6  C   UNL A   1      36.223  23.669  25.099  1.00  0.00     0.386 C 
BRANCH   6   7
ATOM      7  N   UNL A   1      34.845  23.457  24.650  1.00  0.00    -0.313 N 
ATOM      8  C   UNL A   1      34.417  24.482  23.678  1.00  0.00     0.350 C 
ATOM      9  C   UNL A   1      33.892  23.348  25.784  1.00  0.00     0.356 C 
ATOM     10  H   UNL A   1      34.834  22.558  24.167  1.00  0.00     0.349 HD
ATOM     11  C   UNL A   1      32.995  24.188  23.148  1.00  0.00     0.280 C 
ATOM     12  C   UNL A   1      32.489  22.963  25.255  1.00  0.00     0.311 C 
ATOM     13  C   UNL A   1      32.917  22.874  22.325  1.00  0.00     0.121 C 
ATOM     14  C   UNL A   1      32.004  24.101  24.327  1.00  0.00     0.191 C 
ATOM     15  C   UNL A   1      32.568  21.645  24.486  1.00  0.00     0.097 C 
ATOM     16  C   UNL A   1      32.762  21.618  23.155  1.00  0.00     0.004 C 
ATOM     17  Cl  UNL A   1      32.571  20.153  25.363  1.00  0.00    -0.081 Cl
BRANCH  11  18
ATOM     18  N   UNL A   1      32.645  25.358  22.245  1.00  0.00     0.032 N 
ATOM     19  O   UNL A   1      31.529  25.875  22.384  1.00  0.00    -0.264 OA
ATOM     20  O   UNL A   1      33.476  25.681  21.390  1.00  0.00    -0.264 OA
ENDBRANCH  11  18
BRANCH  12  21
ATOM     21  N   UNL A   1      31.508  22.828  26.409  1.00  0.00     0.038 N 
ATOM     22  O   UNL A   1      31.942  22.971  27.560  1.00  0.00    -0.263 OA
ATOM     23  O   UNL A   1      30.331  22.562  26.126  1.00  0.00    -0.263 OA
ENDBRANCH  12  21
ENDBRANCH   6   7
ENDBRANCH   4   6
ENDBRANCH   3   4
ENDBRANCH   2   3
ENDBRANCH   1   2
BRANCH   1  24
ATOM     24  O   UNL A   1      40.286  23.290  26.911  1.00  0.00    -0.458 OA
BRANCH  24  25
ATOM     25  C   UNL A   1      41.393  24.072  26.829  1.00  0.00     0.338 C 
ATOM     26  O   UNL A   1      42.275  23.997  25.992  1.00  0.00    -0.246 OA
BRANCH  25  27
ATOM     27  C   UNL A   1      41.225  25.217  27.761  1.00  0.00     0.060 A 
ATOM     28  C   UNL A   1      42.290  26.123  27.886  1.00  0.00     0.016 A 
ATOM     29  C   UNL A   1      40.011  25.472  28.406  1.00  0.00     0.016 A 
ATOM     30  C   UNL A   1      42.144  27.276  28.663  1.00  0.00     0.010 A 
ATOM     31  C   UNL A   1      39.871  26.616  29.193  1.00  0.00     0.010 A 
ATOM     32  C   UNL A   1      40.942  27.514  29.341  1.00  0.00    -0.014 A 
BRANCH  32  33
ATOM     33  C   UNL A   1      40.853  28.577  30.370  1.00  0.00     0.031 A 
ATOM     34  C   UNL A   1      41.752  28.468  31.569  1.00  0.00     0.074 A 
ATOM     35  C   UNL A   1      39.964  29.582  30.281  1.00  0.00     0.049 A 
ATOM     36  N   UNL A   1      41.793  29.207  32.645  1.00  0.00    -0.248 NA
ATOM     37  C   UNL A   1      42.723  27.363  31.554  1.00  0.00     0.031 C 
ATOM     38  C   UNL A   1      39.048  29.808  29.165  1.00  0.00     0.029 A 
ATOM     39  N   UNL A   1      39.667  30.585  31.171  1.00  0.00    -0.354 N 
ATOM     40  C   UNL A   1      42.789  28.654  33.439  1.00  0.00     0.074 A 
ATOM     41  C   UNL A   1      43.310  27.505  32.731  1.00  0.00     0.031 C 
ATOM     42  C   UNL A   1      38.264  30.862  29.455  1.00  0.00     0.029 A 
ATOM     43  C   UNL A   1      38.605  31.367  30.786  1.00  0.00     0.049 A 
ATOM     44  H   UNL A   1      40.168  30.730  32.006  1.00  0.00     0.167 HD
ATOM     45  C   UNL A   1      43.232  29.063  34.651  1.00  0.00     0.037 A 
ATOM     46  C   UNL A   1      37.965  32.356  31.444  1.00  0.00     0.037 A 
ATOM     47  C   UNL A   1      42.700  30.189  35.367  1.00  0.00     0.049 A 
ATOM     48  C   UNL A   1      38.435  32.767  32.818  1.00  0.00     0.074 A 
ATOM     49  C   UNL A   1      43.101  30.698  36.588  1.00  0.00     0.029 A 
ATOM     50  N   UNL A   1      41.634  30.964  34.938  1.00  0.00    -0.354 N 
ATOM     51  N   UNL A   1      39.420  32.275  33.533  1.00  0.00    -0.248 NA
ATOM     52  C   UNL A   1      37.711  33.865  33.475  1.00  0.00     0.031 C 
ATOM     53  C   UNL A   1      42.247  31.755  36.920  1.00  0.00     0.029 A 
ATOM     54  C   UNL A   1      41.344  31.933  35.882  1.00  0.00     0.049 A 
ATOM     55  H   UNL A   1      41.155  30.846  34.086  1.00  0.00     0.167 HD
ATOM     56  C   UNL A   1      39.450  33.021  34.709  1.00  0.00     0.074 A 
ATOM     57  C   UNL A   1      38.384  33.996  34.612  1.00  0.00     0.031 C 
ATOM     58  C   UNL A   1      40.288  32.908  35.769  1.00  0.00     0.037 A 
BRANCH  45  59
ATOM     59  C   UNL A   1      44.319  28.246  35.285  1.00  0.00     0.058 A 
ATOM     60  C   UNL A   1      44.031  27.177  36.147  1.00  0.00     0.135 A 
ATOM     61  C   UNL A   1      45.668  28.562  35.054  1.00  0.00     0.135 A 
ATOM     62  F   UNL A   1      42.756  26.852  36.418  1.00  0.00    -0.206 F 
ATOM     63  C   UNL A   1      45.041  26.477  36.797  1.00  0.00     0.059 A 
ATOM     64  C   UNL A   1      46.695  27.859  35.673  1.00  0.00     0.059 A 
ATOM     65  F   UNL A   1      45.995  29.578  34.241  1.00  0.00    -0.206 F 
ATOM     66  C   UNL A   1      46.370  26.834  36.561  1.00  0.00     0.060 A 
BRANCH  66  67
ATOM     67  S   UNL A   1      47.671  25.955  37.449  1.00  0.00     0.124 S 
ATOM     68  O   UNL A   1      47.002  24.700  37.776  1.00  0.00    -0.237 OA
ATOM     69  O   UNL A   1      48.731  25.866  36.448  1.00  0.00    -0.237 OA
ATOM     70  O   UNL A   1      47.958  26.828  38.583  1.00  0.00    -0.744 OA
ENDBRANCH  66  67
ENDBRANCH  45  59
BRANCH  46  71
ATOM     71  C   UNL A   1      36.787  33.013  30.816  1.00  0.00     0.058 A 
ATOM     72  C   UNL A   1      35.484  32.741  31.254  1.00  0.00     0.135 A 
ATOM     73  C   UNL A   1      36.949  33.945  29.779  1.00  0.00     0.135 A 
ATOM     74  F   UNL A   1      35.279  31.846  32.233  1.00  0.00    -0.206 F 
ATOM     75  C   UNL A   1      34.379  33.372  30.689  1.00  0.00     0.059 A 
ATOM     76  C   UNL A   1      35.862  34.602  29.211  1.00  0.00     0.059 A 
ATOM     77  F   UNL A   1      38.178  34.244  29.330  1.00  0.00    -0.206 F 
ATOM     78  C   UNL A   1      34.580  34.306  29.671  1.00  0.00     0.060 A 
BRANCH  78  79
ATOM     79  S   UNL A   1      33.148  35.176  28.995  1.00  0.00     0.124 S 
ATOM     80  O   UNL A   1      33.766  36.379  28.450  1.00  0.00    -0.237 OA
ATOM     81  O   UNL A   1      32.642  34.219  28.015  1.00  0.00    -0.237 OA
ATOM     82  O   UNL A   1      32.296  35.375  30.163  1.00  0.00    -0.744 OA
ENDBRANCH  78  79
ENDBRANCH  46  71
BRANCH  58  83
ATOM     83  C   UNL A   1      40.129  33.880  36.907  1.00  0.00     0.058 A 
ATOM     84  C   UNL A   1      40.728  35.148  36.883  1.00  0.00     0.135 A 
ATOM     85  C   UNL A   1      39.270  33.580  37.977  1.00  0.00     0.135 A 
ATOM     86  F   UNL A   1      41.561  35.484  35.885  1.00  0.00    -0.206 F 
ATOM     87  C   UNL A   1      40.478  36.087  37.880  1.00  0.00     0.059 A 
ATOM     88  C   UNL A   1      38.989  34.511  38.972  1.00  0.00     0.059 A 
ATOM     89  F   UNL A   1      38.664  32.383  38.041  1.00  0.00    -0.206 F 
ATOM     90  C   UNL A   1      39.598  35.763  38.915  1.00  0.00     0.060 A 
BRANCH  90  91
ATOM     91  S   UNL A   1      39.216  37.018  40.156  1.00  0.00     0.124 S 
ATOM     92  O   UNL A   1      38.369  36.272  41.080  1.00  0.00    -0.237 OA
ATOM     93  O   UNL A   1      40.539  37.376  40.658  1.00  0.00    -0.237 OA
ATOM     94  O   UNL A   1      38.542  38.061  39.388  1.00  0.00    -0.744 OA
ENDBRANCH  90  91
ENDBRANCH  58  83
ENDBRANCH  32  33
ENDBRANCH  25  27
ENDBRANCH  24  25
ENDBRANCH   1  24
TORSDOF 17
ENDMDL
MODEL 2
REMARK VINA RESULT:     -11.3      0.758      8.319
REMARK SMILES O=C(C[N@@H+]1C[C@@]2([N+](=O)[O-])CC=C(Cl)[C@@]([N+](=O)[O-])(C1)C2)OCCOC(=O)c1ccc(-c2c3nc(c(-c4c(F)cc(S(=O)(=O)[O-])cc4F)c4ccc([nH]4)c(-c4c(F)cc(S(=O)(=O)[O-])cc4F)c4nc(c(-c5c(F)cc(S(=O)(=O)[O-])cc5F)c5ccc2[nH]5)C=C4)C=C3)cc1
REMARK SMILES IDX 22 1 21 2 20 3 2 4 1 5 3 6 4 7 5 8 18 9 6 11 14 12 10 13
REMARK SMILES IDX 19 14 12 15 11 16 13 17 7 18 8 19 9 20 15 21 16 22 17 23
REMARK SMILES IDX 23 24 24 25 25 26 26 27 27 28 91 29 28 30 90 31 29 32 30 33
REMARK SMILES IDX 31 34 84 35 32 36 89 37 83 38 85 39 33 40 88 41 82 42 81 43
REMARK SMILES IDX 34 45 68 46 47 47 67 48 48 49 51 50 66 51 86 52 49 53 50 54
REMARK SMILES IDX 65 56 87 57 52 58 35 59 36 60 45 61 37 62 38 63 44 64 46 65
REMARK SMILES IDX 39 66 40 67 41 68 42 69 43 70 69 71 70 72 79 73 71 74 72 75
REMARK SMILES IDX 78 76 80 77 73 78 74 79 75 80 76 81 77 82 53 83 54 84 63 85
REMARK SMILES IDX 55 86 56 87 62 88 64 89 57 90 58 91 59 92 60 93 61 94
REMARK H PARENT 4 10 85 44 51 55
REMARK Flexibility Score: inf
ROOT
ATOM      1  C   UNL A   1      40.005  22.738  27.134  1.00  0.00     0.275 C 
ENDROOT
BRANCH   1   2
ATOM      2  C   UNL A   1      39.600  21.754  26.032  1.00  0.00     0.274 C 
BRANCH   2   3
ATOM      3  O   UNL A   1      38.168  21.568  25.975  1.00  0.00    -0.458 OA
BRANCH   3   4
ATOM      4  C   UNL A   1      37.327  22.191  25.109  1.00  0.00     0.361 C 
ATOM      5  O   UNL A   1      37.232  21.798  23.947  1.00  0.00    -0.245 OA
BRANCH   4   6
ATOM      6  C   UNL A   1      36.501  23.370  25.610  1.00  0.00     0.386 C 
BRANCH   6   7
ATOM      7  N   UNL A   1      35.125  23.305  25.113  1.00  0.00    -0.313 N 
ATOM      8  C   UNL A   1      34.805  24.436  24.221  1.00  0.00     0.350 C 
ATOM      9  C   UNL A   1      34.134  23.180  26.213  1.00  0.00     0.356 C 
ATOM     10  H   UNL A   1      35.059  22.452  24.557  1.00  0.00     0.349 HD
ATOM     11  C   UNL A   1      33.381  24.299  23.636  1.00  0.00     0.280 C 
ATOM     12  C   UNL A   1      32.721  22.950  25.622  1.00  0.00     0.311 C 
ATOM     13  C   UNL A   1      33.227  23.065  22.705  1.00  0.00     0.121 C 
ATOM     14  C   UNL A   1      32.352  24.194  24.781  1.00  0.00     0.191 C 
ATOM     15  C   UNL A   1      32.722  21.697  24.748  1.00  0.00     0.097 C 
ATOM     16  C   UNL A   1      32.952  21.763  23.424  1.00  0.00     0.004 C 
ATOM     17  Cl  UNL A   1      32.585  20.143  25.497  1.00  0.00    -0.081 Cl
BRANCH  11  18
ATOM     18  N   UNL A   1      33.148  25.562  22.826  1.00  0.00     0.032 N 
ATOM     19  O   UNL A   1      32.155  26.246  23.106  1.00  0.00    -0.264 OA
ATOM     20  O   UNL A   1      33.933  25.794  21.901  1.00  0.00    -0.264 OA
ENDBRANCH  11  18
BRANCH  12  21
ATOM     21  N   UNL A   1      31.700  22.799  26.738  1.00  0.00     0.038 N 
ATOM     22  O   UNL A   1      32.113  22.785  27.906  1.00  0.00    -0.263 OA
ATOM     23  O   UNL A   1      30.511  22.680  26.408  1.00  0.00    -0.263 OA
ENDBRANCH  12  21
ENDBRANCH   6   7
ENDBRANCH   4   6
ENDBRANCH   3   4
ENDBRANCH   2   3
ENDBRANCH   1   2
BRANCH   1  24
ATOM     24  O   UNL A   1      39.891  24.092  26.661  1.00  0.00    -0.458 OA
BRANCH  24  25
ATOM     25  C   UNL A   1      41.005  24.861  26.776  1.00  0.00     0.338 C 
ATOM     26  O   UNL A   1      41.916  24.942  25.974  1.00  0.00    -0.246 OA
BRANCH  25  27
ATOM     27  C   UNL A   1      40.807  25.801  27.910  1.00  0.00     0.060 A 
ATOM     28  C   UNL A   1      41.804  26.760  28.148  1.00  0.00     0.016 A 
ATOM     29  C   UNL A   1      39.620  25.827  28.650  1.00  0.00     0.016 A 
ATOM     30  C   UNL A   1      41.618  27.738  29.130  1.00  0.00     0.010 A 
ATOM     31  C   UNL A   1      39.442  26.795  29.639  1.00  0.00     0.010 A 
ATOM     32  C   UNL A   1      40.447  27.744  29.898  1.00  0.00    -0.014 A 
BRANCH  32  33
ATOM     33  C   UNL A   1      40.341  28.592  31.108  1.00  0.00     0.031 A 
ATOM     34  C   UNL A   1      39.349  29.721  31.088  1.00  0.00     0.074 A 
ATOM     35  C   UNL A   1      41.139  28.413  32.176  1.00  0.00     0.049 A 
ATOM     36  N   UNL A   1      39.139  30.658  31.973  1.00  0.00    -0.248 NA
ATOM     37  C   UNL A   1      38.489  29.807  29.897  1.00  0.00     0.031 C 
ATOM     38  C   UNL A   1      42.129  27.349  32.326  1.00  0.00     0.029 A 
ATOM     39  N   UNL A   1      41.257  29.151  33.328  1.00  0.00    -0.354 N 
ATOM     40  C   UNL A   1      38.129  31.450  31.445  1.00  0.00     0.074 A 
ATOM     41  C   UNL A   1      37.785  30.898  30.154  1.00  0.00     0.031 C 
ATOM     42  C   UNL A   1      42.782  27.526  33.489  1.00  0.00     0.029 A 
ATOM     43  C   UNL A   1      42.274  28.728  34.151  1.00  0.00     0.049 A 
ATOM     44  H   UNL A   1      40.670  29.910  33.544  1.00  0.00     0.167 HD
ATOM     45  C   UNL A   1      37.539  32.543  31.984  1.00  0.00     0.037 A 
ATOM     46  C   UNL A   1      42.756  29.267  35.290  1.00  0.00     0.037 A 
ATOM     47  C   UNL A   1      37.896  33.108  33.255  1.00  0.00     0.049 A 
ATOM     48  C   UNL A   1      42.125  30.517  35.853  1.00  0.00     0.074 A 
ATOM     49  C   UNL A   1      37.338  34.197  33.899  1.00  0.00     0.029 A 
ATOM     50  N   UNL A   1      38.922  32.644  34.065  1.00  0.00    -0.354 N 
ATOM     51  N   UNL A   1      41.127  31.223  35.374  1.00  0.00    -0.248 NA
ATOM     52  C   UNL A   1      42.680  31.043  37.109  1.00  0.00     0.031 C 
ATOM     53  C   UNL A   1      38.057  34.420  35.079  1.00  0.00     0.029 A 
ATOM     54  C   UNL A   1      39.032  33.441  35.191  1.00  0.00     0.049 A 
ATOM     55  H   UNL A   1      39.487  31.862  33.870  1.00  0.00     0.167 HD
ATOM     56  C   UNL A   1      40.919  32.258  36.283  1.00  0.00     0.074 A 
ATOM     57  C   UNL A   1      41.895  32.089  37.339  1.00  0.00     0.031 C 
ATOM     58  C   UNL A   1      40.000  33.254  36.244  1.00  0.00     0.037 A 
BRANCH  45  59
ATOM     59  C   UNL A   1      36.479  33.213  31.163  1.00  0.00     0.058 A 
ATOM     60  C   UNL A   1      36.797  33.991  30.039  1.00  0.00     0.135 A 
ATOM     61  C   UNL A   1      35.127  33.105  31.528  1.00  0.00     0.135 A 
ATOM     62  F   UNL A   1      38.077  34.144  29.664  1.00  0.00    -0.206 F 
ATOM     63  C   UNL A   1      35.818  34.678  29.331  1.00  0.00     0.059 A 
ATOM     64  C   UNL A   1      34.128  33.763  30.820  1.00  0.00     0.059 A 
ATOM     65  F   UNL A   1      34.771  32.378  32.598  1.00  0.00    -0.206 F 
ATOM     66  C   UNL A   1      34.486  34.566  29.737  1.00  0.00     0.060 A 
BRANCH  66  67
ATOM     67  S   UNL A   1      33.229  35.502  28.845  1.00  0.00     0.124 S 
ATOM     68  O   UNL A   1      34.051  36.429  28.074  1.00  0.00    -0.237 OA
ATOM     69  O   UNL A   1      32.551  34.464  28.073  1.00  0.00    -0.237 OA
ATOM     70  O   UNL A   1      32.434  36.105  29.911  1.00  0.00    -0.744 OA
ENDBRANCH  66  67
ENDBRANCH  45  59
BRANCH  46  71
ATOM     71  C   UNL A   1      43.921  28.635  35.965  1.00  0.00     0.058 A 
ATOM     72  C   UNL A   1      45.227  29.093  35.741  1.00  0.00     0.135 A 
ATOM     73  C   UNL A   1      43.745  27.574  36.867  1.00  0.00     0.135 A 
ATOM     74  F   UNL A   1      45.447  30.095  34.876  1.00  0.00    -0.206 F 
ATOM     75  C   UNL A   1      46.320  28.523  36.389  1.00  0.00     0.059 A 
ATOM     76  C   UNL A   1      44.818  27.001  37.540  1.00  0.00     0.059 A 
ATOM     77  F   UNL A   1      42.513  27.106  37.120  1.00  0.00    -0.206 F 
ATOM     78  C   UNL A   1      46.103  27.481  37.292  1.00  0.00     0.060 A 
BRANCH  78  79
ATOM     79  S   UNL A   1      47.517  26.798  38.185  1.00  0.00     0.124 S 
ATOM     80  O   UNL A   1      46.996  25.506  38.618  1.00  0.00    -0.237 OA
ATOM     81  O   UNL A   1      48.545  26.756  37.149  1.00  0.00    -0.237 OA
ATOM     82  O   UNL A   1      47.746  27.775  39.245  1.00  0.00    -0.744 OA
ENDBRANCH  78  79
ENDBRANCH  46  71
BRANCH  58  83
ATOM     83  C   UNL A   1      39.962  34.231  37.389  1.00  0.00     0.058 A 
ATOM     84  C   UNL A   1      40.668  35.441  37.349  1.00  0.00     0.135 A 
ATOM     85  C   UNL A   1      39.112  34.002  38.484  1.00  0.00     0.135 A 
ATOM     86  F   UNL A   1      41.498  35.707  36.328  1.00  0.00    -0.206 F 
ATOM     87  C   UNL A   1      40.532  36.394  38.355  1.00  0.00     0.059 A 
ATOM     88  C   UNL A   1      38.944  34.949  39.489  1.00  0.00     0.059 A 
ATOM     89  F   UNL A   1      38.405  32.863  38.564  1.00  0.00    -0.206 F 
ATOM     90  C   UNL A   1      39.659  36.144  39.416  1.00  0.00     0.060 A 
BRANCH  90  91
ATOM     91  S   UNL A   1      39.426  37.421  40.671  1.00  0.00     0.124 S 
ATOM     92  O   UNL A   1      38.288  38.158  40.134  1.00  0.00    -0.237 OA
ATOM     93  O   UNL A   1      39.162  36.636  41.873  1.00  0.00    -0.237 OA
ATOM     94  O   UNL A   1      40.698  38.138  40.666  1.00  0.00    -0.744 OA
ENDBRANCH  90  91
ENDBRANCH  58  83
ENDBRANCH  32  33
ENDBRANCH  25  27
ENDBRANCH  24  25
ENDBRANCH   1  24
TORSDOF 17
ENDMDL
MODEL 3
REMARK VINA RESULT:     -11.3      6.261     11.807
REMARK SMILES O=C(C[N@@H+]1C[C@@]2([N+](=O)[O-])CC=C(Cl)[C@@]([N+](=O)[O-])(C1)C2)OCCOC(=O)c1ccc(-c2c3nc(c(-c4c(F)cc(S(=O)(=O)[O-])cc4F)c4ccc([nH]4)c(-c4c(F)cc(S(=O)(=O)[O-])cc4F)c4nc(c(-c5c(F)cc(S(=O)(=O)[O-])cc5F)c5ccc2[nH]5)C=C4)C=C3)cc1
REMARK SMILES IDX 22 1 21 2 20 3 2 4 1 5 3 6 4 7 5 8 18 9 6 11 14 12 10 13
REMARK SMILES IDX 19 14 12 15 11 16 13 17 7 18 8 19 9 20 15 21 16 22 17 23
REMARK SMILES IDX 23 24 24 25 25 26 26 27 27 28 91 29 28 30 90 31 29 32 30 33
REMARK SMILES IDX 31 34 84 35 32 36 89 37 83 38 85 39 33 40 88 41 82 42 81 43
REMARK SMILES IDX 34 45 68 46 47 47 67 48 48 49 51 50 66 51 86 52 49 53 50 54
REMARK SMILES IDX 65 56 87 57 52 58 35 59 36 60 45 61 37 62 38 63 44 64 46 65
REMARK SMILES IDX 39 66 40 67 41 68 42 69 43 70 69 71 70 72 79 73 71 74 72 75
REMARK SMILES IDX 78 76 80 77 73 78 74 79 75 80 76 81 77 82 53 83 54 84 63 85
REMARK SMILES IDX 55 86 56 87 62 88 64 89 57 90 58 91 59 92 60 93 61 94
REMARK H PARENT 4 10 85 44 51 55
REMARK Flexibility Score: inf
ROOT
ATOM      1  C   UNL A   1      34.450  32.147  28.629  1.00  0.00     0.275 C 
ENDROOT
BRANCH   1   2
ATOM      2  C   UNL A   1      34.311  31.248  27.397  1.00  0.00     0.274 C 
BRANCH   2   3
ATOM      3  O   UNL A   1      33.299  30.234  27.581  1.00  0.00    -0.458 OA
BRANCH   3   4
ATOM      4  C   UNL A   1      32.826  29.410  26.610  1.00  0.00     0.361 C 
ATOM      5  O   UNL A   1      31.784  29.686  26.016  1.00  0.00    -0.245 OA
BRANCH   4   6
ATOM      6  C   UNL A   1      33.616  28.152  26.267  1.00  0.00     0.386 C 
BRANCH   6   7
ATOM      7  N   UNL A   1      32.773  27.161  25.594  1.00  0.00    -0.313 N 
ATOM      8  C   UNL A   1      32.454  26.020  26.473  1.00  0.00     0.350 C 
ATOM      9  C   UNL A   1      33.353  26.711  24.303  1.00  0.00     0.356 C 
ATOM     10  H   UNL A   1      31.894  27.631  25.376  1.00  0.00     0.349 HD
ATOM     11  C   UNL A   1      31.490  25.032  25.777  1.00  0.00     0.280 C 
ATOM     12  C   UNL A   1      32.344  25.795  23.567  1.00  0.00     0.311 C 
ATOM     13  C   UNL A   1      30.095  25.652  25.490  1.00  0.00     0.121 C 
ATOM     14  C   UNL A   1      32.106  24.547  24.448  1.00  0.00     0.191 C 
ATOM     15  C   UNL A   1      31.033  26.545  23.339  1.00  0.00     0.097 C 
ATOM     16  C   UNL A   1      30.018  26.471  24.220  1.00  0.00     0.004 C 
ATOM     17  Cl  UNL A   1      30.905  27.641  22.006  1.00  0.00    -0.081 Cl
BRANCH  11  18
ATOM     18  N   UNL A   1      31.326  23.871  26.742  1.00  0.00     0.032 N 
ATOM     19  O   UNL A   1      30.211  23.703  27.251  1.00  0.00    -0.264 OA
ATOM     20  O   UNL A   1      32.334  23.205  27.002  1.00  0.00    -0.264 OA
ENDBRANCH  11  18
BRANCH  12  21
ATOM     21  N   UNL A   1      32.917  25.343  22.232  1.00  0.00     0.038 N 
ATOM     22  O   UNL A   1      32.636  24.204  21.835  1.00  0.00    -0.263 OA
ATOM     23  O   UNL A   1      33.650  26.141  21.630  1.00  0.00    -0.263 OA
ENDBRANCH  12  21
ENDBRANCH   6   7
ENDBRANCH   4   6
ENDBRANCH   3   4
ENDBRANCH   2   3
ENDBRANCH   1   2
BRANCH   1  24
ATOM     24  O   UNL A   1      35.835  32.284  28.995  1.00  0.00    -0.458 OA
BRANCH  24  25
ATOM     25  C   UNL A   1      36.242  31.569  30.075  1.00  0.00     0.338 C 
ATOM     26  O   UNL A   1      35.570  31.277  31.047  1.00  0.00    -0.246 OA
BRANCH  25  27
ATOM     27  C   UNL A   1      37.561  30.961  29.762  1.00  0.00     0.060 A 
ATOM     28  C   UNL A   1      38.456  30.752  30.824  1.00  0.00     0.016 A 
ATOM     29  C   UNL A   1      37.873  30.492  28.482  1.00  0.00     0.016 A 
ATOM     30  C   UNL A   1      39.663  30.083  30.603  1.00  0.00     0.010 A 
ATOM     31  C   UNL A   1      39.086  29.837  28.261  1.00  0.00     0.010 A 
ATOM     32  C   UNL A   1      39.996  29.646  29.315  1.00  0.00    -0.014 A 
BRANCH  32  33
ATOM     33  C   UNL A   1      41.367  29.178  29.006  1.00  0.00     0.031 A 
ATOM     34  C   UNL A   1      42.463  30.206  28.955  1.00  0.00     0.074 A 
ATOM     35  C   UNL A   1      41.634  27.892  28.719  1.00  0.00     0.049 A 
ATOM     36  N   UNL A   1      43.715  30.067  28.611  1.00  0.00    -0.248 NA
ATOM     37  C   UNL A   1      42.084  31.577  29.330  1.00  0.00     0.031 C 
ATOM     38  C   UNL A   1      40.665  26.798  28.748  1.00  0.00     0.029 A 
ATOM     39  N   UNL A   1      42.804  27.297  28.315  1.00  0.00    -0.354 N 
ATOM     40  C   UNL A   1      44.274  31.333  28.720  1.00  0.00     0.074 A 
ATOM     41  C   UNL A   1      43.219  32.230  29.141  1.00  0.00     0.031 C 
ATOM     42  C   UNL A   1      41.273  25.670  28.340  1.00  0.00     0.029 A 
ATOM     43  C   UNL A   1      42.665  25.967  27.997  1.00  0.00     0.049 A 
ATOM     44  H   UNL A   1      43.661  27.778  28.259  1.00  0.00     0.167 HD
ATOM     45  C   UNL A   1      45.551  31.720  28.491  1.00  0.00     0.037 A 
ATOM     46  C   UNL A   1      43.550  25.101  27.463  1.00  0.00     0.037 A 
ATOM     47  C   UNL A   1      46.594  30.836  28.050  1.00  0.00     0.049 A 
ATOM     48  C   UNL A   1      44.956  25.557  27.161  1.00  0.00     0.074 A 
ATOM     49  C   UNL A   1      47.925  31.127  27.817  1.00  0.00     0.029 A 
ATOM     50  N   UNL A   1      46.417  29.493  27.752  1.00  0.00    -0.354 N 
ATOM     51  N   UNL A   1      45.490  26.745  27.328  1.00  0.00    -0.248 NA
ATOM     52  C   UNL A   1      45.881  24.560  26.601  1.00  0.00     0.031 C 
ATOM     53  C   UNL A   1      48.545  29.970  27.332  1.00  0.00     0.029 A 
ATOM     54  C   UNL A   1      47.609  28.947  27.309  1.00  0.00     0.049 A 
ATOM     55  H   UNL A   1      45.570  29.001  27.842  1.00  0.00     0.167 HD
ATOM     56  C   UNL A   1      46.817  26.629  26.919  1.00  0.00     0.074 A 
ATOM     57  C   UNL A   1      47.005  25.258  26.496  1.00  0.00     0.031 C 
ATOM     58  C   UNL A   1      47.789  27.575  26.902  1.00  0.00     0.037 A 
BRANCH  45  59
ATOM     59  C   UNL A   1      45.861  33.175  28.674  1.00  0.00     0.058 A 
ATOM     60  C   UNL A   1      46.356  33.677  29.888  1.00  0.00     0.135 A 
ATOM     61  C   UNL A   1      45.625  34.086  27.632  1.00  0.00     0.135 A 
ATOM     62  F   UNL A   1      46.574  32.849  30.922  1.00  0.00    -0.206 F 
ATOM     63  C   UNL A   1      46.561  35.038  30.080  1.00  0.00     0.059 A 
ATOM     64  C   UNL A   1      45.848  35.449  27.793  1.00  0.00     0.059 A 
ATOM     65  F   UNL A   1      45.148  33.657  26.454  1.00  0.00    -0.206 F 
ATOM     66  C   UNL A   1      46.293  35.917  29.029  1.00  0.00     0.060 A 
BRANCH  66  67
ATOM     67  S   UNL A   1      46.514  37.686  29.304  1.00  0.00     0.124 S 
ATOM     68  O   UNL A   1      47.112  37.700  30.636  1.00  0.00    -0.237 OA
ATOM     69  O   UNL A   1      47.400  38.068  28.208  1.00  0.00    -0.237 OA
ATOM     70  O   UNL A   1      45.156  38.215  29.220  1.00  0.00    -0.744 OA
ENDBRANCH  66  67
ENDBRANCH  45  59
BRANCH  46  71
ATOM     71  C   UNL A   1      43.121  23.710  27.156  1.00  0.00     0.058 A 
ATOM     72  C   UNL A   1      42.839  23.309  25.842  1.00  0.00     0.135 A 
ATOM     73  C   UNL A   1      43.008  22.748  28.172  1.00  0.00     0.135 A 
ATOM     74  F   UNL A   1      42.918  24.197  24.839  1.00  0.00    -0.206 F 
ATOM     75  C   UNL A   1      42.462  22.002  25.544  1.00  0.00     0.059 A 
ATOM     76  C   UNL A   1      42.652  21.432  27.898  1.00  0.00     0.059 A 
ATOM     77  F   UNL A   1      43.275  23.081  29.445  1.00  0.00    -0.206 F 
ATOM     78  C   UNL A   1      42.378  21.069  26.580  1.00  0.00     0.060 A 
BRANCH  78  79
ATOM     79  S   UNL A   1      41.962  19.358  26.175  1.00  0.00     0.124 S 
ATOM     80  O   UNL A   1      42.348  18.665  27.399  1.00  0.00    -0.237 OA
ATOM     81  O   UNL A   1      40.528  19.443  25.915  1.00  0.00    -0.237 OA
ATOM     82  O   UNL A   1      42.788  19.082  25.004  1.00  0.00    -0.744 OA
ENDBRANCH  78  79
ENDBRANCH  46  71
BRANCH  58  83
ATOM     83  C   UNL A   1      49.165  27.171  26.449  1.00  0.00     0.058 A 
ATOM     84  C   UNL A   1      50.119  26.669  27.345  1.00  0.00     0.135 A 
ATOM     85  C   UNL A   1      49.488  27.176  25.081  1.00  0.00     0.135 A 
ATOM     86  F   UNL A   1      49.863  26.646  28.662  1.00  0.00    -0.206 F 
ATOM     87  C   UNL A   1      51.346  26.183  26.901  1.00  0.00     0.059 A 
ATOM     88  C   UNL A   1      50.699  26.675  24.614  1.00  0.00     0.059 A 
ATOM     89  F   UNL A   1      48.604  27.637  24.181  1.00  0.00    -0.206 F 
ATOM     90  C   UNL A   1      51.623  26.180  25.533  1.00  0.00     0.060 A 
BRANCH  90  91
ATOM     91  S   UNL A   1      53.182  25.469  24.961  1.00  0.00     0.124 S 
ATOM     92  O   UNL A   1      54.157  26.272  25.691  1.00  0.00    -0.237 OA
ATOM     93  O   UNL A   1      53.065  24.077  25.383  1.00  0.00    -0.237 OA
ATOM     94  O   UNL A   1      53.144  25.684  23.518  1.00  0.00    -0.744 OA
ENDBRANCH  90  91
ENDBRANCH  58  83
ENDBRANCH  32  33
ENDBRANCH  25  27
ENDBRANCH  24  25
ENDBRANCH   1  24
TORSDOF 17
ENDMDL
