MODEL 1
REMARK VINA RESULT:     -10.1      0.000      0.000
REMARK SMILES Cc1csc(C[NH2+]C2(C(=O)OCCOC(=O)c3ccc(-c4c5nc(c(-c6c(F)cc(S(=O)(=O)[O-])cc6F)c6ccc([nH]6)c(-c6c(F)cc(S(=O)(=O)[O-])cc6F)c6nc(c(-c7c(F)cc(S(=O)(=O)[O-])cc7F)c7ccc4[nH]7)C=C6)C=C5)cc3)CC2)n1
REMARK SMILES IDX 12 1 11 2 9 3 10 4 8 5 83 6 84 7 7 8 6 11 5 12 1 13 2 14
REMARK SMILES IDX 3 15 85 16 4 17 13 18 14 19 15 20 16 21 17 22 18 23 82 24
REMARK SMILES IDX 19 25 81 26 20 27 21 28 22 29 75 30 23 31 80 32 74 33 76 34
REMARK SMILES IDX 24 35 79 36 73 37 72 38 25 40 59 41 38 42 58 43 39 44 42 45
REMARK SMILES IDX 57 46 77 47 40 48 41 49 56 51 78 52 43 53 26 54 27 55 36 56
REMARK SMILES IDX 28 57 29 58 35 59 37 60 30 61 31 62 32 63 33 64 34 65 60 66
REMARK SMILES IDX 61 67 70 68 62 69 63 70 69 71 71 72 64 73 65 74 66 75 67 76
REMARK SMILES IDX 68 77 44 78 45 79 54 80 46 81 47 82 53 83 55 84 48 85 49 86
REMARK SMILES IDX 50 87 51 88 52 89
REMARK H PARENT 7 9 7 10 76 39 42 50
REMARK Flexibility Score: inf
ROOT
ATOM      1  C   UNL A   1      33.260  34.000  28.052  1.00  0.00     0.274 C 
ENDROOT
BRANCH   1   2
ATOM      2  O   UNL A   1      33.291  34.237  29.460  1.00  0.00    -0.457 OA
BRANCH   2   3
ATOM      3  C   UNL A   1      33.015  35.516  29.823  1.00  0.00     0.368 C 
ATOM      4  O   UNL A   1      32.362  36.321  29.170  1.00  0.00    -0.245 OA
BRANCH   3   5
ATOM      5  C   UNL A   1      33.425  35.767  31.255  1.00  0.00     0.195 C 
ATOM      6  C   UNL A   1      32.390  36.143  32.294  1.00  0.00     0.088 C 
ATOM      7  C   UNL A   1      33.274  37.208  31.733  1.00  0.00     0.088 C 
BRANCH   5   8
ATOM      8  N   UNL A   1      34.649  35.003  31.692  1.00  0.00    -0.326 N 
ATOM      9  H   UNL A   1      34.968  34.436  30.906  1.00  0.00     0.347 HD
ATOM     10  H   UNL A   1      35.333  35.699  31.988  1.00  0.00     0.347 HD
BRANCH   8  11
ATOM     11  C   UNL A   1      34.436  34.109  32.849  1.00  0.00     0.330 C 
BRANCH  11  12
ATOM     12  C   UNL A   1      35.654  33.341  33.319  1.00  0.00     0.147 A 
ATOM     13  C   UNL A   1      37.783  30.413  33.182  1.00  0.00     0.067 C 
ATOM     14  C   UNL A   1      37.109  31.673  33.593  1.00  0.00     0.049 A 
ATOM     15  C   UNL A   1      37.385  32.395  34.736  1.00  0.00     0.090 A 
ATOM     16  N   UNL A   1      36.111  32.220  32.793  1.00  0.00    -0.240 NA
ATOM     17  S   UNL A   1      36.412  33.799  34.800  1.00  0.00    -0.121 S 
ENDBRANCH  11  12
ENDBRANCH   8  11
ENDBRANCH   5   8
ENDBRANCH   3   5
ENDBRANCH   2   3
ENDBRANCH   1   2
BRANCH   1  18
ATOM     18  C   UNL A   1      33.215  32.488  27.819  1.00  0.00     0.275 C 
BRANCH  18  19
ATOM     19  O   UNL A   1      34.411  31.825  28.280  1.00  0.00    -0.458 OA
BRANCH  19  20
ATOM     20  C   UNL A   1      34.518  30.494  28.010  1.00  0.00     0.338 C 
ATOM     21  O   UNL A   1      33.633  29.759  27.600  1.00  0.00    -0.246 OA
BRANCH  20  22
ATOM     22  C   UNL A   1      35.903  30.034  28.273  1.00  0.00     0.060 A 
ATOM     23  C   UNL A   1      36.857  30.080  27.248  1.00  0.00     0.016 A 
ATOM     24  C   UNL A   1      36.265  29.537  29.523  1.00  0.00     0.016 A 
ATOM     25  C   UNL A   1      38.193  29.747  27.495  1.00  0.00     0.010 A 
ATOM     26  C   UNL A   1      37.590  29.158  29.758  1.00  0.00     0.010 A 
ATOM     27  C   UNL A   1      38.573  29.298  28.761  1.00  0.00    -0.014 A 
BRANCH  27  28
ATOM     28  C   UNL A   1      39.963  28.851  29.033  1.00  0.00     0.031 A 
ATOM     29  C   UNL A   1      40.922  29.843  29.622  1.00  0.00     0.074 A 
ATOM     30  C   UNL A   1      40.386  27.609  28.722  1.00  0.00     0.049 A 
ATOM     31  N   UNL A   1      42.208  29.734  29.829  1.00  0.00    -0.248 NA
ATOM     32  C   UNL A   1      40.349  31.139  30.017  1.00  0.00     0.031 C 
ATOM     33  C   UNL A   1      39.554  26.541  28.170  1.00  0.00     0.029 A 
ATOM     34  N   UNL A   1      41.636  27.045  28.806  1.00  0.00    -0.354 N 
ATOM     35  C   UNL A   1      42.600  30.953  30.368  1.00  0.00     0.074 A 
ATOM     36  C   UNL A   1      41.426  31.798  30.411  1.00  0.00     0.031 C 
ATOM     37  C   UNL A   1      40.322  25.460  27.937  1.00  0.00     0.029 A 
ATOM     38  C   UNL A   1      41.702  25.760  28.314  1.00  0.00     0.049 A 
ATOM     39  H   UNL A   1      42.414  27.515  29.182  1.00  0.00     0.167 HD
ATOM     40  C   UNL A   1      43.822  31.329  30.809  1.00  0.00     0.037 A 
ATOM     41  C   UNL A   1      42.758  24.931  28.177  1.00  0.00     0.037 A 
ATOM     42  C   UNL A   1      44.988  30.492  30.774  1.00  0.00     0.049 A 
ATOM     43  C   UNL A   1      44.124  25.390  28.628  1.00  0.00     0.074 A 
ATOM     44  C   UNL A   1      46.273  30.784  31.195  1.00  0.00     0.029 A 
ATOM     45  N   UNL A   1      45.007  29.192  30.293  1.00  0.00    -0.354 N 
ATOM     46  N   UNL A   1      44.476  26.537  29.160  1.00  0.00    -0.248 NA
ATOM     47  C   UNL A   1      45.237  24.439  28.468  1.00  0.00     0.031 C 
ATOM     48  C   UNL A   1      47.076  29.665  30.948  1.00  0.00     0.029 A 
ATOM     49  C   UNL A   1      46.283  28.667  30.405  1.00  0.00     0.049 A 
ATOM     50  H   UNL A   1      44.229  28.713  29.926  1.00  0.00     0.167 HD
ATOM     51  C   UNL A   1      45.835  26.425  29.443  1.00  0.00     0.074 A 
ATOM     52  C   UNL A   1      46.246  25.106  29.014  1.00  0.00     0.031 C 
ATOM     53  C   UNL A   1      46.665  27.333  30.014  1.00  0.00     0.037 A 
BRANCH  40  54
ATOM     54  C   UNL A   1      43.936  32.722  31.354  1.00  0.00     0.058 A 
ATOM     55  C   UNL A   1      44.203  33.814  30.513  1.00  0.00     0.135 A 
ATOM     56  C   UNL A   1      43.833  32.961  32.733  1.00  0.00     0.135 A 
ATOM     57  F   UNL A   1      44.333  33.631  29.189  1.00  0.00    -0.206 F 
ATOM     58  C   UNL A   1      44.423  35.086  31.026  1.00  0.00     0.059 A 
ATOM     59  C   UNL A   1      44.021  34.232  33.265  1.00  0.00     0.059 A 
ATOM     60  F   UNL A   1      43.579  31.950  33.578  1.00  0.00    -0.206 F 
ATOM     61  C   UNL A   1      44.344  35.283  32.406  1.00  0.00     0.060 A 
BRANCH  61  62
ATOM     62  S   UNL A   1      44.689  36.926  33.066  1.00  0.00     0.124 S 
ATOM     63  O   UNL A   1      46.118  36.829  33.346  1.00  0.00    -0.237 OA
ATOM     64  O   UNL A   1      44.318  37.797  31.956  1.00  0.00    -0.237 OA
ATOM     65  O   UNL A   1      43.822  37.007  34.238  1.00  0.00    -0.744 OA
ENDBRANCH  61  62
ENDBRANCH  40  54
BRANCH  41  66
ATOM     66  C   UNL A   1      42.584  23.567  27.607  1.00  0.00     0.058 A 
ATOM     67  C   UNL A   1      42.395  22.458  28.445  1.00  0.00     0.135 A 
ATOM     68  C   UNL A   1      42.652  23.336  26.224  1.00  0.00     0.135 A 
ATOM     69  F   UNL A   1      42.335  22.626  29.775  1.00  0.00    -0.206 F 
ATOM     70  C   UNL A   1      42.310  21.164  27.939  1.00  0.00     0.059 A 
ATOM     71  C   UNL A   1      42.550  22.052  25.692  1.00  0.00     0.059 A 
ATOM     72  F   UNL A   1      42.822  24.363  25.377  1.00  0.00    -0.206 F 
ATOM     73  C   UNL A   1      42.395  20.972  26.559  1.00  0.00     0.060 A 
BRANCH  73  74
ATOM     74  S   UNL A   1      42.275  19.288  25.911  1.00  0.00     0.124 S 
ATOM     75  O   UNL A   1      42.789  18.506  27.030  1.00  0.00    -0.237 OA
ATOM     76  O   UNL A   1      40.845  19.162  25.647  1.00  0.00    -0.237 OA
ATOM     77  O   UNL A   1      43.124  19.326  24.724  1.00  0.00    -0.744 OA
ENDBRANCH  73  74
ENDBRANCH  41  66
BRANCH  53  78
ATOM     78  C   UNL A   1      48.085  26.923  30.284  1.00  0.00     0.058 A 
ATOM     79  C   UNL A   1      49.142  27.320  29.452  1.00  0.00     0.135 A 
ATOM     80  C   UNL A   1      48.400  26.213  31.455  1.00  0.00     0.135 A 
ATOM     81  F   UNL A   1      48.891  27.993  28.318  1.00  0.00    -0.206 F 
ATOM     82  C   UNL A   1      50.464  27.035  29.774  1.00  0.00     0.059 A 
ATOM     83  C   UNL A   1      49.717  25.934  31.807  1.00  0.00     0.059 A 
ATOM     84  F   UNL A   1      47.424  25.815  32.287  1.00  0.00    -0.206 F 
ATOM     85  C   UNL A   1      50.743  26.350  30.959  1.00  0.00     0.060 A 
BRANCH  85  86
ATOM     86  S   UNL A   1      52.467  26.063  31.414  1.00  0.00     0.124 S 
ATOM     87  O   UNL A   1      52.374  24.803  32.145  1.00  0.00    -0.237 OA
ATOM     88  O   UNL A   1      53.127  25.993  30.113  1.00  0.00    -0.237 OA
ATOM     89  O   UNL A   1      52.806  27.233  32.218  1.00  0.00    -0.744 OA
ENDBRANCH  85  86
ENDBRANCH  53  78
ENDBRANCH  27  28
ENDBRANCH  20  22
ENDBRANCH  19  20
ENDBRANCH  18  19
ENDBRANCH   1  18
TORSDOF 17
ENDMDL
MODEL 2
REMARK VINA RESULT:      -9.8      4.557     11.980
REMARK SMILES Cc1csc(C[NH2+]C2(C(=O)OCCOC(=O)c3ccc(-c4c5nc(c(-c6c(F)cc(S(=O)(=O)[O-])cc6F)c6ccc([nH]6)c(-c6c(F)cc(S(=O)(=O)[O-])cc6F)c6nc(c(-c7c(F)cc(S(=O)(=O)[O-])cc7F)c7ccc4[nH]7)C=C6)C=C5)cc3)CC2)n1
REMARK SMILES IDX 12 1 11 2 9 3 10 4 8 5 83 6 84 7 7 8 6 11 5 12 1 13 2 14
REMARK SMILES IDX 3 15 85 16 4 17 13 18 14 19 15 20 16 21 17 22 18 23 82 24
REMARK SMILES IDX 19 25 81 26 20 27 21 28 22 29 75 30 23 31 80 32 74 33 76 34
REMARK SMILES IDX 24 35 79 36 73 37 72 38 25 40 59 41 38 42 58 43 39 44 42 45
REMARK SMILES IDX 57 46 77 47 40 48 41 49 56 51 78 52 43 53 26 54 27 55 36 56
REMARK SMILES IDX 28 57 29 58 35 59 37 60 30 61 31 62 32 63 33 64 34 65 60 66
REMARK SMILES IDX 61 67 70 68 62 69 63 70 69 71 71 72 64 73 65 74 66 75 67 76
REMARK SMILES IDX 68 77 44 78 45 79 54 80 46 81 47 82 53 83 55 84 48 85 49 86
REMARK SMILES IDX 50 87 51 88 52 89
REMARK H PARENT 7 9 7 10 76 39 42 50
REMARK Flexibility Score: inf
ROOT
ATOM      1  C   UNL A   1      43.884  23.287  24.687  1.00  0.00     0.274 C 
ENDROOT
BRANCH   1   2
ATOM      2  O   UNL A   1      42.641  22.670  25.022  1.00  0.00    -0.457 OA
BRANCH   2   3
ATOM      3  C   UNL A   1      42.748  21.587  25.833  1.00  0.00     0.368 C 
ATOM      4  O   UNL A   1      43.619  20.728  25.769  1.00  0.00    -0.245 OA
BRANCH   3   5
ATOM      5  C   UNL A   1      41.780  21.684  26.989  1.00  0.00     0.195 C 
ATOM      6  C   UNL A   1      41.190  20.431  27.601  1.00  0.00     0.088 C 
ATOM      7  C   UNL A   1      40.350  21.253  26.680  1.00  0.00     0.088 C 
BRANCH   5   8
ATOM      8  N   UNL A   1      41.980  22.896  27.864  1.00  0.00    -0.326 N 
ATOM      9  H   UNL A   1      42.278  23.670  27.272  1.00  0.00     0.347 HD
ATOM     10  H   UNL A   1      41.088  23.066  28.329  1.00  0.00     0.347 HD
BRANCH   8  11
ATOM     11  C   UNL A   1      42.982  22.723  28.936  1.00  0.00     0.330 C 
BRANCH  11  12
ATOM     12  C   UNL A   1      44.113  23.730  28.947  1.00  0.00     0.147 A 
ATOM     13  C   UNL A   1      45.359  27.063  29.627  1.00  0.00     0.067 C 
ATOM     14  C   UNL A   1      45.193  25.673  29.125  1.00  0.00     0.049 A 
ATOM     15  C   UNL A   1      46.083  25.001  28.314  1.00  0.00     0.090 A 
ATOM     16  N   UNL A   1      44.065  24.939  29.475  1.00  0.00    -0.240 NA
ATOM     17  S   UNL A   1      45.527  23.414  28.010  1.00  0.00    -0.121 S 
ENDBRANCH  11  12
ENDBRANCH   8  11
ENDBRANCH   5   8
ENDBRANCH   3   5
ENDBRANCH   2   3
ENDBRANCH   1   2
BRANCH   1  18
ATOM     18  C   UNL A   1      43.772  24.786  24.975  1.00  0.00     0.275 C 
BRANCH  18  19
ATOM     19  O   UNL A   1      42.974  25.063  26.145  1.00  0.00    -0.458 OA
BRANCH  19  20
ATOM     20  C   UNL A   1      41.937  25.932  25.989  1.00  0.00     0.338 C 
ATOM     21  O   UNL A   1      41.264  26.092  24.983  1.00  0.00    -0.246 OA
BRANCH  20  22
ATOM     22  C   UNL A   1      41.708  26.679  27.250  1.00  0.00     0.060 A 
ATOM     23  C   UNL A   1      42.427  27.855  27.502  1.00  0.00     0.016 A 
ATOM     24  C   UNL A   1      40.800  26.216  28.199  1.00  0.00     0.016 A 
ATOM     25  C   UNL A   1      42.160  28.632  28.633  1.00  0.00     0.010 A 
ATOM     26  C   UNL A   1      40.566  26.967  29.355  1.00  0.00     0.010 A 
ATOM     27  C   UNL A   1      41.212  28.200  29.563  1.00  0.00    -0.014 A 
BRANCH  27  28
ATOM     28  C   UNL A   1      40.967  28.953  30.820  1.00  0.00     0.031 A 
ATOM     29  C   UNL A   1      39.874  29.980  30.826  1.00  0.00     0.074 A 
ATOM     30  C   UNL A   1      41.726  28.770  31.918  1.00  0.00     0.049 A 
ATOM     31  N   UNL A   1      39.555  30.848  31.750  1.00  0.00    -0.248 NA
ATOM     32  C   UNL A   1      39.039  30.042  29.617  1.00  0.00     0.031 C 
ATOM     33  C   UNL A   1      42.802  27.789  32.056  1.00  0.00     0.029 A 
ATOM     34  N   UNL A   1      41.721  29.426  33.126  1.00  0.00    -0.354 N 
ATOM     35  C   UNL A   1      38.488  31.568  31.228  1.00  0.00     0.074 A 
ATOM     36  C   UNL A   1      38.247  31.066  29.892  1.00  0.00     0.031 C 
ATOM     37  C   UNL A   1      43.372  27.927  33.268  1.00  0.00     0.029 A 
ATOM     38  C   UNL A   1      42.710  29.011  33.990  1.00  0.00     0.049 A 
ATOM     39  H   UNL A   1      41.070  30.128  33.354  1.00  0.00     0.167 HD
ATOM     40  C   UNL A   1      37.757  32.544  31.815  1.00  0.00     0.037 A 
ATOM     41  C   UNL A   1      43.043  29.464  35.217  1.00  0.00     0.037 A 
ATOM     42  C   UNL A   1      37.988  33.040  33.142  1.00  0.00     0.049 A 
ATOM     43  C   UNL A   1      42.248  30.590  35.833  1.00  0.00     0.074 A 
ATOM     44  C   UNL A   1      37.303  34.030  33.824  1.00  0.00     0.029 A 
ATOM     45  N   UNL A   1      38.981  32.577  33.992  1.00  0.00    -0.354 N 
ATOM     46  N   UNL A   1      41.224  31.245  35.338  1.00  0.00    -0.248 NA
ATOM     47  C   UNL A   1      42.647  31.034  37.179  1.00  0.00     0.031 C 
ATOM     48  C   UNL A   1      37.898  34.181  35.082  1.00  0.00     0.029 A 
ATOM     49  C   UNL A   1      38.929  33.262  35.194  1.00  0.00     0.049 A 
ATOM     50  H   UNL A   1      39.628  31.868  33.774  1.00  0.00     0.167 HD
ATOM     51  C   UNL A   1      40.828  32.139  36.329  1.00  0.00     0.074 A 
ATOM     52  C   UNL A   1      41.727  31.953  37.447  1.00  0.00     0.031 C 
ATOM     53  C   UNL A   1      39.806  33.031  36.315  1.00  0.00     0.037 A 
BRANCH  40  54
ATOM     54  C   UNL A   1      36.648  33.133  30.994  1.00  0.00     0.058 A 
ATOM     55  C   UNL A   1      36.912  34.045  29.961  1.00  0.00     0.135 A 
ATOM     56  C   UNL A   1      35.309  32.827  31.279  1.00  0.00     0.135 A 
ATOM     57  F   UNL A   1      38.177  34.386  29.667  1.00  0.00    -0.206 F 
ATOM     58  C   UNL A   1      35.884  34.680  29.275  1.00  0.00     0.059 A 
ATOM     59  C   UNL A   1      34.264  33.430  30.586  1.00  0.00     0.059 A 
ATOM     60  F   UNL A   1      35.005  31.962  32.259  1.00  0.00    -0.206 F 
ATOM     61  C   UNL A   1      34.562  34.376  29.605  1.00  0.00     0.060 A 
BRANCH  61  62
ATOM     62  S   UNL A   1      33.235  35.250  28.750  1.00  0.00     0.124 S 
ATOM     63  O   UNL A   1      32.589  34.158  28.029  1.00  0.00    -0.237 OA
ATOM     64  O   UNL A   1      32.470  35.821  29.853  1.00  0.00    -0.237 OA
ATOM     65  O   UNL A   1      33.949  36.216  27.920  1.00  0.00    -0.744 OA
ENDBRANCH  61  62
ENDBRANCH  40  54
BRANCH  41  66
ATOM     66  C   UNL A   1      44.171  28.852  35.972  1.00  0.00     0.058 A 
ATOM     67  C   UNL A   1      43.952  27.766  36.832  1.00  0.00     0.135 A 
ATOM     68  C   UNL A   1      45.473  29.368  35.890  1.00  0.00     0.135 A 
ATOM     69  F   UNL A   1      42.721  27.245  36.954  1.00  0.00    -0.206 F 
ATOM     70  C   UNL A   1      44.975  27.229  37.608  1.00  0.00     0.059 A 
ATOM     71  C   UNL A   1      46.519  28.835  36.643  1.00  0.00     0.059 A 
ATOM     72  F   UNL A   1      45.740  30.400  35.076  1.00  0.00    -0.206 F 
ATOM     73  C   UNL A   1      46.255  27.776  37.510  1.00  0.00     0.060 A 
BRANCH  73  74
ATOM     74  S   UNL A   1      47.579  27.066  38.516  1.00  0.00     0.124 S 
ATOM     75  O   UNL A   1      47.327  27.686  39.812  1.00  0.00    -0.237 OA
ATOM     76  O   UNL A   1      47.299  25.636  38.427  1.00  0.00    -0.237 OA
ATOM     77  O   UNL A   1      48.791  27.504  37.830  1.00  0.00    -0.744 OA
ENDBRANCH  73  74
ENDBRANCH  41  66
BRANCH  53  78
ATOM     78  C   UNL A   1      39.543  33.827  37.562  1.00  0.00     0.058 A 
ATOM     79  C   UNL A   1      38.694  33.358  38.575  1.00  0.00     0.135 A 
ATOM     80  C   UNL A   1      40.241  35.025  37.790  1.00  0.00     0.135 A 
ATOM     81  F   UNL A   1      38.000  32.222  38.401  1.00  0.00    -0.206 F 
ATOM     82  C   UNL A   1      38.548  34.046  39.775  1.00  0.00     0.059 A 
ATOM     83  C   UNL A   1      40.125  35.719  38.990  1.00  0.00     0.059 A 
ATOM     84  F   UNL A   1      41.070  35.512  36.854  1.00  0.00    -0.206 F 
ATOM     85  C   UNL A   1      39.276  35.221  39.978  1.00  0.00     0.060 A 
BRANCH  85  86
ATOM     86  S   UNL A   1      39.151  36.059  41.573  1.00  0.00     0.124 S 
ATOM     87  O   UNL A   1      37.906  35.508  42.098  1.00  0.00    -0.237 OA
ATOM     88  O   UNL A   1      40.370  35.626  42.250  1.00  0.00    -0.237 OA
ATOM     89  O   UNL A   1      39.111  37.472  41.213  1.00  0.00    -0.744 OA
ENDBRANCH  85  86
ENDBRANCH  53  78
ENDBRANCH  27  28
ENDBRANCH  20  22
ENDBRANCH  19  20
ENDBRANCH  18  19
ENDBRANCH   1  18
TORSDOF 17
ENDMDL
MODEL 3
REMARK VINA RESULT:      -9.8      3.431      5.472
REMARK SMILES Cc1csc(C[NH2+]C2(C(=O)OCCOC(=O)c3ccc(-c4c5nc(c(-c6c(F)cc(S(=O)(=O)[O-])cc6F)c6ccc([nH]6)c(-c6c(F)cc(S(=O)(=O)[O-])cc6F)c6nc(c(-c7c(F)cc(S(=O)(=O)[O-])cc7F)c7ccc4[nH]7)C=C6)C=C5)cc3)CC2)n1
REMARK SMILES IDX 12 1 11 2 9 3 10 4 8 5 83 6 84 7 7 8 6 11 5 12 1 13 2 14
REMARK SMILES IDX 3 15 85 16 4 17 13 18 14 19 15 20 16 21 17 22 18 23 82 24
REMARK SMILES IDX 19 25 81 26 20 27 21 28 22 29 75 30 23 31 80 32 74 33 76 34
REMARK SMILES IDX 24 35 79 36 73 37 72 38 25 40 59 41 38 42 58 43 39 44 42 45
REMARK SMILES IDX 57 46 77 47 40 48 41 49 56 51 78 52 43 53 26 54 27 55 36 56
REMARK SMILES IDX 28 57 29 58 35 59 37 60 30 61 31 62 32 63 33 64 34 65 60 66
REMARK SMILES IDX 61 67 70 68 62 69 63 70 69 71 71 72 64 73 65 74 66 75 67 76
REMARK SMILES IDX 68 77 44 78 45 79 54 80 46 81 47 82 53 83 55 84 48 85 49 86
REMARK SMILES IDX 50 87 51 88 52 89
REMARK H PARENT 7 9 7 10 76 39 42 50
REMARK Flexibility Score: inf
ROOT
ATOM      1  C   UNL A   1      31.869  28.580  26.780  1.00  0.00     0.274 C 
ENDROOT
BRANCH   1   2
ATOM      2  O   UNL A   1      31.891  28.898  25.388  1.00  0.00    -0.457 OA
BRANCH   2   3
ATOM      3  C   UNL A   1      32.075  27.832  24.568  1.00  0.00     0.368 C 
ATOM      4  O   UNL A   1      31.674  26.693  24.772  1.00  0.00    -0.245 OA
BRANCH   3   5
ATOM      5  C   UNL A   1      32.652  28.269  23.242  1.00  0.00     0.195 C 
ATOM      6  C   UNL A   1      33.515  27.323  22.433  1.00  0.00     0.088 C 
ATOM      7  C   UNL A   1      34.170  28.419  23.207  1.00  0.00     0.088 C 
BRANCH   5   8
ATOM      8  N   UNL A   1      31.823  29.298  22.515  1.00  0.00    -0.326 N 
ATOM      9  H   UNL A   1      31.833  30.158  23.063  1.00  0.00     0.347 HD
ATOM     10  H   UNL A   1      32.243  29.406  21.591  1.00  0.00     0.347 HD
BRANCH   8  11
ATOM     11  C   UNL A   1      30.416  28.910  22.291  1.00  0.00     0.330 C 
BRANCH  11  12
ATOM     12  C   UNL A   1      29.436  30.054  22.133  1.00  0.00     0.147 A 
ATOM     13  C   UNL A   1      27.716  32.466  20.047  1.00  0.00     0.067 C 
ATOM     14  C   UNL A   1      28.298  31.730  21.201  1.00  0.00     0.049 A 
ATOM     15  C   UNL A   1      28.186  32.099  22.526  1.00  0.00     0.090 A 
ATOM     16  N   UNL A   1      29.021  30.563  20.987  1.00  0.00    -0.240 NA
ATOM     17  S   UNL A   1      28.964  30.953  23.528  1.00  0.00    -0.121 S 
ENDBRANCH  11  12
ENDBRANCH   8  11
ENDBRANCH   5   8
ENDBRANCH   3   5
ENDBRANCH   2   3
ENDBRANCH   1   2
BRANCH   1  18
ATOM     18  C   UNL A   1      33.311  28.566  27.293  1.00  0.00     0.275 C 
BRANCH  18  19
ATOM     19  O   UNL A   1      34.063  29.716  26.852  1.00  0.00    -0.458 OA
BRANCH  19  20
ATOM     20  C   UNL A   1      34.537  30.549  27.820  1.00  0.00     0.338 C 
ATOM     21  O   UNL A   1      33.938  31.478  28.339  1.00  0.00    -0.246 OA
BRANCH  20  22
ATOM     22  C   UNL A   1      35.919  30.160  28.191  1.00  0.00     0.060 A 
ATOM     23  C   UNL A   1      36.198  29.752  29.502  1.00  0.00     0.016 A 
ATOM     24  C   UNL A   1      36.950  30.214  27.256  1.00  0.00     0.016 A 
ATOM     25  C   UNL A   1      37.469  29.286  29.853  1.00  0.00     0.010 A 
ATOM     26  C   UNL A   1      38.233  29.793  27.620  1.00  0.00     0.010 A 
ATOM     27  C   UNL A   1      38.495  29.287  28.907  1.00  0.00    -0.014 A 
BRANCH  27  28
ATOM     28  C   UNL A   1      39.877  28.884  29.269  1.00  0.00     0.031 A 
ATOM     29  C   UNL A   1      40.748  29.891  29.961  1.00  0.00     0.074 A 
ATOM     30  C   UNL A   1      40.373  27.672  28.949  1.00  0.00     0.049 A 
ATOM     31  N   UNL A   1      42.018  29.825  30.260  1.00  0.00    -0.248 NA
ATOM     32  C   UNL A   1      40.094  31.149  30.353  1.00  0.00     0.031 C 
ATOM     33  C   UNL A   1      39.630  26.592  28.301  1.00  0.00     0.029 A 
ATOM     34  N   UNL A   1      41.636  27.154  29.109  1.00  0.00    -0.354 N 
ATOM     35  C   UNL A   1      42.319  31.038  30.867  1.00  0.00     0.074 A 
ATOM     36  C   UNL A   1      41.111  31.835  30.849  1.00  0.00     0.031 C 
ATOM     37  C   UNL A   1      40.456  25.551  28.091  1.00  0.00     0.029 A 
ATOM     38  C   UNL A   1      41.791  25.891  28.581  1.00  0.00     0.049 A 
ATOM     39  H   UNL A   1      42.364  27.640  29.558  1.00  0.00     0.167 HD
ATOM     40  C   UNL A   1      43.489  31.445  31.411  1.00  0.00     0.037 A 
ATOM     41  C   UNL A   1      42.888  25.109  28.497  1.00  0.00     0.037 A 
ATOM     42  C   UNL A   1      44.687  30.655  31.438  1.00  0.00     0.049 A 
ATOM     43  C   UNL A   1      44.197  25.604  29.065  1.00  0.00     0.074 A 
ATOM     44  C   UNL A   1      45.924  30.982  31.964  1.00  0.00     0.029 A 
ATOM     45  N   UNL A   1      44.796  29.375  30.917  1.00  0.00    -0.354 N 
ATOM     46  N   UNL A   1      44.461  26.744  29.659  1.00  0.00    -0.248 NA
ATOM     47  C   UNL A   1      45.356  24.703  28.958  1.00  0.00     0.031 C 
ATOM     48  C   UNL A   1      46.789  29.904  31.742  1.00  0.00     0.029 A 
ATOM     49  C   UNL A   1      46.080  28.896  31.108  1.00  0.00     0.049 A 
ATOM     50  H   UNL A   1      44.068  28.880  30.476  1.00  0.00     0.167 HD
ATOM     51  C   UNL A   1      45.798  26.675  30.041  1.00  0.00     0.074 A 
ATOM     52  C   UNL A   1      46.295  25.389  29.601  1.00  0.00     0.031 C 
ATOM     53  C   UNL A   1      46.545  27.593  30.702  1.00  0.00     0.037 A 
BRANCH  40  54
ATOM     54  C   UNL A   1      43.504  32.821  32.009  1.00  0.00     0.058 A 
ATOM     55  C   UNL A   1      43.848  33.945  31.242  1.00  0.00     0.135 A 
ATOM     56  C   UNL A   1      43.227  33.012  33.372  1.00  0.00     0.135 A 
ATOM     57  F   UNL A   1      44.142  33.809  29.939  1.00  0.00    -0.206 F 
ATOM     58  C   UNL A   1      43.974  35.203  31.817  1.00  0.00     0.059 A 
ATOM     59  C   UNL A   1      43.321  34.267  33.962  1.00  0.00     0.059 A 
ATOM     60  F   UNL A   1      42.895  31.968  34.148  1.00  0.00    -0.206 F 
ATOM     61  C   UNL A   1      43.723  35.351  33.182  1.00  0.00     0.060 A 
BRANCH  61  62
ATOM     62  S   UNL A   1      43.948  36.978  33.930  1.00  0.00     0.124 S 
ATOM     63  O   UNL A   1      44.485  36.620  35.239  1.00  0.00    -0.237 OA
ATOM     64  O   UNL A   1      44.886  37.620  33.014  1.00  0.00    -0.237 OA
ATOM     65  O   UNL A   1      42.600  37.537  33.934  1.00  0.00    -0.744 OA
ENDBRANCH  61  62
ENDBRANCH  40  54
BRANCH  41  66
ATOM     66  C   UNL A   1      42.814  23.761  27.871  1.00  0.00     0.058 A 
ATOM     67  C   UNL A   1      42.870  23.613  26.477  1.00  0.00     0.135 A 
ATOM     68  C   UNL A   1      42.635  22.603  28.643  1.00  0.00     0.135 A 
ATOM     69  F   UNL A   1      43.027  24.693  25.695  1.00  0.00    -0.206 F 
ATOM     70  C   UNL A   1      42.723  22.371  25.866  1.00  0.00     0.059 A 
ATOM     71  C   UNL A   1      42.505  21.345  28.055  1.00  0.00     0.059 A 
ATOM     72  F   UNL A   1      42.584  22.686  29.981  1.00  0.00    -0.206 F 
ATOM     73  C   UNL A   1      42.534  21.243  26.665  1.00  0.00     0.060 A 
BRANCH  73  74
ATOM     74  S   UNL A   1      42.352  19.634  25.862  1.00  0.00     0.124 S 
ATOM     75  O   UNL A   1      43.363  19.713  24.814  1.00  0.00    -0.237 OA
ATOM     76  O   UNL A   1      42.638  18.710  26.957  1.00  0.00    -0.237 OA
ATOM     77  O   UNL A   1      40.965  19.643  25.407  1.00  0.00    -0.744 OA
ENDBRANCH  73  74
ENDBRANCH  41  66
BRANCH  53  78
ATOM     78  C   UNL A   1      47.957  27.229  31.065  1.00  0.00     0.058 A 
ATOM     79  C   UNL A   1      48.268  26.581  32.270  1.00  0.00     0.135 A 
ATOM     80  C   UNL A   1      48.995  27.435  30.141  1.00  0.00     0.135 A 
ATOM     81  F   UNL A   1      47.313  26.368  33.188  1.00  0.00    -0.206 F 
ATOM     82  C   UNL A   1      49.560  26.144  32.544  1.00  0.00     0.059 A 
ATOM     83  C   UNL A   1      50.289  26.988  30.386  1.00  0.00     0.059 A 
ATOM     84  F   UNL A   1      48.747  28.045  28.971  1.00  0.00    -0.206 F 
ATOM     85  C   UNL A   1      50.562  26.343  31.592  1.00  0.00     0.060 A 
BRANCH  85  86
ATOM     86  S   UNL A   1      52.215  25.692  31.918  1.00  0.00     0.124 S 
ATOM     87  O   UNL A   1      51.938  24.274  32.122  1.00  0.00    -0.237 OA
ATOM     88  O   UNL A   1      52.931  26.026  30.690  1.00  0.00    -0.237 OA
ATOM     89  O   UNL A   1      52.643  26.427  33.103  1.00  0.00    -0.744 OA
ENDBRANCH  85  86
ENDBRANCH  53  78
ENDBRANCH  27  28
ENDBRANCH  20  22
ENDBRANCH  19  20
ENDBRANCH  18  19
ENDBRANCH   1  18
TORSDOF 17
ENDMDL
