MODEL 1
REMARK VINA RESULT:     -10.3      0.000      0.000
REMARK SMILES [NH3+][C@]1(C(=O)OCCOC(=O)c2ccc(-c3c4nc(c(-c5c(F)cc(S(=O)(=O)[O-])cc5F)c5ccc([nH]5)c(-c5c(F)cc(S(=O)(=O)[O-])cc5F)c5nc(c(-c6c(F)cc(S(=O)(=O)[O-])cc6F)c6ccc3[nH]6)C=C5)C=C4)cc2)CC[C@@H]([N@H+](CC2CC2)C2CC2)C1
REMARK SMILES IDX 6 1 5 2 3 3 4 4 2 5 77 6 88 7 78 8 79 9 1 10 80 14 81 16
REMARK SMILES IDX 82 17 83 18 84 19 85 20 86 21 87 22 7 23 8 24 9 25 10 26
REMARK SMILES IDX 11 27 12 28 76 29 13 30 75 31 14 32 15 33 16 34 69 35 17 36
REMARK SMILES IDX 74 37 68 38 70 39 18 40 73 41 67 42 66 43 19 45 53 46 32 47
REMARK SMILES IDX 52 48 33 49 36 50 51 51 71 52 34 53 35 54 50 56 72 57 37 58
REMARK SMILES IDX 20 59 21 60 30 61 22 62 23 63 29 64 31 65 24 66 25 67 26 68
REMARK SMILES IDX 27 69 28 70 54 71 55 72 64 73 56 74 57 75 63 76 65 77 58 78
REMARK SMILES IDX 59 79 60 80 61 81 62 82 38 83 39 84 48 85 40 86 41 87 47 88
REMARK SMILES IDX 49 89 42 90 43 91 44 92 45 93 46 94
REMARK H PARENT 1 11 1 12 1 13 80 15 70 44 36 55
REMARK Flexibility Score: inf
ROOT
ATOM      1  C   UNL A   1      31.680  28.778  26.768  1.00  0.00     0.274 C 
ENDROOT
BRANCH   1   2
ATOM      2  O   UNL A   1      31.611  27.339  26.781  1.00  0.00    -0.457 OA
BRANCH   2   3
ATOM      3  C   UNL A   1      30.993  26.806  25.684  1.00  0.00     0.368 C 
ATOM      4  O   UNL A   1      30.785  27.443  24.658  1.00  0.00    -0.245 OA
BRANCH   3   5
ATOM      5  C   UNL A   1      30.724  25.290  25.833  1.00  0.00     0.198 C 
ATOM      6  C   UNL A   1      30.631  24.550  24.497  1.00  0.00     0.087 C 
ATOM      7  C   UNL A   1      31.890  24.580  26.577  1.00  0.00     0.145 C 
ATOM      8  C   UNL A   1      31.225  23.178  24.815  1.00  0.00     0.072 C 
ATOM      9  C   UNL A   1      32.490  23.518  25.638  1.00  0.00     0.191 C 
BRANCH   5  10
ATOM     10  N   UNL A   1      29.444  25.081  26.566  1.00  0.00    -0.343 N 
ATOM     11  H   UNL A   1      29.111  24.131  26.405  1.00  0.00     0.345 HD
ATOM     12  H   UNL A   1      28.747  25.747  26.230  1.00  0.00     0.345 HD
ATOM     13  H   UNL A   1      29.596  25.225  27.564  1.00  0.00     0.345 HD
ENDBRANCH   5  10
BRANCH   9  14
ATOM     14  N   UNL A   1      33.577  23.770  24.675  1.00  0.00    -0.330 N 
ATOM     15  H   UNL A   1      32.927  24.011  23.926  1.00  0.00     0.348 HD
BRANCH  14  16
ATOM     16  C   UNL A   1      34.439  22.575  24.530  1.00  0.00     0.266 C 
BRANCH  16  17
ATOM     17  C   UNL A   1      35.903  22.908  24.457  1.00  0.00     0.044 C 
ATOM     18  C   UNL A   1      36.987  21.889  24.179  1.00  0.00     0.010 C 
ATOM     19  C   UNL A   1      36.621  22.894  23.129  1.00  0.00     0.010 C 
ENDBRANCH  16  17
ENDBRANCH  14  16
BRANCH  14  20
ATOM     20  C   UNL A   1      34.342  25.014  24.474  1.00  0.00     0.184 C 
ATOM     21  C   UNL A   1      33.925  25.866  23.295  1.00  0.00     0.071 C 
ATOM     22  C   UNL A   1      33.988  26.451  24.670  1.00  0.00     0.071 C 
ENDBRANCH  14  20
ENDBRANCH   9  14
ENDBRANCH   3   5
ENDBRANCH   2   3
ENDBRANCH   1   2
BRANCH   1  23
ATOM     23  C   UNL A   1      33.122  29.248  26.546  1.00  0.00     0.275 C 
BRANCH  23  24
ATOM     24  O   UNL A   1      33.874  29.137  27.768  1.00  0.00    -0.458 OA
BRANCH  24  25
ATOM     25  C   UNL A   1      34.559  30.239  28.147  1.00  0.00     0.338 C 
ATOM     26  O   UNL A   1      34.089  31.358  28.327  1.00  0.00    -0.246 OA
BRANCH  25  27
ATOM     27  C   UNL A   1      35.997  29.925  28.324  1.00  0.00     0.060 A 
ATOM     28  C   UNL A   1      36.912  30.067  27.278  1.00  0.00     0.016 A 
ATOM     29  C   UNL A   1      36.438  29.419  29.547  1.00  0.00     0.016 A 
ATOM     30  C   UNL A   1      38.235  29.651  27.424  1.00  0.00     0.010 A 
ATOM     31  C   UNL A   1      37.790  29.098  29.728  1.00  0.00     0.010 A 
ATOM     32  C   UNL A   1      38.703  29.200  28.665  1.00  0.00    -0.014 A 
BRANCH  32  33
ATOM     33  C   UNL A   1      40.142  28.871  28.871  1.00  0.00     0.031 A 
ATOM     34  C   UNL A   1      41.108  29.933  29.325  1.00  0.00     0.074 A 
ATOM     35  C   UNL A   1      40.594  27.625  28.616  1.00  0.00     0.049 A 
ATOM     36  N   UNL A   1      42.416  29.913  29.327  1.00  0.00    -0.248 NA
ATOM     37  C   UNL A   1      40.526  31.184  29.836  1.00  0.00     0.031 C 
ATOM     38  C   UNL A   1      39.766  26.486  28.211  1.00  0.00     0.029 A 
ATOM     39  N   UNL A   1      41.867  27.109  28.645  1.00  0.00    -0.354 N 
ATOM     40  C   UNL A   1      42.816  31.159  29.794  1.00  0.00     0.074 A 
ATOM     41  C   UNL A   1      41.610  31.912  30.070  1.00  0.00     0.031 C 
ATOM     42  C   UNL A   1      40.546  25.408  28.043  1.00  0.00     0.029 A 
ATOM     43  C   UNL A   1      41.937  25.796  28.238  1.00  0.00     0.049 A 
ATOM     44  H   UNL A   1      42.653  27.628  28.929  1.00  0.00     0.167 HD
ATOM     45  C   UNL A   1      44.074  31.632  29.972  1.00  0.00     0.037 A 
ATOM     46  C   UNL A   1      42.999  25.007  27.985  1.00  0.00     0.037 A 
ATOM     47  C   UNL A   1      45.269  30.866  29.727  1.00  0.00     0.049 A 
ATOM     48  C   UNL A   1      44.383  25.571  28.132  1.00  0.00     0.074 A 
ATOM     49  C   UNL A   1      46.589  31.255  29.879  1.00  0.00     0.029 A 
ATOM     50  N   UNL A   1      45.290  29.550  29.290  1.00  0.00    -0.354 N 
ATOM     51  N   UNL A   1      44.746  26.770  28.514  1.00  0.00    -0.248 NA
ATOM     52  C   UNL A   1      45.502  24.683  27.784  1.00  0.00     0.031 C 
ATOM     53  C   UNL A   1      47.409  30.184  29.505  1.00  0.00     0.029 A 
ATOM     54  C   UNL A   1      46.598  29.117  29.152  1.00  0.00     0.049 A 
ATOM     55  H   UNL A   1      44.493  29.004  29.103  1.00  0.00     0.167 HD
ATOM     56  C   UNL A   1      46.134  26.785  28.450  1.00  0.00     0.074 A 
ATOM     57  C   UNL A   1      46.547  25.466  28.017  1.00  0.00     0.031 C 
ATOM     58  C   UNL A   1      46.990  27.802  28.714  1.00  0.00     0.037 A 
BRANCH  45  59
ATOM     59  C   UNL A   1      44.230  33.055  30.429  1.00  0.00     0.058 A 
ATOM     60  C   UNL A   1      44.374  34.112  29.519  1.00  0.00     0.135 A 
ATOM     61  C   UNL A   1      44.180  33.369  31.798  1.00  0.00     0.135 A 
ATOM     62  F   UNL A   1      44.444  33.864  28.202  1.00  0.00    -0.206 F 
ATOM     63  C   UNL A   1      44.478  35.431  29.950  1.00  0.00     0.059 A 
ATOM     64  C   UNL A   1      44.263  34.683  32.250  1.00  0.00     0.059 A 
ATOM     65  F   UNL A   1      44.045  32.393  32.710  1.00  0.00    -0.206 F 
ATOM     66  C   UNL A   1      44.421  35.707  31.317  1.00  0.00     0.060 A 
BRANCH  66  67
ATOM     67  S   UNL A   1      44.541  37.424  31.861  1.00  0.00     0.124 S 
ATOM     68  O   UNL A   1      45.983  37.647  31.805  1.00  0.00    -0.237 OA
ATOM     69  O   UNL A   1      43.753  38.128  30.855  1.00  0.00    -0.237 OA
ATOM     70  O   UNL A   1      43.962  37.399  33.200  1.00  0.00    -0.744 OA
ENDBRANCH  66  67
ENDBRANCH  45  59
BRANCH  46  71
ATOM     71  C   UNL A   1      42.792  23.620  27.491  1.00  0.00     0.058 A 
ATOM     72  C   UNL A   1      42.904  23.312  26.129  1.00  0.00     0.135 A 
ATOM     73  C   UNL A   1      42.483  22.574  28.376  1.00  0.00     0.135 A 
ATOM     74  F   UNL A   1      43.186  24.280  25.244  1.00  0.00    -0.206 F 
ATOM     75  C   UNL A   1      42.709  22.017  25.657  1.00  0.00     0.059 A 
ATOM     76  C   UNL A   1      42.309  21.267  27.932  1.00  0.00     0.059 A 
ATOM     77  F   UNL A   1      42.375  22.816  29.692  1.00  0.00    -0.206 F 
ATOM     78  C   UNL A   1      42.412  21.002  26.568  1.00  0.00     0.060 A 
BRANCH  78  79
ATOM     79  S   UNL A   1      42.209  19.312  25.960  1.00  0.00     0.124 S 
ATOM     80  O   UNL A   1      42.727  18.537  27.080  1.00  0.00    -0.237 OA
ATOM     81  O   UNL A   1      40.768  19.232  25.739  1.00  0.00    -0.237 OA
ATOM     82  O   UNL A   1      43.022  19.297  24.748  1.00  0.00    -0.744 OA
ENDBRANCH  78  79
ENDBRANCH  46  71
BRANCH  58  83
ATOM     83  C   UNL A   1      48.454  27.522  28.548  1.00  0.00     0.058 A 
ATOM     84  C   UNL A   1      49.199  26.907  29.566  1.00  0.00     0.135 A 
ATOM     85  C   UNL A   1      49.111  27.838  27.349  1.00  0.00     0.135 A 
ATOM     86  F   UNL A   1      48.617  26.595  30.734  1.00  0.00    -0.206 F 
ATOM     87  C   UNL A   1      50.553  26.632  29.408  1.00  0.00     0.059 A 
ATOM     88  C   UNL A   1      50.460  27.554  27.162  1.00  0.00     0.059 A 
ATOM     89  F   UNL A   1      48.439  28.423  26.344  1.00  0.00    -0.206 F 
ATOM     90  C   UNL A   1      51.175  26.961  28.201  1.00  0.00     0.060 A 
BRANCH  90  91
ATOM     91  S   UNL A   1      52.926  26.572  27.994  1.00  0.00     0.124 S 
ATOM     92  O   UNL A   1      53.431  27.802  27.395  1.00  0.00    -0.237 OA
ATOM     93  O   UNL A   1      53.355  26.310  29.365  1.00  0.00    -0.237 OA
ATOM     94  O   UNL A   1      52.911  25.405  27.116  1.00  0.00    -0.744 OA
ENDBRANCH  90  91
ENDBRANCH  58  83
ENDBRANCH  32  33
ENDBRANCH  25  27
ENDBRANCH  24  25
ENDBRANCH  23  24
ENDBRANCH   1  23
TORSDOF 19
ENDMDL
MODEL 2
REMARK VINA RESULT:     -10.2      1.944      2.816
REMARK SMILES [NH3+][C@]1(C(=O)OCCOC(=O)c2ccc(-c3c4nc(c(-c5c(F)cc(S(=O)(=O)[O-])cc5F)c5ccc([nH]5)c(-c5c(F)cc(S(=O)(=O)[O-])cc5F)c5nc(c(-c6c(F)cc(S(=O)(=O)[O-])cc6F)c6ccc3[nH]6)C=C5)C=C4)cc2)CC[C@@H]([N@H+](CC2CC2)C2CC2)C1
REMARK SMILES IDX 6 1 5 2 3 3 4 4 2 5 77 6 88 7 78 8 79 9 1 10 80 14 81 16
REMARK SMILES IDX 82 17 83 18 84 19 85 20 86 21 87 22 7 23 8 24 9 25 10 26
REMARK SMILES IDX 11 27 12 28 76 29 13 30 75 31 14 32 15 33 16 34 69 35 17 36
REMARK SMILES IDX 74 37 68 38 70 39 18 40 73 41 67 42 66 43 19 45 53 46 32 47
REMARK SMILES IDX 52 48 33 49 36 50 51 51 71 52 34 53 35 54 50 56 72 57 37 58
REMARK SMILES IDX 20 59 21 60 30 61 22 62 23 63 29 64 31 65 24 66 25 67 26 68
REMARK SMILES IDX 27 69 28 70 54 71 55 72 64 73 56 74 57 75 63 76 65 77 58 78
REMARK SMILES IDX 59 79 60 80 61 81 62 82 38 83 39 84 48 85 40 86 41 87 47 88
REMARK SMILES IDX 49 89 42 90 43 91 44 92 45 93 46 94
REMARK H PARENT 1 11 1 12 1 13 80 15 70 44 36 55
REMARK Flexibility Score: inf
ROOT
ATOM      1  C   UNL A   1      33.062  29.150  26.604  1.00  0.00     0.274 C 
ENDROOT
BRANCH   1   2
ATOM      2  O   UNL A   1      33.182  29.043  25.172  1.00  0.00    -0.457 OA
BRANCH   2   3
ATOM      3  C   UNL A   1      31.992  29.159  24.509  1.00  0.00     0.368 C 
ATOM      4  O   UNL A   1      31.049  29.815  24.935  1.00  0.00    -0.245 OA
BRANCH   3   5
ATOM      5  C   UNL A   1      32.026  28.498  23.111  1.00  0.00     0.198 C 
ATOM      6  C   UNL A   1      33.278  27.656  22.860  1.00  0.00     0.087 C 
ATOM      7  C   UNL A   1      30.854  27.492  22.933  1.00  0.00     0.145 C 
ATOM      8  C   UNL A   1      32.765  26.518  21.978  1.00  0.00     0.072 C 
ATOM      9  C   UNL A   1      31.447  26.096  22.671  1.00  0.00     0.191 C 
BRANCH   5  10
ATOM     10  N   UNL A   1      31.961  29.553  22.060  1.00  0.00    -0.343 N 
ATOM     11  H   UNL A   1      31.743  30.450  22.492  1.00  0.00     0.345 HD
ATOM     12  H   UNL A   1      31.235  29.316  21.384  1.00  0.00     0.345 HD
ATOM     13  H   UNL A   1      32.862  29.614  21.585  1.00  0.00     0.345 HD
ENDBRANCH   5  10
BRANCH   9  14
ATOM     14  N   UNL A   1      31.803  25.126  23.722  1.00  0.00    -0.330 N 
ATOM     15  H   UNL A   1      32.371  25.806  24.228  1.00  0.00     0.348 HD
BRANCH  14  16
ATOM     16  C   UNL A   1      32.453  23.931  23.137  1.00  0.00     0.266 C 
BRANCH  16  17
ATOM     17  C   UNL A   1      33.617  23.436  23.949  1.00  0.00     0.044 C 
ATOM     18  C   UNL A   1      35.014  23.251  23.396  1.00  0.00     0.010 C 
ATOM     19  C   UNL A   1      34.728  24.380  24.339  1.00  0.00     0.010 C 
ENDBRANCH  16  17
ENDBRANCH  14  16
BRANCH  14  20
ATOM     20  C   UNL A   1      31.043  24.786  24.937  1.00  0.00     0.184 C 
ATOM     21  C   UNL A   1      31.592  25.331  26.238  1.00  0.00     0.071 C 
ATOM     22  C   UNL A   1      30.177  25.601  25.839  1.00  0.00     0.071 C 
ENDBRANCH  14  20
ENDBRANCH   9  14
ENDBRANCH   3   5
ENDBRANCH   2   3
ENDBRANCH   1   2
BRANCH   1  23
ATOM     23  C   UNL A   1      34.094  30.137  27.160  1.00  0.00     0.275 C 
BRANCH  23  24
ATOM     24  O   UNL A   1      35.143  29.428  27.845  1.00  0.00    -0.458 OA
BRANCH  24  25
ATOM     25  C   UNL A   1      35.883  30.152  28.713  1.00  0.00     0.338 C 
ATOM     26  O   UNL A   1      35.473  31.046  29.445  1.00  0.00    -0.246 OA
BRANCH  25  27
ATOM     27  C   UNL A   1      37.302  29.725  28.671  1.00  0.00     0.060 A 
ATOM     28  C   UNL A   1      38.019  29.446  29.838  1.00  0.00     0.016 A 
ATOM     29  C   UNL A   1      37.957  29.657  27.440  1.00  0.00     0.016 A 
ATOM     30  C   UNL A   1      39.385  29.167  29.789  1.00  0.00     0.010 A 
ATOM     31  C   UNL A   1      39.303  29.275  27.382  1.00  0.00     0.010 A 
ATOM     32  C   UNL A   1      40.037  29.035  28.556  1.00  0.00    -0.014 A 
BRANCH  32  33
ATOM     33  C   UNL A   1      41.464  28.613  28.482  1.00  0.00     0.031 A 
ATOM     34  C   UNL A   1      42.567  29.629  28.623  1.00  0.00     0.074 A 
ATOM     35  C   UNL A   1      41.776  27.320  28.252  1.00  0.00     0.049 A 
ATOM     36  N   UNL A   1      43.840  29.510  28.350  1.00  0.00    -0.248 NA
ATOM     37  C   UNL A   1      42.183  30.957  29.129  1.00  0.00     0.031 C 
ATOM     38  C   UNL A   1      40.815  26.220  28.136  1.00  0.00     0.029 A 
ATOM     39  N   UNL A   1      42.993  26.712  28.058  1.00  0.00    -0.354 N 
ATOM     40  C   UNL A   1      44.404  30.754  28.606  1.00  0.00     0.074 A 
ATOM     41  C   UNL A   1      43.333  31.615  29.061  1.00  0.00     0.031 C 
ATOM     42  C   UNL A   1      41.476  25.076  27.907  1.00  0.00     0.029 A 
ATOM     43  C   UNL A   1      42.897  25.371  27.767  1.00  0.00     0.049 A 
ATOM     44  H   UNL A   1      43.851  27.190  28.121  1.00  0.00     0.167 HD
ATOM     45  C   UNL A   1      45.696  31.141  28.471  1.00  0.00     0.037 A 
ATOM     46  C   UNL A   1      43.831  24.485  27.368  1.00  0.00     0.037 A 
ATOM     47  C   UNL A   1      46.762  30.269  28.050  1.00  0.00     0.049 A 
ATOM     48  C   UNL A   1      45.244  24.951  27.167  1.00  0.00     0.074 A 
ATOM     49  C   UNL A   1      48.104  30.566  27.884  1.00  0.00     0.029 A 
ATOM     50  N   UNL A   1      46.611  28.925  27.740  1.00  0.00    -0.354 N 
ATOM     51  N   UNL A   1      45.751  26.145  27.354  1.00  0.00    -0.248 NA
ATOM     52  C   UNL A   1      46.206  23.956  26.673  1.00  0.00     0.031 C 
ATOM     53  C   UNL A   1      48.759  29.410  27.444  1.00  0.00     0.029 A 
ATOM     54  C   UNL A   1      47.831  28.384  27.369  1.00  0.00     0.049 A 
ATOM     55  H   UNL A   1      45.762  28.430  27.777  1.00  0.00     0.167 HD
ATOM     56  C   UNL A   1      47.089  26.048  26.997  1.00  0.00     0.074 A 
ATOM     57  C   UNL A   1      47.321  24.672  26.608  1.00  0.00     0.031 C 
ATOM     58  C   UNL A   1      48.040  27.013  26.980  1.00  0.00     0.037 A 
BRANCH  45  59
ATOM     59  C   UNL A   1      46.030  32.578  28.754  1.00  0.00     0.058 A 
ATOM     60  C   UNL A   1      46.454  33.003  30.022  1.00  0.00     0.135 A 
ATOM     61  C   UNL A   1      45.976  33.533  27.725  1.00  0.00     0.135 A 
ATOM     62  F   UNL A   1      46.506  32.134  31.042  1.00  0.00    -0.206 F 
ATOM     63  C   UNL A   1      46.800  34.329  30.264  1.00  0.00     0.059 A 
ATOM     64  C   UNL A   1      46.336  34.861  27.940  1.00  0.00     0.059 A 
ATOM     65  F   UNL A   1      45.575  33.178  26.493  1.00  0.00    -0.206 F 
ATOM     66  C   UNL A   1      46.737  35.251  29.217  1.00  0.00     0.060 A 
BRANCH  66  67
ATOM     67  S   UNL A   1      47.204  36.965  29.542  1.00  0.00     0.124 S 
ATOM     68  O   UNL A   1      46.898  37.084  30.964  1.00  0.00    -0.237 OA
ATOM     69  O   UNL A   1      48.622  36.975  29.196  1.00  0.00    -0.237 OA
ATOM     70  O   UNL A   1      46.340  37.728  28.648  1.00  0.00    -0.744 OA
ENDBRANCH  66  67
ENDBRANCH  45  59
BRANCH  46  71
ATOM     71  C   UNL A   1      43.440  23.084  27.058  1.00  0.00     0.058 A 
ATOM     72  C   UNL A   1      43.321  22.642  25.734  1.00  0.00     0.135 A 
ATOM     73  C   UNL A   1      43.185  22.159  28.083  1.00  0.00     0.135 A 
ATOM     74  F   UNL A   1      43.543  23.493  24.720  1.00  0.00    -0.206 F 
ATOM     75  C   UNL A   1      42.953  21.333  25.433  1.00  0.00     0.059 A 
ATOM     76  C   UNL A   1      42.841  20.839  27.809  1.00  0.00     0.059 A 
ATOM     77  F   UNL A   1      43.296  22.530  29.368  1.00  0.00    -0.206 F 
ATOM     78  C   UNL A   1      42.716  20.440  26.479  1.00  0.00     0.060 A 
BRANCH  78  79
ATOM     79  S   UNL A   1      42.289  18.729  26.088  1.00  0.00     0.124 S 
ATOM     80  O   UNL A   1      43.244  18.425  25.030  1.00  0.00    -0.237 OA
ATOM     81  O   UNL A   1      42.511  18.053  27.363  1.00  0.00    -0.237 OA
ATOM     82  O   UNL A   1      40.892  18.823  25.674  1.00  0.00    -0.744 OA
ENDBRANCH  78  79
ENDBRANCH  46  71
BRANCH  58  83
ATOM     83  C   UNL A   1      49.415  26.610  26.535  1.00  0.00     0.058 A 
ATOM     84  C   UNL A   1      50.384  26.181  27.455  1.00  0.00     0.135 A 
ATOM     85  C   UNL A   1      49.757  26.619  25.174  1.00  0.00     0.135 A 
ATOM     86  F   UNL A   1      50.106  26.165  28.769  1.00  0.00    -0.206 F 
ATOM     87  C   UNL A   1      51.653  25.791  27.043  1.00  0.00     0.059 A 
ATOM     88  C   UNL A   1      51.015  26.214  24.737  1.00  0.00     0.059 A 
ATOM     89  F   UNL A   1      48.862  27.016  24.255  1.00  0.00    -0.206 F 
ATOM     90  C   UNL A   1      51.959  25.813  25.680  1.00  0.00     0.060 A 
BRANCH  90  91
ATOM     91  S   UNL A   1      53.600  25.276  25.152  1.00  0.00     0.124 S 
ATOM     92  O   UNL A   1      54.414  25.640  26.307  1.00  0.00    -0.237 OA
ATOM     93  O   UNL A   1      53.410  23.845  24.936  1.00  0.00    -0.237 OA
ATOM     94  O   UNL A   1      53.838  26.059  23.943  1.00  0.00    -0.744 OA
ENDBRANCH  90  91
ENDBRANCH  58  83
ENDBRANCH  32  33
ENDBRANCH  25  27
ENDBRANCH  24  25
ENDBRANCH  23  24
ENDBRANCH   1  23
TORSDOF 19
ENDMDL
MODEL 3
REMARK VINA RESULT:     -10.2      0.892      2.061
REMARK SMILES [NH3+][C@]1(C(=O)OCCOC(=O)c2ccc(-c3c4nc(c(-c5c(F)cc(S(=O)(=O)[O-])cc5F)c5ccc([nH]5)c(-c5c(F)cc(S(=O)(=O)[O-])cc5F)c5nc(c(-c6c(F)cc(S(=O)(=O)[O-])cc6F)c6ccc3[nH]6)C=C5)C=C4)cc2)CC[C@@H]([N@H+](CC2CC2)C2CC2)C1
REMARK SMILES IDX 6 1 5 2 3 3 4 4 2 5 77 6 88 7 78 8 79 9 1 10 80 14 81 16
REMARK SMILES IDX 82 17 83 18 84 19 85 20 86 21 87 22 7 23 8 24 9 25 10 26
REMARK SMILES IDX 11 27 12 28 76 29 13 30 75 31 14 32 15 33 16 34 69 35 17 36
REMARK SMILES IDX 74 37 68 38 70 39 18 40 73 41 67 42 66 43 19 45 53 46 32 47
REMARK SMILES IDX 52 48 33 49 36 50 51 51 71 52 34 53 35 54 50 56 72 57 37 58
REMARK SMILES IDX 20 59 21 60 30 61 22 62 23 63 29 64 31 65 24 66 25 67 26 68
REMARK SMILES IDX 27 69 28 70 54 71 55 72 64 73 56 74 57 75 63 76 65 77 58 78
REMARK SMILES IDX 59 79 60 80 61 81 62 82 38 83 39 84 48 85 40 86 41 87 47 88
REMARK SMILES IDX 49 89 42 90 43 91 44 92 45 93 46 94
REMARK H PARENT 1 11 1 12 1 13 80 15 70 44 36 55
REMARK Flexibility Score: inf
ROOT
ATOM      1  C   UNL A   1      32.379  27.971  25.960  1.00  0.00     0.274 C 
ENDROOT
BRANCH   1   2
ATOM      2  O   UNL A   1      32.351  27.556  24.580  1.00  0.00    -0.457 OA
BRANCH   2   3
ATOM      3  C   UNL A   1      31.364  26.654  24.296  1.00  0.00     0.368 C 
ATOM      4  O   UNL A   1      30.274  26.654  24.858  1.00  0.00    -0.245 OA
BRANCH   3   5
ATOM      5  C   UNL A   1      31.722  25.741  23.100  1.00  0.00     0.198 C 
ATOM      6  C   UNL A   1      33.181  25.281  23.093  1.00  0.00     0.087 C 
ATOM      7  C   UNL A   1      30.909  24.417  23.136  1.00  0.00     0.145 C 
ATOM      8  C   UNL A   1      33.102  23.876  22.497  1.00  0.00     0.072 C 
ATOM      9  C   UNL A   1      31.898  23.242  23.234  1.00  0.00     0.191 C 
BRANCH   5  10
ATOM     10  N   UNL A   1      31.463  26.468  21.824  1.00  0.00    -0.343 N 
ATOM     11  H   UNL A   1      31.547  25.821  21.041  1.00  0.00     0.345 HD
ATOM     12  H   UNL A   1      32.143  27.221  21.718  1.00  0.00     0.345 HD
ATOM     13  H   UNL A   1      30.522  26.861  21.843  1.00  0.00     0.345 HD
ENDBRANCH   5  10
BRANCH   9  14
ATOM     14  N   UNL A   1      32.410  22.681  24.497  1.00  0.00    -0.330 N 
ATOM     15  H   UNL A   1      32.799  23.577  24.796  1.00  0.00     0.348 HD
BRANCH  14  16
ATOM     16  C   UNL A   1      33.325  21.546  24.236  1.00  0.00     0.266 C 
BRANCH  16  17
ATOM     17  C   UNL A   1      34.743  21.825  24.647  1.00  0.00     0.044 C 
ATOM     18  C   UNL A   1      35.267  21.638  26.055  1.00  0.00     0.010 C 
ATOM     19  C   UNL A   1      35.678  20.685  24.973  1.00  0.00     0.010 C 
ENDBRANCH  16  17
ENDBRANCH  14  16
BRANCH  14  20
ATOM     20  C   UNL A   1      31.692  22.514  25.773  1.00  0.00     0.184 C 
ATOM     21  C   UNL A   1      31.987  23.544  26.841  1.00  0.00     0.071 C 
ATOM     22  C   UNL A   1      30.580  23.282  26.405  1.00  0.00     0.071 C 
ENDBRANCH  14  20
ENDBRANCH   9  14
ENDBRANCH   3   5
ENDBRANCH   2   3
ENDBRANCH   1   2
BRANCH   1  23
ATOM     23  C   UNL A   1      33.615  28.833  26.240  1.00  0.00     0.275 C 
BRANCH  23  24
ATOM     24  O   UNL A   1      33.751  29.062  27.655  1.00  0.00    -0.458 OA
BRANCH  24  25
ATOM     25  C   UNL A   1      34.457  30.157  28.015  1.00  0.00     0.338 C 
ATOM     26  O   UNL A   1      34.019  31.296  28.133  1.00  0.00    -0.246 OA
BRANCH  25  27
ATOM     27  C   UNL A   1      35.877  29.806  28.258  1.00  0.00     0.060 A 
ATOM     28  C   UNL A   1      36.314  29.334  29.498  1.00  0.00     0.016 A 
ATOM     29  C   UNL A   1      36.811  30.006  27.241  1.00  0.00     0.016 A 
ATOM     30  C   UNL A   1      37.671  29.126  29.747  1.00  0.00     0.010 A 
ATOM     31  C   UNL A   1      38.161  29.699  27.457  1.00  0.00     0.010 A 
ATOM     32  C   UNL A   1      38.609  29.265  28.716  1.00  0.00    -0.014 A 
BRANCH  32  33
ATOM     33  C   UNL A   1      40.044  28.925  28.931  1.00  0.00     0.031 A 
ATOM     34  C   UNL A   1      41.016  29.981  29.385  1.00  0.00     0.074 A 
ATOM     35  C   UNL A   1      40.487  27.674  28.685  1.00  0.00     0.049 A 
ATOM     36  N   UNL A   1      42.324  29.951  29.394  1.00  0.00    -0.248 NA
ATOM     37  C   UNL A   1      40.442  31.240  29.885  1.00  0.00     0.031 C 
ATOM     38  C   UNL A   1      39.651  26.540  28.282  1.00  0.00     0.029 A 
ATOM     39  N   UNL A   1      41.756  27.148  28.723  1.00  0.00    -0.354 N 
ATOM     40  C   UNL A   1      42.732  31.197  29.856  1.00  0.00     0.074 A 
ATOM     41  C   UNL A   1      41.531  31.960  30.121  1.00  0.00     0.031 C 
ATOM     42  C   UNL A   1      40.424  25.455  28.124  1.00  0.00     0.029 A 
ATOM     43  C   UNL A   1      41.817  25.833  28.324  1.00  0.00     0.049 A 
ATOM     44  H   UNL A   1      42.545  27.663  29.009  1.00  0.00     0.167 HD
ATOM     45  C   UNL A   1      43.992  31.660  30.039  1.00  0.00     0.037 A 
ATOM     46  C   UNL A   1      42.874  25.033  28.081  1.00  0.00     0.037 A 
ATOM     47  C   UNL A   1      45.182  30.883  29.804  1.00  0.00     0.049 A 
ATOM     48  C   UNL A   1      44.262  25.587  28.232  1.00  0.00     0.074 A 
ATOM     49  C   UNL A   1      46.505  31.262  29.961  1.00  0.00     0.029 A 
ATOM     50  N   UNL A   1      45.195  29.564  29.374  1.00  0.00    -0.354 N 
ATOM     51  N   UNL A   1      44.632  26.785  28.611  1.00  0.00    -0.248 NA
ATOM     52  C   UNL A   1      45.375  24.688  27.895  1.00  0.00     0.031 C 
ATOM     53  C   UNL A   1      47.317  30.182  29.597  1.00  0.00     0.029 A 
ATOM     54  C   UNL A   1      46.500  29.119  29.246  1.00  0.00     0.049 A 
ATOM     55  H   UNL A   1      44.394  29.024  29.186  1.00  0.00     0.167 HD
ATOM     56  C   UNL A   1      46.020  26.788  28.554  1.00  0.00     0.074 A 
ATOM     57  C   UNL A   1      46.425  25.463  28.130  1.00  0.00     0.031 C 
ATOM     58  C   UNL A   1      46.883  27.799  28.817  1.00  0.00     0.037 A 
BRANCH  45  59
ATOM     59  C   UNL A   1      44.157  33.084  30.489  1.00  0.00     0.058 A 
ATOM     60  C   UNL A   1      44.301  33.418  31.844  1.00  0.00     0.135 A 
ATOM     61  C   UNL A   1      44.226  34.122  29.545  1.00  0.00     0.135 A 
ATOM     62  F   UNL A   1      44.225  32.466  32.786  1.00  0.00    -0.206 F 
ATOM     63  C   UNL A   1      44.493  34.736  32.248  1.00  0.00     0.059 A 
ATOM     64  C   UNL A   1      44.437  35.444  29.926  1.00  0.00     0.059 A 
ATOM     65  F   UNL A   1      44.093  33.855  28.236  1.00  0.00    -0.206 F 
ATOM     66  C   UNL A   1      44.560  35.742  31.283  1.00  0.00     0.060 A 
BRANCH  66  67
ATOM     67  S   UNL A   1      44.826  37.445  31.822  1.00  0.00     0.124 S 
ATOM     68  O   UNL A   1      43.732  37.623  32.771  1.00  0.00    -0.237 OA
ATOM     69  O   UNL A   1      46.163  37.385  32.402  1.00  0.00    -0.237 OA
ATOM     70  O   UNL A   1      44.716  38.214  30.587  1.00  0.00    -0.744 OA
ENDBRANCH  66  67
ENDBRANCH  45  59
BRANCH  46  71
ATOM     71  C   UNL A   1      42.658  23.645  27.594  1.00  0.00     0.058 A 
ATOM     72  C   UNL A   1      42.589  23.362  26.223  1.00  0.00     0.135 A 
ATOM     73  C   UNL A   1      42.522  22.574  28.491  1.00  0.00     0.135 A 
ATOM     74  F   UNL A   1      42.701  24.354  25.327  1.00  0.00    -0.206 F 
ATOM     75  C   UNL A   1      42.384  22.066  25.757  1.00  0.00     0.059 A 
ATOM     76  C   UNL A   1      42.342  21.268  28.051  1.00  0.00     0.059 A 
ATOM     77  F   UNL A   1      42.591  22.793  29.814  1.00  0.00    -0.206 F 
ATOM     78  C   UNL A   1      42.263  21.026  26.680  1.00  0.00     0.060 A 
BRANCH  78  79
ATOM     79  S   UNL A   1      42.047  19.338  26.073  1.00  0.00     0.124 S 
ATOM     80  O   UNL A   1      42.481  18.557  27.226  1.00  0.00    -0.237 OA
ATOM     81  O   UNL A   1      40.619  19.294  25.773  1.00  0.00    -0.237 OA
ATOM     82  O   UNL A   1      42.925  19.290  24.908  1.00  0.00    -0.744 OA
ENDBRANCH  78  79
ENDBRANCH  46  71
BRANCH  58  83
ATOM     83  C   UNL A   1      48.346  27.506  28.660  1.00  0.00     0.058 A 
ATOM     84  C   UNL A   1      49.011  27.741  27.446  1.00  0.00     0.135 A 
ATOM     85  C   UNL A   1      49.098  27.021  29.740  1.00  0.00     0.135 A 
ATOM     86  F   UNL A   1      48.331  28.196  26.381  1.00  0.00    -0.206 F 
ATOM     87  C   UNL A   1      50.370  27.486  27.303  1.00  0.00     0.059 A 
ATOM     88  C   UNL A   1      50.464  26.777  29.625  1.00  0.00     0.059 A 
ATOM     89  F   UNL A   1      48.508  26.785  30.923  1.00  0.00    -0.206 F 
ATOM     90  C   UNL A   1      51.088  27.003  28.399  1.00  0.00     0.060 A 
BRANCH  90  91
ATOM     91  S   UNL A   1      52.859  26.704  28.212  1.00  0.00     0.124 S 
ATOM     92  O   UNL A   1      53.249  26.386  29.581  1.00  0.00    -0.237 OA
ATOM     93  O   UNL A   1      52.893  25.591  27.268  1.00  0.00    -0.237 OA
ATOM     94  O   UNL A   1      53.362  27.973  27.694  1.00  0.00    -0.744 OA
ENDBRANCH  90  91
ENDBRANCH  58  83
ENDBRANCH  32  33
ENDBRANCH  25  27
ENDBRANCH  24  25
ENDBRANCH  23  24
ENDBRANCH   1  23
TORSDOF 19
ENDMDL
