MODEL 1
REMARK VINA RESULT:     -11.6      0.000      0.000
REMARK SMILES CS(=O)(=O)[C@@H]1CCC[C@@H](Sc2ccc(C(=O)OCCOC(=O)c3ccc(-c4c5nc(c(-c6c(F)cc(S(=O)(=O)[O-])cc6F)c6ccc([nH]6)c(-c6c(F)cc(S(=O)(=O)[O-])cc6F)c6nc(c(-c7c(F)cc(S(=O)(=O)[O-])cc7F)c7ccc4[nH]7)C=C6)C=C5)cc3)cn2)C1
REMARK SMILES IDX 18 1 17 2 15 3 16 4 14 5 11 6 12 7 90 8 13 9 89 10 10 11
REMARK SMILES IDX 9 12 5 13 6 14 91 15 7 16 8 17 2 18 1 19 3 20 4 21 19 22
REMARK SMILES IDX 20 23 21 24 22 25 23 26 24 27 88 28 25 29 87 30 26 31 27 32
REMARK SMILES IDX 28 33 81 34 29 35 86 36 80 37 82 38 30 39 85 40 79 41 78 42
REMARK SMILES IDX 31 44 65 45 44 46 64 47 45 48 48 49 63 50 83 51 46 52 47 53
REMARK SMILES IDX 62 55 84 56 49 57 32 58 33 59 42 60 34 61 35 62 41 63 43 64
REMARK SMILES IDX 36 65 37 66 38 67 39 68 40 69 66 70 67 71 76 72 68 73 69 74
REMARK SMILES IDX 75 75 77 76 70 77 71 78 72 79 73 80 74 81 50 82 51 83 60 84
REMARK SMILES IDX 52 85 53 86 59 87 61 88 54 89 55 90 56 91 57 92 58 93
REMARK H PARENT 82 43 48 54
REMARK Flexibility Score: inf
ROOT
ATOM      1  C   UNL A   1      32.056  30.573  26.691  1.00  0.00     0.275 C 
ENDROOT
BRANCH   1   2
ATOM      2  O   UNL A   1      32.433  30.024  25.415  1.00  0.00    -0.458 OA
BRANCH   2   3
ATOM      3  C   UNL A   1      31.592  29.105  24.874  1.00  0.00     0.339 C 
ATOM      4  O   UNL A   1      30.583  29.317  24.230  1.00  0.00    -0.246 OA
BRANCH   3   5
ATOM      5  C   UNL A   1      32.099  27.761  25.184  1.00  0.00     0.078 A 
ATOM      6  C   UNL A   1      33.075  25.230  25.799  1.00  0.00     0.096 A 
ATOM      7  C   UNL A   1      33.923  26.284  25.540  1.00  0.00     0.036 A 
ATOM      8  N   UNL A   1      31.745  25.445  25.819  1.00  0.00    -0.249 NA
ATOM      9  C   UNL A   1      33.458  27.544  25.191  1.00  0.00     0.020 A 
ATOM     10  C   UNL A   1      31.286  26.700  25.551  1.00  0.00     0.128 A 
BRANCH   6  11
ATOM     11  S   UNL A   1      33.578  23.565  26.135  1.00  0.00    -0.103 SA
BRANCH  11  12
ATOM     12  C   UNL A   1      34.123  22.691  24.583  1.00  0.00     0.054 C 
ATOM     13  C   UNL A   1      32.918  20.469  24.315  1.00  0.00     0.109 C 
ATOM     14  C   UNL A   1      32.400  20.889  22.929  1.00  0.00     0.020 C 
ATOM     15  C   UNL A   1      34.226  21.163  24.653  1.00  0.00     0.034 C 
ATOM     16  C   UNL A   1      32.466  22.382  22.575  1.00  0.00     0.002 C 
ATOM     17  C   UNL A   1      33.550  23.215  23.262  1.00  0.00     0.015 C 
BRANCH  13  18
ATOM     18  S   UNL A   1      33.024  18.671  24.464  1.00  0.00     0.150 S 
ATOM     19  C   UNL A   1      32.401  18.119  22.888  1.00  0.00     0.158 C 
ATOM     20  O   UNL A   1      32.082  18.226  25.470  1.00  0.00    -0.229 OA
ATOM     21  O   UNL A   1      34.420  18.284  24.542  1.00  0.00    -0.229 OA
ENDBRANCH  13  18
ENDBRANCH  11  12
ENDBRANCH   6  11
ENDBRANCH   3   5
ENDBRANCH   2   3
ENDBRANCH   1   2
BRANCH   1  22
ATOM     22  C   UNL A   1      33.229  31.298  27.352  1.00  0.00     0.275 C 
BRANCH  22  23
ATOM     23  O   UNL A   1      34.022  30.373  28.116  1.00  0.00    -0.458 OA
BRANCH  23  24
ATOM     24  C   UNL A   1      34.959  30.944  28.907  1.00  0.00     0.338 C 
ATOM     25  O   UNL A   1      34.799  31.859  29.698  1.00  0.00    -0.246 OA
BRANCH  24  26
ATOM     26  C   UNL A   1      36.226  30.208  28.799  1.00  0.00     0.060 A 
ATOM     27  C   UNL A   1      36.818  29.783  29.979  1.00  0.00     0.016 A 
ATOM     28  C   UNL A   1      36.928  30.128  27.603  1.00  0.00     0.016 A 
ATOM     29  C   UNL A   1      38.158  29.428  30.011  1.00  0.00     0.010 A 
ATOM     30  C   UNL A   1      38.237  29.621  27.615  1.00  0.00     0.010 A 
ATOM     31  C   UNL A   1      38.888  29.313  28.827  1.00  0.00    -0.014 A 
BRANCH  31  32
ATOM     32  C   UNL A   1      40.331  28.933  28.868  1.00  0.00     0.031 A 
ATOM     33  C   UNL A   1      41.362  29.961  29.262  1.00  0.00     0.074 A 
ATOM     34  C   UNL A   1      40.729  27.673  28.585  1.00  0.00     0.049 A 
ATOM     35  N   UNL A   1      42.659  29.938  29.097  1.00  0.00    -0.248 NA
ATOM     36  C   UNL A   1      40.862  31.188  29.904  1.00  0.00     0.031 C 
ATOM     37  C   UNL A   1      39.847  26.547  28.269  1.00  0.00     0.029 A 
ATOM     38  N   UNL A   1      41.988  27.124  28.521  1.00  0.00    -0.354 N 
ATOM     39  C   UNL A   1      43.119  31.176  29.533  1.00  0.00     0.074 A 
ATOM     40  C   UNL A   1      41.962  31.924  29.975  1.00  0.00     0.031 C 
ATOM     41  C   UNL A   1      40.582  25.439  28.093  1.00  0.00     0.029 A 
ATOM     42  C   UNL A   1      41.992  25.799  28.149  1.00  0.00     0.049 A 
ATOM     43  H   UNL A   1      42.808  27.630  28.722  1.00  0.00     0.167 HD
ATOM     44  C   UNL A   1      44.390  31.644  29.552  1.00  0.00     0.037 A 
ATOM     45  C   UNL A   1      43.005  24.977  27.814  1.00  0.00     0.037 A 
ATOM     46  C   UNL A   1      45.537  30.852  29.182  1.00  0.00     0.049 A 
ATOM     47  C   UNL A   1      44.404  25.521  27.808  1.00  0.00     0.074 A 
ATOM     48  C   UNL A   1      46.871  31.223  29.167  1.00  0.00     0.029 A 
ATOM     49  N   UNL A   1      45.487  29.523  28.787  1.00  0.00    -0.354 N 
ATOM     50  N   UNL A   1      44.819  26.726  28.115  1.00  0.00    -0.248 NA
ATOM     51  C   UNL A   1      45.470  24.605  27.382  1.00  0.00     0.031 C 
ATOM     52  C   UNL A   1      47.623  30.126  28.728  1.00  0.00     0.029 A 
ATOM     53  C   UNL A   1      46.764  29.059  28.518  1.00  0.00     0.049 A 
ATOM     54  H   UNL A   1      44.664  28.988  28.710  1.00  0.00     0.167 HD
ATOM     55  C   UNL A   1      46.196  26.712  27.934  1.00  0.00     0.074 A 
ATOM     56  C   UNL A   1      46.545  25.372  27.506  1.00  0.00     0.031 C 
ATOM     57  C   UNL A   1      47.089  27.717  28.103  1.00  0.00     0.037 A 
BRANCH  44  58
ATOM     58  C   UNL A   1      44.605  33.084  29.937  1.00  0.00     0.058 A 
ATOM     59  C   UNL A   1      44.648  34.119  28.990  1.00  0.00     0.135 A 
ATOM     60  C   UNL A   1      44.753  33.433  31.290  1.00  0.00     0.135 A 
ATOM     61  F   UNL A   1      44.529  33.845  27.681  1.00  0.00    -0.206 F 
ATOM     62  C   UNL A   1      44.865  35.443  29.368  1.00  0.00     0.059 A 
ATOM     63  C   UNL A   1      44.941  34.752  31.693  1.00  0.00     0.059 A 
ATOM     64  F   UNL A   1      44.720  32.484  32.240  1.00  0.00    -0.206 F 
ATOM     65  C   UNL A   1      45.014  35.748  30.722  1.00  0.00     0.060 A 
BRANCH  65  66
ATOM     66  S   UNL A   1      45.303  37.466  31.199  1.00  0.00     0.124 S 
ATOM     67  O   UNL A   1      46.006  37.979  30.027  1.00  0.00    -0.237 OA
ATOM     68  O   UNL A   1      43.948  37.970  31.394  1.00  0.00    -0.237 OA
ATOM     69  O   UNL A   1      46.107  37.353  32.412  1.00  0.00    -0.744 OA
ENDBRANCH  65  66
ENDBRANCH  44  58
BRANCH  45  70
ATOM     70  C   UNL A   1      42.715  23.580  27.386  1.00  0.00     0.058 A 
ATOM     71  C   UNL A   1      42.655  23.233  26.029  1.00  0.00     0.135 A 
ATOM     72  C   UNL A   1      42.531  22.555  28.330  1.00  0.00     0.135 A 
ATOM     73  F   UNL A   1      42.810  24.177  25.089  1.00  0.00    -0.206 F 
ATOM     74  C   UNL A   1      42.423  21.923  25.622  1.00  0.00     0.059 A 
ATOM     75  C   UNL A   1      42.330  21.233  27.948  1.00  0.00     0.059 A 
ATOM     76  F   UNL A   1      42.590  22.829  29.643  1.00  0.00    -0.206 F 
ATOM     77  C   UNL A   1      42.269  20.928  26.590  1.00  0.00     0.060 A 
BRANCH  77  78
ATOM     78  S   UNL A   1      42.036  19.220  26.053  1.00  0.00     0.124 S 
ATOM     79  O   UNL A   1      42.956  19.138  24.924  1.00  0.00    -0.237 OA
ATOM     80  O   UNL A   1      42.417  18.467  27.244  1.00  0.00    -0.237 OA
ATOM     81  O   UNL A   1      40.617  19.164  25.716  1.00  0.00    -0.744 OA
ENDBRANCH  77  78
ENDBRANCH  45  70
BRANCH  57  82
ATOM     82  C   UNL A   1      48.537  27.391  27.867  1.00  0.00     0.058 A 
ATOM     83  C   UNL A   1      49.331  26.794  28.858  1.00  0.00     0.135 A 
ATOM     84  C   UNL A   1      49.121  27.642  26.615  1.00  0.00     0.135 A 
ATOM     85  F   UNL A   1      48.821  26.543  30.073  1.00  0.00    -0.206 F 
ATOM     86  C   UNL A   1      50.664  26.476  28.622  1.00  0.00     0.059 A 
ATOM     87  C   UNL A   1      50.444  27.308  26.349  1.00  0.00     0.059 A 
ATOM     88  F   UNL A   1      48.401  28.204  25.631  1.00  0.00    -0.206 F 
ATOM     89  C   UNL A   1      51.212  26.735  27.363  1.00  0.00     0.060 A 
BRANCH  89  90
ATOM     90  S   UNL A   1      52.933  26.287  27.060  1.00  0.00     0.124 S 
ATOM     91  O   UNL A   1      52.795  24.942  26.511  1.00  0.00    -0.237 OA
ATOM     92  O   UNL A   1      53.362  27.316  26.117  1.00  0.00    -0.237 OA
ATOM     93  O   UNL A   1      53.543  26.366  28.384  1.00  0.00    -0.744 OA
ENDBRANCH  89  90
ENDBRANCH  57  82
ENDBRANCH  31  32
ENDBRANCH  24  26
ENDBRANCH  23  24
ENDBRANCH  22  23
ENDBRANCH   1  22
TORSDOF 17
ENDMDL
MODEL 2
REMARK VINA RESULT:     -11.4      5.929     10.695
REMARK SMILES CS(=O)(=O)[C@@H]1CCC[C@@H](Sc2ccc(C(=O)OCCOC(=O)c3ccc(-c4c5nc(c(-c6c(F)cc(S(=O)(=O)[O-])cc6F)c6ccc([nH]6)c(-c6c(F)cc(S(=O)(=O)[O-])cc6F)c6nc(c(-c7c(F)cc(S(=O)(=O)[O-])cc7F)c7ccc4[nH]7)C=C6)C=C5)cc3)cn2)C1
REMARK SMILES IDX 18 1 17 2 15 3 16 4 14 5 11 6 12 7 90 8 13 9 89 10 10 11
REMARK SMILES IDX 9 12 5 13 6 14 91 15 7 16 8 17 2 18 1 19 3 20 4 21 19 22
REMARK SMILES IDX 20 23 21 24 22 25 23 26 24 27 88 28 25 29 87 30 26 31 27 32
REMARK SMILES IDX 28 33 81 34 29 35 86 36 80 37 82 38 30 39 85 40 79 41 78 42
REMARK SMILES IDX 31 44 65 45 44 46 64 47 45 48 48 49 63 50 83 51 46 52 47 53
REMARK SMILES IDX 62 55 84 56 49 57 32 58 33 59 42 60 34 61 35 62 41 63 43 64
REMARK SMILES IDX 36 65 37 66 38 67 39 68 40 69 66 70 67 71 76 72 68 73 69 74
REMARK SMILES IDX 75 75 77 76 70 77 71 78 72 79 73 80 74 81 50 82 51 83 60 84
REMARK SMILES IDX 52 85 53 86 59 87 61 88 54 89 55 90 56 91 57 92 58 93
REMARK H PARENT 82 43 48 54
REMARK Flexibility Score: inf
ROOT
ATOM      1  C   UNL A   1      42.290  22.351  25.799  1.00  0.00     0.275 C 
ENDROOT
BRANCH   1   2
ATOM      2  O   UNL A   1      41.311  22.625  26.817  1.00  0.00    -0.458 OA
BRANCH   2   3
ATOM      3  C   UNL A   1      40.308  21.720  26.960  1.00  0.00     0.339 C 
ATOM      4  O   UNL A   1      40.350  20.660  27.552  1.00  0.00    -0.246 OA
BRANCH   3   5
ATOM      5  C   UNL A   1      39.112  22.228  26.273  1.00  0.00     0.078 A 
ATOM      6  C   UNL A   1      36.870  23.213  24.955  1.00  0.00     0.096 A 
ATOM      7  C   UNL A   1      37.649  24.024  25.751  1.00  0.00     0.036 A 
ATOM      8  N   UNL A   1      37.239  21.932  24.758  1.00  0.00    -0.249 NA
ATOM      9  C   UNL A   1      38.747  23.544  26.450  1.00  0.00     0.020 A 
ATOM     10  C   UNL A   1      38.361  21.477  25.383  1.00  0.00     0.128 A 
BRANCH   6  11
ATOM     11  S   UNL A   1      35.387  23.711  24.123  1.00  0.00    -0.103 SA
BRANCH  11  12
ATOM     12  C   UNL A   1      33.868  23.157  25.048  1.00  0.00     0.054 C 
ATOM     13  C   UNL A   1      33.756  20.620  25.183  1.00  0.00     0.109 C 
ATOM     14  C   UNL A   1      33.680  20.681  26.718  1.00  0.00     0.020 C 
ATOM     15  C   UNL A   1      33.186  21.877  24.548  1.00  0.00     0.034 C 
ATOM     16  C   UNL A   1      34.082  22.002  27.391  1.00  0.00     0.002 C 
ATOM     17  C   UNL A   1      33.909  23.283  26.574  1.00  0.00     0.015 C 
BRANCH  13  18
ATOM     18  S   UNL A   1      32.996  19.111  24.542  1.00  0.00     0.150 S 
ATOM     19  C   UNL A   1      34.409  18.064  24.252  1.00  0.00     0.158 C 
ATOM     20  O   UNL A   1      32.406  19.393  23.250  1.00  0.00    -0.229 OA
ATOM     21  O   UNL A   1      32.205  18.497  25.592  1.00  0.00    -0.229 OA
ENDBRANCH  13  18
ENDBRANCH  11  12
ENDBRANCH   6  11
ENDBRANCH   3   5
ENDBRANCH   2   3
ENDBRANCH   1   2
BRANCH   1  22
ATOM     22  C   UNL A   1      43.083  23.607  25.438  1.00  0.00     0.275 C 
BRANCH  22  23
ATOM     23  O   UNL A   1      42.864  24.635  26.419  1.00  0.00    -0.458 OA
BRANCH  23  24
ATOM     24  C   UNL A   1      42.349  25.787  25.932  1.00  0.00     0.338 C 
ATOM     25  O   UNL A   1      42.271  26.124  24.762  1.00  0.00    -0.246 OA
BRANCH  24  26
ATOM     26  C   UNL A   1      41.739  26.565  27.018  1.00  0.00     0.060 A 
ATOM     27  C   UNL A   1      42.191  27.864  27.204  1.00  0.00     0.016 A 
ATOM     28  C   UNL A   1      40.911  25.977  27.967  1.00  0.00     0.016 A 
ATOM     29  C   UNL A   1      41.962  28.528  28.399  1.00  0.00     0.010 A 
ATOM     30  C   UNL A   1      40.553  26.712  29.107  1.00  0.00     0.010 A 
ATOM     31  C   UNL A   1      41.116  27.979  29.364  1.00  0.00    -0.014 A 
BRANCH  31  32
ATOM     32  C   UNL A   1      40.876  28.699  30.650  1.00  0.00     0.031 A 
ATOM     33  C   UNL A   1      39.752  29.699  30.746  1.00  0.00     0.074 A 
ATOM     34  C   UNL A   1      41.633  28.449  31.741  1.00  0.00     0.049 A 
ATOM     35  N   UNL A   1      39.540  30.624  31.646  1.00  0.00    -0.248 NA
ATOM     36  C   UNL A   1      38.745  29.669  29.672  1.00  0.00     0.031 C 
ATOM     37  C   UNL A   1      42.703  27.452  31.832  1.00  0.00     0.029 A 
ATOM     38  N   UNL A   1      41.616  29.018  32.992  1.00  0.00    -0.354 N 
ATOM     39  C   UNL A   1      38.433  31.339  31.203  1.00  0.00     0.074 A 
ATOM     40  C   UNL A   1      38.013  30.736  29.957  1.00  0.00     0.031 C 
ATOM     41  C   UNL A   1      43.203  27.445  33.075  1.00  0.00     0.029 A 
ATOM     42  C   UNL A   1      42.587  28.525  33.834  1.00  0.00     0.049 A 
ATOM     43  H   UNL A   1      40.970  29.710  33.262  1.00  0.00     0.167 HD
ATOM     44  C   UNL A   1      37.831  32.405  31.783  1.00  0.00     0.037 A 
ATOM     45  C   UNL A   1      42.996  28.936  35.049  1.00  0.00     0.037 A 
ATOM     46  C   UNL A   1      38.217  32.939  33.065  1.00  0.00     0.049 A 
ATOM     47  C   UNL A   1      42.342  30.140  35.663  1.00  0.00     0.074 A 
ATOM     48  C   UNL A   1      37.675  34.013  33.750  1.00  0.00     0.029 A 
ATOM     49  N   UNL A   1      39.225  32.421  33.868  1.00  0.00    -0.354 N 
ATOM     50  N   UNL A   1      41.369  30.878  35.187  1.00  0.00    -0.248 NA
ATOM     51  C   UNL A   1      42.858  30.585  36.963  1.00  0.00     0.031 C 
ATOM     52  C   UNL A   1      38.379  34.166  34.950  1.00  0.00     0.029 A 
ATOM     53  C   UNL A   1      39.326  33.157  35.036  1.00  0.00     0.049 A 
ATOM     54  H   UNL A   1      39.784  31.644  33.639  1.00  0.00     0.167 HD
ATOM     55  C   UNL A   1      41.144  31.868  36.135  1.00  0.00     0.074 A 
ATOM     56  C   UNL A   1      42.073  31.623  37.220  1.00  0.00     0.031 C 
ATOM     57  C   UNL A   1      40.253  32.889  36.108  1.00  0.00     0.037 A 
BRANCH  44  58
ATOM     58  C   UNL A   1      36.732  33.094  31.019  1.00  0.00     0.058 A 
ATOM     59  C   UNL A   1      36.977  33.860  29.869  1.00  0.00     0.135 A 
ATOM     60  C   UNL A   1      35.398  32.967  31.444  1.00  0.00     0.135 A 
ATOM     61  F   UNL A   1      38.232  34.031  29.425  1.00  0.00    -0.206 F 
ATOM     62  C   UNL A   1      35.945  34.503  29.189  1.00  0.00     0.059 A 
ATOM     63  C   UNL A   1      34.348  33.576  30.762  1.00  0.00     0.059 A 
ATOM     64  F   UNL A   1      35.103  32.246  32.538  1.00  0.00    -0.206 F 
ATOM     65  C   UNL A   1      34.634  34.358  29.645  1.00  0.00     0.060 A 
BRANCH  65  66
ATOM     66  S   UNL A   1      33.306  35.202  28.760  1.00  0.00     0.124 S 
ATOM     67  O   UNL A   1      32.751  34.114  27.961  1.00  0.00    -0.237 OA
ATOM     68  O   UNL A   1      32.461  35.684  29.847  1.00  0.00    -0.237 OA
ATOM     69  O   UNL A   1      34.004  36.240  28.007  1.00  0.00    -0.744 OA
ENDBRANCH  65  66
ENDBRANCH  44  58
BRANCH  45  70
ATOM     70  C   UNL A   1      44.130  28.244  35.723  1.00  0.00     0.058 A 
ATOM     71  C   UNL A   1      43.909  27.191  36.621  1.00  0.00     0.135 A 
ATOM     72  C   UNL A   1      45.463  28.597  35.449  1.00  0.00     0.135 A 
ATOM     73  F   UNL A   1      42.655  26.823  36.926  1.00  0.00    -0.206 F 
ATOM     74  C   UNL A   1      44.964  26.513  37.225  1.00  0.00     0.059 A 
ATOM     75  C   UNL A   1      46.534  27.915  36.015  1.00  0.00     0.059 A 
ATOM     76  F   UNL A   1      45.733  29.591  34.588  1.00  0.00    -0.206 F 
ATOM     77  C   UNL A   1      46.275  26.878  36.909  1.00  0.00     0.060 A 
BRANCH  77  78
ATOM     78  S   UNL A   1      47.638  25.950  37.644  1.00  0.00     0.124 S 
ATOM     79  O   UNL A   1      48.122  25.185  36.501  1.00  0.00    -0.237 OA
ATOM     80  O   UNL A   1      48.516  27.016  38.119  1.00  0.00    -0.237 OA
ATOM     81  O   UNL A   1      46.987  25.172  38.694  1.00  0.00    -0.744 OA
ENDBRANCH  77  78
ENDBRANCH  45  70
BRANCH  57  82
ATOM     82  C   UNL A   1      40.212  33.791  37.308  1.00  0.00     0.058 A 
ATOM     83  C   UNL A   1      41.023  34.932  37.403  1.00  0.00     0.135 A 
ATOM     84  C   UNL A   1      39.314  33.530  38.356  1.00  0.00     0.135 A 
ATOM     85  F   UNL A   1      41.903  35.219  36.432  1.00  0.00    -0.206 F 
ATOM     86  C   UNL A   1      40.962  35.773  38.509  1.00  0.00     0.059 A 
ATOM     87  C   UNL A   1      39.218  34.372  39.459  1.00  0.00     0.059 A 
ATOM     88  F   UNL A   1      38.511  32.456  38.308  1.00  0.00    -0.206 F 
ATOM     89  C   UNL A   1      40.054  35.486  39.532  1.00  0.00     0.060 A 
BRANCH  89  90
ATOM     90  S   UNL A   1      39.961  36.603  40.946  1.00  0.00     0.124 S 
ATOM     91  O   UNL A   1      38.522  36.823  41.052  1.00  0.00    -0.237 OA
ATOM     92  O   UNL A   1      40.562  35.809  42.012  1.00  0.00    -0.237 OA
ATOM     93  O   UNL A   1      40.743  37.759  40.517  1.00  0.00    -0.744 OA
ENDBRANCH  89  90
ENDBRANCH  57  82
ENDBRANCH  31  32
ENDBRANCH  24  26
ENDBRANCH  23  24
ENDBRANCH  22  23
ENDBRANCH   1  22
TORSDOF 17
ENDMDL
MODEL 3
REMARK VINA RESULT:     -11.3      5.832     11.546
REMARK SMILES CS(=O)(=O)[C@@H]1CCC[C@@H](Sc2ccc(C(=O)OCCOC(=O)c3ccc(-c4c5nc(c(-c6c(F)cc(S(=O)(=O)[O-])cc6F)c6ccc([nH]6)c(-c6c(F)cc(S(=O)(=O)[O-])cc6F)c6nc(c(-c7c(F)cc(S(=O)(=O)[O-])cc7F)c7ccc4[nH]7)C=C6)C=C5)cc3)cn2)C1
REMARK SMILES IDX 18 1 17 2 15 3 16 4 14 5 11 6 12 7 90 8 13 9 89 10 10 11
REMARK SMILES IDX 9 12 5 13 6 14 91 15 7 16 8 17 2 18 1 19 3 20 4 21 19 22
REMARK SMILES IDX 20 23 21 24 22 25 23 26 24 27 88 28 25 29 87 30 26 31 27 32
REMARK SMILES IDX 28 33 81 34 29 35 86 36 80 37 82 38 30 39 85 40 79 41 78 42
REMARK SMILES IDX 31 44 65 45 44 46 64 47 45 48 48 49 63 50 83 51 46 52 47 53
REMARK SMILES IDX 62 55 84 56 49 57 32 58 33 59 42 60 34 61 35 62 41 63 43 64
REMARK SMILES IDX 36 65 37 66 38 67 39 68 40 69 66 70 67 71 76 72 68 73 69 74
REMARK SMILES IDX 75 75 77 76 70 77 71 78 72 79 73 80 74 81 50 82 51 83 60 84
REMARK SMILES IDX 52 85 53 86 59 87 61 88 54 89 55 90 56 91 57 92 58 93
REMARK H PARENT 82 43 48 54
REMARK Flexibility Score: inf
ROOT
ATOM      1  C   UNL A   1      37.728  22.185  25.375  1.00  0.00     0.275 C 
ENDROOT
BRANCH   1   2
ATOM      2  O   UNL A   1      36.915  22.430  24.212  1.00  0.00    -0.458 OA
BRANCH   2   3
ATOM      3  C   UNL A   1      35.605  22.084  24.300  1.00  0.00     0.339 C 
ATOM      4  O   UNL A   1      35.145  21.025  24.679  1.00  0.00    -0.246 OA
BRANCH   3   5
ATOM      5  C   UNL A   1      34.786  23.223  23.861  1.00  0.00     0.078 A 
ATOM      6  C   UNL A   1      33.266  25.397  23.025  1.00  0.00     0.096 A 
ATOM      7  C   UNL A   1      34.072  25.470  24.140  1.00  0.00     0.036 A 
ATOM      8  N   UNL A   1      33.263  24.270  22.286  1.00  0.00    -0.249 NA
ATOM      9  C   UNL A   1      34.806  24.386  24.597  1.00  0.00     0.020 A 
ATOM     10  C   UNL A   1      34.042  23.227  22.691  1.00  0.00     0.128 A 
BRANCH   6  11
ATOM     11  S   UNL A   1      32.206  26.689  22.438  1.00  0.00    -0.103 SA
BRANCH  11  12
ATOM     12  C   UNL A   1      31.079  27.311  23.784  1.00  0.00     0.054 C 
ATOM     13  C   UNL A   1      29.145  28.646  22.812  1.00  0.00     0.109 C 
ATOM     14  C   UNL A   1      28.128  27.721  23.502  1.00  0.00     0.020 C 
ATOM     15  C   UNL A   1      30.457  28.697  23.576  1.00  0.00     0.034 C 
ATOM     16  C   UNL A   1      28.643  26.371  24.023  1.00  0.00     0.002 C 
ATOM     17  C   UNL A   1      30.122  26.289  24.406  1.00  0.00     0.015 C 
BRANCH  13  18
ATOM     18  S   UNL A   1      28.449  30.286  22.511  1.00  0.00     0.150 S 
ATOM     19  C   UNL A   1      29.202  31.263  23.796  1.00  0.00     0.158 C 
ATOM     20  O   UNL A   1      27.027  30.251  22.785  1.00  0.00    -0.229 OA
ATOM     21  O   UNL A   1      28.940  30.782  21.240  1.00  0.00    -0.229 OA
ENDBRANCH  13  18
ENDBRANCH  11  12
ENDBRANCH   6  11
ENDBRANCH   3   5
ENDBRANCH   2   3
ENDBRANCH   1   2
BRANCH   1  22
ATOM     22  C   UNL A   1      38.292  23.488  25.942  1.00  0.00     0.275 C 
BRANCH  22  23
ATOM     23  O   UNL A   1      39.364  23.211  26.859  1.00  0.00    -0.458 OA
BRANCH  23  24
ATOM     24  C   UNL A   1      40.403  24.075  26.798  1.00  0.00     0.338 C 
ATOM     25  O   UNL A   1      41.405  23.978  26.109  1.00  0.00    -0.246 OA
BRANCH  24  26
ATOM     26  C   UNL A   1      40.108  25.274  27.595  1.00  0.00     0.060 A 
ATOM     27  C   UNL A   1      40.862  26.411  27.340  1.00  0.00     0.016 A 
ATOM     28  C   UNL A   1      39.277  25.230  28.707  1.00  0.00     0.016 A 
ATOM     29  C   UNL A   1      40.922  27.443  28.264  1.00  0.00     0.010 A 
ATOM     30  C   UNL A   1      39.223  26.342  29.561  1.00  0.00     0.010 A 
ATOM     31  C   UNL A   1      40.084  27.443  29.380  1.00  0.00    -0.014 A 
BRANCH  31  32
ATOM     32  C   UNL A   1      40.156  28.556  30.372  1.00  0.00     0.031 A 
ATOM     33  C   UNL A   1      41.196  28.516  31.463  1.00  0.00     0.074 A 
ATOM     34  C   UNL A   1      39.321  29.615  30.294  1.00  0.00     0.049 A 
ATOM     35  N   UNL A   1      41.261  29.207  32.572  1.00  0.00    -0.248 NA
ATOM     36  C   UNL A   1      42.296  27.552  31.295  1.00  0.00     0.031 C 
ATOM     37  C   UNL A   1      38.318  29.840  29.250  1.00  0.00     0.029 A 
ATOM     38  N   UNL A   1      39.185  30.711  31.112  1.00  0.00    -0.354 N 
ATOM     39  C   UNL A   1      42.352  28.703  33.270  1.00  0.00     0.074 A 
ATOM     40  C   UNL A   1      42.925  27.653  32.457  1.00  0.00     0.031 C 
ATOM     41  C   UNL A   1      37.707  31.015  29.462  1.00  0.00     0.029 A 
ATOM     42  C   UNL A   1      38.176  31.565  30.726  1.00  0.00     0.049 A 
ATOM     43  H   UNL A   1      39.754  30.872  31.899  1.00  0.00     0.167 HD
ATOM     44  C   UNL A   1      42.825  29.082  34.482  1.00  0.00     0.037 A 
ATOM     45  C   UNL A   1      37.630  32.627  31.348  1.00  0.00     0.037 A 
ATOM     46  C   UNL A   1      42.288  30.185  35.239  1.00  0.00     0.049 A 
ATOM     47  C   UNL A   1      38.143  33.012  32.705  1.00  0.00     0.074 A 
ATOM     48  C   UNL A   1      42.691  30.659  36.476  1.00  0.00     0.029 A 
ATOM     49  N   UNL A   1      41.249  31.003  34.817  1.00  0.00    -0.354 N 
ATOM     50  N   UNL A   1      39.103  32.461  33.407  1.00  0.00    -0.248 NA
ATOM     51  C   UNL A   1      37.480  34.142  33.368  1.00  0.00     0.031 C 
ATOM     52  C   UNL A   1      41.870  31.741  36.817  1.00  0.00     0.029 A 
ATOM     53  C   UNL A   1      40.991  31.972  35.771  1.00  0.00     0.049 A 
ATOM     54  H   UNL A   1      40.766  30.907  33.964  1.00  0.00     0.167 HD
ATOM     55  C   UNL A   1      39.171  33.185  34.591  1.00  0.00     0.074 A 
ATOM     56  C   UNL A   1      38.165  34.225  34.501  1.00  0.00     0.031 C 
ATOM     57  C   UNL A   1      39.990  33.004  35.656  1.00  0.00     0.037 A 
BRANCH  44  58
ATOM     58  C   UNL A   1      43.940  28.271  35.087  1.00  0.00     0.058 A 
ATOM     59  C   UNL A   1      43.705  27.174  35.931  1.00  0.00     0.135 A 
ATOM     60  C   UNL A   1      45.277  28.594  34.798  1.00  0.00     0.135 A 
ATOM     61  F   UNL A   1      42.449  26.829  36.257  1.00  0.00    -0.206 F 
ATOM     62  C   UNL A   1      44.754  26.450  36.493  1.00  0.00     0.059 A 
ATOM     63  C   UNL A   1      46.340  27.865  35.324  1.00  0.00     0.059 A 
ATOM     64  F   UNL A   1      45.564  29.632  33.996  1.00  0.00    -0.206 F 
ATOM     65  C   UNL A   1      46.068  26.805  36.186  1.00  0.00     0.060 A 
BRANCH  65  66
ATOM     66  S   UNL A   1      47.419  25.863  36.927  1.00  0.00     0.124 S 
ATOM     67  O   UNL A   1      48.527  26.807  36.815  1.00  0.00    -0.237 OA
ATOM     68  O   UNL A   1      46.928  25.622  38.280  1.00  0.00    -0.237 OA
ATOM     69  O   UNL A   1      47.516  24.680  36.079  1.00  0.00    -0.744 OA
ENDBRANCH  65  66
ENDBRANCH  44  58
BRANCH  45  70
ATOM     70  C   UNL A   1      36.489  33.348  30.718  1.00  0.00     0.058 A 
ATOM     71  C   UNL A   1      35.186  33.227  31.221  1.00  0.00     0.135 A 
ATOM     72  C   UNL A   1      36.687  34.205  29.621  1.00  0.00     0.135 A 
ATOM     73  F   UNL A   1      34.941  32.411  32.258  1.00  0.00    -0.206 F 
ATOM     74  C   UNL A   1      34.121  33.927  30.662  1.00  0.00     0.059 A 
ATOM     75  C   UNL A   1      35.645  34.939  29.066  1.00  0.00     0.059 A 
ATOM     76  F   UNL A   1      37.916  34.367  29.106  1.00  0.00    -0.206 F 
ATOM     77  C   UNL A   1      34.362  34.787  29.589  1.00  0.00     0.060 A 
BRANCH  77  78
ATOM     78  S   UNL A   1      32.987  35.743  28.913  1.00  0.00     0.124 S 
ATOM     79  O   UNL A   1      33.688  36.833  28.244  1.00  0.00    -0.237 OA
ATOM     80  O   UNL A   1      32.335  34.771  28.041  1.00  0.00    -0.237 OA
ATOM     81  O   UNL A   1      32.223  36.117  30.100  1.00  0.00    -0.744 OA
ENDBRANCH  77  78
ENDBRANCH  45  70
BRANCH  57  82
ATOM     82  C   UNL A   1      39.859  33.980  36.791  1.00  0.00     0.058 A 
ATOM     83  C   UNL A   1      40.434  35.259  36.735  1.00  0.00     0.135 A 
ATOM     84  C   UNL A   1      39.111  33.642  37.930  1.00  0.00     0.135 A 
ATOM     85  F   UNL A   1      41.167  35.626  35.673  1.00  0.00    -0.206 F 
ATOM     86  C   UNL A   1      40.289  36.162  37.782  1.00  0.00     0.059 A 
ATOM     87  C   UNL A   1      38.931  34.540  38.976  1.00  0.00     0.059 A 
ATOM     88  F   UNL A   1      38.534  32.433  38.027  1.00  0.00    -0.206 F 
ATOM     89  C   UNL A   1      39.534  35.795  38.898  1.00  0.00     0.060 A 
BRANCH  89  90
ATOM     90  S   UNL A   1      39.326  36.989  40.235  1.00  0.00     0.124 S 
ATOM     91  O   UNL A   1      38.307  36.340  41.053  1.00  0.00    -0.237 OA
ATOM     92  O   UNL A   1      40.664  37.046  40.815  1.00  0.00    -0.237 OA
ATOM     93  O   UNL A   1      38.898  38.202  39.543  1.00  0.00    -0.744 OA
ENDBRANCH  89  90
ENDBRANCH  57  82
ENDBRANCH  31  32
ENDBRANCH  24  26
ENDBRANCH  23  24
ENDBRANCH  22  23
ENDBRANCH   1  22
TORSDOF 17
ENDMDL
