MODEL 1
REMARK VINA RESULT:     -11.4      0.000      0.000
REMARK SMILES CC(C)NC(=O)c1cccc(NC(=O)[C@@H]2[C@H](C(=O)OCCOC(=O)c3ccc(-c4c5nc(c(-c6c(F)cc(S(=O)(=O)[O-])cc6F)c6ccc([nH]6)c(-c6c(F)cc(S(=O)(=O)[O-])cc6F)c6nc(c(-c7c(F)cc(S(=O)(=O)[O-])cc7F)c7ccc4[nH]7)C=C6)C=C5)cc3)C2(C)C)c1
REMARK SMILES IDX 20 1 19 2 17 3 18 4 16 5 15 6 91 7 92 8 93 9 13 10 12 11
REMARK SMILES IDX 14 13 11 14 7 15 8 16 94 17 9 18 10 19 5 20 4 21 6 23 2 24
REMARK SMILES IDX 1 25 3 26 21 27 22 28 23 29 24 30 25 31 26 32 90 33 27 34
REMARK SMILES IDX 89 35 28 36 29 37 30 38 83 39 31 40 88 41 82 42 84 43 32 44
REMARK SMILES IDX 87 45 81 46 80 47 33 49 67 50 46 51 66 52 47 53 50 54 65 55
REMARK SMILES IDX 85 56 48 57 49 58 64 60 86 61 51 62 34 63 35 64 44 65 36 66
REMARK SMILES IDX 37 67 43 68 45 69 38 70 39 71 40 72 41 73 42 74 68 75 69 76
REMARK SMILES IDX 78 77 70 78 71 79 77 80 79 81 72 82 73 83 74 84 75 85 76 86
REMARK SMILES IDX 52 87 53 88 62 89 54 90 55 91 61 92 63 93 56 94 57 95 58 96
REMARK SMILES IDX 59 97 60 98
REMARK H PARENT 12 12 4 22 84 48 50 59
REMARK Flexibility Score: inf
ROOT
ATOM      1  C   UNL A   1      33.591  31.666  27.629  1.00  0.00     0.274 C 
ENDROOT
BRANCH   1   2
ATOM      2  O   UNL A   1      33.422  30.298  27.229  1.00  0.00    -0.462 OA
BRANCH   2   3
ATOM      3  C   UNL A   1      32.536  30.085  26.212  1.00  0.00     0.310 C 
ATOM      4  O   UNL A   1      31.640  30.840  25.875  1.00  0.00    -0.252 OA
BRANCH   3   5
ATOM      5  C   UNL A   1      32.990  28.943  25.394  1.00  0.00     0.118 C 
ATOM      6  C   UNL A   1      32.656  27.524  25.733  1.00  0.00     0.100 C 
ATOM      7  C   UNL A   1      32.162  28.125  24.416  1.00  0.00    -0.009 C 
ATOM      8  C   UNL A   1      32.800  27.565  23.166  1.00  0.00     0.013 C 
ATOM      9  C   UNL A   1      30.708  28.485  24.206  1.00  0.00     0.013 C 
BRANCH   6  10
ATOM     10  C   UNL A   1      31.671  27.021  26.707  1.00  0.00     0.228 C 
ATOM     11  N   UNL A   1      31.117  25.774  26.519  1.00  0.00    -0.326 N 
ATOM     12  H   UNL A   1      30.486  25.508  27.226  1.00  0.00     0.169 HD
ATOM     13  O   UNL A   1      31.377  27.669  27.707  1.00  0.00    -0.274 OA
BRANCH  11  14
ATOM     14  C   UNL A   1      31.281  24.804  25.507  1.00  0.00     0.041 A 
ATOM     15  C   UNL A   1      32.532  22.876  24.731  1.00  0.00     0.041 A 
ATOM     16  C   UNL A   1      31.840  22.873  23.521  1.00  0.00     0.014 A 
ATOM     17  C   UNL A   1      32.289  23.858  25.701  1.00  0.00     0.040 A 
ATOM     18  C   UNL A   1      30.815  23.787  23.334  1.00  0.00     0.003 A 
ATOM     19  C   UNL A   1      30.515  24.710  24.342  1.00  0.00     0.026 A 
BRANCH  15  20
ATOM     20  C   UNL A   1      33.503  21.796  24.977  1.00  0.00     0.251 C 
ATOM     21  N   UNL A   1      34.830  22.020  24.710  1.00  0.00    -0.350 N 
ATOM     22  H   UNL A   1      35.422  21.245  24.847  1.00  0.00     0.164 HD
ATOM     23  O   UNL A   1      33.127  20.731  25.454  1.00  0.00    -0.269 OA
BRANCH  21  24
ATOM     24  C   UNL A   1      35.494  23.241  24.253  1.00  0.00     0.076 C 
ATOM     25  C   UNL A   1      36.065  24.011  25.437  1.00  0.00     0.030 C 
ATOM     26  C   UNL A   1      36.578  22.880  23.244  1.00  0.00     0.030 C 
ENDBRANCH  21  24
ENDBRANCH  15  20
ENDBRANCH  11  14
ENDBRANCH   6  10
ENDBRANCH   3   5
ENDBRANCH   2   3
ENDBRANCH   1   2
BRANCH   1  27
ATOM     27  C   UNL A   1      34.930  31.873  28.352  1.00  0.00     0.275 C 
BRANCH  27  28
ATOM     28  O   UNL A   1      35.472  30.631  28.846  1.00  0.00    -0.458 OA
BRANCH  28  29
ATOM     29  C   UNL A   1      36.412  30.753  29.817  1.00  0.00     0.338 C 
ATOM     30  O   UNL A   1      36.218  31.120  30.967  1.00  0.00    -0.246 OA
BRANCH  29  31
ATOM     31  C   UNL A   1      37.709  30.198  29.368  1.00  0.00     0.060 A 
ATOM     32  C   UNL A   1      38.688  30.000  30.345  1.00  0.00     0.016 A 
ATOM     33  C   UNL A   1      37.992  29.894  28.034  1.00  0.00     0.016 A 
ATOM     34  C   UNL A   1      39.926  29.456  30.014  1.00  0.00     0.010 A 
ATOM     35  C   UNL A   1      39.255  29.387  27.691  1.00  0.00     0.010 A 
ATOM     36  C   UNL A   1      40.224  29.160  28.682  1.00  0.00    -0.014 A 
BRANCH  36  37
ATOM     37  C   UNL A   1      41.605  28.734  28.358  1.00  0.00     0.031 A 
ATOM     38  C   UNL A   1      42.712  29.746  28.434  1.00  0.00     0.074 A 
ATOM     39  C   UNL A   1      41.883  27.442  28.109  1.00  0.00     0.049 A 
ATOM     40  N   UNL A   1      43.994  29.589  28.228  1.00  0.00    -0.248 NA
ATOM     41  C   UNL A   1      42.324  31.113  28.816  1.00  0.00     0.031 C 
ATOM     42  C   UNL A   1      40.907  26.352  28.109  1.00  0.00     0.029 A 
ATOM     43  N   UNL A   1      43.075  26.826  27.821  1.00  0.00    -0.354 N 
ATOM     44  C   UNL A   1      44.567  30.833  28.459  1.00  0.00     0.074 A 
ATOM     45  C   UNL A   1      43.492  31.737  28.807  1.00  0.00     0.031 C 
ATOM     46  C   UNL A   1      41.539  25.201  27.822  1.00  0.00     0.029 A 
ATOM     47  C   UNL A   1      42.956  25.477  27.587  1.00  0.00     0.049 A 
ATOM     48  H   UNL A   1      43.935  27.305  27.786  1.00  0.00     0.167 HD
ATOM     49  C   UNL A   1      45.871  31.187  28.385  1.00  0.00     0.037 A 
ATOM     50  C   UNL A   1      43.883  24.574  27.204  1.00  0.00     0.037 A 
ATOM     51  C   UNL A   1      46.933  30.292  28.010  1.00  0.00     0.049 A 
ATOM     52  C   UNL A   1      45.310  25.020  27.012  1.00  0.00     0.074 A 
ATOM     53  C   UNL A   1      48.281  30.565  27.871  1.00  0.00     0.029 A 
ATOM     54  N   UNL A   1      46.763  28.949  27.701  1.00  0.00    -0.354 N 
ATOM     55  N   UNL A   1      45.840  26.204  27.217  1.00  0.00    -0.248 NA
ATOM     56  C   UNL A   1      46.267  24.011  26.534  1.00  0.00     0.031 C 
ATOM     57  C   UNL A   1      48.921  29.400  27.434  1.00  0.00     0.029 A 
ATOM     58  C   UNL A   1      47.979  28.387  27.350  1.00  0.00     0.049 A 
ATOM     59  H   UNL A   1      45.905  28.468  27.729  1.00  0.00     0.167 HD
ATOM     60  C   UNL A   1      47.194  26.073  26.919  1.00  0.00     0.074 A 
ATOM     61  C   UNL A   1      47.403  24.695  26.528  1.00  0.00     0.031 C 
ATOM     62  C   UNL A   1      48.174  27.009  26.969  1.00  0.00     0.037 A 
BRANCH  49  63
ATOM     63  C   UNL A   1      46.207  32.624  28.666  1.00  0.00     0.058 A 
ATOM     64  C   UNL A   1      46.508  33.073  29.961  1.00  0.00     0.135 A 
ATOM     65  C   UNL A   1      46.230  33.563  27.622  1.00  0.00     0.135 A 
ATOM     66  F   UNL A   1      46.477  32.220  30.997  1.00  0.00    -0.206 F 
ATOM     67  C   UNL A   1      46.793  34.410  30.217  1.00  0.00     0.059 A 
ATOM     68  C   UNL A   1      46.535  34.901  27.850  1.00  0.00     0.059 A 
ATOM     69  F   UNL A   1      45.943  33.185  26.367  1.00  0.00    -0.206 F 
ATOM     70  C   UNL A   1      46.799  35.318  29.155  1.00  0.00     0.060 A 
BRANCH  70  71
ATOM     71  S   UNL A   1      47.152  37.054  29.502  1.00  0.00     0.124 S 
ATOM     72  O   UNL A   1      48.519  36.977  30.005  1.00  0.00    -0.237 OA
ATOM     73  O   UNL A   1      46.993  37.673  28.190  1.00  0.00    -0.237 OA
ATOM     74  O   UNL A   1      46.138  37.416  30.489  1.00  0.00    -0.744 OA
ENDBRANCH  70  71
ENDBRANCH  49  63
BRANCH  50  75
ATOM     75  C   UNL A   1      43.488  23.164  26.944  1.00  0.00     0.058 A 
ATOM     76  C   UNL A   1      43.297  22.688  25.639  1.00  0.00     0.135 A 
ATOM     77  C   UNL A   1      43.278  22.265  28.003  1.00  0.00     0.135 A 
ATOM     78  F   UNL A   1      43.469  23.511  24.593  1.00  0.00    -0.206 F 
ATOM     79  C   UNL A   1      42.901  21.376  25.392  1.00  0.00     0.059 A 
ATOM     80  C   UNL A   1      42.907  20.944  27.781  1.00  0.00     0.059 A 
ATOM     81  F   UNL A   1      43.450  22.670  29.271  1.00  0.00    -0.206 F 
ATOM     82  C   UNL A   1      42.710  20.511  26.471  1.00  0.00     0.060 A 
BRANCH  82  83
ATOM     83  S   UNL A   1      42.236  18.800  26.139  1.00  0.00     0.124 S 
ATOM     84  O   UNL A   1      40.836  18.951  25.758  1.00  0.00    -0.237 OA
ATOM     85  O   UNL A   1      43.153  18.429  25.066  1.00  0.00    -0.237 OA
ATOM     86  O   UNL A   1      42.474  18.132  27.416  1.00  0.00    -0.744 OA
ENDBRANCH  82  83
ENDBRANCH  50  75
BRANCH  62  87
ATOM     87  C   UNL A   1      49.572  26.573  26.627  1.00  0.00     0.058 A 
ATOM     88  C   UNL A   1      50.421  25.993  27.582  1.00  0.00     0.135 A 
ATOM     89  C   UNL A   1      50.046  26.679  25.308  1.00  0.00     0.135 A 
ATOM     90  F   UNL A   1      50.019  25.874  28.858  1.00  0.00    -0.206 F 
ATOM     91  C   UNL A   1      51.696  25.549  27.247  1.00  0.00     0.059 A 
ATOM     92  C   UNL A   1      51.307  26.219  24.945  1.00  0.00     0.059 A 
ATOM     93  F   UNL A   1      49.270  27.215  24.353  1.00  0.00    -0.206 F 
ATOM     94  C   UNL A   1      52.130  25.664  25.925  1.00  0.00     0.060 A 
BRANCH  94  95
ATOM     95  S   UNL A   1      53.771  25.046  25.492  1.00  0.00     0.124 S 
ATOM     96  O   UNL A   1      54.524  25.336  26.707  1.00  0.00    -0.237 OA
ATOM     97  O   UNL A   1      53.514  23.633  25.228  1.00  0.00    -0.237 OA
ATOM     98  O   UNL A   1      54.135  25.839  24.322  1.00  0.00    -0.744 OA
ENDBRANCH  94  95
ENDBRANCH  62  87
ENDBRANCH  36  37
ENDBRANCH  29  31
ENDBRANCH  28  29
ENDBRANCH  27  28
ENDBRANCH   1  27
TORSDOF 18
ENDMDL
MODEL 2
REMARK VINA RESULT:     -11.3      6.543     12.125
REMARK SMILES CC(C)NC(=O)c1cccc(NC(=O)[C@@H]2[C@H](C(=O)OCCOC(=O)c3ccc(-c4c5nc(c(-c6c(F)cc(S(=O)(=O)[O-])cc6F)c6ccc([nH]6)c(-c6c(F)cc(S(=O)(=O)[O-])cc6F)c6nc(c(-c7c(F)cc(S(=O)(=O)[O-])cc7F)c7ccc4[nH]7)C=C6)C=C5)cc3)C2(C)C)c1
REMARK SMILES IDX 20 1 19 2 17 3 18 4 16 5 15 6 91 7 92 8 93 9 13 10 12 11
REMARK SMILES IDX 14 13 11 14 7 15 8 16 94 17 9 18 10 19 5 20 4 21 6 23 2 24
REMARK SMILES IDX 1 25 3 26 21 27 22 28 23 29 24 30 25 31 26 32 90 33 27 34
REMARK SMILES IDX 89 35 28 36 29 37 30 38 83 39 31 40 88 41 82 42 84 43 32 44
REMARK SMILES IDX 87 45 81 46 80 47 33 49 67 50 46 51 66 52 47 53 50 54 65 55
REMARK SMILES IDX 85 56 48 57 49 58 64 60 86 61 51 62 34 63 35 64 44 65 36 66
REMARK SMILES IDX 37 67 43 68 45 69 38 70 39 71 40 72 41 73 42 74 68 75 69 76
REMARK SMILES IDX 78 77 70 78 71 79 77 80 79 81 72 82 73 83 74 84 75 85 76 86
REMARK SMILES IDX 52 87 53 88 62 89 54 90 55 91 61 92 63 93 56 94 57 95 58 96
REMARK SMILES IDX 59 97 60 98
REMARK H PARENT 12 12 4 22 84 48 50 59
REMARK Flexibility Score: inf
ROOT
ATOM      1  C   UNL A   1      39.356  21.668  26.132  1.00  0.00     0.274 C 
ENDROOT
BRANCH   1   2
ATOM      2  O   UNL A   1      38.329  22.218  25.295  1.00  0.00    -0.462 OA
BRANCH   2   3
ATOM      3  C   UNL A   1      37.144  21.541  25.290  1.00  0.00     0.310 C 
ATOM      4  O   UNL A   1      37.011  20.334  25.169  1.00  0.00    -0.252 OA
BRANCH   3   5
ATOM      5  C   UNL A   1      36.060  22.439  25.735  1.00  0.00     0.118 C 
ATOM      6  C   UNL A   1      35.319  23.337  24.793  1.00  0.00     0.100 C 
ATOM      7  C   UNL A   1      34.565  22.240  25.545  1.00  0.00    -0.009 C 
ATOM      8  C   UNL A   1      33.597  22.722  26.600  1.00  0.00     0.013 C 
ATOM      9  C   UNL A   1      34.073  20.993  24.844  1.00  0.00     0.013 C 
BRANCH   6  10
ATOM     10  C   UNL A   1      35.324  23.326  23.320  1.00  0.00     0.228 C 
ATOM     11  N   UNL A   1      34.218  23.788  22.641  1.00  0.00    -0.326 N 
ATOM     12  H   UNL A   1      34.313  23.765  21.662  1.00  0.00     0.169 HD
ATOM     13  O   UNL A   1      36.312  22.962  22.689  1.00  0.00    -0.274 OA
BRANCH  11  14
ATOM     14  C   UNL A   1      32.975  24.291  23.081  1.00  0.00     0.041 A 
ATOM     15  C   UNL A   1      31.705  26.238  23.774  1.00  0.00     0.041 A 
ATOM     16  C   UNL A   1      30.604  25.446  24.095  1.00  0.00     0.014 A 
ATOM     17  C   UNL A   1      32.898  25.664  23.313  1.00  0.00     0.040 A 
ATOM     18  C   UNL A   1      30.659  24.086  23.837  1.00  0.00     0.003 A 
ATOM     19  C   UNL A   1      31.821  23.529  23.292  1.00  0.00     0.026 A 
BRANCH  15  20
ATOM     20  C   UNL A   1      31.569  27.699  23.901  1.00  0.00     0.251 C 
ATOM     21  N   UNL A   1      31.844  28.291  25.108  1.00  0.00    -0.350 N 
ATOM     22  H   UNL A   1      31.687  29.262  25.144  1.00  0.00     0.164 HD
ATOM     23  O   UNL A   1      31.257  28.372  22.925  1.00  0.00    -0.269 OA
BRANCH  21  24
ATOM     24  C   UNL A   1      32.336  27.691  26.348  1.00  0.00     0.076 C 
ATOM     25  C   UNL A   1      33.855  27.791  26.421  1.00  0.00     0.030 C 
ATOM     26  C   UNL A   1      31.672  28.373  27.538  1.00  0.00     0.030 C 
ENDBRANCH  21  24
ENDBRANCH  15  20
ENDBRANCH  11  14
ENDBRANCH   6  10
ENDBRANCH   3   5
ENDBRANCH   2   3
ENDBRANCH   1   2
BRANCH   1  27
ATOM     27  C   UNL A   1      40.033  22.760  26.974  1.00  0.00     0.275 C 
BRANCH  27  28
ATOM     28  O   UNL A   1      39.491  24.067  26.695  1.00  0.00    -0.458 OA
BRANCH  28  29
ATOM     29  C   UNL A   1      40.408  25.038  26.457  1.00  0.00     0.338 C 
ATOM     30  O   UNL A   1      41.012  25.218  25.410  1.00  0.00    -0.246 OA
BRANCH  29  31
ATOM     31  C   UNL A   1      40.463  25.999  27.583  1.00  0.00     0.060 A 
ATOM     32  C   UNL A   1      39.423  25.944  28.515  1.00  0.00     0.016 A 
ATOM     33  C   UNL A   1      41.477  26.948  27.732  1.00  0.00     0.016 A 
ATOM     34  C   UNL A   1      39.411  26.792  29.619  1.00  0.00     0.010 A 
ATOM     35  C   UNL A   1      41.444  27.833  28.821  1.00  0.00     0.010 A 
ATOM     36  C   UNL A   1      40.413  27.753  29.772  1.00  0.00    -0.014 A 
BRANCH  36  37
ATOM     37  C   UNL A   1      40.272  28.734  30.873  1.00  0.00     0.031 A 
ATOM     38  C   UNL A   1      41.202  28.641  32.048  1.00  0.00     0.074 A 
ATOM     39  C   UNL A   1      39.405  29.757  30.774  1.00  0.00     0.049 A 
ATOM     40  N   UNL A   1      41.284  29.409  33.103  1.00  0.00    -0.248 NA
ATOM     41  C   UNL A   1      42.188  27.549  32.017  1.00  0.00     0.031 C 
ATOM     42  C   UNL A   1      38.523  30.009  29.634  1.00  0.00     0.029 A 
ATOM     43  N   UNL A   1      39.134  30.783  31.643  1.00  0.00    -0.354 N 
ATOM     44  C   UNL A   1      42.330  28.898  33.860  1.00  0.00     0.074 A 
ATOM     45  C   UNL A   1      42.844  27.746  33.151  1.00  0.00     0.031 C 
ATOM     46  C   UNL A   1      37.798  31.114  29.881  1.00  0.00     0.029 A 
ATOM     47  C   UNL A   1      38.141  31.628  31.206  1.00  0.00     0.049 A 
ATOM     48  H   UNL A   1      39.606  30.903  32.499  1.00  0.00     0.167 HD
ATOM     49  C   UNL A   1      42.814  29.348  35.041  1.00  0.00     0.037 A 
ATOM     50  C   UNL A   1      37.563  32.682  31.819  1.00  0.00     0.037 A 
ATOM     51  C   UNL A   1      42.281  30.476  35.758  1.00  0.00     0.049 A 
ATOM     52  C   UNL A   1      38.042  33.092  33.188  1.00  0.00     0.074 A 
ATOM     53  C   UNL A   1      42.680  30.988  36.979  1.00  0.00     0.029 A 
ATOM     54  N   UNL A   1      41.222  31.261  35.322  1.00  0.00    -0.354 N 
ATOM     55  N   UNL A   1      39.022  32.592  33.904  1.00  0.00    -0.248 NA
ATOM     56  C   UNL A   1      37.336  34.207  33.836  1.00  0.00     0.031 C 
ATOM     57  C   UNL A   1      41.834  32.054  37.303  1.00  0.00     0.029 A 
ATOM     58  C   UNL A   1      40.939  32.238  36.262  1.00  0.00     0.049 A 
ATOM     59  H   UNL A   1      40.743  31.140  34.470  1.00  0.00     0.167 HD
ATOM     60  C   UNL A   1      39.065  33.348  35.073  1.00  0.00     0.074 A 
ATOM     61  C   UNL A   1      38.020  34.344  34.964  1.00  0.00     0.031 C 
ATOM     62  C   UNL A   1      39.899  33.229  36.136  1.00  0.00     0.037 A 
BRANCH  49  63
ATOM     63  C   UNL A   1      43.949  28.578  35.654  1.00  0.00     0.058 A 
ATOM     64  C   UNL A   1      43.726  27.491  36.514  1.00  0.00     0.135 A 
ATOM     65  C   UNL A   1      45.278  28.933  35.374  1.00  0.00     0.135 A 
ATOM     66  F   UNL A   1      42.474  27.126  36.832  1.00  0.00    -0.206 F 
ATOM     67  C   UNL A   1      44.783  26.800  37.098  1.00  0.00     0.059 A 
ATOM     68  C   UNL A   1      46.351  28.242  35.928  1.00  0.00     0.059 A 
ATOM     69  F   UNL A   1      45.544  29.969  34.563  1.00  0.00    -0.206 F 
ATOM     70  C   UNL A   1      46.092  27.186  36.802  1.00  0.00     0.060 A 
BRANCH  70  71
ATOM     71  S   UNL A   1      47.454  26.294  37.581  1.00  0.00     0.124 S 
ATOM     72  O   UNL A   1      47.945  25.486  36.469  1.00  0.00    -0.237 OA
ATOM     73  O   UNL A   1      48.332  27.378  38.012  1.00  0.00    -0.237 OA
ATOM     74  O   UNL A   1      46.804  25.553  38.658  1.00  0.00    -0.744 OA
ENDBRANCH  70  71
ENDBRANCH  49  63
BRANCH  50  75
ATOM     75  C   UNL A   1      36.445  33.407  31.158  1.00  0.00     0.058 A 
ATOM     76  C   UNL A   1      35.129  33.309  31.634  1.00  0.00     0.135 A 
ATOM     77  C   UNL A   1      36.670  34.203  30.023  1.00  0.00     0.135 A 
ATOM     78  F   UNL A   1      34.859  32.547  32.705  1.00  0.00    -0.206 F 
ATOM     79  C   UNL A   1      34.075  33.963  31.003  1.00  0.00     0.059 A 
ATOM     80  C   UNL A   1      35.637  34.887  29.391  1.00  0.00     0.059 A 
ATOM     81  F   UNL A   1      37.911  34.333  29.529  1.00  0.00    -0.206 F 
ATOM     82  C   UNL A   1      34.340  34.752  29.881  1.00  0.00     0.060 A 
BRANCH  82  83
ATOM     83  S   UNL A   1      32.972  35.630  29.094  1.00  0.00     0.124 S 
ATOM     84  O   UNL A   1      32.137  35.964  30.243  1.00  0.00    -0.237 OA
ATOM     85  O   UNL A   1      33.653  36.750  28.453  1.00  0.00    -0.237 OA
ATOM     86  O   UNL A   1      32.418  34.636  28.179  1.00  0.00    -0.744 OA
ENDBRANCH  82  83
ENDBRANCH  50  75
BRANCH  62  87
ATOM     87  C   UNL A   1      39.743  34.220  37.257  1.00  0.00     0.058 A 
ATOM     88  C   UNL A   1      39.059  33.899  38.439  1.00  0.00     0.135 A 
ATOM     89  C   UNL A   1      40.344  35.488  37.171  1.00  0.00     0.135 A 
ATOM     90  F   UNL A   1      38.463  32.704  38.570  1.00  0.00    -0.206 F 
ATOM     91  C   UNL A   1      38.961  34.805  39.490  1.00  0.00     0.059 A 
ATOM     92  C   UNL A   1      40.280  36.400  38.219  1.00  0.00     0.059 A 
ATOM     93  F   UNL A   1      41.020  35.842  36.067  1.00  0.00    -0.206 F 
ATOM     94  C   UNL A   1      39.577  36.053  39.373  1.00  0.00     0.060 A 
BRANCH  94  95
ATOM     95  S   UNL A   1      39.478  37.205  40.760  1.00  0.00     0.124 S 
ATOM     96  O   UNL A   1      38.813  36.391  41.771  1.00  0.00    -0.237 OA
ATOM     97  O   UNL A   1      40.882  37.511  41.015  1.00  0.00    -0.237 OA
ATOM     98  O   UNL A   1      38.689  38.312  40.226  1.00  0.00    -0.744 OA
ENDBRANCH  94  95
ENDBRANCH  62  87
ENDBRANCH  36  37
ENDBRANCH  29  31
ENDBRANCH  28  29
ENDBRANCH  27  28
ENDBRANCH   1  27
TORSDOF 18
ENDMDL
MODEL 3
REMARK VINA RESULT:     -11.3      6.645     11.696
REMARK SMILES CC(C)NC(=O)c1cccc(NC(=O)[C@@H]2[C@H](C(=O)OCCOC(=O)c3ccc(-c4c5nc(c(-c6c(F)cc(S(=O)(=O)[O-])cc6F)c6ccc([nH]6)c(-c6c(F)cc(S(=O)(=O)[O-])cc6F)c6nc(c(-c7c(F)cc(S(=O)(=O)[O-])cc7F)c7ccc4[nH]7)C=C6)C=C5)cc3)C2(C)C)c1
REMARK SMILES IDX 20 1 19 2 17 3 18 4 16 5 15 6 91 7 92 8 93 9 13 10 12 11
REMARK SMILES IDX 14 13 11 14 7 15 8 16 94 17 9 18 10 19 5 20 4 21 6 23 2 24
REMARK SMILES IDX 1 25 3 26 21 27 22 28 23 29 24 30 25 31 26 32 90 33 27 34
REMARK SMILES IDX 89 35 28 36 29 37 30 38 83 39 31 40 88 41 82 42 84 43 32 44
REMARK SMILES IDX 87 45 81 46 80 47 33 49 67 50 46 51 66 52 47 53 50 54 65 55
REMARK SMILES IDX 85 56 48 57 49 58 64 60 86 61 51 62 34 63 35 64 44 65 36 66
REMARK SMILES IDX 37 67 43 68 45 69 38 70 39 71 40 72 41 73 42 74 68 75 69 76
REMARK SMILES IDX 78 77 70 78 71 79 77 80 79 81 72 82 73 83 74 84 75 85 76 86
REMARK SMILES IDX 52 87 53 88 62 89 54 90 55 91 61 92 63 93 56 94 57 95 58 96
REMARK SMILES IDX 59 97 60 98
REMARK H PARENT 12 12 4 22 84 48 50 59
REMARK Flexibility Score: inf
ROOT
ATOM      1  C   UNL A   1      39.431  21.983  26.153  1.00  0.00     0.274 C 
ENDROOT
BRANCH   1   2
ATOM      2  O   UNL A   1      38.225  22.580  25.654  1.00  0.00    -0.462 OA
BRANCH   2   3
ATOM      3  C   UNL A   1      37.168  21.730  25.492  1.00  0.00     0.310 C 
ATOM      4  O   UNL A   1      37.240  20.522  25.342  1.00  0.00    -0.252 OA
BRANCH   3   5
ATOM      5  C   UNL A   1      35.912  22.440  25.804  1.00  0.00     0.118 C 
ATOM      6  C   UNL A   1      35.138  23.202  24.774  1.00  0.00     0.100 C 
ATOM      7  C   UNL A   1      34.498  21.998  25.466  1.00  0.00    -0.009 C 
ATOM      8  C   UNL A   1      33.359  22.318  26.406  1.00  0.00     0.013 C 
ATOM      9  C   UNL A   1      34.292  20.686  24.743  1.00  0.00     0.013 C 
BRANCH   6  10
ATOM     10  C   UNL A   1      35.299  23.188  23.310  1.00  0.00     0.228 C 
ATOM     11  N   UNL A   1      34.246  23.583  22.515  1.00  0.00    -0.326 N 
ATOM     12  H   UNL A   1      34.445  23.563  21.551  1.00  0.00     0.169 HD
ATOM     13  O   UNL A   1      36.367  22.882  22.790  1.00  0.00    -0.274 OA
BRANCH  11  14
ATOM     14  C   UNL A   1      32.936  24.013  22.817  1.00  0.00     0.041 A 
ATOM     15  C   UNL A   1      31.435  25.897  23.101  1.00  0.00     0.041 A 
ATOM     16  C   UNL A   1      30.408  25.057  23.530  1.00  0.00     0.014 A 
ATOM     17  C   UNL A   1      32.703  25.388  22.789  1.00  0.00     0.040 A 
ATOM     18  C   UNL A   1      30.620  23.687  23.529  1.00  0.00     0.003 A 
ATOM     19  C   UNL A   1      31.860  23.177  23.131  1.00  0.00     0.026 A 
BRANCH  15  20
ATOM     20  C   UNL A   1      31.139  27.332  22.952  1.00  0.00     0.251 C 
ATOM     21  N   UNL A   1      31.565  28.204  23.922  1.00  0.00    -0.350 N 
ATOM     22  H   UNL A   1      31.294  29.142  23.792  1.00  0.00     0.164 HD
ATOM     23  O   UNL A   1      30.558  27.737  21.951  1.00  0.00    -0.269 OA
BRANCH  21  24
ATOM     24  C   UNL A   1      32.363  27.946  25.120  1.00  0.00     0.076 C 
ATOM     25  C   UNL A   1      33.778  28.482  24.944  1.00  0.00     0.030 C 
ATOM     26  C   UNL A   1      31.674  28.568  26.330  1.00  0.00     0.030 C 
ENDBRANCH  21  24
ENDBRANCH  15  20
ENDBRANCH  11  14
ENDBRANCH   6  10
ENDBRANCH   3   5
ENDBRANCH   2   3
ENDBRANCH   1   2
BRANCH   1  27
ATOM     27  C   UNL A   1      40.444  23.054  26.583  1.00  0.00     0.275 C 
BRANCH  27  28
ATOM     28  O   UNL A   1      39.859  24.372  26.602  1.00  0.00    -0.458 OA
BRANCH  28  29
ATOM     29  C   UNL A   1      40.717  25.393  26.350  1.00  0.00     0.338 C 
ATOM     30  O   UNL A   1      41.226  25.658  25.271  1.00  0.00    -0.246 OA
BRANCH  29  31
ATOM     31  C   UNL A   1      40.829  26.289  27.524  1.00  0.00     0.060 A 
ATOM     32  C   UNL A   1      39.853  26.159  28.517  1.00  0.00     0.016 A 
ATOM     33  C   UNL A   1      41.833  27.250  27.662  1.00  0.00     0.016 A 
ATOM     34  C   UNL A   1      39.899  26.943  29.666  1.00  0.00     0.010 A 
ATOM     35  C   UNL A   1      41.856  28.071  28.801  1.00  0.00     0.010 A 
ATOM     36  C   UNL A   1      40.891  27.915  29.810  1.00  0.00    -0.014 A 
BRANCH  36  37
ATOM     37  C   UNL A   1      40.806  28.828  30.973  1.00  0.00     0.031 A 
ATOM     38  C   UNL A   1      39.769  29.914  30.967  1.00  0.00     0.074 A 
ATOM     39  C   UNL A   1      41.565  28.622  32.064  1.00  0.00     0.049 A 
ATOM     40  N   UNL A   1      39.492  30.801  31.886  1.00  0.00    -0.248 NA
ATOM     41  C   UNL A   1      38.914  29.995  29.771  1.00  0.00     0.031 C 
ATOM     42  C   UNL A   1      42.534  27.538  32.226  1.00  0.00     0.029 A 
ATOM     43  N   UNL A   1      41.629  29.311  33.249  1.00  0.00    -0.354 N 
ATOM     44  C   UNL A   1      38.430  31.543  31.385  1.00  0.00     0.074 A 
ATOM     45  C   UNL A   1      38.121  31.012  30.075  1.00  0.00     0.031 C 
ATOM     46  C   UNL A   1      43.106  27.644  33.439  1.00  0.00     0.029 A 
ATOM     47  C   UNL A   1      42.568  28.818  34.124  1.00  0.00     0.049 A 
ATOM     48  H   UNL A   1      41.057  30.087  33.453  1.00  0.00     0.167 HD
ATOM     49  C   UNL A   1      37.775  32.575  31.966  1.00  0.00     0.037 A 
ATOM     50  C   UNL A   1      42.960  29.278  35.330  1.00  0.00     0.037 A 
ATOM     51  C   UNL A   1      38.104  33.120  33.256  1.00  0.00     0.049 A 
ATOM     52  C   UNL A   1      42.295  30.503  35.904  1.00  0.00     0.074 A 
ATOM     53  C   UNL A   1      37.522  34.188  33.915  1.00  0.00     0.029 A 
ATOM     54  N   UNL A   1      39.115  32.644  34.081  1.00  0.00    -0.354 N 
ATOM     55  N   UNL A   1      41.301  31.208  35.414  1.00  0.00    -0.248 NA
ATOM     56  C   UNL A   1      42.803  30.997  37.192  1.00  0.00     0.031 C 
ATOM     57  C   UNL A   1      38.210  34.387  35.117  1.00  0.00     0.029 A 
ATOM     58  C   UNL A   1      39.188  33.412  35.231  1.00  0.00     0.049 A 
ATOM     59  H   UNL A   1      39.693  31.874  33.878  1.00  0.00     0.167 HD
ATOM     60  C   UNL A   1      41.051  32.212  36.346  1.00  0.00     0.074 A 
ATOM     61  C   UNL A   1      41.990  32.017  37.431  1.00  0.00     0.031 C 
ATOM     62  C   UNL A   1      40.124  33.202  36.308  1.00  0.00     0.037 A 
BRANCH  49  63
ATOM     63  C   UNL A   1      36.669  33.215  31.176  1.00  0.00     0.058 A 
ATOM     64  C   UNL A   1      36.927  33.984  30.030  1.00  0.00     0.135 A 
ATOM     65  C   UNL A   1      35.332  33.054  31.572  1.00  0.00     0.135 A 
ATOM     66  F   UNL A   1      38.190  34.187  29.623  1.00  0.00    -0.206 F 
ATOM     67  C   UNL A   1      35.898  34.594  29.320  1.00  0.00     0.059 A 
ATOM     68  C   UNL A   1      34.285  33.636  30.865  1.00  0.00     0.059 A 
ATOM     69  F   UNL A   1      35.033  32.334  32.665  1.00  0.00    -0.206 F 
ATOM     70  C   UNL A   1      34.581  34.418  29.748  1.00  0.00     0.060 A 
BRANCH  70  71
ATOM     71  S   UNL A   1      33.257  35.230  28.829  1.00  0.00     0.124 S 
ATOM     72  O   UNL A   1      33.993  36.269  28.116  1.00  0.00    -0.237 OA
ATOM     73  O   UNL A   1      32.736  34.144  28.005  1.00  0.00    -0.237 OA
ATOM     74  O   UNL A   1      32.357  35.704  29.876  1.00  0.00    -0.744 OA
ENDBRANCH  70  71
ENDBRANCH  49  63
BRANCH  50  75
ATOM     75  C   UNL A   1      44.060  28.598  36.065  1.00  0.00     0.058 A 
ATOM     76  C   UNL A   1      43.809  27.505  36.908  1.00  0.00     0.135 A 
ATOM     77  C   UNL A   1      45.388  29.041  35.949  1.00  0.00     0.135 A 
ATOM     78  F   UNL A   1      42.556  27.055  37.066  1.00  0.00    -0.206 F 
ATOM     79  C   UNL A   1      44.832  26.883  37.619  1.00  0.00     0.059 A 
ATOM     80  C   UNL A   1      46.430  28.419  36.629  1.00  0.00     0.059 A 
ATOM     81  F   UNL A   1      45.682  30.081  35.153  1.00  0.00    -0.206 F 
ATOM     82  C   UNL A   1      46.141  27.347  37.471  1.00  0.00     0.060 A 
BRANCH  82  83
ATOM     83  S   UNL A   1      47.466  26.507  38.365  1.00  0.00     0.124 S 
ATOM     84  O   UNL A   1      47.070  26.727  39.752  1.00  0.00    -0.237 OA
ATOM     85  O   UNL A   1      47.348  25.138  37.876  1.00  0.00    -0.237 OA
ATOM     86  O   UNL A   1      48.666  27.219  37.932  1.00  0.00    -0.744 OA
ENDBRANCH  82  83
ENDBRANCH  50  75
BRANCH  62  87
ATOM     87  C   UNL A   1      40.050  34.133  37.486  1.00  0.00     0.058 A 
ATOM     88  C   UNL A   1      40.780  35.331  37.529  1.00  0.00     0.135 A 
ATOM     89  C   UNL A   1      39.186  33.854  38.559  1.00  0.00     0.135 A 
ATOM     90  F   UNL A   1      41.624  35.643  36.533  1.00  0.00    -0.206 F 
ATOM     91  C   UNL A   1      40.670  36.210  38.602  1.00  0.00     0.059 A 
ATOM     92  C   UNL A   1      39.041  34.730  39.629  1.00  0.00     0.059 A 
ATOM     93  F   UNL A   1      38.457  32.727  38.562  1.00  0.00    -0.206 F 
ATOM     94  C   UNL A   1      39.796  35.903  39.646  1.00  0.00     0.060 A 
BRANCH  94  95
ATOM     95  S   UNL A   1      39.630  37.072  41.013  1.00  0.00     0.124 S 
ATOM     96  O   UNL A   1      38.715  38.057  40.448  1.00  0.00    -0.237 OA
ATOM     97  O   UNL A   1      39.083  36.235  42.077  1.00  0.00    -0.237 OA
ATOM     98  O   UNL A   1      40.997  37.536  41.230  1.00  0.00    -0.744 OA
ENDBRANCH  94  95
ENDBRANCH  62  87
ENDBRANCH  36  37
ENDBRANCH  29  31
ENDBRANCH  28  29
ENDBRANCH  27  28
ENDBRANCH   1  27
TORSDOF 18
ENDMDL
